# generated using pymatgen
data_Ho8TmSi4AgB16
_symmetry_space_group_name_H-M   'P 1'
_cell_length_a   7.17057000
_cell_length_b   7.17057000
_cell_length_c   7.87981200
_cell_angle_alpha   90.00000000
_cell_angle_beta   90.00000000
_cell_angle_gamma   90.00000000
_symmetry_Int_Tables_number   1
_chemical_formula_structural   Ho8TmSi4AgB16
_chemical_formula_sum   'Ho8 Tm1 Si4 Ag1 B16'
_cell_volume   405.15687769
_cell_formula_units_Z   1
loop_
 _symmetry_equiv_pos_site_id
 _symmetry_equiv_pos_as_xyz
  1  'x, y, z'
loop_
 _atom_site_type_symbol
 _atom_site_label
 _atom_site_symmetry_multiplicity
 _atom_site_fract_x
 _atom_site_fract_y
 _atom_site_fract_z
 _atom_site_occupancy
  Ho  Ho0  1  0.681612  0.180363  0.230752  1
  Ho  Ho1  1  0.318388  0.819637  0.769248  1
  Ho  Ho2  1  0.318388  0.819637  0.230752  1
  Ho  Ho3  1  0.819637  0.681612  0.230752  1
  Ho  Ho4  1  0.819637  0.681612  0.769248  1
  Ho  Ho5  1  0.681612  0.180363  0.769248  1
  Ho  Ho6  1  0.180363  0.318388  0.769248  1
  Ho  Ho7  1  0.180363  0.318388  0.230752  1
  Tm  Tm8  1  0.500000  0.500000  0.500000  1
  Si  Si9  1  0.116726  0.614571  0.500000  1
  Si  Si10  1  0.883274  0.385429  0.500000  1
  Si  Si11  1  0.385429  0.116726  0.500000  1
  Si  Si12  1  0.614571  0.883274  0.500000  1
  Ag  Ag13  1  0.000000  0.000000  0.500000  1
  B  B14  1  0.174953  0.038437  0.000000  1
  B  B15  1  0.825047  0.961563  0.000000  1
  B  B16  1  0.961563  0.174953  0.000000  1
  B  B17  1  0.327512  0.540149  0.000000  1
  B  B18  1  0.038437  0.825047  0.000000  1
  B  B19  1  0.672488  0.459851  0.000000  1
  B  B20  1  0.540149  0.672488  0.000000  1
  B  B21  1  0.459851  0.327512  0.000000  1
  B  B22  1  0.089326  0.588606  0.000000  1
  B  B23  1  0.910674  0.411394  0.000000  1
  B  B24  1  0.411394  0.089326  0.000000  1
  B  B25  1  0.588606  0.910674  0.000000  1
  B  B26  1  0.000000  0.000000  0.158983  1
  B  B27  1  0.000000  0.000000  0.841017  1
  B  B28  1  0.500000  0.500000  0.834539  1
  B  B29  1  0.500000  0.500000  0.165461  1
