# generated using pymatgen
data_TmLuReB6
_symmetry_space_group_name_H-M   'P 1'
_cell_length_a   3.63200600
_cell_length_b   9.07976500
_cell_length_c   11.44330600
_cell_angle_alpha   90.00000000
_cell_angle_beta   90.00000000
_cell_angle_gamma   90.00000000
_symmetry_Int_Tables_number   1
_chemical_formula_structural   TmLuReB6
_chemical_formula_sum   'Tm4 Lu4 Re4 B24'
_cell_volume   377.37460984
_cell_formula_units_Z   4
loop_
 _symmetry_equiv_pos_site_id
 _symmetry_equiv_pos_as_xyz
  1  'x, y, z'
loop_
 _atom_site_type_symbol
 _atom_site_label
 _atom_site_symmetry_multiplicity
 _atom_site_fract_x
 _atom_site_fract_y
 _atom_site_fract_z
 _atom_site_occupancy
  Tm  Tm0  1  0.000000  0.323409  0.413813  1
  Tm  Tm1  1  0.000000  0.676591  0.586187  1
  Tm  Tm2  1  0.000000  0.823409  0.086187  1
  Tm  Tm3  1  0.000000  0.176591  0.913813  1
  Lu  Lu4  1  0.000000  0.944065  0.370831  1
  Lu  Lu5  1  0.000000  0.055935  0.629169  1
  Lu  Lu6  1  0.000000  0.444065  0.129169  1
  Lu  Lu7  1  0.000000  0.555935  0.870831  1
  Re  Re8  1  0.000000  0.639481  0.320433  1
  Re  Re9  1  0.000000  0.360519  0.679567  1
  Re  Re10  1  0.000000  0.139481  0.179567  1
  Re  Re11  1  0.000000  0.860519  0.820433  1
  B  B12  1  0.500000  0.553501  0.433310  1
  B  B13  1  0.500000  0.446499  0.566690  1
  B  B14  1  0.500000  0.053501  0.066690  1
  B  B15  1  0.500000  0.946499  0.933310  1
  B  B16  1  0.500000  0.750718  0.419360  1
  B  B17  1  0.500000  0.249282  0.580640  1
  B  B18  1  0.500000  0.250718  0.080640  1
  B  B19  1  0.500000  0.749282  0.919360  1
  B  B20  1  0.500000  0.793842  0.265484  1
  B  B21  1  0.500000  0.206158  0.734516  1
  B  B22  1  0.500000  0.293842  0.234516  1
  B  B23  1  0.500000  0.706158  0.765484  1
  B  B24  1  0.500000  0.630907  0.184758  1
  B  B25  1  0.500000  0.369093  0.815242  1
  B  B26  1  0.500000  0.130907  0.315242  1
  B  B27  1  0.500000  0.869093  0.684758  1
  B  B28  1  0.500000  0.981675  0.212346  1
  B  B29  1  0.500000  0.018325  0.787654  1
  B  B30  1  0.500000  0.481675  0.287654  1
  B  B31  1  0.500000  0.518325  0.712346  1
  B  B32  1  0.500000  0.599287  0.027716  1
  B  B33  1  0.500000  0.400713  0.972284  1
  B  B34  1  0.500000  0.099287  0.472284  1
  B  B35  1  0.500000  0.900713  0.527716  1
