# generated using pymatgen
data_Yb3Al12FeRu3
_symmetry_space_group_name_H-M   'P 1'
_cell_length_a   8.80523000
_cell_length_b   8.80522975
_cell_length_c   9.51849500
_cell_angle_alpha   90.00000000
_cell_angle_beta   90.00000000
_cell_angle_gamma   120.00000845
_symmetry_Int_Tables_number   1
_chemical_formula_structural   Yb3Al12FeRu3
_chemical_formula_sum   'Yb6 Al24 Fe2 Ru6'
_cell_volume   639.11686470
_cell_formula_units_Z   2
loop_
 _symmetry_equiv_pos_site_id
 _symmetry_equiv_pos_as_xyz
  1  'x, y, z'
loop_
 _atom_site_type_symbol
 _atom_site_label
 _atom_site_symmetry_multiplicity
 _atom_site_fract_x
 _atom_site_fract_y
 _atom_site_fract_z
 _atom_site_occupancy
  Yb  Yb0  1  0.804832  0.195168  0.750000  1
  Yb  Yb1  1  0.195168  0.804832  0.250000  1
  Yb  Yb2  1  0.390336  0.195168  0.750000  1
  Yb  Yb3  1  0.609664  0.804832  0.250000  1
  Yb  Yb4  1  0.804832  0.609664  0.750000  1
  Yb  Yb5  1  0.195168  0.390336  0.250000  1
  Al  Al6  1  0.666667  0.333333  0.004880  1
  Al  Al7  1  0.333333  0.666667  0.995120  1
  Al  Al8  1  0.333333  0.666667  0.504880  1
  Al  Al9  1  0.666667  0.333333  0.495120  1
  Al  Al10  1  0.842716  0.157284  0.423673  1
  Al  Al11  1  0.157284  0.842716  0.576327  1
  Al  Al12  1  0.314570  0.157284  0.423673  1
  Al  Al13  1  0.157284  0.842716  0.923673  1
  Al  Al14  1  0.685430  0.842716  0.576327  1
  Al  Al15  1  0.842716  0.157284  0.076327  1
  Al  Al16  1  0.842716  0.685430  0.423673  1
  Al  Al17  1  0.685430  0.842716  0.923673  1
  Al  Al18  1  0.157284  0.314570  0.576327  1
  Al  Al19  1  0.314570  0.157284  0.076327  1
  Al  Al20  1  0.157284  0.314570  0.923673  1
  Al  Al21  1  0.842716  0.685430  0.076327  1
  Al  Al22  1  0.438532  0.561468  0.750000  1
  Al  Al23  1  0.561468  0.438532  0.250000  1
  Al  Al24  1  0.122934  0.561468  0.750000  1
  Al  Al25  1  0.877066  0.438532  0.250000  1
  Al  Al26  1  0.438532  0.877066  0.750000  1
  Al  Al27  1  0.561468  0.122934  0.250000  1
  Al  Al28  1  0.000000  0.000000  0.750000  1
  Al  Al29  1  0.000000  0.000000  0.250000  1
  Fe  Fe30  1  0.000000  0.000000  0.000000  1
  Fe  Fe31  1  0.000000  0.000000  0.500000  1
  Ru  Ru32  1  0.500000  0.500000  0.000000  1
  Ru  Ru33  1  0.000000  0.500000  0.000000  1
  Ru  Ru34  1  0.500000  0.500000  0.500000  1
  Ru  Ru35  1  0.500000  0.000000  0.000000  1
  Ru  Ru36  1  0.000000  0.500000  0.500000  1
  Ru  Ru37  1  0.500000  0.000000  0.500000  1
