# generated using pymatgen
data_Tb9Y7MgIn3Ni4
_symmetry_space_group_name_H-M   'P 1'
_cell_length_a   9.67821043
_cell_length_b   9.62691801
_cell_length_c   9.62691771
_cell_angle_alpha   59.93888682
_cell_angle_beta   60.04134956
_cell_angle_gamma   60.04134933
_symmetry_Int_Tables_number   1
_chemical_formula_structural   Tb9Y7MgIn3Ni4
_chemical_formula_sum   'Tb9 Y7 Mg1 In3 Ni4'
_cell_volume   634.34352222
_cell_formula_units_Z   1
loop_
 _symmetry_equiv_pos_site_id
 _symmetry_equiv_pos_as_xyz
  1  'x, y, z'
loop_
 _atom_site_type_symbol
 _atom_site_label
 _atom_site_symmetry_multiplicity
 _atom_site_fract_x
 _atom_site_fract_y
 _atom_site_fract_z
 _atom_site_occupancy
  Tb  Tb0  1  0.436300  0.062961  0.062961  1
  Tb  Tb1  1  0.436947  0.064579  0.437642  1
  Tb  Tb2  1  0.061336  0.440310  0.060777  1
  Tb  Tb3  1  0.436947  0.437642  0.064579  1
  Tb  Tb4  1  0.061336  0.060777  0.440310  1
  Tb  Tb5  1  0.594722  0.595554  0.595554  1
  Tb  Tb6  1  0.597957  0.596003  0.207750  1
  Tb  Tb7  1  0.597957  0.207750  0.596003  1
  Tb  Tb8  1  0.203612  0.598510  0.598510  1
  Y  Y9  1  0.187347  0.814279  0.814279  1
  Y  Y10  1  0.813282  0.187656  0.187656  1
  Y  Y11  1  0.813232  0.186316  0.813835  1
  Y  Y12  1  0.186524  0.813361  0.187300  1
  Y  Y13  1  0.813232  0.813835  0.186316  1
  Y  Y14  1  0.186524  0.187300  0.813361  1
  Y  Y15  1  0.058318  0.441292  0.441292  1
  Mg  Mg16  1  0.519826  0.826318  0.826318  1
  In  In17  1  0.833669  0.832589  0.832589  1
  In  In18  1  0.831936  0.831824  0.503031  1
  In  In19  1  0.831936  0.503031  0.831824  1
  Ni  Ni20  1  0.393953  0.392160  0.392160  1
  Ni  Ni21  1  0.389837  0.392008  0.823296  1
  Ni  Ni22  1  0.389837  0.823296  0.392008  1
  Ni  Ni23  1  0.823435  0.390649  0.390649  1
