# generated using pymatgen
data_Pr7Nd9Cd4IrRu3
_symmetry_space_group_name_H-M   'P 1'
_cell_length_a   9.94726113
_cell_length_b   9.97735414
_cell_length_c   9.95965600
_cell_angle_alpha   60.05866054
_cell_angle_beta   59.95877215
_cell_angle_gamma   60.03434541
_symmetry_Int_Tables_number   1
_chemical_formula_structural   Pr7Nd9Cd4IrRu3
_chemical_formula_sum   'Pr7 Nd9 Cd4 Ir1 Ru3'
_cell_volume   699.22576606
_cell_formula_units_Z   1
loop_
 _symmetry_equiv_pos_site_id
 _symmetry_equiv_pos_as_xyz
  1  'x, y, z'
loop_
 _atom_site_type_symbol
 _atom_site_label
 _atom_site_symmetry_multiplicity
 _atom_site_fract_x
 _atom_site_fract_y
 _atom_site_fract_z
 _atom_site_occupancy
  Pr  Pr0  1  0.811258  0.808072  0.190335  1
  Pr  Pr1  1  0.939958  0.559821  0.560641  1
  Pr  Pr2  1  0.559884  0.939315  0.938972  1
  Pr  Pr3  1  0.559884  0.939315  0.561829  1
  Pr  Pr4  1  0.939958  0.559821  0.939581  1
  Pr  Pr5  1  0.559854  0.561045  0.939551  1
  Pr  Pr6  1  0.939465  0.939248  0.560644  1
  Nd  Nd7  1  0.344569  0.347627  0.347255  1
  Nd  Nd8  1  0.344569  0.347627  0.960547  1
  Nd  Nd9  1  0.344355  0.960786  0.347429  1
  Nd  Nd10  1  0.962266  0.345902  0.345916  1
  Nd  Nd11  1  0.811570  0.190213  0.190075  1
  Nd  Nd12  1  0.191267  0.809911  0.809267  1
  Nd  Nd13  1  0.191267  0.809911  0.189555  1
  Nd  Nd14  1  0.811570  0.190213  0.808144  1
  Nd  Nd15  1  0.190636  0.189366  0.809999  1
  Cd  Cd16  1  0.579180  0.579303  0.579668  1
  Cd  Cd17  1  0.579180  0.579303  0.261847  1
  Cd  Cd18  1  0.579371  0.262032  0.579297  1
  Cd  Cd19  1  0.261744  0.579521  0.579367  1
  Ir  Ir20  1  0.578325  0.141424  0.140126  1
  Ru  Ru21  1  0.139770  0.138062  0.138091  1
  Ru  Ru22  1  0.139770  0.138062  0.584077  1
  Ru  Ru23  1  0.140326  0.584099  0.137787  1
