# generated using pymatgen
data_RbTm(SeO3)2
_symmetry_space_group_name_H-M   'P 1'
_cell_length_a   5.71514300
_cell_length_b   8.72655600
_cell_length_c   13.67714400
_cell_angle_alpha   90.00000000
_cell_angle_beta   90.00000000
_cell_angle_gamma   90.00000000
_symmetry_Int_Tables_number   1
_chemical_formula_structural   RbTm(SeO3)2
_chemical_formula_sum   'Rb4 Tm4 Se8 O24'
_cell_volume   682.12725243
_cell_formula_units_Z   4
loop_
 _symmetry_equiv_pos_site_id
 _symmetry_equiv_pos_as_xyz
  1  'x, y, z'
loop_
 _atom_site_type_symbol
 _atom_site_label
 _atom_site_symmetry_multiplicity
 _atom_site_fract_x
 _atom_site_fract_y
 _atom_site_fract_z
 _atom_site_occupancy
  Rb  Rb0  1  0.250000  0.992469  0.626866  1
  Rb  Rb1  1  0.250000  0.507531  0.126866  1
  Rb  Rb2  1  0.750000  0.007531  0.373134  1
  Rb  Rb3  1  0.750000  0.492469  0.873134  1
  Tm  Tm4  1  0.250000  0.808810  0.899168  1
  Tm  Tm5  1  0.250000  0.691190  0.399168  1
  Tm  Tm6  1  0.750000  0.191190  0.100832  1
  Tm  Tm7  1  0.750000  0.308810  0.600832  1
  Se  Se8  1  0.750000  0.019010  0.799073  1
  Se  Se9  1  0.750000  0.480990  0.299073  1
  Se  Se10  1  0.250000  0.980990  0.200927  1
  Se  Se11  1  0.250000  0.519010  0.700927  1
  Se  Se12  1  0.750000  0.714604  0.563937  1
  Se  Se13  1  0.750000  0.785396  0.063937  1
  Se  Se14  1  0.250000  0.285396  0.436063  1
  Se  Se15  1  0.250000  0.214604  0.936063  1
  O  O16  1  0.983228  0.894898  0.795055  1
  O  O17  1  0.516772  0.605102  0.295055  1
  O  O18  1  0.483228  0.105102  0.204945  1
  O  O19  1  0.016772  0.394898  0.704945  1
  O  O20  1  0.016772  0.105102  0.204945  1
  O  O21  1  0.483228  0.394898  0.704945  1
  O  O22  1  0.516772  0.894898  0.795055  1
  O  O23  1  0.983228  0.605102  0.295055  1
  O  O24  1  0.750000  0.085464  0.679907  1
  O  O25  1  0.750000  0.414536  0.179907  1
  O  O26  1  0.250000  0.914536  0.320093  1
  O  O27  1  0.250000  0.585464  0.820093  1
  O  O28  1  0.983752  0.790004  0.500164  1
  O  O29  1  0.516248  0.709996  0.000164  1
  O  O30  1  0.483752  0.209996  0.499836  1
  O  O31  1  0.016248  0.290004  0.999836  1
  O  O32  1  0.016248  0.209996  0.499836  1
  O  O33  1  0.483752  0.290004  0.999836  1
  O  O34  1  0.516248  0.790004  0.500164  1
  O  O35  1  0.983752  0.709996  0.000164  1
  O  O36  1  0.750000  0.528873  0.524826  1
  O  O37  1  0.750000  0.971127  0.024826  1
  O  O38  1  0.250000  0.471127  0.475174  1
  O  O39  1  0.250000  0.028873  0.975174  1
