# generated using pymatgen
data_Ta16GaNi7N4
_symmetry_space_group_name_H-M   'P 1'
_cell_length_a   8.22616894
_cell_length_b   8.22140463
_cell_length_c   8.22140500
_cell_angle_alpha   60.00000255
_cell_angle_beta   60.01915931
_cell_angle_gamma   60.01916123
_symmetry_Int_Tables_number   1
_chemical_formula_structural   Ta16GaNi7N4
_chemical_formula_sum   'Ta16 Ga1 Ni7 N4'
_cell_volume   393.27869063
_cell_formula_units_Z   1
loop_
 _symmetry_equiv_pos_site_id
 _symmetry_equiv_pos_as_xyz
  1  'x, y, z'
loop_
 _atom_site_type_symbol
 _atom_site_label
 _atom_site_symmetry_multiplicity
 _atom_site_fract_x
 _atom_site_fract_y
 _atom_site_fract_z
 _atom_site_occupancy
  Ta  Ta0  1  0.125655  0.624782  0.624782  1
  Ta  Ta1  1  0.616999  0.119534  0.631733  1
  Ta  Ta2  1  0.616999  0.631733  0.119534  1
  Ta  Ta3  1  0.616999  0.631733  0.631733  1
  Ta  Ta4  1  0.814632  0.812887  0.186241  1
  Ta  Ta5  1  0.181851  0.183185  0.817482  1
  Ta  Ta6  1  0.814632  0.186241  0.812887  1
  Ta  Ta7  1  0.181851  0.817482  0.183185  1
  Ta  Ta8  1  0.181851  0.817482  0.817482  1
  Ta  Ta9  1  0.814632  0.186241  0.186241  1
  Ta  Ta10  1  0.432863  0.433364  0.066886  1
  Ta  Ta11  1  0.068277  0.057966  0.436878  1
  Ta  Ta12  1  0.432863  0.066886  0.433364  1
  Ta  Ta13  1  0.068277  0.436878  0.057966  1
  Ta  Ta14  1  0.068277  0.436878  0.436878  1
  Ta  Ta15  1  0.432863  0.066886  0.066886  1
  Ga  Ga16  1  0.762219  0.412594  0.412594  1
  Ni  Ni17  1  0.422258  0.741312  0.418215  1
  Ni  Ni18  1  0.422258  0.418215  0.741312  1
  Ni  Ni19  1  0.422258  0.418215  0.418215  1
  Ni  Ni20  1  0.507065  0.830978  0.830978  1
  Ni  Ni21  1  0.830943  0.508491  0.830283  1
  Ni  Ni22  1  0.830943  0.830283  0.508491  1
  Ni  Ni23  1  0.830943  0.830283  0.830283  1
  N  N24  1  0.625927  0.124691  0.124691  1
  N  N25  1  0.125221  0.623428  0.125675  1
  N  N26  1  0.125221  0.125675  0.623428  1
  N  N27  1  0.125221  0.125675  0.125675  1
