# generated using pymatgen
data_Rb2Cu3SnF12
_symmetry_space_group_name_H-M   'P 1'
_cell_length_a   7.00253900
_cell_length_b   8.09381793
_cell_length_c   10.68518558
_cell_angle_alpha   99.99397933
_cell_angle_beta   90.00000000
_cell_angle_gamma   90.00000000
_symmetry_Int_Tables_number   1
_chemical_formula_structural   Rb2Cu3SnF12
_chemical_formula_sum   'Rb4 Cu6 Sn2 F24'
_cell_volume   596.41772182
_cell_formula_units_Z   2
loop_
 _symmetry_equiv_pos_site_id
 _symmetry_equiv_pos_as_xyz
  1  'x, y, z'
loop_
 _atom_site_type_symbol
 _atom_site_label
 _atom_site_symmetry_multiplicity
 _atom_site_fract_x
 _atom_site_fract_y
 _atom_site_fract_z
 _atom_site_occupancy
  Rb  Rb0  1  0.494046  0.714769  0.395867  1
  Rb  Rb1  1  0.005954  0.214769  0.895867  1
  Rb  Rb2  1  0.505954  0.285231  0.604133  1
  Rb  Rb3  1  0.994046  0.785231  0.104133  1
  Cu  Cu4  1  0.500000  0.000000  0.000000  1
  Cu  Cu5  1  0.000000  0.500000  0.500000  1
  Cu  Cu6  1  0.222187  0.744215  0.760113  1
  Cu  Cu7  1  0.277813  0.244215  0.260113  1
  Cu  Cu8  1  0.777813  0.255785  0.239887  1
  Cu  Cu9  1  0.722187  0.755785  0.739887  1
  Sn  Sn10  1  0.500000  0.500000  0.000000  1
  Sn  Sn11  1  0.000000  0.000000  0.500000  1
  F  F12  1  0.276453  0.923696  0.900091  1
  F  F13  1  0.223547  0.423696  0.400091  1
  F  F14  1  0.723547  0.076304  0.099909  1
  F  F15  1  0.776453  0.576304  0.599909  1
  F  F16  1  0.828684  0.460374  0.356272  1
  F  F17  1  0.671316  0.960374  0.856272  1
  F  F18  1  0.171316  0.539626  0.643728  1
  F  F19  1  0.328684  0.039626  0.143728  1
  F  F20  1  0.463712  0.747232  0.676353  1
  F  F21  1  0.036288  0.247232  0.176353  1
  F  F22  1  0.536288  0.252768  0.323647  1
  F  F23  1  0.963712  0.752768  0.823647  1
  F  F24  1  0.753181  0.932452  0.572288  1
  F  F25  1  0.746819  0.432452  0.072288  1
  F  F26  1  0.246820  0.067548  0.427712  1
  F  F27  1  0.253180  0.567548  0.927712  1
  F  F28  1  0.364930  0.494861  0.164530  1
  F  F29  1  0.135070  0.994861  0.664530  1
  F  F30  1  0.635070  0.505139  0.835470  1
  F  F31  1  0.864930  0.005139  0.335470  1
  F  F32  1  0.426433  0.260704  0.934689  1
  F  F33  1  0.073567  0.760704  0.434689  1
  F  F34  1  0.573567  0.739296  0.065311  1
  F  F35  1  0.926433  0.239296  0.565311  1
