# generated using pymatgen
data_CaCe3(B4Os)4
_symmetry_space_group_name_H-M   'P 1'
_cell_length_a   3.61326800
_cell_length_b   6.01287794
_cell_length_c   11.64212113
_cell_angle_alpha   89.96861409
_cell_angle_beta   90.00000000
_cell_angle_gamma   90.00000000
_symmetry_Int_Tables_number   1
_chemical_formula_structural   CaCe3(B4Os)4
_chemical_formula_sum   'Ca1 Ce3 B16 Os4'
_cell_volume   252.93830912
_cell_formula_units_Z   1
loop_
 _symmetry_equiv_pos_site_id
 _symmetry_equiv_pos_as_xyz
  1  'x, y, z'
loop_
 _atom_site_type_symbol
 _atom_site_label
 _atom_site_symmetry_multiplicity
 _atom_site_fract_x
 _atom_site_fract_y
 _atom_site_fract_z
 _atom_site_occupancy
  Ca  Ca0  1  0.000000  0.871604  0.850944  1
  Ce  Ce1  1  0.000000  0.628358  0.350374  1
  Ce  Ce2  1  0.000000  0.371724  0.651882  1
  Ce  Ce3  1  0.000000  0.127694  0.148209  1
  B  B4  1  0.500000  0.786697  0.184496  1
  B  B5  1  0.500000  0.215062  0.814671  1
  B  B6  1  0.500000  0.286211  0.313703  1
  B  B7  1  0.500000  0.714496  0.685856  1
  B  B8  1  0.500000  0.862541  0.030501  1
  B  B9  1  0.500000  0.138327  0.968770  1
  B  B10  1  0.500000  0.362152  0.469282  1
  B  B11  1  0.500000  0.636554  0.531799  1
  B  B12  1  0.500000  0.887768  0.454571  1
  B  B13  1  0.500000  0.110436  0.547009  1
  B  B14  1  0.500000  0.389015  0.044192  1
  B  B15  1  0.500000  0.614190  0.952716  1
  B  B16  1  0.500000  0.972870  0.309670  1
  B  B17  1  0.500000  0.026526  0.690838  1
  B  B18  1  0.500000  0.472305  0.189551  1
  B  B19  1  0.500000  0.525182  0.809852  1
  Os  Os20  1  0.000000  0.638913  0.094581  1
  Os  Os21  1  0.000000  0.360262  0.908444  1
  Os  Os22  1  0.000000  0.141375  0.405505  1
  Os  Os23  1  0.000000  0.859740  0.592582  1
