# generated using pymatgen
data_Ho5Zr3P12(IrRh3)4
_symmetry_space_group_name_H-M   'P 1'
_cell_length_a   12.89360300
_cell_length_b   12.89360297
_cell_length_c   3.93220900
_cell_angle_alpha   90.00000000
_cell_angle_beta   90.00000000
_cell_angle_gamma   119.99999751
_symmetry_Int_Tables_number   1
_chemical_formula_structural   Ho5Zr3P12(IrRh3)4
_chemical_formula_sum   'Ho5 Zr3 P12 Ir4 Rh12'
_cell_volume   566.12954775
_cell_formula_units_Z   1
loop_
 _symmetry_equiv_pos_site_id
 _symmetry_equiv_pos_as_xyz
  1  'x, y, z'
loop_
 _atom_site_type_symbol
 _atom_site_label
 _atom_site_symmetry_multiplicity
 _atom_site_fract_x
 _atom_site_fract_y
 _atom_site_fract_z
 _atom_site_occupancy
  Ho  Ho0  1  0.333333  0.666667  0.000000  1
  Ho  Ho1  1  0.666667  0.333333  0.000000  1
  Ho  Ho2  1  0.813942  0.000000  0.500000  1
  Ho  Ho3  1  0.000000  0.813942  0.500000  1
  Ho  Ho4  1  0.186058  0.186058  0.500000  1
  Zr  Zr5  1  0.447143  0.000000  0.000000  1
  Zr  Zr6  1  0.000000  0.447143  0.000000  1
  Zr  Zr7  1  0.552857  0.552857  0.000000  1
  P  P8  1  0.175550  0.000000  0.000000  1
  P  P9  1  0.000000  0.175550  0.000000  1
  P  P10  1  0.824450  0.824450  0.000000  1
  P  P11  1  0.169178  0.482638  0.500000  1
  P  P12  1  0.517362  0.686539  0.500000  1
  P  P13  1  0.313461  0.830822  0.500000  1
  P  P14  1  0.686539  0.517362  0.500000  1
  P  P15  1  0.830822  0.313461  0.500000  1
  P  P16  1  0.482638  0.169178  0.500000  1
  P  P17  1  0.648884  0.000000  0.000000  1
  P  P18  1  0.000000  0.648884  0.000000  1
  P  P19  1  0.351116  0.351116  0.000000  1
  Ir  Ir20  1  0.276799  0.000000  0.500000  1
  Ir  Ir21  1  0.000000  0.276799  0.500000  1
  Ir  Ir22  1  0.723201  0.723201  0.500000  1
  Ir  Ir23  1  0.000000  0.000000  0.000000  1
  Rh  Rh24  1  0.355671  0.488216  0.500000  1
  Rh  Rh25  1  0.511784  0.867454  0.500000  1
  Rh  Rh26  1  0.132546  0.644329  0.500000  1
  Rh  Rh27  1  0.867454  0.511784  0.500000  1
  Rh  Rh28  1  0.644329  0.132546  0.500000  1
  Rh  Rh29  1  0.488216  0.355671  0.500000  1
  Rh  Rh30  1  0.178536  0.373330  0.000000  1
  Rh  Rh31  1  0.626670  0.805207  0.000000  1
  Rh  Rh32  1  0.194793  0.821464  0.000000  1
  Rh  Rh33  1  0.805207  0.626670  0.000000  1
  Rh  Rh34  1  0.821464  0.194793  0.000000  1
  Rh  Rh35  1  0.373330  0.178536  0.000000  1
