# generated using pymatgen
data_TmThWC2
_symmetry_space_group_name_H-M   'P 1'
_cell_length_a   5.23561000
_cell_length_b   6.76159600
_cell_length_c   9.93749000
_cell_angle_alpha   90.00000000
_cell_angle_beta   90.00000000
_cell_angle_gamma   90.00000000
_symmetry_Int_Tables_number   1
_chemical_formula_structural   TmThWC2
_chemical_formula_sum   'Tm4 Th4 W4 C8'
_cell_volume   351.79787485
_cell_formula_units_Z   4
loop_
 _symmetry_equiv_pos_site_id
 _symmetry_equiv_pos_as_xyz
  1  'x, y, z'
loop_
 _atom_site_type_symbol
 _atom_site_label
 _atom_site_symmetry_multiplicity
 _atom_site_fract_x
 _atom_site_fract_y
 _atom_site_fract_z
 _atom_site_occupancy
  Tm  Tm0  1  0.250000  0.832240  0.056840  1
  Tm  Tm1  1  0.750000  0.667760  0.556840  1
  Tm  Tm2  1  0.250000  0.332240  0.443160  1
  Tm  Tm3  1  0.750000  0.167760  0.943160  1
  Th  Th4  1  0.250000  0.461502  0.787405  1
  Th  Th5  1  0.750000  0.038498  0.287405  1
  Th  Th6  1  0.250000  0.961502  0.712595  1
  Th  Th7  1  0.750000  0.538498  0.212595  1
  W  W8  1  0.250000  0.282707  0.130848  1
  W  W9  1  0.750000  0.217293  0.630848  1
  W  W10  1  0.250000  0.782707  0.369152  1
  W  W11  1  0.750000  0.717293  0.869152  1
  C  C12  1  0.250000  0.164703  0.945565  1
  C  C13  1  0.750000  0.835297  0.054435  1
  C  C14  1  0.250000  0.664703  0.554435  1
  C  C15  1  0.750000  0.335297  0.445565  1
  C  C16  1  0.250000  0.051867  0.260996  1
  C  C17  1  0.750000  0.448133  0.760996  1
  C  C18  1  0.250000  0.551867  0.239004  1
  C  C19  1  0.750000  0.948133  0.739004  1
