# generated using pymatgen
data_Ta6Al5GaFe12
_symmetry_space_group_name_H-M   'P 1'
_cell_length_a   4.18174500
_cell_length_b   5.91519000
_cell_length_c   12.54496400
_cell_angle_alpha   90.00000000
_cell_angle_beta   89.99824620
_cell_angle_gamma   90.00000000
_symmetry_Int_Tables_number   1
_chemical_formula_structural   Ta6Al5GaFe12
_chemical_formula_sum   'Ta6 Al5 Ga1 Fe12'
_cell_volume   310.30992375
_cell_formula_units_Z   1
loop_
 _symmetry_equiv_pos_site_id
 _symmetry_equiv_pos_as_xyz
  1  'x, y, z'
loop_
 _atom_site_type_symbol
 _atom_site_label
 _atom_site_symmetry_multiplicity
 _atom_site_fract_x
 _atom_site_fract_y
 _atom_site_fract_z
 _atom_site_occupancy
  Ta  Ta0  1  0.000000  0.000000  0.000000  1
  Ta  Ta1  1  0.500143  0.500000  0.166449  1
  Ta  Ta2  1  0.000118  0.000000  0.333270  1
  Ta  Ta3  1  0.500000  0.500000  0.500000  1
  Ta  Ta4  1  0.999882  0.000000  0.666730  1
  Ta  Ta5  1  0.499857  0.500000  0.833551  1
  Al  Al6  1  0.500107  0.000000  0.166684  1
  Al  Al7  1  0.000079  0.500000  0.333317  1
  Al  Al8  1  0.500000  0.000000  0.500000  1
  Al  Al9  1  0.999921  0.500000  0.666683  1
  Al  Al10  1  0.499893  0.000000  0.833317  1
  Ga  Ga11  1  0.000000  0.500000  0.000000  1
  Fe  Fe12  1  0.500000  0.248326  0.000000  1
  Fe  Fe13  1  0.500000  0.751675  0.000000  1
  Fe  Fe14  1  0.000172  0.249321  0.167242  1
  Fe  Fe15  1  0.000172  0.750680  0.167242  1
  Fe  Fe16  1  0.500155  0.250186  0.333246  1
  Fe  Fe17  1  0.500155  0.749815  0.333246  1
  Fe  Fe18  1  0.000000  0.250114  0.500000  1
  Fe  Fe19  1  0.000000  0.749887  0.500000  1
  Fe  Fe20  1  0.499844  0.250186  0.666753  1
  Fe  Fe21  1  0.499844  0.749815  0.666753  1
  Fe  Fe22  1  0.999828  0.249321  0.832759  1
  Fe  Fe23  1  0.999828  0.750680  0.832759  1
