# generated using pymatgen
data_Pa2Al16OsPt8
_symmetry_space_group_name_H-M   'P 1'
_cell_length_a   11.12011204
_cell_length_b   11.12011278
_cell_length_c   11.12011240
_cell_angle_alpha   158.62443634
_cell_angle_beta   115.67948414
_cell_angle_gamma   68.62024818
_symmetry_Int_Tables_number   1
_chemical_formula_structural   Pa2Al16OsPt8
_chemical_formula_sum   'Pa2 Al16 Os1 Pt8'
_cell_volume   448.49535128
_cell_formula_units_Z   1
loop_
 _symmetry_equiv_pos_site_id
 _symmetry_equiv_pos_as_xyz
  1  'x, y, z'
loop_
 _atom_site_type_symbol
 _atom_site_label
 _atom_site_symmetry_multiplicity
 _atom_site_fract_x
 _atom_site_fract_y
 _atom_site_fract_z
 _atom_site_occupancy
  Pa  Pa0  1  0.229162  0.228415  0.000747  1
  Pa  Pa1  1  0.772332  0.771585  0.000747  1
  Al  Al2  1  0.273215  0.390451  0.882764  1
  Al  Al3  1  0.092069  0.926109  0.165960  1
  Al  Al4  1  0.502770  0.199982  0.302788  1
  Al  Al5  1  0.239851  0.073891  0.165960  1
  Al  Al6  1  0.909238  0.416336  0.492903  1
  Al  Al7  1  0.728579  0.603252  0.125327  1
  Al  Al8  1  0.898720  0.207280  0.691441  1
  Al  Al9  1  0.484162  0.792720  0.691441  1
  Al  Al10  1  0.396216  0.000000  0.396216  1
  Al  Al11  1  0.625715  0.000000  0.625715  1
  Al  Al12  1  0.492314  0.609549  0.882764  1
  Al  Al13  1  0.102807  0.800018  0.302788  1
  Al  Al14  1  0.903077  0.083824  0.819253  1
  Al  Al15  1  0.735429  0.916176  0.819253  1
  Al  Al16  1  0.522074  0.396748  0.125327  1
  Al  Al17  1  0.076567  0.583664  0.492903  1
  Os  Os18  1  0.772781  0.500000  0.272781  1
  Pt  Pt19  1  0.018385  0.342108  0.676277  1
  Pt  Pt20  1  0.634733  0.131129  0.503604  1
  Pt  Pt21  1  0.263511  0.500000  0.763511  1
  Pt  Pt22  1  0.372474  0.868871  0.503604  1
  Pt  Pt23  1  0.982033  0.000000  0.982033  1
  Pt  Pt24  1  0.652937  0.334128  0.318808  1
  Pt  Pt25  1  0.334170  0.657892  0.676277  1
  Pt  Pt26  1  0.984680  0.665872  0.318808  1
