# generated using pymatgen
data_NdCu2PdPtAu
_symmetry_space_group_name_H-M   'P 1'
_cell_length_a   5.14963112
_cell_length_b   5.26025174
_cell_length_c   5.23645479
_cell_angle_alpha   63.45356858
_cell_angle_beta   60.54696083
_cell_angle_gamma   60.69324160
_symmetry_Int_Tables_number   1
_chemical_formula_structural   NdCu2PdPtAu
_chemical_formula_sum   'Nd1 Cu2 Pd1 Pt1 Au1'
_cell_volume   103.65707281
_cell_formula_units_Z   1
loop_
 _symmetry_equiv_pos_site_id
 _symmetry_equiv_pos_as_xyz
  1  'x, y, z'
loop_
 _atom_site_type_symbol
 _atom_site_label
 _atom_site_symmetry_multiplicity
 _atom_site_fract_x
 _atom_site_fract_y
 _atom_site_fract_z
 _atom_site_occupancy
  Nd  Nd0  1  0.997992  0.001196  0.002820  1
  Cu  Cu1  1  0.129174  0.619299  0.618994  1
  Cu  Cu2  1  0.632533  0.619299  0.618994  1
  Pd  Pd3  1  0.625827  0.124976  0.623371  1
  Pt  Pt4  1  0.626446  0.624041  0.123066  1
  Au  Au5  1  0.238028  0.261189  0.262755  1
