# generated using pymatgen
data_Sc5V3Si3P9Ir16
_symmetry_space_group_name_H-M   'P 1'
_cell_length_a   12.62839200
_cell_length_b   12.62839176
_cell_length_c   3.90547400
_cell_angle_alpha   90.00000000
_cell_angle_beta   90.00000000
_cell_angle_gamma   120.00000064
_symmetry_Int_Tables_number   1
_chemical_formula_structural   Sc5V3Si3P9Ir16
_chemical_formula_sum   'Sc5 V3 Si3 P9 Ir16'
_cell_volume   539.38700646
_cell_formula_units_Z   1
loop_
 _symmetry_equiv_pos_site_id
 _symmetry_equiv_pos_as_xyz
  1  'x, y, z'
loop_
 _atom_site_type_symbol
 _atom_site_label
 _atom_site_symmetry_multiplicity
 _atom_site_fract_x
 _atom_site_fract_y
 _atom_site_fract_z
 _atom_site_occupancy
  Sc  Sc0  1  0.333333  0.666667  0.000000  1
  Sc  Sc1  1  0.666667  0.333333  0.000000  1
  Sc  Sc2  1  0.809168  0.998326  0.500000  1
  Sc  Sc3  1  0.001674  0.810842  0.500000  1
  Sc  Sc4  1  0.189158  0.190832  0.500000  1
  V  V5  1  0.449229  0.004891  0.000000  1
  V  V6  1  0.995109  0.444338  0.000000  1
  V  V7  1  0.555662  0.550771  0.000000  1
  Si  Si8  1  0.167589  0.483615  0.500000  1
  Si  Si9  1  0.516385  0.683973  0.500000  1
  Si  Si10  1  0.316027  0.832411  0.500000  1
  P  P11  1  0.176662  0.001146  0.000000  1
  P  P12  1  0.998854  0.175516  0.000000  1
  P  P13  1  0.824484  0.823338  0.000000  1
  P  P14  1  0.686735  0.517676  0.500000  1
  P  P15  1  0.830940  0.313265  0.500000  1
  P  P16  1  0.482324  0.169060  0.500000  1
  P  P17  1  0.633342  0.995847  0.000000  1
  P  P18  1  0.004153  0.637495  0.000000  1
  P  P19  1  0.362505  0.366658  0.000000  1
  Ir  Ir20  1  0.359168  0.483531  0.500000  1
  Ir  Ir21  1  0.516469  0.875637  0.500000  1
  Ir  Ir22  1  0.124363  0.640832  0.500000  1
  Ir  Ir23  1  0.863262  0.503967  0.500000  1
  Ir  Ir24  1  0.640705  0.136738  0.500000  1
  Ir  Ir25  1  0.496033  0.359295  0.500000  1
  Ir  Ir26  1  0.176880  0.371316  0.000000  1
  Ir  Ir27  1  0.628684  0.805565  0.000000  1
  Ir  Ir28  1  0.194435  0.823120  0.000000  1
  Ir  Ir29  1  0.812861  0.629029  0.000000  1
  Ir  Ir30  1  0.816169  0.187139  0.000000  1
  Ir  Ir31  1  0.370971  0.183831  0.000000  1
  Ir  Ir32  1  0.280299  0.004523  0.500000  1
  Ir  Ir33  1  0.995477  0.275776  0.500000  1
  Ir  Ir34  1  0.724224  0.719701  0.500000  1
  Ir  Ir35  1  0.000000  0.000000  0.000000  1
