# generated using pymatgen
data_Ho6VB14Os
_symmetry_space_group_name_H-M   'P 1'
_cell_length_a   8.06855784
_cell_length_b   8.06855697
_cell_length_c   9.34041800
_cell_angle_alpha   90.00000000
_cell_angle_beta   90.00000000
_cell_angle_gamma   155.14526456
_symmetry_Int_Tables_number   1
_chemical_formula_structural   Ho6VB14Os
_chemical_formula_sum   'Ho6 V1 B14 Os1'
_cell_volume   255.58609779
_cell_formula_units_Z   1
loop_
 _symmetry_equiv_pos_site_id
 _symmetry_equiv_pos_as_xyz
  1  'x, y, z'
loop_
 _atom_site_type_symbol
 _atom_site_label
 _atom_site_symmetry_multiplicity
 _atom_site_fract_x
 _atom_site_fract_y
 _atom_site_fract_z
 _atom_site_occupancy
  Ho  Ho0  1  0.106281  0.893719  0.060336  1
  Ho  Ho1  1  0.894276  0.105724  0.939521  1
  Ho  Ho2  1  0.757331  0.242669  0.250000  1
  Ho  Ho3  1  0.243740  0.756260  0.750000  1
  Ho  Ho4  1  0.106281  0.893719  0.439664  1
  Ho  Ho5  1  0.894276  0.105724  0.560479  1
  V  V6  1  0.947747  0.052253  0.250000  1
  B  B7  1  0.726658  0.273342  0.534366  1
  B  B8  1  0.271927  0.728073  0.466976  1
  B  B9  1  0.271927  0.728073  0.033024  1
  B  B10  1  0.726658  0.273342  0.965634  1
  B  B11  1  0.520677  0.479323  0.904866  1
  B  B12  1  0.479477  0.520523  0.093697  1
  B  B13  1  0.479477  0.520523  0.406303  1
  B  B14  1  0.520677  0.479323  0.595134  1
  B  B15  1  0.457528  0.542472  0.750000  1
  B  B16  1  0.542879  0.457121  0.250000  1
  B  B17  1  0.631579  0.368421  0.649496  1
  B  B18  1  0.367389  0.632611  0.350318  1
  B  B19  1  0.367389  0.632611  0.149682  1
  B  B20  1  0.631579  0.368421  0.850504  1
  Os  Os21  1  0.054247  0.945753  0.750000  1
