# generated using pymatgen
data_Pr4BeNi3I2
_symmetry_space_group_name_H-M   'P 1'
_cell_length_a   4.07253600
_cell_length_b   4.07253632
_cell_length_c   17.55092500
_cell_angle_alpha   90.00000000
_cell_angle_beta   90.00000000
_cell_angle_gamma   119.99999742
_symmetry_Int_Tables_number   1
_chemical_formula_structural   Pr4BeNi3I2
_chemical_formula_sum   'Pr4 Be1 Ni3 I2'
_cell_volume   252.09286339
_cell_formula_units_Z   1
loop_
 _symmetry_equiv_pos_site_id
 _symmetry_equiv_pos_as_xyz
  1  'x, y, z'
loop_
 _atom_site_type_symbol
 _atom_site_label
 _atom_site_symmetry_multiplicity
 _atom_site_fract_x
 _atom_site_fract_y
 _atom_site_fract_z
 _atom_site_occupancy
  Pr  Pr0  1  0.000000  0.000000  0.603674  1
  Pr  Pr1  1  0.000000  0.000000  0.398666  1
  Pr  Pr2  1  0.000000  0.000000  0.106144  1
  Pr  Pr3  1  0.000000  0.000000  0.892506  1
  Be  Be4  1  0.666667  0.333333  0.501347  1
  Ni  Ni5  1  0.333333  0.666667  0.999152  1
  Ni  Ni6  1  0.666667  0.333333  0.999177  1
  Ni  Ni7  1  0.333333  0.666667  0.499958  1
  I  I8  1  0.666667  0.333333  0.251139  1
  I  I9  1  0.333333  0.666667  0.748237  1
