# generated using pymatgen
data_YbDyAl20IrOs3
_symmetry_space_group_name_H-M   'P 1'
_cell_length_a   6.86809063
_cell_length_b   6.86749434
_cell_length_c   9.15357355
_cell_angle_alpha   90.21391190
_cell_angle_beta   90.06035707
_cell_angle_gamma   96.47240094
_symmetry_Int_Tables_number   1
_chemical_formula_structural   YbDyAl20IrOs3
_chemical_formula_sum   'Yb1 Dy1 Al20 Ir1 Os3'
_cell_volume   428.98742628
_cell_formula_units_Z   1
loop_
 _symmetry_equiv_pos_site_id
 _symmetry_equiv_pos_as_xyz
  1  'x, y, z'
loop_
 _atom_site_type_symbol
 _atom_site_label
 _atom_site_symmetry_multiplicity
 _atom_site_fract_x
 _atom_site_fract_y
 _atom_site_fract_z
 _atom_site_occupancy
  Yb  Yb0  1  0.371647  0.625983  0.250359  1
  Dy  Dy1  1  0.630122  0.373034  0.749699  1
  Al  Al2  1  0.280475  0.017787  0.747879  1
  Al  Al3  1  0.019918  0.282650  0.249250  1
  Al  Al4  1  0.719076  0.979916  0.252203  1
  Al  Al5  1  0.982646  0.718784  0.750576  1
  Al  Al6  1  0.878682  0.123909  0.949716  1
  Al  Al7  1  0.121490  0.875461  0.046537  1
  Al  Al8  1  0.876803  0.123531  0.548808  1
  Al  Al9  1  0.123852  0.875606  0.454601  1
  Al  Al10  1  0.646466  0.917391  0.749203  1
  Al  Al11  1  0.916094  0.646350  0.250283  1
  Al  Al12  1  0.352896  0.084069  0.251038  1
  Al  Al13  1  0.083424  0.354626  0.749707  1
  Al  Al14  1  0.342731  0.654765  0.896934  1
  Al  Al15  1  0.659598  0.342123  0.103067  1
  Al  Al16  1  0.344783  0.656129  0.600838  1
  Al  Al17  1  0.658124  0.340647  0.398895  1
  Al  Al18  1  0.723591  0.723751  0.998873  1
  Al  Al19  1  0.722514  0.723973  0.500612  1
  Al  Al20  1  0.274871  0.278106  0.000867  1
  Al  Al21  1  0.275450  0.277796  0.499943  1
  Ir  Ir22  1  0.499234  0.001446  0.999415  1
  Os  Os23  1  0.998079  0.500179  0.999339  1
  Os  Os24  1  0.499559  0.001765  0.500706  1
  Os  Os25  1  0.997875  0.500225  0.500652  1
