# generated using pymatgen
data_Na2LiNd(CoH6)2
_symmetry_space_group_name_H-M   'P 1'
_cell_length_a   6.94171600
_cell_length_b   6.94171600
_cell_length_c   7.14177900
_cell_angle_alpha   90.00000000
_cell_angle_beta   90.00000000
_cell_angle_gamma   90.00000000
_symmetry_Int_Tables_number   1
_chemical_formula_structural   Na2LiNd(CoH6)2
_chemical_formula_sum   'Na4 Li2 Nd2 Co4 H24'
_cell_volume   344.14391154
_cell_formula_units_Z   2
loop_
 _symmetry_equiv_pos_site_id
 _symmetry_equiv_pos_as_xyz
  1  'x, y, z'
loop_
 _atom_site_type_symbol
 _atom_site_label
 _atom_site_symmetry_multiplicity
 _atom_site_fract_x
 _atom_site_fract_y
 _atom_site_fract_z
 _atom_site_occupancy
  Na  Na0  1  0.000000  0.000000  0.500000  1
  Na  Na1  1  0.000000  0.500000  0.000000  1
  Na  Na2  1  0.500000  0.000000  0.000000  1
  Na  Na3  1  0.000000  0.000000  0.000000  1
  Li  Li4  1  0.000000  0.500000  0.500000  1
  Li  Li5  1  0.500000  0.000000  0.500000  1
  Nd  Nd6  1  0.500000  0.500000  0.500000  1
  Nd  Nd7  1  0.500000  0.500000  0.000000  1
  Co  Co8  1  0.266259  0.733741  0.743524  1
  Co  Co9  1  0.733741  0.266259  0.743524  1
  Co  Co10  1  0.733741  0.733741  0.256476  1
  Co  Co11  1  0.266259  0.266259  0.256476  1
  H  H12  1  0.743873  0.743873  0.471216  1
  H  H13  1  0.256127  0.256127  0.471216  1
  H  H14  1  0.048226  0.742680  0.738466  1
  H  H15  1  0.257320  0.951774  0.738466  1
  H  H16  1  0.742680  0.048226  0.738466  1
  H  H17  1  0.951774  0.257320  0.738466  1
  H  H18  1  0.745176  0.491969  0.746438  1
  H  H19  1  0.491969  0.745176  0.746438  1
  H  H20  1  0.508031  0.254824  0.746438  1
  H  H21  1  0.254824  0.508031  0.746438  1
  H  H22  1  0.253529  0.746471  0.959753  1
  H  H23  1  0.746471  0.253529  0.959753  1
  H  H24  1  0.746471  0.746471  0.040247  1
  H  H25  1  0.253529  0.253529  0.040247  1
  H  H26  1  0.254824  0.491969  0.253562  1
  H  H27  1  0.508031  0.745176  0.253562  1
  H  H28  1  0.491969  0.254824  0.253562  1
  H  H29  1  0.745176  0.508031  0.253562  1
  H  H30  1  0.951774  0.742680  0.261534  1
  H  H31  1  0.742680  0.951774  0.261534  1
  H  H32  1  0.257320  0.048226  0.261534  1
  H  H33  1  0.048226  0.257320  0.261534  1
  H  H34  1  0.256127  0.743873  0.528784  1
  H  H35  1  0.743873  0.256127  0.528784  1
