# generated using pymatgen
data_Er16Tl6IrOs
_symmetry_space_group_name_H-M   'P 1'
_cell_length_a   10.21638600
_cell_length_b   10.21638666
_cell_length_c   7.16750400
_cell_angle_alpha   90.00000000
_cell_angle_beta   90.00000000
_cell_angle_gamma   120.00000433
_symmetry_Int_Tables_number   1
_chemical_formula_structural   Er16Tl6IrOs
_chemical_formula_sum   'Er16 Tl6 Ir1 Os1'
_cell_volume   647.87790849
_cell_formula_units_Z   1
loop_
 _symmetry_equiv_pos_site_id
 _symmetry_equiv_pos_as_xyz
  1  'x, y, z'
loop_
 _atom_site_type_symbol
 _atom_site_label
 _atom_site_symmetry_multiplicity
 _atom_site_fract_x
 _atom_site_fract_y
 _atom_site_fract_z
 _atom_site_occupancy
  Er  Er0  1  0.000000  0.000000  0.269107  1
  Er  Er1  1  0.000000  0.000000  0.769722  1
  Er  Er2  1  0.175812  0.824188  0.990686  1
  Er  Er3  1  0.824067  0.175933  0.491147  1
  Er  Er4  1  0.175812  0.351624  0.990686  1
  Er  Er5  1  0.648376  0.824188  0.990686  1
  Er  Er6  1  0.351867  0.175933  0.491147  1
  Er  Er7  1  0.824067  0.648133  0.491147  1
  Er  Er8  1  0.333333  0.666667  0.671246  1
  Er  Er9  1  0.666667  0.333333  0.170167  1
  Er  Er10  1  0.464756  0.535244  0.290372  1
  Er  Er11  1  0.536399  0.463601  0.789154  1
  Er  Er12  1  0.464756  0.929513  0.290372  1
  Er  Er13  1  0.070487  0.535244  0.290372  1
  Er  Er14  1  0.927202  0.463601  0.789154  1
  Er  Er15  1  0.536399  0.072798  0.789154  1
  Tl  Tl16  1  0.164304  0.835696  0.544163  1
  Tl  Tl17  1  0.836058  0.163942  0.043981  1
  Tl  Tl18  1  0.164304  0.328608  0.544163  1
  Tl  Tl19  1  0.671392  0.835696  0.544163  1
  Tl  Tl20  1  0.327884  0.163942  0.043981  1
  Tl  Tl21  1  0.836058  0.672116  0.043981  1
  Ir  Ir22  1  0.333333  0.666667  0.059209  1
  Os  Os23  1  0.666667  0.333333  0.558163  1
