# generated using pymatgen
data_Na6Zn16Au7
_symmetry_space_group_name_H-M   'P 1'
_cell_length_a   9.13436153
_cell_length_b   9.13436085
_cell_length_c   9.13436200
_cell_angle_alpha   59.99999584
_cell_angle_beta   59.99999831
_cell_angle_gamma   59.99999641
_symmetry_Int_Tables_number   1
_chemical_formula_structural   Na6Zn16Au7
_chemical_formula_sum   'Na6 Zn16 Au7'
_cell_volume   538.91410591
_cell_formula_units_Z   1
loop_
 _symmetry_equiv_pos_site_id
 _symmetry_equiv_pos_as_xyz
  1  'x, y, z'
loop_
 _atom_site_type_symbol
 _atom_site_label
 _atom_site_symmetry_multiplicity
 _atom_site_fract_x
 _atom_site_fract_y
 _atom_site_fract_z
 _atom_site_occupancy
  Na  Na0  1  0.291990  0.708010  0.708010  1
  Na  Na1  1  0.708010  0.291990  0.291990  1
  Na  Na2  1  0.708010  0.291990  0.708010  1
  Na  Na3  1  0.708010  0.708010  0.291990  1
  Na  Na4  1  0.291990  0.708010  0.291990  1
  Na  Na5  1  0.291990  0.291990  0.708010  1
  Zn  Zn6  1  0.359714  0.880096  0.880096  1
  Zn  Zn7  1  0.880096  0.359714  0.880096  1
  Zn  Zn8  1  0.880096  0.880096  0.880096  1
  Zn  Zn9  1  0.880096  0.880096  0.359714  1
  Zn  Zn10  1  0.119904  0.640286  0.119904  1
  Zn  Zn11  1  0.640286  0.119904  0.119904  1
  Zn  Zn12  1  0.119904  0.119904  0.119904  1
  Zn  Zn13  1  0.119904  0.119904  0.640286  1
  Zn  Zn14  1  0.672857  0.672857  0.981429  1
  Zn  Zn15  1  0.672857  0.672857  0.672857  1
  Zn  Zn16  1  0.672857  0.981429  0.672857  1
  Zn  Zn17  1  0.981429  0.672857  0.672857  1
  Zn  Zn18  1  0.327143  0.327143  0.018571  1
  Zn  Zn19  1  0.327143  0.327143  0.327143  1
  Zn  Zn20  1  0.018571  0.327143  0.327143  1
  Zn  Zn21  1  0.327143  0.018571  0.327143  1
  Au  Au22  1  0.000000  0.000000  0.000000  1
  Au  Au23  1  0.500000  0.500000  0.000000  1
  Au  Au24  1  0.000000  0.000000  0.500000  1
  Au  Au25  1  0.000000  0.500000  0.500000  1
  Au  Au26  1  0.500000  0.000000  0.500000  1
  Au  Au27  1  0.500000  0.000000  0.000000  1
  Au  Au28  1  0.000000  0.500000  0.000000  1
