# generated using pymatgen
data_Th10Si16B
_symmetry_space_group_name_H-M   'P 1'
_cell_length_a   11.28244210
_cell_length_b   11.25998740
_cell_length_c   11.28244278
_cell_angle_alpha   144.27275416
_cell_angle_beta   135.83245809
_cell_angle_gamma   58.09262374
_symmetry_Int_Tables_number   1
_chemical_formula_structural   Th10Si16B
_chemical_formula_sum   'Th10 Si16 B1'
_cell_volume   578.04266985
_cell_formula_units_Z   1
loop_
 _symmetry_equiv_pos_site_id
 _symmetry_equiv_pos_as_xyz
  1  'x, y, z'
loop_
 _atom_site_type_symbol
 _atom_site_label
 _atom_site_symmetry_multiplicity
 _atom_site_fract_x
 _atom_site_fract_y
 _atom_site_fract_z
 _atom_site_occupancy
  Th  Th0  1  0.052356  0.564629  0.012395  1
  Th  Th1  1  0.348106  0.369941  0.520148  1
  Th  Th2  1  0.147620  0.165524  0.514444  1
  Th  Th3  1  0.450814  0.964809  0.016950  1
  Th  Th4  1  0.651083  0.165524  0.017905  1
  Th  Th5  1  0.947859  0.964809  0.513994  1
  Th  Th6  1  0.849793  0.369941  0.021834  1
  Th  Th7  1  0.552234  0.564629  0.512274  1
  Th  Th8  1  0.241541  0.759674  0.002542  1
  Th  Th9  1  0.757132  0.759674  0.518133  1
  Si  Si10  1  0.111189  0.063403  0.952213  1
  Si  Si11  1  0.808967  0.242434  0.433467  1
  Si  Si12  1  0.300384  0.897647  0.597263  1
  Si  Si13  1  0.401265  0.501404  0.100139  1
  Si  Si14  1  0.894249  0.810912  0.916663  1
  Si  Si15  1  0.101160  0.704733  0.603573  1
  Si  Si16  1  0.200083  0.597863  0.397779  1
  Si  Si17  1  0.699731  0.299762  0.600033  1
  Si  Si18  1  0.990017  0.435718  0.445700  1
  Si  Si19  1  0.708693  0.656483  0.947790  1
  Si  Si20  1  0.598000  0.699406  0.101405  1
  Si  Si21  1  0.999542  0.092241  0.092699  1
  Si  Si22  1  0.498668  0.390389  0.891720  1
  Si  Si23  1  0.291129  0.238939  0.947810  1
  Si  Si24  1  0.587309  0.037824  0.450512  1
  Si  Si25  1  0.412709  0.865356  0.452647  1
  B  B26  1  0.898366  0.505251  0.606886  1
