# generated using pymatgen
data_Pr2Pa6TiSe17
_symmetry_space_group_name_H-M   'P 1'
_cell_length_a   8.24279744
_cell_length_b   8.24279772
_cell_length_c   10.92977600
_cell_angle_alpha   80.82658305
_cell_angle_beta   80.82658978
_cell_angle_gamma   65.47971312
_symmetry_Int_Tables_number   1
_chemical_formula_structural   Pr2Pa6TiSe17
_chemical_formula_sum   'Pr2 Pa6 Ti1 Se17'
_cell_volume   663.39044495
_cell_formula_units_Z   1
loop_
 _symmetry_equiv_pos_site_id
 _symmetry_equiv_pos_as_xyz
  1  'x, y, z'
loop_
 _atom_site_type_symbol
 _atom_site_label
 _atom_site_symmetry_multiplicity
 _atom_site_fract_x
 _atom_site_fract_y
 _atom_site_fract_z
 _atom_site_occupancy
  Pr  Pr0  1  0.814987  0.305143  0.294670  1
  Pr  Pr1  1  0.305143  0.814987  0.294670  1
  Pa  Pa2  1  0.178795  0.700423  0.705338  1
  Pa  Pa3  1  0.700423  0.178795  0.705338  1
  Pa  Pa4  1  0.200227  0.200227  0.541693  1
  Pa  Pa5  1  0.797341  0.797341  0.458197  1
  Pa  Pa6  1  0.684291  0.684291  0.984315  1
  Pa  Pa7  1  0.317112  0.317112  0.014531  1
  Ti  Ti8  1  0.000928  0.000928  0.000236  1
  Se  Se9  1  0.819315  0.434476  0.543168  1
  Se  Se10  1  0.434476  0.819315  0.543168  1
  Se  Se11  1  0.174789  0.563518  0.472094  1
  Se  Se12  1  0.563518  0.174789  0.472094  1
  Se  Se13  1  0.943789  0.329086  0.017172  1
  Se  Se14  1  0.329086  0.943789  0.017172  1
  Se  Se15  1  0.059888  0.674686  0.973421  1
  Se  Se16  1  0.674686  0.059888  0.973421  1
  Se  Se17  1  0.218504  0.218504  0.276349  1
  Se  Se18  1  0.785021  0.785021  0.726056  1
  Se  Se19  1  0.062240  0.062240  0.771388  1
  Se  Se20  1  0.935091  0.935091  0.228366  1
  Se  Se21  1  0.301967  0.301967  0.753198  1
  Se  Se22  1  0.703478  0.703478  0.241844  1
  Se  Se23  1  0.520217  0.520217  0.829997  1
  Se  Se24  1  0.478556  0.478556  0.153761  1
  Se  Se25  1  0.996132  0.996132  0.508348  1
