# generated using pymatgen
data_Ca6URhO12
_symmetry_space_group_name_H-M   'P 1'
_cell_length_a   6.67941376
_cell_length_b   6.67941488
_cell_length_c   6.67941338
_cell_angle_alpha   93.00031028
_cell_angle_beta   93.00030766
_cell_angle_gamma   93.00031076
_symmetry_Int_Tables_number   1
_chemical_formula_structural   Ca6URhO12
_chemical_formula_sum   'Ca6 U1 Rh1 O12'
_cell_volume   296.72915029
_cell_formula_units_Z   1
loop_
 _symmetry_equiv_pos_site_id
 _symmetry_equiv_pos_as_xyz
  1  'x, y, z'
loop_
 _atom_site_type_symbol
 _atom_site_label
 _atom_site_symmetry_multiplicity
 _atom_site_fract_x
 _atom_site_fract_y
 _atom_site_fract_z
 _atom_site_occupancy
  Ca  Ca0  1  0.925423  0.433968  0.738317  1
  Ca  Ca1  1  0.738317  0.925423  0.433968  1
  Ca  Ca2  1  0.566032  0.261683  0.074577  1
  Ca  Ca3  1  0.261683  0.074577  0.566032  1
  Ca  Ca4  1  0.074577  0.566032  0.261683  1
  Ca  Ca5  1  0.433968  0.738317  0.925423  1
  U  U6  1  0.000000  0.000000  0.000000  1
  Rh  Rh7  1  0.500000  0.500000  0.500000  1
  O  O8  1  0.297512  0.065558  0.928611  1
  O  O9  1  0.065558  0.928611  0.297512  1
  O  O10  1  0.928611  0.297512  0.065558  1
  O  O11  1  0.702488  0.934442  0.071389  1
  O  O12  1  0.934442  0.071389  0.702488  1
  O  O13  1  0.071389  0.702488  0.934442  1
  O  O14  1  0.217865  0.420671  0.545794  1
  O  O15  1  0.420671  0.545794  0.217865  1
  O  O16  1  0.454206  0.782135  0.579329  1
  O  O17  1  0.579329  0.454206  0.782135  1
  O  O18  1  0.782135  0.579329  0.454206  1
  O  O19  1  0.545794  0.217865  0.420671  1
