# generated using pymatgen
data_Ti5GaRh10
_symmetry_space_group_name_H-M   'P 1'
_cell_length_a   5.42295031
_cell_length_b   10.64142279
_cell_length_c   4.04185900
_cell_angle_alpha   90.00000000
_cell_angle_beta   90.00000000
_cell_angle_gamma   89.89272405
_symmetry_Int_Tables_number   1
_chemical_formula_structural   Ti5GaRh10
_chemical_formula_sum   'Ti5 Ga1 Rh10'
_cell_volume   233.24681462
_cell_formula_units_Z   1
loop_
 _symmetry_equiv_pos_site_id
 _symmetry_equiv_pos_as_xyz
  1  'x, y, z'
loop_
 _atom_site_type_symbol
 _atom_site_label
 _atom_site_symmetry_multiplicity
 _atom_site_fract_x
 _atom_site_fract_y
 _atom_site_fract_z
 _atom_site_occupancy
  Ti  Ti0  1  0.177589  0.638929  0.500000  1
  Ti  Ti1  1  0.822413  0.361071  0.500000  1
  Ti  Ti2  1  0.666259  0.855450  0.500000  1
  Ti  Ti3  1  0.333741  0.144550  0.500000  1
  Ti  Ti4  1  0.000000  0.000000  0.000000  1
  Ga  Ga5  1  0.500000  0.500000  0.000000  1
  Rh  Rh6  1  0.423069  0.743335  0.000000  1
  Rh  Rh7  1  0.576929  0.256665  0.000000  1
  Rh  Rh8  1  0.920000  0.757970  0.000000  1
  Rh  Rh9  1  0.304486  0.387623  0.500000  1
  Rh  Rh10  1  0.500000  0.000000  0.000000  1
  Rh  Rh11  1  0.000000  0.500000  0.000000  1
  Rh  Rh12  1  0.080000  0.242031  0.000000  1
  Rh  Rh13  1  0.188009  0.891566  0.500000  1
  Rh  Rh14  1  0.811989  0.108434  0.500000  1
  Rh  Rh15  1  0.695516  0.612376  0.500000  1
