# generated using pymatgen
data_Y2Ho6Sc11Si16W
_symmetry_space_group_name_H-M   'P 1'
_cell_length_a   7.03143989
_cell_length_b   7.34623285
_cell_length_c   13.88280302
_cell_angle_alpha   90.01386028
_cell_angle_beta   90.00755989
_cell_angle_gamma   90.22140104
_symmetry_Int_Tables_number   1
_chemical_formula_structural   Y2Ho6Sc11Si16W
_chemical_formula_sum   'Y2 Ho6 Sc11 Si16 W1'
_cell_volume   717.10518235
_cell_formula_units_Z   1
loop_
 _symmetry_equiv_pos_site_id
 _symmetry_equiv_pos_as_xyz
  1  'x, y, z'
loop_
 _atom_site_type_symbol
 _atom_site_label
 _atom_site_symmetry_multiplicity
 _atom_site_fract_x
 _atom_site_fract_y
 _atom_site_fract_z
 _atom_site_occupancy
  Y  Y0  1  0.012534  0.176962  0.093913  1
  Y  Y1  1  0.991830  0.820337  0.900845  1
  Ho  Ho2  1  0.485850  0.673468  0.901384  1
  Ho  Ho3  1  0.991807  0.819461  0.599296  1
  Ho  Ho4  1  0.512034  0.323191  0.095855  1
  Ho  Ho5  1  0.013014  0.177201  0.406062  1
  Ho  Ho6  1  0.512261  0.323080  0.404624  1
  Ho  Ho7  1  0.485885  0.673513  0.598172  1
  Sc  Sc8  1  0.842693  0.496566  0.250246  1
  Sc  Sc9  1  0.342562  0.003361  0.250244  1
  Sc  Sc10  1  0.656941  0.995196  0.749694  1
  Sc  Sc11  1  0.327034  0.178167  0.627398  1
  Sc  Sc12  1  0.672076  0.823771  0.374484  1
  Sc  Sc13  1  0.173343  0.673602  0.376852  1
  Sc  Sc14  1  0.671841  0.823670  0.125869  1
  Sc  Sc15  1  0.826821  0.330002  0.627991  1
  Sc  Sc16  1  0.327081  0.178338  0.872182  1
  Sc  Sc17  1  0.826762  0.330336  0.871555  1
  Sc  Sc18  1  0.173321  0.673247  0.123577  1
  Si  Si19  1  0.029763  0.124299  0.749655  1
  Si  Si20  1  0.972856  0.884662  0.250371  1
  Si  Si21  1  0.469833  0.614938  0.250223  1
  Si  Si22  1  0.519513  0.395043  0.749760  1
  Si  Si23  1  0.283140  0.860050  0.749609  1
  Si  Si24  1  0.717503  0.129406  0.250430  1
  Si  Si25  1  0.215694  0.370786  0.250533  1
  Si  Si26  1  0.792998  0.628402  0.749591  1
  Si  Si27  1  0.154368  0.466956  0.548696  1
  Si  Si28  1  0.843406  0.535221  0.462569  1
  Si  Si29  1  0.345800  0.964971  0.462470  1
  Si  Si30  1  0.842830  0.535473  0.037472  1
  Si  Si31  1  0.657779  0.034216  0.539607  1
  Si  Si32  1  0.154483  0.466837  0.951188  1
  Si  Si33  1  0.656678  0.034860  0.960363  1
  Si  Si34  1  0.346534  0.964547  0.037557  1
  W  W35  1  0.151131  0.495863  0.749663  1
