# generated using pymatgen
data_Ba6DyY(BO3)6
_symmetry_space_group_name_H-M   'P 1'
_cell_length_a   8.23403736
_cell_length_b   8.23403840
_cell_length_c   8.23403725
_cell_angle_alpha   105.59768686
_cell_angle_beta   105.59769055
_cell_angle_gamma   105.59770619
_symmetry_Int_Tables_number   1
_chemical_formula_structural   Ba6DyY(BO3)6
_chemical_formula_sum   'Ba6 Dy1 Y1 B6 O18'
_cell_volume   481.60637470
_cell_formula_units_Z   1
loop_
 _symmetry_equiv_pos_site_id
 _symmetry_equiv_pos_as_xyz
  1  'x, y, z'
loop_
 _atom_site_type_symbol
 _atom_site_label
 _atom_site_symmetry_multiplicity
 _atom_site_fract_x
 _atom_site_fract_y
 _atom_site_fract_z
 _atom_site_occupancy
  Ba  Ba0  1  0.349765  0.734107  0.842758  1
  Ba  Ba1  1  0.842758  0.349765  0.734107  1
  Ba  Ba2  1  0.734107  0.842758  0.349765  1
  Ba  Ba3  1  0.650235  0.265893  0.157242  1
  Ba  Ba4  1  0.157242  0.650235  0.265893  1
  Ba  Ba5  1  0.265893  0.157242  0.650235  1
  Dy  Dy6  1  0.500000  0.500000  0.500000  1
  Y  Y7  1  0.000000  0.000000  0.000000  1
  B  B8  1  0.377423  0.043917  0.289754  1
  B  B9  1  0.289754  0.377423  0.043917  1
  B  B10  1  0.043917  0.289754  0.377423  1
  B  B11  1  0.710246  0.622577  0.956083  1
  B  B12  1  0.956083  0.710246  0.622577  1
  B  B13  1  0.622577  0.956083  0.710246  1
  O  O14  1  0.427855  0.489795  0.212106  1
  O  O15  1  0.212106  0.427855  0.489795  1
  O  O16  1  0.809072  0.017018  0.745667  1
  O  O17  1  0.017018  0.745667  0.809072  1
  O  O18  1  0.745667  0.809072  0.017018  1
  O  O19  1  0.254333  0.190928  0.982982  1
  O  O20  1  0.190928  0.982982  0.254333  1
  O  O21  1  0.982982  0.254333  0.190928  1
  O  O22  1  0.547741  0.060383  0.804590  1
  O  O23  1  0.060383  0.804590  0.547741  1
  O  O24  1  0.804590  0.547741  0.060383  1
  O  O25  1  0.452259  0.939617  0.195410  1
  O  O26  1  0.939617  0.195410  0.452259  1
  O  O27  1  0.195410  0.452259  0.939617  1
  O  O28  1  0.510205  0.787894  0.572145  1
  O  O29  1  0.787894  0.572145  0.510205  1
  O  O30  1  0.572145  0.510205  0.787894  1
  O  O31  1  0.489795  0.212106  0.427855  1
