# generated using pymatgen
data_CaTl2P2O7
_symmetry_space_group_name_H-M   'P 1'
_cell_length_a   5.79651500
_cell_length_b   9.28772168
_cell_length_c   14.94606600
_cell_angle_alpha   74.15816352
_cell_angle_beta   90.00000000
_cell_angle_gamma   90.00000000
_symmetry_Int_Tables_number   1
_chemical_formula_structural   CaTl2P2O7
_chemical_formula_sum   'Ca4 Tl8 P8 O28'
_cell_volume   774.08146175
_cell_formula_units_Z   4
loop_
 _symmetry_equiv_pos_site_id
 _symmetry_equiv_pos_as_xyz
  1  'x, y, z'
loop_
 _atom_site_type_symbol
 _atom_site_label
 _atom_site_symmetry_multiplicity
 _atom_site_fract_x
 _atom_site_fract_y
 _atom_site_fract_z
 _atom_site_occupancy
  Ca  Ca0  1  0.262028  0.263445  0.131363  1
  Ca  Ca1  1  0.237972  0.263445  0.631363  1
  Ca  Ca2  1  0.762028  0.736555  0.368637  1
  Ca  Ca3  1  0.737972  0.736555  0.868637  1
  Tl  Tl4  1  0.741592  0.535661  0.155978  1
  Tl  Tl5  1  0.264553  0.021278  0.385306  1
  Tl  Tl6  1  0.735447  0.978722  0.614694  1
  Tl  Tl7  1  0.241592  0.464339  0.344022  1
  Tl  Tl8  1  0.258408  0.464339  0.844022  1
  Tl  Tl9  1  0.764553  0.978722  0.114694  1
  Tl  Tl10  1  0.235447  0.021278  0.885306  1
  Tl  Tl11  1  0.758408  0.535661  0.655978  1
  P  P12  1  0.773645  0.319762  0.962712  1
  P  P13  1  0.739907  0.174786  0.800952  1
  P  P14  1  0.726355  0.319762  0.462712  1
  P  P15  1  0.239907  0.825214  0.699048  1
  P  P16  1  0.760093  0.174786  0.300952  1
  P  P17  1  0.273645  0.680238  0.537288  1
  P  P18  1  0.260093  0.825214  0.199048  1
  P  P19  1  0.226355  0.680238  0.037288  1
  O  O20  1  0.532283  0.251213  0.743575  1
  O  O21  1  0.032283  0.748787  0.756425  1
  O  O22  1  0.513073  0.729169  0.495634  1
  O  O23  1  0.737953  0.003845  0.819011  1
  O  O24  1  0.262047  0.996155  0.180989  1
  O  O25  1  0.486927  0.270831  0.504366  1
  O  O26  1  0.971877  0.246570  0.762706  1
  O  O27  1  0.085333  0.702311  0.463274  1
  O  O28  1  0.237953  0.996155  0.680989  1
  O  O29  1  0.467717  0.748787  0.256425  1
  O  O30  1  0.028123  0.753430  0.237294  1
  O  O31  1  0.914667  0.297689  0.536726  1
  O  O32  1  0.225863  0.525618  0.108155  1
  O  O33  1  0.471877  0.753430  0.737294  1
  O  O34  1  0.986927  0.729169  0.995634  1
  O  O35  1  0.585333  0.297689  0.036726  1
  O  O36  1  0.414667  0.702311  0.963274  1
  O  O37  1  0.725863  0.474382  0.391845  1
  O  O38  1  0.528123  0.246570  0.262706  1
  O  O39  1  0.013073  0.270831  0.004366  1
  O  O40  1  0.762047  0.003845  0.319011  1
  O  O41  1  0.774137  0.474382  0.891845  1
  O  O42  1  0.967717  0.251213  0.243575  1
  O  O43  1  0.703030  0.196127  0.905708  1
  O  O44  1  0.274137  0.525618  0.608155  1
  O  O45  1  0.296970  0.803873  0.094292  1
  O  O46  1  0.203030  0.803873  0.594292  1
  O  O47  1  0.796970  0.196127  0.405708  1
