# generated using pymatgen
data_Tb7Te8
_symmetry_space_group_name_H-M   'P 1'
_cell_length_a   8.51107574
_cell_length_b   8.51107623
_cell_length_c   10.47026252
_cell_angle_alpha   53.53342163
_cell_angle_beta   53.53341718
_cell_angle_gamma   61.68192447
_symmetry_Int_Tables_number   1
_chemical_formula_structural   Tb7Te8
_chemical_formula_sum   'Tb7 Te8'
_cell_volume   481.84494268
_cell_formula_units_Z   1
loop_
 _symmetry_equiv_pos_site_id
 _symmetry_equiv_pos_as_xyz
  1  'x, y, z'
loop_
 _atom_site_type_symbol
 _atom_site_label
 _atom_site_symmetry_multiplicity
 _atom_site_fract_x
 _atom_site_fract_y
 _atom_site_fract_z
 _atom_site_occupancy
  Tb  Tb0  1  0.740546  0.259454  0.500000  1
  Tb  Tb1  1  0.259454  0.740546  0.500000  1
  Tb  Tb2  1  0.500000  0.000000  0.500000  1
  Tb  Tb3  1  0.000000  0.500000  0.500000  1
  Tb  Tb4  1  0.746771  0.746771  0.002360  1
  Tb  Tb5  1  0.253229  0.253229  0.997640  1
  Tb  Tb6  1  0.000000  0.000000  0.000000  1
  Te  Te7  1  0.960161  0.960161  0.333963  1
  Te  Te8  1  0.039839  0.039839  0.666037  1
  Te  Te9  1  0.544108  0.040475  0.166568  1
  Te  Te10  1  0.455892  0.959525  0.833432  1
  Te  Te11  1  0.959525  0.455892  0.833432  1
  Te  Te12  1  0.040475  0.544108  0.166568  1
  Te  Te13  1  0.457999  0.457999  0.325717  1
  Te  Te14  1  0.542001  0.542001  0.674283  1
