# generated using pymatgen
data_Tb8Dy11ScSi15Os
_symmetry_space_group_name_H-M   'P 1'
_cell_length_a   7.34026381
_cell_length_b   7.76497747
_cell_length_c   14.57659000
_cell_angle_alpha   90.00000000
_cell_angle_beta   90.00000000
_cell_angle_gamma   90.17126214
_symmetry_Int_Tables_number   1
_chemical_formula_structural   Tb8Dy11ScSi15Os
_chemical_formula_sum   'Tb8 Dy11 Sc1 Si15 Os1'
_cell_volume   830.81794276
_cell_formula_units_Z   1
loop_
 _symmetry_equiv_pos_site_id
 _symmetry_equiv_pos_as_xyz
  1  'x, y, z'
loop_
 _atom_site_type_symbol
 _atom_site_label
 _atom_site_symmetry_multiplicity
 _atom_site_fract_x
 _atom_site_fract_y
 _atom_site_fract_z
 _atom_site_occupancy
  Tb  Tb0  1  0.020865  0.182941  0.098256  1
  Tb  Tb1  1  0.983841  0.826895  0.905954  1
  Tb  Tb2  1  0.481396  0.681576  0.905961  1
  Tb  Tb3  1  0.983841  0.826895  0.594046  1
  Tb  Tb4  1  0.517726  0.316498  0.097918  1
  Tb  Tb5  1  0.020865  0.182941  0.401744  1
  Tb  Tb6  1  0.517726  0.316498  0.402082  1
  Tb  Tb7  1  0.481396  0.681576  0.594039  1
  Dy  Dy8  1  0.152902  0.514145  0.750000  1
  Dy  Dy9  1  0.843592  0.485696  0.250000  1
  Dy  Dy10  1  0.665565  0.986896  0.750000  1
  Dy  Dy11  1  0.313203  0.175156  0.625969  1
  Dy  Dy12  1  0.676134  0.823446  0.373764  1
  Dy  Dy13  1  0.177846  0.682225  0.374130  1
  Dy  Dy14  1  0.676134  0.823446  0.126236  1
  Dy  Dy15  1  0.833589  0.314717  0.625209  1
  Dy  Dy16  1  0.313203  0.175156  0.874031  1
  Dy  Dy17  1  0.833589  0.314717  0.874791  1
  Dy  Dy18  1  0.177846  0.682225  0.125870  1
  Sc  Sc19  1  0.341451  0.018287  0.250000  1
  Si  Si20  1  0.976819  0.904426  0.250000  1
  Si  Si21  1  0.473619  0.599160  0.250000  1
  Si  Si22  1  0.527377  0.397610  0.750000  1
  Si  Si23  1  0.275018  0.866237  0.750000  1
  Si  Si24  1  0.716338  0.129409  0.250000  1
  Si  Si25  1  0.226662  0.363451  0.250000  1
  Si  Si26  1  0.765037  0.623019  0.750000  1
  Si  Si27  1  0.155764  0.473071  0.535841  1
  Si  Si28  1  0.848349  0.531124  0.461080  1
  Si  Si29  1  0.347564  0.971688  0.458579  1
  Si  Si30  1  0.848349  0.531124  0.038920  1
  Si  Si31  1  0.648705  0.030640  0.535956  1
  Si  Si32  1  0.155764  0.473071  0.964159  1
  Si  Si33  1  0.648705  0.030640  0.964044  1
  Si  Si34  1  0.347564  0.971688  0.041421  1
  Os  Os35  1  0.025652  0.091707  0.750000  1
