# generated using pymatgen
data_Pr5Si9P3Ir19
_symmetry_space_group_name_H-M   'P 1'
_cell_length_a   12.93356000
_cell_length_b   12.93355991
_cell_length_c   4.00131100
_cell_angle_alpha   90.00000000
_cell_angle_beta   90.00000000
_cell_angle_gamma   119.99999510
_symmetry_Int_Tables_number   1
_chemical_formula_structural   Pr5Si9P3Ir19
_chemical_formula_sum   'Pr5 Si9 P3 Ir19'
_cell_volume   579.65438100
_cell_formula_units_Z   1
loop_
 _symmetry_equiv_pos_site_id
 _symmetry_equiv_pos_as_xyz
  1  'x, y, z'
loop_
 _atom_site_type_symbol
 _atom_site_label
 _atom_site_symmetry_multiplicity
 _atom_site_fract_x
 _atom_site_fract_y
 _atom_site_fract_z
 _atom_site_occupancy
  Pr  Pr0  1  0.333333  0.666667  0.500000  1
  Pr  Pr1  1  0.666667  0.333333  0.500000  1
  Pr  Pr2  1  0.000000  0.814001  0.000000  1
  Pr  Pr3  1  0.185999  0.185999  0.000000  1
  Pr  Pr4  1  0.814001  0.000000  0.000000  1
  Si  Si5  1  0.000000  0.630930  0.500000  1
  Si  Si6  1  0.369070  0.369070  0.500000  1
  Si  Si7  1  0.630930  0.000000  0.500000  1
  Si  Si8  1  0.520082  0.686489  0.000000  1
  Si  Si9  1  0.313511  0.833593  0.000000  1
  Si  Si10  1  0.166407  0.479918  0.000000  1
  Si  Si11  1  0.479918  0.166407  0.000000  1
  Si  Si12  1  0.686489  0.520082  0.000000  1
  Si  Si13  1  0.833593  0.313511  0.000000  1
  P  P14  1  0.000000  0.181297  0.500000  1
  P  P15  1  0.818703  0.818703  0.500000  1
  P  P16  1  0.181297  0.000000  0.500000  1
  Ir  Ir17  1  0.514007  0.874176  0.000000  1
  Ir  Ir18  1  0.125824  0.639832  0.000000  1
  Ir  Ir19  1  0.360168  0.485993  0.000000  1
  Ir  Ir20  1  0.485993  0.360168  0.000000  1
  Ir  Ir21  1  0.874176  0.514007  0.000000  1
  Ir  Ir22  1  0.639832  0.125824  0.000000  1
  Ir  Ir23  1  0.000000  0.447142  0.500000  1
  Ir  Ir24  1  0.552858  0.552858  0.500000  1
  Ir  Ir25  1  0.447142  0.000000  0.500000  1
  Ir  Ir26  1  0.000000  0.280957  0.000000  1
  Ir  Ir27  1  0.719043  0.719043  0.000000  1
  Ir  Ir28  1  0.280957  0.000000  0.000000  1
  Ir  Ir29  1  0.625249  0.804582  0.500000  1
  Ir  Ir30  1  0.195418  0.820667  0.500000  1
  Ir  Ir31  1  0.179333  0.374751  0.500000  1
  Ir  Ir32  1  0.374751  0.179333  0.500000  1
  Ir  Ir33  1  0.804582  0.625249  0.500000  1
  Ir  Ir34  1  0.820667  0.195418  0.500000  1
  Ir  Ir35  1  0.000000  0.000000  0.500000  1
