# generated using pymatgen
data_CeTh2Rh5
_symmetry_space_group_name_H-M   'P 1'
_cell_length_a   5.95970672
_cell_length_b   5.95970825
_cell_length_c   9.22541700
_cell_angle_alpha   90.00000000
_cell_angle_beta   90.00000000
_cell_angle_gamma   103.56829032
_symmetry_Int_Tables_number   1
_chemical_formula_structural   CeTh2Rh5
_chemical_formula_sum   'Ce2 Th4 Rh10'
_cell_volume   318.52447721
_cell_formula_units_Z   2
loop_
 _symmetry_equiv_pos_site_id
 _symmetry_equiv_pos_as_xyz
  1  'x, y, z'
loop_
 _atom_site_type_symbol
 _atom_site_label
 _atom_site_symmetry_multiplicity
 _atom_site_fract_x
 _atom_site_fract_y
 _atom_site_fract_z
 _atom_site_occupancy
  Ce  Ce0  1  0.618463  0.618463  0.750000  1
  Ce  Ce1  1  0.381537  0.381537  0.250000  1
  Th  Th2  1  0.797496  0.202504  0.500000  1
  Th  Th3  1  0.202504  0.797496  0.000000  1
  Th  Th4  1  0.202504  0.797496  0.500000  1
  Th  Th5  1  0.797496  0.202504  0.000000  1
  Rh  Rh6  1  0.684872  0.684872  0.053413  1
  Rh  Rh7  1  0.684872  0.684872  0.446587  1
  Rh  Rh8  1  0.315128  0.315128  0.946587  1
  Rh  Rh9  1  0.315128  0.315128  0.553413  1
  Rh  Rh10  1  0.506191  0.040795  0.750000  1
  Rh  Rh11  1  0.493809  0.959205  0.250000  1
  Rh  Rh12  1  0.981529  0.981529  0.250000  1
  Rh  Rh13  1  0.018471  0.018471  0.750000  1
  Rh  Rh14  1  0.040795  0.506191  0.750000  1
  Rh  Rh15  1  0.959205  0.493809  0.250000  1
