# generated using pymatgen
data_Ho4Ga18NiIr5
_symmetry_space_group_name_H-M   'P 1'
_cell_length_a   7.56354226
_cell_length_b   7.56354182
_cell_length_c   9.44634041
_cell_angle_alpha   90.19255910
_cell_angle_beta   90.19255949
_cell_angle_gamma   119.94031306
_symmetry_Int_Tables_number   1
_chemical_formula_structural   Ho4Ga18NiIr5
_chemical_formula_sum   'Ho4 Ga18 Ni1 Ir5'
_cell_volume   468.26939181
_cell_formula_units_Z   1
loop_
 _symmetry_equiv_pos_site_id
 _symmetry_equiv_pos_as_xyz
  1  'x, y, z'
loop_
 _atom_site_type_symbol
 _atom_site_label
 _atom_site_symmetry_multiplicity
 _atom_site_fract_x
 _atom_site_fract_y
 _atom_site_fract_z
 _atom_site_occupancy
  Ho  Ho0  1  0.996904  0.667813  0.250063  1
  Ho  Ho1  1  0.003096  0.332187  0.749937  1
  Ho  Ho2  1  0.667813  0.996904  0.250063  1
  Ho  Ho3  1  0.332187  0.003096  0.749937  1
  Ga  Ga4  1  0.123055  0.123055  0.245465  1
  Ga  Ga5  1  0.876945  0.876945  0.754535  1
  Ga  Ga6  1  0.999252  0.330358  0.079873  1
  Ga  Ga7  1  0.000748  0.669642  0.920127  1
  Ga  Ga8  1  0.001018  0.666326  0.580207  1
  Ga  Ga9  1  0.333674  0.998982  0.419793  1
  Ga  Ga10  1  0.998982  0.333674  0.419793  1
  Ga  Ga11  1  0.666326  0.001018  0.580207  1
  Ga  Ga12  1  0.669642  0.000748  0.920127  1
  Ga  Ga13  1  0.330358  0.999252  0.079873  1
  Ga  Ga14  1  0.332282  0.332282  0.564644  1
  Ga  Ga15  1  0.667718  0.667718  0.435356  1
  Ga  Ga16  1  0.671964  0.671964  0.064425  1
  Ga  Ga17  1  0.328036  0.328036  0.935575  1
  Ga  Ga18  1  0.338769  0.546146  0.249642  1
  Ga  Ga19  1  0.661231  0.453854  0.750358  1
  Ga  Ga20  1  0.546146  0.338769  0.249642  1
  Ga  Ga21  1  0.453854  0.661231  0.750358  1
  Ni  Ni22  1  0.000000  0.000000  0.000000  1
  Ir  Ir23  1  0.671926  0.328074  0.000000  1
  Ir  Ir24  1  0.328074  0.671926  0.000000  1
  Ir  Ir25  1  0.328278  0.671722  0.500000  1
  Ir  Ir26  1  0.671722  0.328278  0.500000  1
  Ir  Ir27  1  0.000000  0.000000  0.500000  1
