# generated using pymatgen
data_HoMg2PaNi8
_symmetry_space_group_name_H-M   'P 1'
_cell_length_a   4.87498500
_cell_length_b   4.87501958
_cell_length_c   8.47664100
_cell_angle_alpha   73.28792744
_cell_angle_beta   90.00039960
_cell_angle_gamma   119.99983699
_symmetry_Int_Tables_number   1
_chemical_formula_structural   HoMg2PaNi8
_chemical_formula_sum   'Ho1 Mg2 Pa1 Ni8'
_cell_volume   164.56520970
_cell_formula_units_Z   1
loop_
 _symmetry_equiv_pos_site_id
 _symmetry_equiv_pos_as_xyz
  1  'x, y, z'
loop_
 _atom_site_type_symbol
 _atom_site_label
 _atom_site_symmetry_multiplicity
 _atom_site_fract_x
 _atom_site_fract_y
 _atom_site_fract_z
 _atom_site_occupancy
  Ho  Ho0  1  0.501027  0.002153  0.496803  1
  Mg  Mg1  1  0.872191  0.744600  0.383134  1
  Mg  Mg2  1  0.378330  0.756687  0.864744  1
  Pa  Pa3  1  0.999391  0.998564  0.001870  1
  Ni  Ni4  1  0.435760  0.379163  0.185102  1
  Ni  Ni5  1  0.936067  0.372352  0.691863  1
  Ni  Ni6  1  0.435726  0.871603  0.185063  1
  Ni  Ni7  1  0.935740  0.871661  0.691757  1
  Ni  Ni8  1  0.187794  0.375839  0.436605  1
  Ni  Ni9  1  0.688071  0.375871  0.936061  1
  Ni  Ni10  1  0.943239  0.378947  0.185187  1
  Ni  Ni11  1  0.436666  0.372561  0.691808  1
