# generated using pymatgen
data_TiRe(Ir2Rh)2
_symmetry_space_group_name_H-M   'P 1'
_cell_length_a   5.49406800
_cell_length_b   5.50911211
_cell_length_c   4.41576500
_cell_angle_alpha   90.00000000
_cell_angle_beta   90.00000000
_cell_angle_gamma   119.90970795
_symmetry_Int_Tables_number   1
_chemical_formula_structural   TiRe(Ir2Rh)2
_chemical_formula_sum   'Ti1 Re1 Ir4 Rh2'
_cell_volume   115.85282979
_cell_formula_units_Z   1
loop_
 _symmetry_equiv_pos_site_id
 _symmetry_equiv_pos_as_xyz
  1  'x, y, z'
loop_
 _atom_site_type_symbol
 _atom_site_label
 _atom_site_symmetry_multiplicity
 _atom_site_fract_x
 _atom_site_fract_y
 _atom_site_fract_z
 _atom_site_occupancy
  Ti  Ti0  1  0.333187  0.666375  0.750000  1
  Re  Re1  1  0.667025  0.334049  0.250000  1
  Ir  Ir2  1  0.164802  0.329604  0.250000  1
  Ir  Ir3  1  0.831991  0.663983  0.750000  1
  Ir  Ir4  1  0.335627  0.167988  0.750000  1
  Ir  Ir5  1  0.832361  0.167988  0.750000  1
  Rh  Rh6  1  0.669817  0.835007  0.250000  1
  Rh  Rh7  1  0.165190  0.835007  0.250000  1
