# generated using pymatgen
data_U2Nb3P7Rh9
_symmetry_space_group_name_H-M   'P 1'
_cell_length_a   3.93549065
_cell_length_b   9.66656757
_cell_length_c   9.66476763
_cell_angle_alpha   120.00104867
_cell_angle_beta   89.92543907
_cell_angle_gamma   90.17751643
_symmetry_Int_Tables_number   1
_chemical_formula_structural   U2Nb3P7Rh9
_chemical_formula_sum   'U2 Nb3 P7 Rh9'
_cell_volume   318.40987824
_cell_formula_units_Z   1
loop_
 _symmetry_equiv_pos_site_id
 _symmetry_equiv_pos_as_xyz
  1  'x, y, z'
loop_
 _atom_site_type_symbol
 _atom_site_label
 _atom_site_symmetry_multiplicity
 _atom_site_fract_x
 _atom_site_fract_y
 _atom_site_fract_z
 _atom_site_occupancy
  U  U0  1  0.262006  0.666738  0.333410  1
  U  U1  1  0.762121  0.333394  0.666682  1
  Nb  Nb2  1  0.762204  0.093025  0.871775  1
  Nb  Nb3  1  0.762113  0.128157  0.221365  1
  Nb  Nb4  1  0.761413  0.778646  0.906909  1
  P  P5  1  0.262021  0.000039  0.000147  1
  P  P6  1  0.761709  0.876658  0.589364  1
  P  P7  1  0.763770  0.410169  0.287105  1
  P  P8  1  0.760152  0.712880  0.123307  1
  P  P9  1  0.263778  0.116181  0.415208  1
  P  P10  1  0.260357  0.584970  0.701051  1
  P  P11  1  0.261488  0.298874  0.883621  1
  Rh  Rh12  1  0.261563  0.882465  0.162020  1
  Rh  Rh13  1  0.261639  0.838099  0.720664  1
  Rh  Rh14  1  0.262499  0.279705  0.117603  1
  Rh  Rh15  1  0.761770  0.610081  0.558796  1
  Rh  Rh16  1  0.761317  0.441033  0.051073  1
  Rh  Rh17  1  0.762544  0.949022  0.389825  1
  Rh  Rh18  1  0.261834  0.368108  0.437974  1
  Rh  Rh19  1  0.260491  0.562155  0.930152  1
  Rh  Rh20  1  0.263210  0.069602  0.631946  1
