# generated using pymatgen
data_Zr4Mn6SiIr
_symmetry_space_group_name_H-M   'P 1'
_cell_length_a   4.94507600
_cell_length_b   4.94507699
_cell_length_c   8.35490000
_cell_angle_alpha   90.00000000
_cell_angle_beta   90.00000000
_cell_angle_gamma   120.00000679
_symmetry_Int_Tables_number   1
_chemical_formula_structural   Zr4Mn6SiIr
_chemical_formula_sum   'Zr4 Mn6 Si1 Ir1'
_cell_volume   176.93668483
_cell_formula_units_Z   1
loop_
 _symmetry_equiv_pos_site_id
 _symmetry_equiv_pos_as_xyz
  1  'x, y, z'
loop_
 _atom_site_type_symbol
 _atom_site_label
 _atom_site_symmetry_multiplicity
 _atom_site_fract_x
 _atom_site_fract_y
 _atom_site_fract_z
 _atom_site_occupancy
  Zr  Zr0  1  0.333333  0.666667  0.569634  1
  Zr  Zr1  1  0.666667  0.333333  0.430366  1
  Zr  Zr2  1  0.666667  0.333333  0.066268  1
  Zr  Zr3  1  0.333333  0.666667  0.933732  1
  Mn  Mn4  1  0.174766  0.349532  0.255962  1
  Mn  Mn5  1  0.825234  0.650468  0.744038  1
  Mn  Mn6  1  0.650468  0.825234  0.255962  1
  Mn  Mn7  1  0.349532  0.174766  0.744038  1
  Mn  Mn8  1  0.174766  0.825234  0.255962  1
  Mn  Mn9  1  0.825234  0.174766  0.744038  1
  Si  Si10  1  0.000000  0.000000  0.500000  1
  Ir  Ir11  1  0.000000  0.000000  0.000000  1
