# generated using pymatgen
data_Dy3Mg3CuRuAu
_symmetry_space_group_name_H-M   'P 1'
_cell_length_a   7.55662200
_cell_length_b   7.55662420
_cell_length_c   3.93961300
_cell_angle_alpha   90.00000000
_cell_angle_beta   90.00000000
_cell_angle_gamma   120.00000790
_symmetry_Int_Tables_number   1
_chemical_formula_structural   Dy3Mg3CuRuAu
_chemical_formula_sum   'Dy3 Mg3 Cu1 Ru1 Au1'
_cell_volume   194.82275565
_cell_formula_units_Z   1
loop_
 _symmetry_equiv_pos_site_id
 _symmetry_equiv_pos_as_xyz
  1  'x, y, z'
loop_
 _atom_site_type_symbol
 _atom_site_label
 _atom_site_symmetry_multiplicity
 _atom_site_fract_x
 _atom_site_fract_y
 _atom_site_fract_z
 _atom_site_occupancy
  Dy  Dy0  1  0.574830  0.972782  0.000000  1
  Dy  Dy1  1  0.027218  0.602047  0.000000  1
  Dy  Dy2  1  0.397953  0.425170  0.000000  1
  Mg  Mg3  1  0.247573  0.001313  0.500000  1
  Mg  Mg4  1  0.998687  0.246260  0.500000  1
  Mg  Mg5  1  0.753740  0.752427  0.500000  1
  Cu  Cu6  1  0.000000  0.000000  0.000000  1
  Ru  Ru7  1  0.333333  0.666667  0.500000  1
  Au  Au8  1  0.666667  0.333333  0.500000  1
