# generated using pymatgen
data_Ho3In3SnPdRh
_symmetry_space_group_name_H-M   'P 1'
_cell_length_a   7.89532100
_cell_length_b   7.89532113
_cell_length_c   3.82102900
_cell_angle_alpha   90.00000000
_cell_angle_beta   90.00000000
_cell_angle_gamma   119.99999525
_symmetry_Int_Tables_number   1
_chemical_formula_structural   Ho3In3SnPdRh
_chemical_formula_sum   'Ho3 In3 Sn1 Pd1 Rh1'
_cell_volume   206.27689107
_cell_formula_units_Z   1
loop_
 _symmetry_equiv_pos_site_id
 _symmetry_equiv_pos_as_xyz
  1  'x, y, z'
loop_
 _atom_site_type_symbol
 _atom_site_label
 _atom_site_symmetry_multiplicity
 _atom_site_fract_x
 _atom_site_fract_y
 _atom_site_fract_z
 _atom_site_occupancy
  Ho  Ho0  1  0.967672  0.388950  0.500000  1
  Ho  Ho1  1  0.611050  0.578721  0.500000  1
  Ho  Ho2  1  0.421279  0.032328  0.500000  1
  In  In3  1  0.262048  0.252782  0.000000  1
  In  In4  1  0.990734  0.737952  0.000000  1
  In  In5  1  0.747218  0.009266  0.000000  1
  Sn  Sn6  1  0.333333  0.666667  0.000000  1
  Pd  Pd7  1  0.000000  0.000000  0.500000  1
  Rh  Rh8  1  0.666667  0.333333  0.000000  1
