# generated using pymatgen
data_HoEr3ReOsC4
_symmetry_space_group_name_H-M   'P 1'
_cell_length_a   5.05543000
_cell_length_b   6.49886400
_cell_length_c   9.76563500
_cell_angle_alpha   90.00000000
_cell_angle_beta   90.00000000
_cell_angle_gamma   90.00000000
_symmetry_Int_Tables_number   1
_chemical_formula_structural   HoEr3ReOsC4
_chemical_formula_sum   'Ho2 Er6 Re2 Os2 C8'
_cell_volume   320.84556323
_cell_formula_units_Z   2
loop_
 _symmetry_equiv_pos_site_id
 _symmetry_equiv_pos_as_xyz
  1  'x, y, z'
loop_
 _atom_site_type_symbol
 _atom_site_label
 _atom_site_symmetry_multiplicity
 _atom_site_fract_x
 _atom_site_fract_y
 _atom_site_fract_z
 _atom_site_occupancy
  Ho  Ho0  1  0.250000  0.319831  0.444272  1
  Ho  Ho1  1  0.750000  0.180169  0.944272  1
  Er  Er2  1  0.250000  0.467440  0.783960  1
  Er  Er3  1  0.750000  0.032560  0.283960  1
  Er  Er4  1  0.250000  0.968732  0.715279  1
  Er  Er5  1  0.750000  0.531268  0.215279  1
  Er  Er6  1  0.250000  0.823614  0.055461  1
  Er  Er7  1  0.750000  0.676386  0.555461  1
  Re  Re8  1  0.250000  0.779085  0.366146  1
  Re  Re9  1  0.750000  0.720915  0.866146  1
  Os  Os10  1  0.250000  0.278977  0.133503  1
  Os  Os11  1  0.750000  0.221023  0.633503  1
  C  C12  1  0.250000  0.175205  0.947503  1
  C  C13  1  0.750000  0.823578  0.053531  1
  C  C14  1  0.250000  0.676422  0.553531  1
  C  C15  1  0.750000  0.324795  0.447503  1
  C  C16  1  0.250000  0.045423  0.259386  1
  C  C17  1  0.750000  0.454577  0.759386  1
  C  C18  1  0.250000  0.545132  0.240958  1
  C  C19  1  0.750000  0.954868  0.740958  1
