# generated using pymatgen
data_RbPr6RhI12
_symmetry_space_group_name_H-M   'P 1'
_cell_length_a   10.24173162
_cell_length_b   10.11958610
_cell_length_c   10.14412996
_cell_angle_alpha   104.72284574
_cell_angle_beta   104.75672105
_cell_angle_gamma   104.78850854
_symmetry_Int_Tables_number   1
_chemical_formula_structural   RbPr6RhI12
_chemical_formula_sum   'Rb1 Pr6 Rh1 I12'
_cell_volume   923.95865815
_cell_formula_units_Z   1
loop_
 _symmetry_equiv_pos_site_id
 _symmetry_equiv_pos_as_xyz
  1  'x, y, z'
loop_
 _atom_site_type_symbol
 _atom_site_label
 _atom_site_symmetry_multiplicity
 _atom_site_fract_x
 _atom_site_fract_y
 _atom_site_fract_z
 _atom_site_occupancy
  Rb  Rb0  1  0.500000  0.500000  0.500000  1
  Pr  Pr1  1  0.091910  0.291748  0.011896  1
  Pr  Pr2  1  0.306904  0.011521  0.097738  1
  Pr  Pr3  1  0.010864  0.092264  0.290882  1
  Pr  Pr4  1  0.989137  0.907736  0.709119  1
  Pr  Pr5  1  0.693096  0.988480  0.902262  1
  Pr  Pr6  1  0.908090  0.708252  0.988104  1
  Rh  Rh7  1  0.000000  0.000000  0.000000  1
  I  I8  1  0.218940  0.672007  0.074782  1
  I  I9  1  0.426582  0.340759  0.109877  1
  I  I10  1  0.673380  0.076302  0.222688  1
  I  I11  1  0.924306  0.778680  0.326858  1
  I  I12  1  0.112404  0.430238  0.341402  1
  I  I13  1  0.337300  0.109957  0.428131  1
  I  I14  1  0.662700  0.890043  0.571870  1
  I  I15  1  0.887597  0.569762  0.658598  1
  I  I16  1  0.075695  0.221320  0.673143  1
  I  I17  1  0.326621  0.923699  0.777312  1
  I  I18  1  0.573418  0.659241  0.890124  1
  I  I19  1  0.781060  0.327993  0.925218  1
