# generated using pymatgen
data_Be12VSi3Ir16
_symmetry_space_group_name_H-M   'P 1'
_cell_length_a   8.55347474
_cell_length_b   8.55344785
_cell_length_c   8.55344774
_cell_angle_alpha   140.95315211
_cell_angle_beta   96.20472532
_cell_angle_gamma   96.62016980
_symmetry_Int_Tables_number   1
_chemical_formula_structural   Be12VSi3Ir16
_chemical_formula_sum   'Be12 V1 Si3 Ir16'
_cell_volume   371.54821271
_cell_formula_units_Z   1
loop_
 _symmetry_equiv_pos_site_id
 _symmetry_equiv_pos_as_xyz
  1  'x, y, z'
loop_
 _atom_site_type_symbol
 _atom_site_label
 _atom_site_symmetry_multiplicity
 _atom_site_fract_x
 _atom_site_fract_y
 _atom_site_fract_z
 _atom_site_occupancy
  Be  Be0  1  0.124624  0.249735  0.874889  1
  Be  Be1  1  0.624583  0.249639  0.374944  1
  Be  Be2  1  0.370869  0.495794  0.875076  1
  Be  Be3  1  0.635286  0.508320  0.126967  1
  Be  Be4  1  0.131137  0.508332  0.622805  1
  Be  Be5  1  0.872749  0.497620  0.375127  1
  Be  Be6  1  0.879655  0.004575  0.875079  1
  Be  Be7  1  0.118387  0.991270  0.127116  1
  Be  Be8  1  0.613938  0.991220  0.622717  1
  Be  Be9  1  0.377983  0.002890  0.375093  1
  Be  Be10  1  0.879166  0.750398  0.128767  1
  Be  Be11  1  0.371832  0.750424  0.621409  1
  V  V12  1  0.124766  0.749812  0.374955  1
  Si  Si13  1  0.377566  0.250111  0.127455  1
  Si  Si14  1  0.872762  0.250107  0.622654  1
  Si  Si15  1  0.624867  0.749890  0.874977  1
  Ir  Ir16  1  0.123698  0.368412  0.247580  1
  Ir  Ir17  1  0.123698  0.876118  0.755285  1
  Ir  Ir18  1  0.870752  0.368377  0.994727  1
  Ir  Ir19  1  0.373269  0.872911  0.999527  1
  Ir  Ir20  1  0.870752  0.876025  0.502375  1
  Ir  Ir21  1  0.373269  0.373741  0.500358  1
  Ir  Ir22  1  0.623416  0.872974  0.249658  1
  Ir  Ir23  1  0.623416  0.373759  0.750442  1
  Ir  Ir24  1  0.876572  0.126288  0.249594  1
  Ir  Ir25  1  0.876572  0.626979  0.750284  1
  Ir  Ir26  1  0.626750  0.126324  0.999728  1
  Ir  Ir27  1  0.126488  0.623874  0.994842  1
  Ir  Ir28  1  0.626750  0.627023  0.500425  1
  Ir  Ir29  1  0.126488  0.131646  0.502614  1
  Ir  Ir30  1  0.378969  0.623797  0.247356  1
  Ir  Ir31  1  0.378969  0.131614  0.755171  1
