# generated using pymatgen
data_Ce4DyEr11(CdIr)4
_symmetry_space_group_name_H-M   'P 1'
_cell_length_a   9.60450584
_cell_length_b   9.59649598
_cell_length_c   9.59649622
_cell_angle_alpha   59.96586469
_cell_angle_beta   59.97238628
_cell_angle_gamma   59.97238139
_symmetry_Int_Tables_number   1
_chemical_formula_structural   Ce4DyEr11(CdIr)4
_chemical_formula_sum   'Ce4 Dy1 Er11 Cd4 Ir4'
_cell_volume   625.01714482
_cell_formula_units_Z   1
loop_
 _symmetry_equiv_pos_site_id
 _symmetry_equiv_pos_as_xyz
  1  'x, y, z'
loop_
 _atom_site_type_symbol
 _atom_site_label
 _atom_site_symmetry_multiplicity
 _atom_site_fract_x
 _atom_site_fract_y
 _atom_site_fract_z
 _atom_site_occupancy
  Ce  Ce0  1  0.599223  0.599982  0.599982  1
  Ce  Ce1  1  0.599872  0.600086  0.200170  1
  Ce  Ce2  1  0.599872  0.200170  0.600086  1
  Ce  Ce3  1  0.200813  0.599982  0.599982  1
  Dy  Dy4  1  0.061402  0.438598  0.438598  1
  Er  Er5  1  0.438538  0.061462  0.061462  1
  Er  Er6  1  0.439009  0.061089  0.438408  1
  Er  Er7  1  0.061494  0.438408  0.061089  1
  Er  Er8  1  0.439009  0.438408  0.061089  1
  Er  Er9  1  0.061494  0.061089  0.438408  1
  Er  Er10  1  0.186703  0.813297  0.813297  1
  Er  Er11  1  0.813052  0.186948  0.186948  1
  Er  Er12  1  0.812890  0.186884  0.813514  1
  Er  Er13  1  0.186712  0.813514  0.186884  1
  Er  Er14  1  0.812890  0.813514  0.186884  1
  Er  Er15  1  0.186712  0.186884  0.813514  1
  Cd  Cd16  1  0.832132  0.831930  0.831930  1
  Cd  Cd17  1  0.832059  0.832059  0.503821  1
  Cd  Cd18  1  0.832059  0.503821  0.832059  1
  Cd  Cd19  1  0.504008  0.831930  0.831930  1
  Ir  Ir20  1  0.393291  0.392656  0.392656  1
  Ir  Ir21  1  0.392684  0.392843  0.821788  1
  Ir  Ir22  1  0.392684  0.821788  0.392843  1
  Ir  Ir23  1  0.821396  0.392656  0.392656  1
