# generated using pymatgen
data_HgPbF4
_symmetry_space_group_name_H-M   'P 1'
_cell_length_a   7.17152627
_cell_length_b   7.17152662
_cell_length_c   7.17152617
_cell_angle_alpha   131.47828565
_cell_angle_beta   131.47828796
_cell_angle_gamma   71.05427706
_symmetry_Int_Tables_number   1
_chemical_formula_structural   HgPbF4
_chemical_formula_sum   'Hg2 Pb2 F8'
_cell_volume   202.71624983
_cell_formula_units_Z   2
loop_
 _symmetry_equiv_pos_site_id
 _symmetry_equiv_pos_as_xyz
  1  'x, y, z'
loop_
 _atom_site_type_symbol
 _atom_site_label
 _atom_site_symmetry_multiplicity
 _atom_site_fract_x
 _atom_site_fract_y
 _atom_site_fract_z
 _atom_site_occupancy
  Hg  Hg0  1  0.500001  0.000000  0.500001  1
  Hg  Hg1  1  0.000000  0.500001  0.500001  1
  Pb  Pb2  1  0.250000  0.250000  0.000000  1
  Pb  Pb3  1  0.750000  0.750000  0.000000  1
  F  F4  1  0.661107  0.161108  0.069795  1
  F  F5  1  0.908687  0.408689  0.069795  1
  F  F6  1  0.161107  0.091311  0.499999  1
  F  F7  1  0.408688  0.338892  0.499999  1
  F  F8  1  0.591311  0.661107  0.499999  1
  F  F9  1  0.838892  0.908687  0.499999  1
  F  F10  1  0.091311  0.591312  0.930204  1
  F  F11  1  0.338892  0.838893  0.930204  1
