# generated using pymatgen
data_Tm4Ni13Ir
_symmetry_space_group_name_H-M   'P 1'
_cell_length_a   4.89805370
_cell_length_b   4.89805512
_cell_length_c   12.49260439
_cell_angle_alpha   78.69462780
_cell_angle_beta   78.69462564
_cell_angle_gamma   60.00000409
_symmetry_Int_Tables_number   1
_chemical_formula_structural   Tm4Ni13Ir
_chemical_formula_sum   'Tm4 Ni13 Ir1'
_cell_volume   252.81843770
_cell_formula_units_Z   1
loop_
 _symmetry_equiv_pos_site_id
 _symmetry_equiv_pos_as_xyz
  1  'x, y, z'
loop_
 _atom_site_type_symbol
 _atom_site_label
 _atom_site_symmetry_multiplicity
 _atom_site_fract_x
 _atom_site_fract_y
 _atom_site_fract_z
 _atom_site_occupancy
  Tm  Tm0  1  0.949878  0.949878  0.150364  1
  Tm  Tm1  1  0.050122  0.050122  0.849636  1
  Tm  Tm2  1  0.853488  0.853488  0.439536  1
  Tm  Tm3  1  0.146512  0.146512  0.560464  1
  Ni  Ni4  1  0.720774  0.720774  0.837677  1
  Ni  Ni5  1  0.279226  0.279226  0.162323  1
  Ni  Ni6  1  0.612632  0.612632  0.162105  1
  Ni  Ni7  1  0.387368  0.387368  0.837895  1
  Ni  Ni8  1  0.000000  0.500000  0.000000  1
  Ni  Ni9  1  0.500000  0.000000  0.000000  1
  Ni  Ni10  1  0.500000  0.500000  0.000000  1
  Ni  Ni11  1  0.390581  0.390581  0.324271  1
  Ni  Ni12  1  0.894567  0.390581  0.324271  1
  Ni  Ni13  1  0.390581  0.894567  0.324271  1
  Ni  Ni14  1  0.609419  0.609419  0.675729  1
  Ni  Ni15  1  0.105433  0.609419  0.675729  1
  Ni  Ni16  1  0.609419  0.105433  0.675729  1
  Ir  Ir17  1  0.500000  0.500000  0.500000  1
