# generated using pymatgen
data_Nd8ZrScIr6
_symmetry_space_group_name_H-M   'P 1'
_cell_length_a   11.14962900
_cell_length_b   11.14962900
_cell_length_c   6.40761200
_cell_angle_alpha   90.00000000
_cell_angle_beta   90.00000000
_cell_angle_gamma   90.00000000
_symmetry_Int_Tables_number   1
_chemical_formula_structural   Nd8ZrScIr6
_chemical_formula_sum   'Nd16 Zr2 Sc2 Ir12'
_cell_volume   796.55733166
_cell_formula_units_Z   2
loop_
 _symmetry_equiv_pos_site_id
 _symmetry_equiv_pos_as_xyz
  1  'x, y, z'
loop_
 _atom_site_type_symbol
 _atom_site_label
 _atom_site_symmetry_multiplicity
 _atom_site_fract_x
 _atom_site_fract_y
 _atom_site_fract_z
 _atom_site_occupancy
  Nd  Nd0  1  0.085618  0.285426  0.121719  1
  Nd  Nd1  1  0.785426  0.414382  0.121719  1
  Nd  Nd2  1  0.214574  0.585618  0.121719  1
  Nd  Nd3  1  0.914382  0.714574  0.121719  1
  Nd  Nd4  1  0.413362  0.786930  0.379827  1
  Nd  Nd5  1  0.586638  0.213070  0.379827  1
  Nd  Nd6  1  0.286930  0.086638  0.379827  1
  Nd  Nd7  1  0.713070  0.913362  0.379827  1
  Nd  Nd8  1  0.414382  0.214574  0.878281  1
  Nd  Nd9  1  0.714574  0.085618  0.878281  1
  Nd  Nd10  1  0.285426  0.914382  0.878281  1
  Nd  Nd11  1  0.585618  0.785426  0.878281  1
  Nd  Nd12  1  0.086638  0.713070  0.620173  1
  Nd  Nd13  1  0.913362  0.286930  0.620173  1
  Nd  Nd14  1  0.213070  0.413362  0.620173  1
  Nd  Nd15  1  0.786930  0.586638  0.620173  1
  Zr  Zr16  1  0.500000  0.500000  0.500000  1
  Zr  Zr17  1  0.000000  0.000000  0.500000  1
  Sc  Sc18  1  0.000000  0.000000  0.000000  1
  Sc  Sc19  1  0.500000  0.500000  0.000000  1
  Ir  Ir20  1  0.141440  0.859819  0.253127  1
  Ir  Ir21  1  0.359819  0.358560  0.253127  1
  Ir  Ir22  1  0.640181  0.641440  0.253127  1
  Ir  Ir23  1  0.858560  0.140181  0.253127  1
  Ir  Ir24  1  0.358560  0.640181  0.746873  1
  Ir  Ir25  1  0.140181  0.141440  0.746873  1
  Ir  Ir26  1  0.859819  0.858560  0.746873  1
  Ir  Ir27  1  0.641440  0.359819  0.746873  1
  Ir  Ir28  1  0.000000  0.500000  0.379484  1
  Ir  Ir29  1  0.500000  0.000000  0.117721  1
  Ir  Ir30  1  0.500000  0.000000  0.620516  1
  Ir  Ir31  1  0.000000  0.500000  0.882279  1
