# generated using pymatgen
data_Y20Cd3Co2Ag3
_symmetry_space_group_name_H-M   'P 1'
_cell_length_a   9.63328100
_cell_length_b   9.63328206
_cell_length_c   9.62092000
_cell_angle_alpha   90.00000000
_cell_angle_beta   90.00000000
_cell_angle_gamma   119.99999980
_symmetry_Int_Tables_number   1
_chemical_formula_structural   Y20Cd3Co2Ag3
_chemical_formula_sum   'Y20 Cd3 Co2 Ag3'
_cell_volume   773.20693579
_cell_formula_units_Z   1
loop_
 _symmetry_equiv_pos_site_id
 _symmetry_equiv_pos_as_xyz
  1  'x, y, z'
loop_
 _atom_site_type_symbol
 _atom_site_label
 _atom_site_symmetry_multiplicity
 _atom_site_fract_x
 _atom_site_fract_y
 _atom_site_fract_z
 _atom_site_occupancy
  Y  Y0  1  0.000000  0.000000  0.473164  1
  Y  Y1  1  0.000000  0.000000  0.026836  1
  Y  Y2  1  0.541720  0.458280  0.250000  1
  Y  Y3  1  0.541720  0.083438  0.250000  1
  Y  Y4  1  0.916562  0.458280  0.250000  1
  Y  Y5  1  0.457058  0.542942  0.750000  1
  Y  Y6  1  0.457058  0.914115  0.750000  1
  Y  Y7  1  0.085885  0.542942  0.750000  1
  Y  Y8  1  0.212067  0.787933  0.436831  1
  Y  Y9  1  0.212067  0.424135  0.436831  1
  Y  Y10  1  0.575865  0.787933  0.436831  1
  Y  Y11  1  0.789009  0.210991  0.563578  1
  Y  Y12  1  0.789009  0.578016  0.563578  1
  Y  Y13  1  0.421984  0.210991  0.563578  1
  Y  Y14  1  0.789009  0.210991  0.936422  1
  Y  Y15  1  0.789009  0.578016  0.936422  1
  Y  Y16  1  0.421984  0.210991  0.936422  1
  Y  Y17  1  0.212067  0.787933  0.063169  1
  Y  Y18  1  0.212067  0.424135  0.063169  1
  Y  Y19  1  0.575865  0.787933  0.063169  1
  Cd  Cd20  1  0.110923  0.889077  0.750000  1
  Cd  Cd21  1  0.110923  0.221845  0.750000  1
  Cd  Cd22  1  0.778155  0.889077  0.750000  1
  Co  Co23  1  0.333333  0.666667  0.250000  1
  Co  Co24  1  0.666667  0.333333  0.750000  1
  Ag  Ag25  1  0.875317  0.124683  0.250000  1
  Ag  Ag26  1  0.875317  0.750634  0.250000  1
  Ag  Ag27  1  0.249366  0.124683  0.250000  1
