# generated using pymatgen
data_Zr10Tl2InCu2Te3
_symmetry_space_group_name_H-M   'P 1'
_cell_length_a   8.70537933
_cell_length_b   8.69705649
_cell_length_c   5.86419200
_cell_angle_alpha   90.00000000
_cell_angle_beta   90.00000000
_cell_angle_gamma   119.96837330
_symmetry_Int_Tables_number   1
_chemical_formula_structural   Zr10Tl2InCu2Te3
_chemical_formula_sum   'Zr10 Tl2 In1 Cu2 Te3'
_cell_volume   384.62465644
_cell_formula_units_Z   1
loop_
 _symmetry_equiv_pos_site_id
 _symmetry_equiv_pos_as_xyz
  1  'x, y, z'
loop_
 _atom_site_type_symbol
 _atom_site_label
 _atom_site_symmetry_multiplicity
 _atom_site_fract_x
 _atom_site_fract_y
 _atom_site_fract_z
 _atom_site_occupancy
  Zr  Zr0  1  0.743859  0.743275  0.250000  1
  Zr  Zr1  1  0.256141  0.999416  0.250000  1
  Zr  Zr2  1  0.000000  0.257194  0.250000  1
  Zr  Zr3  1  0.270213  0.271522  0.750000  1
  Zr  Zr4  1  0.729787  0.001309  0.750000  1
  Zr  Zr5  1  0.000000  0.728506  0.750000  1
  Zr  Zr6  1  0.667606  0.333443  0.502625  1
  Zr  Zr7  1  0.332394  0.665839  0.502625  1
  Zr  Zr8  1  0.332394  0.665839  0.997375  1
  Zr  Zr9  1  0.667606  0.333443  0.997375  1
  Tl  Tl10  1  0.619972  0.620298  0.750000  1
  Tl  Tl11  1  0.380028  0.000326  0.750000  1
  In  In12  1  0.000000  0.379986  0.750000  1
  Cu  Cu13  1  0.000000  0.000495  0.522202  1
  Cu  Cu14  1  0.000000  0.000495  0.977798  1
  Te  Te15  1  0.388710  0.388326  0.250000  1
  Te  Te16  1  0.611290  0.999616  0.250000  1
  Te  Te17  1  0.000000  0.610674  0.250000  1
