# generated using pymatgen
data_Li3Sc4Pt8Rh
_symmetry_space_group_name_H-M   'P 1'
_cell_length_a   5.71353800
_cell_length_b   5.71473400
_cell_length_c   7.67592500
_cell_angle_alpha   90.00000000
_cell_angle_beta   90.00017447
_cell_angle_gamma   89.99997995
_symmetry_Int_Tables_number   1
_chemical_formula_structural   Li3Sc4Pt8Rh
_chemical_formula_sum   'Li3 Sc4 Pt8 Rh1'
_cell_volume   250.62931274
_cell_formula_units_Z   1
loop_
 _symmetry_equiv_pos_site_id
 _symmetry_equiv_pos_as_xyz
  1  'x, y, z'
loop_
 _atom_site_type_symbol
 _atom_site_label
 _atom_site_symmetry_multiplicity
 _atom_site_fract_x
 _atom_site_fract_y
 _atom_site_fract_z
 _atom_site_occupancy
  Li  Li0  1  0.250033  0.750000  0.000035  1
  Li  Li1  1  0.249982  0.750000  0.499957  1
  Li  Li2  1  0.750030  0.250001  0.500001  1
  Sc  Sc3  1  0.249958  0.250001  0.000048  1
  Sc  Sc4  1  0.750036  0.750000  0.000051  1
  Sc  Sc5  1  0.749975  0.750000  0.499958  1
  Sc  Sc6  1  0.250034  0.250001  0.499962  1
  Pt  Pt7  1  0.498781  0.501224  0.254824  1
  Pt  Pt8  1  0.498781  0.998779  0.254824  1
  Pt  Pt9  1  0.001215  0.501200  0.254846  1
  Pt  Pt10  1  0.001215  0.998796  0.254846  1
  Pt  Pt11  1  0.001240  0.501244  0.745180  1
  Pt  Pt12  1  0.001240  0.998759  0.745180  1
  Pt  Pt13  1  0.498768  0.501227  0.745183  1
  Pt  Pt14  1  0.498768  0.998771  0.745183  1
  Rh  Rh15  1  0.749945  0.250001  0.999923  1
