# generated using pymatgen
data_Zr12Si12Os3Rh
_symmetry_space_group_name_H-M   'P 1'
_cell_length_a   3.93217500
_cell_length_b   10.39859872
_cell_length_c   11.77993117
_cell_angle_alpha   90.06866439
_cell_angle_beta   90.00000000
_cell_angle_gamma   90.00000000
_symmetry_Int_Tables_number   1
_chemical_formula_structural   Zr12Si12Os3Rh
_chemical_formula_sum   'Zr12 Si12 Os3 Rh1'
_cell_volume   481.67055430
_cell_formula_units_Z   1
loop_
 _symmetry_equiv_pos_site_id
 _symmetry_equiv_pos_as_xyz
  1  'x, y, z'
loop_
 _atom_site_type_symbol
 _atom_site_label
 _atom_site_symmetry_multiplicity
 _atom_site_fract_x
 _atom_site_fract_y
 _atom_site_fract_z
 _atom_site_occupancy
  Zr  Zr0  1  0.250000  0.876503  0.022280  1
  Zr  Zr1  1  0.250000  0.623760  0.519834  1
  Zr  Zr2  1  0.750000  0.123307  0.979698  1
  Zr  Zr3  1  0.750000  0.376975  0.479789  1
  Zr  Zr4  1  0.250000  0.925652  0.595293  1
  Zr  Zr5  1  0.250000  0.573944  0.098405  1
  Zr  Zr6  1  0.750000  0.074558  0.401167  1
  Zr  Zr7  1  0.750000  0.425084  0.901895  1
  Zr  Zr8  1  0.250000  0.656739  0.800646  1
  Zr  Zr9  1  0.250000  0.841642  0.300642  1
  Zr  Zr10  1  0.750000  0.341979  0.199643  1
  Zr  Zr11  1  0.750000  0.159267  0.699483  1
  Si  Si12  1  0.250000  0.015267  0.824397  1
  Si  Si13  1  0.250000  0.485370  0.324521  1
  Si  Si14  1  0.750000  0.984790  0.174908  1
  Si  Si15  1  0.750000  0.515454  0.675960  1
  Si  Si16  1  0.250000  0.248951  0.842436  1
  Si  Si17  1  0.250000  0.250908  0.342756  1
  Si  Si18  1  0.750000  0.750178  0.157036  1
  Si  Si19  1  0.750000  0.750605  0.657627  1
  Si  Si20  1  0.250000  0.195503  0.543458  1
  Si  Si21  1  0.250000  0.305349  0.043914  1
  Si  Si22  1  0.750000  0.805629  0.456295  1
  Si  Si23  1  0.750000  0.692125  0.957006  1
  Os  Os24  1  0.250000  0.386562  0.679902  1
  Os  Os25  1  0.250000  0.113819  0.179592  1
  Os  Os26  1  0.750000  0.614361  0.321302  1
  Rh  Rh27  1  0.750000  0.885723  0.820117  1
