# generated using pymatgen
data_Ho16AgHg3Ir3Rh
_symmetry_space_group_name_H-M   'P 1'
_cell_length_a   9.55809654
_cell_length_b   9.56412437
_cell_length_c   9.52707527
_cell_angle_alpha   59.87988652
_cell_angle_beta   59.89099857
_cell_angle_gamma   60.02114899
_symmetry_Int_Tables_number   1
_chemical_formula_structural   Ho16AgHg3Ir3Rh
_chemical_formula_sum   'Ho16 Ag1 Hg3 Ir3 Rh1'
_cell_volume   614.85990349
_cell_formula_units_Z   1
loop_
 _symmetry_equiv_pos_site_id
 _symmetry_equiv_pos_as_xyz
  1  'x, y, z'
loop_
 _atom_site_type_symbol
 _atom_site_label
 _atom_site_symmetry_multiplicity
 _atom_site_fract_x
 _atom_site_fract_y
 _atom_site_fract_z
 _atom_site_occupancy
  Ho  Ho0  1  0.186492  0.187595  0.812044  1
  Ho  Ho1  1  0.599680  0.602312  0.198321  1
  Ho  Ho2  1  0.441148  0.059530  0.438818  1
  Ho  Ho3  1  0.441389  0.438013  0.060063  1
  Ho  Ho4  1  0.813843  0.187608  0.812074  1
  Ho  Ho5  1  0.187686  0.810977  0.188557  1
  Ho  Ho6  1  0.439823  0.059634  0.060720  1
  Ho  Ho7  1  0.187285  0.813213  0.812203  1
  Ho  Ho8  1  0.060532  0.438014  0.060060  1
  Ho  Ho9  1  0.812768  0.810987  0.188541  1
  Ho  Ho10  1  0.197808  0.601374  0.600743  1
  Ho  Ho11  1  0.060407  0.439379  0.439811  1
  Ho  Ho12  1  0.060508  0.059530  0.438814  1
  Ho  Ho13  1  0.812256  0.187890  0.187605  1
  Ho  Ho14  1  0.601177  0.195903  0.601772  1
  Ho  Ho15  1  0.600090  0.601356  0.600742  1
  Ag  Ag16  1  0.832376  0.503310  0.831931  1
  Hg  Hg17  1  0.835294  0.833881  0.834661  1
  Hg  Hg18  1  0.835321  0.834091  0.495268  1
  Hg  Hg19  1  0.496170  0.833864  0.834676  1
  Ir  Ir20  1  0.391476  0.823349  0.393714  1
  Ir  Ir21  1  0.391166  0.392533  0.392703  1
  Ir  Ir22  1  0.823609  0.392527  0.392693  1
  Rh  Rh23  1  0.391699  0.393137  0.823466  1
