# generated using pymatgen
data_Th8Zn3Si12Os
_symmetry_space_group_name_H-M   'P 1'
_cell_length_a   8.34419300
_cell_length_b   8.34419302
_cell_length_c   8.25376000
_cell_angle_alpha   90.00000000
_cell_angle_beta   90.00000000
_cell_angle_gamma   119.99998803
_symmetry_Int_Tables_number   1
_chemical_formula_structural   Th8Zn3Si12Os
_chemical_formula_sum   'Th8 Zn3 Si12 Os1'
_cell_volume   497.68116267
_cell_formula_units_Z   1
loop_
 _symmetry_equiv_pos_site_id
 _symmetry_equiv_pos_as_xyz
  1  'x, y, z'
loop_
 _atom_site_type_symbol
 _atom_site_label
 _atom_site_symmetry_multiplicity
 _atom_site_fract_x
 _atom_site_fract_y
 _atom_site_fract_z
 _atom_site_occupancy
  Th  Th0  1  0.000000  0.000000  0.250151  1
  Th  Th1  1  0.000000  0.000000  0.749759  1
  Th  Th2  1  0.994801  0.497401  0.251842  1
  Th  Th3  1  0.502599  0.497401  0.251842  1
  Th  Th4  1  0.504450  0.008900  0.748191  1
  Th  Th5  1  0.502599  0.005199  0.251842  1
  Th  Th6  1  0.504450  0.495550  0.748191  1
  Th  Th7  1  0.991100  0.495550  0.748191  1
  Zn  Zn8  1  0.333333  0.666667  0.994635  1
  Zn  Zn9  1  0.333333  0.666667  0.502777  1
  Zn  Zn10  1  0.666667  0.333333  0.004132  1
  Si  Si11  1  0.167850  0.335700  0.000224  1
  Si  Si12  1  0.664300  0.832150  0.000224  1
  Si  Si13  1  0.165533  0.331064  0.500761  1
  Si  Si14  1  0.332068  0.166034  0.999879  1
  Si  Si15  1  0.167850  0.832150  0.000224  1
  Si  Si16  1  0.668936  0.834467  0.500761  1
  Si  Si17  1  0.833966  0.667932  0.999879  1
  Si  Si18  1  0.332954  0.166476  0.498851  1
  Si  Si19  1  0.165533  0.834467  0.500761  1
  Si  Si20  1  0.833524  0.667046  0.498851  1
  Si  Si21  1  0.833966  0.166034  0.999879  1
  Si  Si22  1  0.833524  0.166476  0.498851  1
  Os  Os23  1  0.666667  0.333333  0.499303  1
