# generated using pymatgen
data_TmGaCu3Pd
_symmetry_space_group_name_H-M   'P 1'
_cell_length_a   5.05764633
_cell_length_b   5.05764621
_cell_length_c   5.01067800
_cell_angle_alpha   59.68944005
_cell_angle_beta   59.68944082
_cell_angle_gamma   59.99999665
_symmetry_Int_Tables_number   1
_chemical_formula_structural   TmGaCu3Pd
_chemical_formula_sum   'Tm1 Ga1 Cu3 Pd1'
_cell_volume   90.20357193
_cell_formula_units_Z   1
loop_
 _symmetry_equiv_pos_site_id
 _symmetry_equiv_pos_as_xyz
  1  'x, y, z'
loop_
 _atom_site_type_symbol
 _atom_site_label
 _atom_site_symmetry_multiplicity
 _atom_site_fract_x
 _atom_site_fract_y
 _atom_site_fract_z
 _atom_site_occupancy
  Tm  Tm0  1  0.002800  0.002800  0.991599  1
  Ga  Ga1  1  0.621097  0.621097  0.136712  1
  Cu  Cu2  1  0.623786  0.125773  0.626656  1
  Cu  Cu3  1  0.125773  0.623786  0.626656  1
  Cu  Cu4  1  0.623786  0.623786  0.626656  1
  Pd  Pd5  1  0.252759  0.252759  0.241723  1
