# generated using pymatgen
data_Th2Sc3Pb4
_symmetry_space_group_name_H-M   'P 1'
_cell_length_a   8.06475457
_cell_length_b   15.19665131
_cell_length_c   8.08455900
_cell_angle_alpha   89.94432035
_cell_angle_beta   90.03579941
_cell_angle_gamma   90.14122095
_symmetry_Int_Tables_number   1
_chemical_formula_structural   Th2Sc3Pb4
_chemical_formula_sum   'Th8 Sc12 Pb16'
_cell_volume   990.81775572
_cell_formula_units_Z   4
loop_
 _symmetry_equiv_pos_site_id
 _symmetry_equiv_pos_as_xyz
  1  'x, y, z'
loop_
 _atom_site_type_symbol
 _atom_site_label
 _atom_site_symmetry_multiplicity
 _atom_site_fract_x
 _atom_site_fract_y
 _atom_site_fract_z
 _atom_site_occupancy
  Th  Th0  1  0.980854  0.593481  0.825261  1
  Th  Th1  1  0.481938  0.593329  0.673542  1
  Th  Th2  1  0.982157  0.906688  0.825457  1
  Th  Th3  1  0.518271  0.092871  0.325806  1
  Th  Th4  1  0.018579  0.406403  0.174592  1
  Th  Th5  1  0.518212  0.406830  0.325713  1
  Th  Th6  1  0.018240  0.093200  0.174396  1
  Th  Th7  1  0.481382  0.906951  0.674833  1
  Sc  Sc8  1  0.647959  0.625973  0.155577  1
  Sc  Sc9  1  0.149239  0.874157  0.345024  1
  Sc  Sc10  1  0.350652  0.125553  0.844986  1
  Sc  Sc11  1  0.850216  0.374351  0.655787  1
  Sc  Sc12  1  0.351249  0.374316  0.844428  1
  Sc  Sc13  1  0.850766  0.125679  0.655660  1
  Sc  Sc14  1  0.650179  0.874266  0.154870  1
  Sc  Sc15  1  0.150251  0.625862  0.343955  1
  Sc  Sc16  1  0.816626  0.750108  0.499369  1
  Sc  Sc17  1  0.316305  0.750135  0.000539  1
  Sc  Sc18  1  0.183563  0.249807  0.500516  1
  Sc  Sc19  1  0.683905  0.249904  0.999768  1
  Pb  Pb20  1  0.691280  0.454528  0.952737  1
  Pb  Pb21  1  0.190829  0.045563  0.547932  1
  Pb  Pb22  1  0.308690  0.954379  0.048381  1
  Pb  Pb23  1  0.809412  0.545866  0.451766  1
  Pb  Pb24  1  0.307931  0.545812  0.046612  1
  Pb  Pb25  1  0.808744  0.954230  0.452644  1
  Pb  Pb26  1  0.691418  0.045536  0.952188  1
  Pb  Pb27  1  0.191029  0.454442  0.547557  1
  Pb  Pb28  1  0.457358  0.750467  0.365006  1
  Pb  Pb29  1  0.957210  0.749909  0.135105  1
  Pb  Pb30  1  0.542688  0.249784  0.635351  1
  Pb  Pb31  1  0.043140  0.250038  0.864732  1
  Pb  Pb32  1  0.673395  0.750090  0.852359  1
  Pb  Pb33  1  0.173481  0.749940  0.647066  1
  Pb  Pb34  1  0.326793  0.249802  0.147328  1
  Pb  Pb35  1  0.826062  0.249750  0.353158  1
