# generated using pymatgen
data_Dy7YSe12
_symmetry_space_group_name_H-M   'P 1'
_cell_length_a   7.10181045
_cell_length_b   7.10389610
_cell_length_c   12.96571704
_cell_angle_alpha   100.65020047
_cell_angle_beta   100.64512930
_cell_angle_gamma   108.97605818
_symmetry_Int_Tables_number   1
_chemical_formula_structural   Dy7YSe12
_chemical_formula_sum   'Dy7 Y1 Se12'
_cell_volume   586.45005106
_cell_formula_units_Z   1
loop_
 _symmetry_equiv_pos_site_id
 _symmetry_equiv_pos_as_xyz
  1  'x, y, z'
loop_
 _atom_site_type_symbol
 _atom_site_label
 _atom_site_symmetry_multiplicity
 _atom_site_fract_x
 _atom_site_fract_y
 _atom_site_fract_z
 _atom_site_occupancy
  Dy  Dy0  1  0.622532  0.872505  0.245075  1
  Dy  Dy1  1  0.127532  0.377490  0.254994  1
  Dy  Dy2  1  0.208836  0.958799  0.417686  1
  Dy  Dy3  1  0.791166  0.041219  0.582333  1
  Dy  Dy4  1  0.872477  0.622517  0.745024  1
  Dy  Dy5  1  0.377380  0.127421  0.754783  1
  Dy  Dy6  1  0.958770  0.208807  0.917651  1
  Y  Y7  1  0.041243  0.791201  0.082405  1
  Se  Se8  1  0.805165  0.049176  0.088159  1
  Se  Se9  1  0.283144  0.538923  0.088133  1
  Se  Se10  1  0.367105  0.117107  0.250356  1
  Se  Se11  1  0.883309  0.633274  0.250323  1
  Se  Se12  1  0.951213  0.194417  0.411811  1
  Se  Se13  1  0.460672  0.717171  0.411809  1
  Se  Se14  1  0.539278  0.282819  0.588139  1
  Se  Se15  1  0.048754  0.805531  0.588139  1
  Se  Se16  1  0.116375  0.366425  0.750023  1
  Se  Se17  1  0.633639  0.883565  0.749985  1
  Se  Se18  1  0.716754  0.460265  0.911584  1
  Se  Se19  1  0.194655  0.951369  0.911586  1
