# generated using pymatgen
data_Nd4YHf3(Ni4P3)4
_symmetry_space_group_name_H-M   'P 1'
_cell_length_a   12.36495215
_cell_length_b   12.36157800
_cell_length_c   3.82523300
_cell_angle_alpha   90.00000000
_cell_angle_beta   90.00000000
_cell_angle_gamma   119.99097886
_symmetry_Int_Tables_number   1
_chemical_formula_structural   Nd4YHf3(Ni4P3)4
_chemical_formula_sum   'Nd4 Y1 Hf3 Ni16 P12'
_cell_volume   506.40076213
_cell_formula_units_Z   1
loop_
 _symmetry_equiv_pos_site_id
 _symmetry_equiv_pos_as_xyz
  1  'x, y, z'
loop_
 _atom_site_type_symbol
 _atom_site_label
 _atom_site_symmetry_multiplicity
 _atom_site_fract_x
 _atom_site_fract_y
 _atom_site_fract_z
 _atom_site_occupancy
  Nd  Nd0  1  0.187025  0.186535  0.500000  1
  Nd  Nd1  1  0.812975  0.999509  0.500000  1
  Nd  Nd2  1  0.333649  0.666941  0.000000  1
  Nd  Nd3  1  0.666351  0.333291  0.000000  1
  Y  Y4  1  0.000000  0.812038  0.500000  1
  Hf  Hf5  1  0.566858  0.566303  0.000000  1
  Hf  Hf6  1  0.433142  0.999446  0.000000  1
  Hf  Hf7  1  0.000000  0.435520  0.000000  1
  Ni  Ni8  1  0.727429  0.725078  0.500000  1
  Ni  Ni9  1  0.272571  0.997649  0.500000  1
  Ni  Ni10  1  0.000000  0.275483  0.500000  1
  Ni  Ni11  1  0.185950  0.378775  0.000000  1
  Ni  Ni12  1  0.621890  0.807369  0.000000  1
  Ni  Ni13  1  0.190290  0.813970  0.000000  1
  Ni  Ni14  1  0.809710  0.623679  0.000000  1
  Ni  Ni15  1  0.814050  0.192825  0.000000  1
  Ni  Ni16  1  0.378110  0.185480  0.000000  1
  Ni  Ni17  1  0.364542  0.485701  0.500000  1
  Ni  Ni18  1  0.514846  0.879164  0.500000  1
  Ni  Ni19  1  0.120812  0.636916  0.500000  1
  Ni  Ni20  1  0.879188  0.516103  0.500000  1
  Ni  Ni21  1  0.635458  0.121157  0.500000  1
  Ni  Ni22  1  0.485154  0.364317  0.500000  1
  Ni  Ni23  1  0.000000  0.998318  0.000000  1
  P  P24  1  0.822613  0.819189  0.000000  1
  P  P25  1  0.177387  0.996576  0.000000  1
  P  P26  1  0.000000  0.179835  0.000000  1
  P  P27  1  0.169266  0.473177  0.500000  1
  P  P28  1  0.528709  0.697241  0.500000  1
  P  P29  1  0.303341  0.830213  0.500000  1
  P  P30  1  0.696659  0.526872  0.500000  1
  P  P31  1  0.830734  0.303910  0.500000  1
  P  P32  1  0.471291  0.168532  0.500000  1
  P  P33  1  0.362149  0.362108  0.000000  1
  P  P34  1  0.637851  0.999959  0.000000  1
  P  P35  1  0.000000  0.640820  0.000000  1
