# generated using pymatgen
data_SmDy2TeP2
_symmetry_space_group_name_H-M   'P 1'
_cell_length_a   4.10839200
_cell_length_b   10.22107377
_cell_length_c   7.09454200
_cell_angle_alpha   89.86645083
_cell_angle_beta   90.00000000
_cell_angle_gamma   90.00000000
_symmetry_Int_Tables_number   1
_chemical_formula_structural   SmDy2TeP2
_chemical_formula_sum   'Sm2 Dy4 Te2 P4'
_cell_volume   297.91445900
_cell_formula_units_Z   2
loop_
 _symmetry_equiv_pos_site_id
 _symmetry_equiv_pos_as_xyz
  1  'x, y, z'
loop_
 _atom_site_type_symbol
 _atom_site_label
 _atom_site_symmetry_multiplicity
 _atom_site_fract_x
 _atom_site_fract_y
 _atom_site_fract_z
 _atom_site_occupancy
  Sm  Sm0  1  0.250000  0.500144  0.249649  1
  Sm  Sm1  1  0.750000  0.499856  0.750351  1
  Dy  Dy2  1  0.250000  0.803009  0.916789  1
  Dy  Dy3  1  0.750000  0.196991  0.083211  1
  Dy  Dy4  1  0.750000  0.802292  0.417322  1
  Dy  Dy5  1  0.250000  0.197708  0.582678  1
  Te  Te6  1  0.750000  0.000311  0.749543  1
  Te  Te7  1  0.250000  0.999689  0.250457  1
  P  P8  1  0.250000  0.663411  0.584182  1
  P  P9  1  0.750000  0.336589  0.415818  1
  P  P10  1  0.750000  0.663938  0.083711  1
  P  P11  1  0.250000  0.336062  0.916289  1
