# generated using pymatgen
data_La10AlZn3IrRu5
_symmetry_space_group_name_H-M   'P 1'
_cell_length_a   8.58374782
_cell_length_b   8.71644581
_cell_length_c   8.62736134
_cell_angle_alpha   109.88655700
_cell_angle_beta   109.43183137
_cell_angle_gamma   109.54578184
_symmetry_Int_Tables_number   1
_chemical_formula_structural   La10AlZn3IrRu5
_chemical_formula_sum   'La10 Al1 Zn3 Ir1 Ru5'
_cell_volume   494.11564377
_cell_formula_units_Z   1
loop_
 _symmetry_equiv_pos_site_id
 _symmetry_equiv_pos_as_xyz
  1  'x, y, z'
loop_
 _atom_site_type_symbol
 _atom_site_label
 _atom_site_symmetry_multiplicity
 _atom_site_fract_x
 _atom_site_fract_y
 _atom_site_fract_z
 _atom_site_occupancy
  La  La0  1  0.250612  0.688165  0.440636  1
  La  La1  1  0.748238  0.808778  0.057518  1
  La  La2  1  0.445063  0.253052  0.688146  1
  La  La3  1  0.689279  0.437675  0.248874  1
  La  La4  1  0.056602  0.742999  0.808693  1
  La  La5  1  0.810780  0.061619  0.752504  1
  La  La6  1  0.215953  0.219243  0.220101  1
  La  La7  1  0.500607  0.001713  0.283595  1
  La  La8  1  0.284032  0.504764  0.001676  1
  La  La9  1  0.999823  0.284073  0.499548  1
  Al  Al10  1  0.000648  0.912217  0.499558  1
  Zn  Zn11  1  0.497185  0.997927  0.912617  1
  Zn  Zn12  1  0.586580  0.586408  0.584132  1
  Zn  Zn13  1  0.915856  0.501279  0.002871  1
  Ir  Ir14  1  0.242214  0.119882  0.864549  1
  Ru  Ru15  1  0.746888  0.371478  0.621288  1
  Ru  Ru16  1  0.877978  0.250389  0.124457  1
  Ru  Ru17  1  0.123551  0.879352  0.257534  1
  Ru  Ru18  1  0.634602  0.754859  0.378301  1
  Ru  Ru19  1  0.373511  0.624130  0.753405  1
