# generated using pymatgen
data_Tm12ZnFe3SiSn
_symmetry_space_group_name_H-M   'P 1'
_cell_length_a   8.28196969
_cell_length_b   8.28191908
_cell_length_c   8.28197145
_cell_angle_alpha   112.50280243
_cell_angle_beta   110.72287792
_cell_angle_gamma   105.27350625
_symmetry_Int_Tables_number   1
_chemical_formula_structural   Tm12ZnFe3SiSn
_chemical_formula_sum   'Tm12 Zn1 Fe3 Si1 Sn1'
_cell_volume   435.43822081
_cell_formula_units_Z   1
loop_
 _symmetry_equiv_pos_site_id
 _symmetry_equiv_pos_as_xyz
  1  'x, y, z'
loop_
 _atom_site_type_symbol
 _atom_site_label
 _atom_site_symmetry_multiplicity
 _atom_site_fract_x
 _atom_site_fract_y
 _atom_site_fract_z
 _atom_site_occupancy
  Tm  Tm0  1  0.436364  0.237132  0.199225  1
  Tm  Tm1  1  0.570285  0.770519  0.799781  1
  Tm  Tm2  1  0.029263  0.229481  0.799767  1
  Tm  Tm3  1  0.962093  0.762868  0.199231  1
  Tm  Tm4  1  0.183556  0.285963  0.469503  1
  Tm  Tm5  1  0.813443  0.721919  0.535366  1
  Tm  Tm6  1  0.183541  0.714037  0.897592  1
  Tm  Tm7  1  0.813448  0.278081  0.091526  1
  Tm  Tm8  1  0.316419  0.624183  0.315309  1
  Tm  Tm9  1  0.691128  0.375817  0.692237  1
  Tm  Tm10  1  0.316429  0.001121  0.692240  1
  Tm  Tm11  1  0.691120  0.998879  0.315308  1
  Zn  Zn12  1  0.990414  0.000000  0.990414  1
  Fe  Fe13  1  0.644817  0.000000  0.644817  1
  Fe  Fe14  1  0.104081  0.606458  0.497615  1
  Fe  Fe15  1  0.891157  0.393542  0.497622  1
  Si  Si16  1  0.365923  0.000000  0.365923  1
  Sn  Sn17  1  0.496520  0.500000  0.996520  1
