# generated using pymatgen
data_Zn6Mo6CN
_symmetry_space_group_name_H-M   'P 1'
_cell_length_a   8.03342514
_cell_length_b   8.04793778
_cell_length_c   8.04793667
_cell_angle_alpha   60.12171874
_cell_angle_beta   60.05963022
_cell_angle_gamma   60.05962985
_symmetry_Int_Tables_number   1
_chemical_formula_structural   Zn6Mo6CN
_chemical_formula_sum   'Zn12 Mo12 C2 N2'
_cell_volume   368.59071443
_cell_formula_units_Z   2
loop_
 _symmetry_equiv_pos_site_id
 _symmetry_equiv_pos_as_xyz
  1  'x, y, z'
loop_
 _atom_site_type_symbol
 _atom_site_label
 _atom_site_symmetry_multiplicity
 _atom_site_fract_x
 _atom_site_fract_y
 _atom_site_fract_z
 _atom_site_occupancy
  Zn  Zn0  1  0.414968  0.415221  0.754840  1
  Zn  Zn1  1  0.414850  0.415111  0.415111  1
  Zn  Zn2  1  0.754926  0.415111  0.415111  1
  Zn  Zn3  1  0.414968  0.754840  0.415221  1
  Zn  Zn4  1  0.835032  0.834779  0.495160  1
  Zn  Zn5  1  0.835150  0.834889  0.834889  1
  Zn  Zn6  1  0.495074  0.834889  0.834889  1
  Zn  Zn7  1  0.835032  0.495160  0.834779  1
  Zn  Zn8  1  0.625000  0.625000  0.125000  1
  Zn  Zn9  1  0.625000  0.625000  0.625000  1
  Zn  Zn10  1  0.125000  0.625000  0.625000  1
  Zn  Zn11  1  0.625000  0.125000  0.625000  1
  Mo  Mo12  1  0.810968  0.189032  0.189032  1
  Mo  Mo13  1  0.189649  0.810688  0.189137  1
  Mo  Mo14  1  0.810526  0.810688  0.189137  1
  Mo  Mo15  1  0.189751  0.810249  0.810249  1
  Mo  Mo16  1  0.810526  0.189137  0.810688  1
  Mo  Mo17  1  0.189649  0.189137  0.810688  1
  Mo  Mo18  1  0.439032  0.060968  0.060968  1
  Mo  Mo19  1  0.060351  0.439312  0.060863  1
  Mo  Mo20  1  0.439474  0.439312  0.060863  1
  Mo  Mo21  1  0.060249  0.439751  0.439751  1
  Mo  Mo22  1  0.439474  0.060863  0.439312  1
  Mo  Mo23  1  0.060351  0.060863  0.439312  1
  C  C24  1  0.125000  0.125000  0.625000  1
  C  C25  1  0.125000  0.625000  0.125000  1
  N  N26  1  0.125000  0.125000  0.125000  1
  N  N27  1  0.625000  0.125000  0.125000  1
