# generated using pymatgen
data_Tm3AlGa4Pt
_symmetry_space_group_name_H-M   'P 1'
_cell_length_a   6.86432000
_cell_length_b   6.91467285
_cell_length_c   4.25810500
_cell_angle_alpha   90.00000000
_cell_angle_beta   90.00000000
_cell_angle_gamma   119.75941288
_symmetry_Int_Tables_number   1
_chemical_formula_structural   Tm3AlGa4Pt
_chemical_formula_sum   'Tm3 Al1 Ga4 Pt1'
_cell_volume   175.45426393
_cell_formula_units_Z   1
loop_
 _symmetry_equiv_pos_site_id
 _symmetry_equiv_pos_as_xyz
  1  'x, y, z'
loop_
 _atom_site_type_symbol
 _atom_site_label
 _atom_site_symmetry_multiplicity
 _atom_site_fract_x
 _atom_site_fract_y
 _atom_site_fract_z
 _atom_site_occupancy
  Tm  Tm0  1  0.586254  0.000000  0.000000  1
  Tm  Tm1  1  0.999149  0.583004  0.000000  1
  Tm  Tm2  1  0.416143  0.416996  0.000000  1
  Al  Al3  1  0.233367  0.000000  0.500000  1
  Ga  Ga4  1  0.003297  0.246522  0.500000  1
  Ga  Ga5  1  0.756775  0.753478  0.500000  1
  Ga  Ga6  1  0.333891  0.670777  0.500000  1
  Ga  Ga7  1  0.663115  0.329223  0.500000  1
  Pt  Pt8  1  0.008007  0.000000  0.000000  1
