# generated using pymatgen
data_YbDy3Sb6Rh7
_symmetry_space_group_name_H-M   'P 1'
_cell_length_a   7.61298314
_cell_length_b   7.61298336
_cell_length_c   7.61268900
_cell_angle_alpha   109.47043737
_cell_angle_beta   109.47043797
_cell_angle_gamma   109.47200268
_symmetry_Int_Tables_number   1
_chemical_formula_structural   YbDy3Sb6Rh7
_chemical_formula_sum   'Yb1 Dy3 Sb6 Rh7'
_cell_volume   339.64884899
_cell_formula_units_Z   1
loop_
 _symmetry_equiv_pos_site_id
 _symmetry_equiv_pos_as_xyz
  1  'x, y, z'
loop_
 _atom_site_type_symbol
 _atom_site_label
 _atom_site_symmetry_multiplicity
 _atom_site_fract_x
 _atom_site_fract_y
 _atom_site_fract_z
 _atom_site_occupancy
  Yb  Yb0  1  0.000000  0.000000  0.500000  1
  Dy  Dy1  1  0.500000  0.000000  0.000000  1
  Dy  Dy2  1  0.000000  0.500000  0.000000  1
  Dy  Dy3  1  0.500000  0.500000  0.500000  1
  Sb  Sb4  1  0.316385  0.000000  0.318744  1
  Sb  Sb5  1  0.000000  0.683615  0.681256  1
  Sb  Sb6  1  0.683615  0.683615  0.002359  1
  Sb  Sb7  1  0.683615  0.000000  0.681256  1
  Sb  Sb8  1  0.000000  0.316385  0.318744  1
  Sb  Sb9  1  0.316385  0.316385  0.997641  1
  Rh  Rh10  1  0.252216  0.504433  0.752216  1
  Rh  Rh11  1  0.504433  0.252216  0.752216  1
  Rh  Rh12  1  0.747784  0.252216  0.500000  1
  Rh  Rh13  1  0.495567  0.747784  0.247784  1
  Rh  Rh14  1  0.000000  0.000000  0.000000  1
  Rh  Rh15  1  0.252216  0.747784  0.500000  1
  Rh  Rh16  1  0.747784  0.495567  0.247784  1
