# generated using pymatgen
data_Dy2Tm3CoRu
_symmetry_space_group_name_H-M   'P 1'
_cell_length_a   6.24930014
_cell_length_b   7.05669075
_cell_length_c   8.45506215
_cell_angle_alpha   96.58905001
_cell_angle_beta   111.68847584
_cell_angle_gamma   89.99999469
_symmetry_Int_Tables_number   1
_chemical_formula_structural   Dy2Tm3CoRu
_chemical_formula_sum   'Dy4 Tm6 Co2 Ru2'
_cell_volume   343.81496905
_cell_formula_units_Z   2
loop_
 _symmetry_equiv_pos_site_id
 _symmetry_equiv_pos_as_xyz
  1  'x, y, z'
loop_
 _atom_site_type_symbol
 _atom_site_label
 _atom_site_symmetry_multiplicity
 _atom_site_fract_x
 _atom_site_fract_y
 _atom_site_fract_z
 _atom_site_occupancy
  Dy  Dy0  1  0.784818  0.087744  0.807948  1
  Dy  Dy1  1  0.976870  0.412256  0.192052  1
  Dy  Dy2  1  0.200724  0.917454  0.187654  1
  Dy  Dy3  1  0.013071  0.582546  0.812346  1
  Tm  Tm4  1  0.212999  0.189031  0.567665  1
  Tm  Tm5  1  0.645335  0.310969  0.432335  1
  Tm  Tm6  1  0.794546  0.818325  0.433627  1
  Tm  Tm7  1  0.360919  0.681675  0.566373  1
  Tm  Tm8  1  0.428036  0.250000  0.000000  1
  Tm  Tm9  1  0.577676  0.750000  0.000000  1
  Co  Co10  1  0.600485  0.423881  0.776709  1
  Co  Co11  1  0.823775  0.076119  0.223291  1
  Ru  Ru12  1  0.401442  0.572085  0.222140  1
  Ru  Ru13  1  0.179304  0.927915  0.777860  1
