# generated using pymatgen
data_CaPr6OsI12
_symmetry_space_group_name_H-M   'P 1'
_cell_length_a   10.12230017
_cell_length_b   10.12229944
_cell_length_c   10.12229959
_cell_angle_alpha   107.07873414
_cell_angle_beta   107.07872708
_cell_angle_gamma   107.07872345
_symmetry_Int_Tables_number   1
_chemical_formula_structural   CaPr6OsI12
_chemical_formula_sum   'Ca1 Pr6 Os1 I12'
_cell_volume   861.87879475
_cell_formula_units_Z   1
loop_
 _symmetry_equiv_pos_site_id
 _symmetry_equiv_pos_as_xyz
  1  'x, y, z'
loop_
 _atom_site_type_symbol
 _atom_site_label
 _atom_site_symmetry_multiplicity
 _atom_site_fract_x
 _atom_site_fract_y
 _atom_site_fract_z
 _atom_site_occupancy
  Ca  Ca0  1  0.500000  0.500000  0.500000  1
  Pr  Pr1  1  0.973891  0.900491  0.695661  1
  Pr  Pr2  1  0.026109  0.099509  0.304339  1
  Pr  Pr3  1  0.099509  0.304339  0.026109  1
  Pr  Pr4  1  0.304339  0.026109  0.099509  1
  Pr  Pr5  1  0.900491  0.695661  0.973891  1
  Pr  Pr6  1  0.695661  0.973891  0.900491  1
  Os  Os7  1  0.000000  0.000000  0.000000  1
  I  I8  1  0.538266  0.616562  0.840457  1
  I  I9  1  0.461734  0.383438  0.159543  1
  I  I10  1  0.317777  0.926352  0.773461  1
  I  I11  1  0.383438  0.159543  0.461734  1
  I  I12  1  0.926352  0.773461  0.317777  1
  I  I13  1  0.682223  0.073648  0.226539  1
  I  I14  1  0.073648  0.226539  0.682223  1
  I  I15  1  0.773461  0.317777  0.926352  1
  I  I16  1  0.226539  0.682223  0.073648  1
  I  I17  1  0.840457  0.538266  0.616562  1
  I  I18  1  0.159543  0.461734  0.383438  1
  I  I19  1  0.616562  0.840457  0.538266  1
