# generated using pymatgen
data_Tb5Er(Lu2Pb3)2
_symmetry_space_group_name_H-M   'P 1'
_cell_length_a   6.55744100
_cell_length_b   9.00786983
_cell_length_c   9.01848502
_cell_angle_alpha   119.96244237
_cell_angle_beta   89.99997869
_cell_angle_gamma   89.99915469
_symmetry_Int_Tables_number   1
_chemical_formula_structural   Tb5Er(Lu2Pb3)2
_chemical_formula_sum   'Tb5 Er1 Lu4 Pb6'
_cell_volume   461.51407494
_cell_formula_units_Z   1
loop_
 _symmetry_equiv_pos_site_id
 _symmetry_equiv_pos_as_xyz
  1  'x, y, z'
loop_
 _atom_site_type_symbol
 _atom_site_label
 _atom_site_symmetry_multiplicity
 _atom_site_fract_x
 _atom_site_fract_y
 _atom_site_fract_z
 _atom_site_occupancy
  Tb  Tb0  1  0.749994  0.236948  0.000086  1
  Tb  Tb1  1  0.749998  0.762858  0.762277  1
  Tb  Tb2  1  0.750006  0.000460  0.238187  1
  Tb  Tb3  1  0.250002  0.762829  0.999480  1
  Tb  Tb4  1  0.250011  0.237575  0.237486  1
  Er  Er5  1  0.250066  0.999602  0.762818  1
  Lu  Lu6  1  0.499880  0.333181  0.666995  1
  Lu  Lu7  1  0.499883  0.666676  0.332932  1
  Lu  Lu8  1  0.000087  0.666710  0.332945  1
  Lu  Lu9  1  0.000133  0.333211  0.666980  1
  Pb  Pb10  1  0.749945  0.603159  0.000016  1
  Pb  Pb11  1  0.749993  0.396364  0.396248  1
  Pb  Pb12  1  0.750005  0.999960  0.602857  1
  Pb  Pb13  1  0.249973  0.395259  0.998897  1
  Pb  Pb14  1  0.250000  0.605289  0.604103  1
  Pb  Pb15  1  0.250024  0.999921  0.397692  1
