# generated using pymatgen
data_Ba6Pd
_symmetry_space_group_name_H-M   'P 1'
_cell_length_a   7.87024303
_cell_length_b   7.87023451
_cell_length_c   14.87181106
_cell_angle_alpha   89.99959335
_cell_angle_beta   90.00076011
_cell_angle_gamma   120.00243887
_symmetry_Int_Tables_number   1
_chemical_formula_structural   Ba6Pd
_chemical_formula_sum   'Ba12 Pd2'
_cell_volume   797.73681380
_cell_formula_units_Z   2
loop_
 _symmetry_equiv_pos_site_id
 _symmetry_equiv_pos_as_xyz
  1  'x, y, z'
loop_
 _atom_site_type_symbol
 _atom_site_label
 _atom_site_symmetry_multiplicity
 _atom_site_fract_x
 _atom_site_fract_y
 _atom_site_fract_z
 _atom_site_occupancy
  Ba  Ba0  1  0.668031  0.004373  0.121229  1
  Ba  Ba1  1  0.995592  0.663606  0.121234  1
  Ba  Ba2  1  0.336432  0.331899  0.121233  1
  Ba  Ba3  1  0.004397  0.336444  0.378750  1
  Ba  Ba4  1  0.663557  0.668098  0.378762  1
  Ba  Ba5  1  0.331910  0.995630  0.378799  1
  Ba  Ba6  1  0.004371  0.668027  0.621233  1
  Ba  Ba7  1  0.663633  0.995602  0.621236  1
  Ba  Ba8  1  0.331913  0.336425  0.621244  1
  Ba  Ba9  1  0.336442  0.004417  0.878756  1
  Ba  Ba10  1  0.668100  0.663579  0.878771  1
  Ba  Ba11  1  0.995647  0.331912  0.878806  1
  Pd  Pd12  1  0.666697  0.333275  0.000001  1
  Pd  Pd13  1  0.333259  0.666693  0.500001  1
