# generated using pymatgen
data_Pr5B4Rh13Au2
_symmetry_space_group_name_H-M   'P 1'
_cell_length_a   4.28332600
_cell_length_b   4.28332600
_cell_length_c   21.33424800
_cell_angle_alpha   90.00000000
_cell_angle_beta   90.00000000
_cell_angle_gamma   90.00000000
_symmetry_Int_Tables_number   1
_chemical_formula_structural   Pr5B4Rh13Au2
_chemical_formula_sum   'Pr5 B4 Rh13 Au2'
_cell_volume   391.41692256
_cell_formula_units_Z   1
loop_
 _symmetry_equiv_pos_site_id
 _symmetry_equiv_pos_as_xyz
  1  'x, y, z'
loop_
 _atom_site_type_symbol
 _atom_site_label
 _atom_site_symmetry_multiplicity
 _atom_site_fract_x
 _atom_site_fract_y
 _atom_site_fract_z
 _atom_site_occupancy
  Pr  Pr0  1  0.000000  0.000000  0.894639  1
  Pr  Pr1  1  0.000000  0.000000  0.105361  1
  Pr  Pr2  1  0.000000  0.000000  0.300518  1
  Pr  Pr3  1  0.000000  0.000000  0.500000  1
  Pr  Pr4  1  0.000000  0.000000  0.699482  1
  B  B5  1  0.500000  0.500000  0.194688  1
  B  B6  1  0.500000  0.500000  0.398706  1
  B  B7  1  0.500000  0.500000  0.601294  1
  B  B8  1  0.500000  0.500000  0.805312  1
  Rh  Rh9  1  0.500000  0.500000  0.902559  1
  Rh  Rh10  1  0.500000  0.500000  0.097441  1
  Rh  Rh11  1  0.500000  0.500000  0.298727  1
  Rh  Rh12  1  0.500000  0.500000  0.500000  1
  Rh  Rh13  1  0.500000  0.500000  0.701273  1
  Rh  Rh14  1  0.500000  0.000000  0.200953  1
  Rh  Rh15  1  0.500000  0.000000  0.400116  1
  Rh  Rh16  1  0.500000  0.000000  0.599884  1
  Rh  Rh17  1  0.500000  0.000000  0.799047  1
  Rh  Rh18  1  0.000000  0.500000  0.200953  1
  Rh  Rh19  1  0.000000  0.500000  0.400116  1
  Rh  Rh20  1  0.000000  0.500000  0.599884  1
  Rh  Rh21  1  0.000000  0.500000  0.799047  1
  Au  Au22  1  0.500000  0.000000  0.000000  1
  Au  Au23  1  0.000000  0.500000  0.000000  1
