# generated using pymatgen
data_Ho3Ta(Ni4P3)2
_symmetry_space_group_name_H-M   'P 1'
_cell_length_a   3.76439500
_cell_length_b   10.69884600
_cell_length_c   12.36345500
_cell_angle_alpha   90.00000000
_cell_angle_beta   90.00000000
_cell_angle_gamma   90.00000000
_symmetry_Int_Tables_number   1
_chemical_formula_structural   Ho3Ta(Ni4P3)2
_chemical_formula_sum   'Ho6 Ta2 Ni16 P12'
_cell_volume   497.93422335
_cell_formula_units_Z   2
loop_
 _symmetry_equiv_pos_site_id
 _symmetry_equiv_pos_as_xyz
  1  'x, y, z'
loop_
 _atom_site_type_symbol
 _atom_site_label
 _atom_site_symmetry_multiplicity
 _atom_site_fract_x
 _atom_site_fract_y
 _atom_site_fract_z
 _atom_site_occupancy
  Ho  Ho0  1  0.751625  0.000000  0.474914  1
  Ho  Ho1  1  0.251625  0.500000  0.525086  1
  Ho  Ho2  1  0.251815  0.680399  0.792689  1
  Ho  Ho3  1  0.251815  0.319601  0.792689  1
  Ho  Ho4  1  0.751815  0.819601  0.207311  1
  Ho  Ho5  1  0.751815  0.180399  0.207311  1
  Ta  Ta6  1  0.251902  0.000000  0.846943  1
  Ta  Ta7  1  0.751902  0.500000  0.153057  1
  Ni  Ni8  1  0.752218  0.000000  0.016840  1
  Ni  Ni9  1  0.252218  0.500000  0.983160  1
  Ni  Ni10  1  0.251446  0.198467  0.571557  1
  Ni  Ni11  1  0.251446  0.801533  0.571557  1
  Ni  Ni12  1  0.751446  0.301533  0.428443  1
  Ni  Ni13  1  0.751446  0.698467  0.428443  1
  Ni  Ni14  1  0.251789  0.621685  0.291163  1
  Ni  Ni15  1  0.251789  0.378315  0.291163  1
  Ni  Ni16  1  0.751789  0.878315  0.708837  1
  Ni  Ni17  1  0.751789  0.121685  0.708837  1
  Ni  Ni18  1  0.252360  0.165361  0.013211  1
  Ni  Ni19  1  0.252360  0.834639  0.013211  1
  Ni  Ni20  1  0.752360  0.334639  0.986789  1
  Ni  Ni21  1  0.752360  0.665361  0.986789  1
  Ni  Ni22  1  0.251464  0.000000  0.300379  1
  Ni  Ni23  1  0.751464  0.500000  0.699621  1
  P  P24  1  0.251576  0.185819  0.386149  1
  P  P25  1  0.251576  0.814181  0.386149  1
  P  P26  1  0.751576  0.314181  0.613851  1
  P  P27  1  0.751576  0.685819  0.613851  1
  P  P28  1  0.251935  0.000000  0.123250  1
  P  P29  1  0.751935  0.500000  0.876750  1
  P  P30  1  0.252053  0.658216  0.106684  1
  P  P31  1  0.252053  0.341784  0.106684  1
  P  P32  1  0.752053  0.841784  0.893316  1
  P  P33  1  0.752053  0.158216  0.893316  1
  P  P34  1  0.251583  0.000000  0.646884  1
  P  P35  1  0.751583  0.500000  0.353116  1
