# generated using pymatgen
data_Dy5Zr3P12(Ir5Ru3)2
_symmetry_space_group_name_H-M   'P 1'
_cell_length_a   12.84297000
_cell_length_b   12.84297112
_cell_length_c   3.97757500
_cell_angle_alpha   90.00000000
_cell_angle_beta   90.00000000
_cell_angle_gamma   120.00000226
_symmetry_Int_Tables_number   1
_chemical_formula_structural   Dy5Zr3P12(Ir5Ru3)2
_chemical_formula_sum   'Dy5 Zr3 P12 Ir10 Ru6'
_cell_volume   568.17219073
_cell_formula_units_Z   1
loop_
 _symmetry_equiv_pos_site_id
 _symmetry_equiv_pos_as_xyz
  1  'x, y, z'
loop_
 _atom_site_type_symbol
 _atom_site_label
 _atom_site_symmetry_multiplicity
 _atom_site_fract_x
 _atom_site_fract_y
 _atom_site_fract_z
 _atom_site_occupancy
  Dy  Dy0  1  0.333333  0.666667  0.500000  1
  Dy  Dy1  1  0.666667  0.333333  0.500000  1
  Dy  Dy2  1  0.000000  0.813762  0.000000  1
  Dy  Dy3  1  0.186238  0.186238  0.000000  1
  Dy  Dy4  1  0.813762  0.000000  0.000000  1
  Zr  Zr5  1  0.000000  0.445309  0.500000  1
  Zr  Zr6  1  0.554691  0.554691  0.500000  1
  Zr  Zr7  1  0.445309  0.000000  0.500000  1
  P  P8  1  0.000000  0.648745  0.500000  1
  P  P9  1  0.351255  0.351255  0.500000  1
  P  P10  1  0.648745  0.000000  0.500000  1
  P  P11  1  0.521480  0.692669  0.000000  1
  P  P12  1  0.307331  0.828811  0.000000  1
  P  P13  1  0.171189  0.478520  0.000000  1
  P  P14  1  0.478520  0.171189  0.000000  1
  P  P15  1  0.692669  0.521480  0.000000  1
  P  P16  1  0.828811  0.307331  0.000000  1
  P  P17  1  0.000000  0.179918  0.500000  1
  P  P18  1  0.820082  0.820082  0.500000  1
  P  P19  1  0.179918  0.000000  0.500000  1
  Ir  Ir20  1  0.507864  0.869088  0.000000  1
  Ir  Ir21  1  0.130912  0.638777  0.000000  1
  Ir  Ir22  1  0.361223  0.492136  0.000000  1
  Ir  Ir23  1  0.492136  0.361223  0.000000  1
  Ir  Ir24  1  0.869088  0.507864  0.000000  1
  Ir  Ir25  1  0.638777  0.130912  0.000000  1
  Ir  Ir26  1  0.000000  0.276183  0.000000  1
  Ir  Ir27  1  0.723817  0.723817  0.000000  1
  Ir  Ir28  1  0.276183  0.000000  0.000000  1
  Ir  Ir29  1  0.000000  0.000000  0.500000  1
  Ru  Ru30  1  0.625346  0.806048  0.500000  1
  Ru  Ru31  1  0.193952  0.819298  0.500000  1
  Ru  Ru32  1  0.180702  0.374654  0.500000  1
  Ru  Ru33  1  0.374654  0.180702  0.500000  1
  Ru  Ru34  1  0.806048  0.625346  0.500000  1
  Ru  Ru35  1  0.819298  0.193952  0.500000  1
