# generated using pymatgen
data_Sr8Ca(BN2)6
_symmetry_space_group_name_H-M   'P 1'
_cell_length_a   7.60313200
_cell_length_b   7.60313200
_cell_length_c   7.60313200
_cell_angle_alpha   90.00000000
_cell_angle_beta   90.00000000
_cell_angle_gamma   90.00000000
_symmetry_Int_Tables_number   1
_chemical_formula_structural   Sr8Ca(BN2)6
_chemical_formula_sum   'Sr8 Ca1 B6 N12'
_cell_volume   439.51893665
_cell_formula_units_Z   1
loop_
 _symmetry_equiv_pos_site_id
 _symmetry_equiv_pos_as_xyz
  1  'x, y, z'
loop_
 _atom_site_type_symbol
 _atom_site_label
 _atom_site_symmetry_multiplicity
 _atom_site_fract_x
 _atom_site_fract_y
 _atom_site_fract_z
 _atom_site_occupancy
  Sr  Sr0  1  0.737660  0.737660  0.262340  1
  Sr  Sr1  1  0.262340  0.262340  0.737660  1
  Sr  Sr2  1  0.737660  0.262340  0.737660  1
  Sr  Sr3  1  0.262340  0.737660  0.262340  1
  Sr  Sr4  1  0.737660  0.262340  0.262340  1
  Sr  Sr5  1  0.262340  0.737660  0.737660  1
  Sr  Sr6  1  0.737660  0.737660  0.737660  1
  Sr  Sr7  1  0.262340  0.262340  0.262340  1
  Ca  Ca8  1  0.000000  0.000000  0.000000  1
  B  B9  1  0.000000  0.000000  0.500000  1
  B  B10  1  0.500000  0.500000  0.000000  1
  B  B11  1  0.500000  0.000000  0.500000  1
  B  B12  1  0.000000  0.500000  0.000000  1
  B  B13  1  0.500000  0.000000  0.000000  1
  B  B14  1  0.000000  0.500000  0.500000  1
  N  N15  1  0.500000  0.500000  0.176597  1
  N  N16  1  0.000000  0.000000  0.677759  1
  N  N17  1  0.500000  0.823403  0.500000  1
  N  N18  1  0.000000  0.322241  0.000000  1
  N  N19  1  0.322241  0.000000  0.000000  1
  N  N20  1  0.823403  0.500000  0.500000  1
  N  N21  1  0.500000  0.500000  0.823403  1
  N  N22  1  0.000000  0.000000  0.322241  1
  N  N23  1  0.500000  0.176597  0.500000  1
  N  N24  1  0.000000  0.677759  0.000000  1
  N  N25  1  0.677759  0.000000  0.000000  1
  N  N26  1  0.176597  0.500000  0.500000  1
