# generated using pymatgen
data_Tb3Ho2SnSb2
_symmetry_space_group_name_H-M   'P 1'
_cell_length_a   8.98922429
_cell_length_b   8.97457821
_cell_length_c   6.41138500
_cell_angle_alpha   90.00000000
_cell_angle_beta   90.00000000
_cell_angle_gamma   119.94612003
_symmetry_Int_Tables_number   1
_chemical_formula_structural   Tb3Ho2SnSb2
_chemical_formula_sum   'Tb6 Ho4 Sn2 Sb4'
_cell_volume   448.18187322
_cell_formula_units_Z   2
loop_
 _symmetry_equiv_pos_site_id
 _symmetry_equiv_pos_as_xyz
  1  'x, y, z'
loop_
 _atom_site_type_symbol
 _atom_site_label
 _atom_site_symmetry_multiplicity
 _atom_site_fract_x
 _atom_site_fract_y
 _atom_site_fract_z
 _atom_site_occupancy
  Tb  Tb0  1  0.754806  0.999233  0.750000  1
  Tb  Tb1  1  0.754806  0.755574  0.250000  1
  Tb  Tb2  1  0.000981  0.244470  0.250000  1
  Tb  Tb3  1  0.000981  0.756511  0.750000  1
  Tb  Tb4  1  0.244667  0.243002  0.750000  1
  Tb  Tb5  1  0.244667  0.001665  0.250000  1
  Ho  Ho6  1  0.333690  0.666845  0.000000  1
  Ho  Ho7  1  0.665139  0.332569  0.500000  1
  Ho  Ho8  1  0.665139  0.332569  0.000000  1
  Ho  Ho9  1  0.333690  0.666845  0.500000  1
  Sn  Sn10  1  0.391770  0.998941  0.750000  1
  Sn  Sn11  1  0.391770  0.392829  0.250000  1
  Sb  Sb12  1  0.999454  0.609047  0.250000  1
  Sb  Sb13  1  0.999454  0.390407  0.750000  1
  Sb  Sb14  1  0.609494  0.609244  0.750000  1
  Sb  Sb15  1  0.609494  0.000250  0.250000  1
