# generated using pymatgen
data_Cd5Ag7Au4
_symmetry_space_group_name_H-M   'P 1'
_cell_length_a   9.78711862
_cell_length_b   5.98802500
_cell_length_c   5.15272221
_cell_angle_alpha   90.00000000
_cell_angle_beta   89.55728131
_cell_angle_gamma   90.00000000
_symmetry_Int_Tables_number   1
_chemical_formula_structural   Cd5Ag7Au4
_chemical_formula_sum   'Cd5 Ag7 Au4'
_cell_volume   301.96890337
_cell_formula_units_Z   1
loop_
 _symmetry_equiv_pos_site_id
 _symmetry_equiv_pos_as_xyz
  1  'x, y, z'
loop_
 _atom_site_type_symbol
 _atom_site_label
 _atom_site_symmetry_multiplicity
 _atom_site_fract_x
 _atom_site_fract_y
 _atom_site_fract_z
 _atom_site_occupancy
  Cd  Cd0  1  0.000000  0.251604  0.000000  1
  Cd  Cd1  1  0.254812  0.504425  0.171754  1
  Cd  Cd2  1  0.000000  0.990812  0.499999  1
  Cd  Cd3  1  0.500000  0.999809  0.499999  1
  Cd  Cd4  1  0.745188  0.504425  0.828247  1
  Ag  Ag5  1  0.500000  0.249882  0.000000  1
  Ag  Ag6  1  0.000000  0.747429  0.000000  1
  Ag  Ag7  1  0.500000  0.751552  0.000000  1
  Ag  Ag8  1  0.748797  0.250615  0.332502  1
  Ag  Ag9  1  0.749100  0.749264  0.331119  1
  Ag  Ag10  1  0.251203  0.250615  0.667498  1
  Ag  Ag11  1  0.250900  0.749264  0.668881  1
  Au  Au12  1  0.250114  0.002127  0.161834  1
  Au  Au13  1  0.000000  0.495919  0.499999  1
  Au  Au14  1  0.500000  0.500128  0.499999  1
  Au  Au15  1  0.749886  0.002127  0.838167  1
