# generated using pymatgen
data_Pr2Tc2I
_symmetry_space_group_name_H-M   'P 1'
_cell_length_a   4.17444300
_cell_length_b   4.17444302
_cell_length_c   18.47061500
_cell_angle_alpha   90.00000000
_cell_angle_beta   90.00000000
_cell_angle_gamma   119.99999189
_symmetry_Int_Tables_number   1
_chemical_formula_structural   Pr2Tc2I
_chemical_formula_sum   'Pr4 Tc4 I2'
_cell_volume   278.74629030
_cell_formula_units_Z   2
loop_
 _symmetry_equiv_pos_site_id
 _symmetry_equiv_pos_as_xyz
  1  'x, y, z'
loop_
 _atom_site_type_symbol
 _atom_site_label
 _atom_site_symmetry_multiplicity
 _atom_site_fract_x
 _atom_site_fract_y
 _atom_site_fract_z
 _atom_site_occupancy
  Pr  Pr0  1  0.000000  0.000000  0.114084  1
  Pr  Pr1  1  0.000000  0.000000  0.385916  1
  Pr  Pr2  1  0.000000  0.000000  0.885916  1
  Pr  Pr3  1  0.000000  0.000000  0.614084  1
  Tc  Tc4  1  0.333333  0.666667  0.015199  1
  Tc  Tc5  1  0.666667  0.333333  0.984801  1
  Tc  Tc6  1  0.333333  0.666667  0.484801  1
  Tc  Tc7  1  0.666667  0.333333  0.515199  1
  I  I8  1  0.333333  0.666667  0.750000  1
  I  I9  1  0.666667  0.333333  0.250000  1
