# generated using pymatgen
data_Cs2Ge3BiO9
_symmetry_space_group_name_H-M   'P 1'
_cell_length_a   7.60361400
_cell_length_b   7.60361460
_cell_length_c   11.04983800
_cell_angle_alpha   90.00000000
_cell_angle_beta   90.00000000
_cell_angle_gamma   120.00000609
_symmetry_Int_Tables_number   1
_chemical_formula_structural   Cs2Ge3BiO9
_chemical_formula_sum   'Cs4 Ge6 Bi2 O18'
_cell_volume   553.25668925
_cell_formula_units_Z   2
loop_
 _symmetry_equiv_pos_site_id
 _symmetry_equiv_pos_as_xyz
  1  'x, y, z'
loop_
 _atom_site_type_symbol
 _atom_site_label
 _atom_site_symmetry_multiplicity
 _atom_site_fract_x
 _atom_site_fract_y
 _atom_site_fract_z
 _atom_site_occupancy
  Cs  Cs0  1  0.333333  0.666667  0.060820  1
  Cs  Cs1  1  0.666667  0.333333  0.560820  1
  Cs  Cs2  1  0.666667  0.333333  0.939180  1
  Cs  Cs3  1  0.333333  0.666667  0.439180  1
  Ge  Ge4  1  0.383631  0.242467  0.250000  1
  Ge  Ge5  1  0.141165  0.383631  0.750000  1
  Ge  Ge6  1  0.242467  0.858835  0.750000  1
  Ge  Ge7  1  0.757533  0.141165  0.250000  1
  Ge  Ge8  1  0.858835  0.616369  0.250000  1
  Ge  Ge9  1  0.616369  0.757533  0.750000  1
  Bi  Bi10  1  0.000000  0.000000  0.000000  1
  Bi  Bi11  1  0.000000  0.000000  0.500000  1
  O  O12  1  0.493109  0.080945  0.250000  1
  O  O13  1  0.412164  0.493109  0.750000  1
  O  O14  1  0.080945  0.587836  0.750000  1
  O  O15  1  0.919055  0.412164  0.250000  1
  O  O16  1  0.587836  0.506891  0.250000  1
  O  O17  1  0.506891  0.919055  0.750000  1
  O  O18  1  0.260806  0.229653  0.113152  1
  O  O19  1  0.031153  0.260806  0.613152  1
  O  O20  1  0.229653  0.968847  0.613152  1
  O  O21  1  0.770347  0.031153  0.113152  1
  O  O22  1  0.968847  0.739194  0.113152  1
  O  O23  1  0.739194  0.770347  0.613152  1
  O  O24  1  0.739194  0.770347  0.886848  1
  O  O25  1  0.968847  0.739194  0.386848  1
  O  O26  1  0.770347  0.031153  0.386848  1
  O  O27  1  0.229653  0.968847  0.886848  1
  O  O28  1  0.031153  0.260806  0.886848  1
  O  O29  1  0.260806  0.229653  0.386848  1
