# generated using pymatgen
data_CaEr5(Bi2Rh)8
_symmetry_space_group_name_H-M   'P 1'
_cell_length_a   4.14215600
_cell_length_b   10.85437758
_cell_length_c   16.92352100
_cell_angle_alpha   89.89686691
_cell_angle_beta   90.00000000
_cell_angle_gamma   90.00000000
_symmetry_Int_Tables_number   1
_chemical_formula_structural   CaEr5(Bi2Rh)8
_chemical_formula_sum   'Ca1 Er5 Bi16 Rh8'
_cell_volume   760.88916036
_cell_formula_units_Z   1
loop_
 _symmetry_equiv_pos_site_id
 _symmetry_equiv_pos_as_xyz
  1  'x, y, z'
loop_
 _atom_site_type_symbol
 _atom_site_label
 _atom_site_symmetry_multiplicity
 _atom_site_fract_x
 _atom_site_fract_y
 _atom_site_fract_z
 _atom_site_occupancy
  Ca  Ca0  1  0.500000  0.500000  0.000000  1
  Er  Er1  1  0.500000  0.000000  0.500000  1
  Er  Er2  1  0.500000  0.866004  0.192719  1
  Er  Er3  1  0.500000  0.133996  0.807281  1
  Er  Er4  1  0.500000  0.365718  0.308249  1
  Er  Er5  1  0.500000  0.634282  0.691751  1
  Bi  Bi6  1  0.000000  0.112378  0.214825  1
  Bi  Bi7  1  0.000000  0.887622  0.785175  1
  Bi  Bi8  1  0.000000  0.610819  0.286280  1
  Bi  Bi9  1  0.000000  0.389181  0.713720  1
  Bi  Bi10  1  0.000000  0.394755  0.146506  1
  Bi  Bi11  1  0.000000  0.605245  0.853494  1
  Bi  Bi12  1  0.000000  0.893314  0.356835  1
  Bi  Bi13  1  0.000000  0.106686  0.643165  1
  Bi  Bi14  1  0.500000  0.128611  0.037262  1
  Bi  Bi15  1  0.500000  0.871389  0.962738  1
  Bi  Bi16  1  0.500000  0.628816  0.462375  1
  Bi  Bi17  1  0.500000  0.371184  0.537625  1
  Bi  Bi18  1  0.000000  0.693566  0.087022  1
  Bi  Bi19  1  0.000000  0.306434  0.912978  1
  Bi  Bi20  1  0.000000  0.192106  0.414663  1
  Bi  Bi21  1  0.000000  0.807894  0.585337  1
  Rh  Rh22  1  0.000000  0.949893  0.083244  1
  Rh  Rh23  1  0.000000  0.050107  0.916756  1
  Rh  Rh24  1  0.000000  0.448802  0.417742  1
  Rh  Rh25  1  0.000000  0.551198  0.582258  1
  Rh  Rh26  1  0.500000  0.576518  0.178548  1
  Rh  Rh27  1  0.500000  0.423482  0.821452  1
  Rh  Rh28  1  0.500000  0.073253  0.324677  1
  Rh  Rh29  1  0.500000  0.926747  0.675323  1
