# generated using pymatgen
data_Tb2Er13Th(CdNi)4
_symmetry_space_group_name_H-M   'P 1'
_cell_length_a   9.50789453
_cell_length_b   9.50369404
_cell_length_c   9.50369479
_cell_angle_alpha   60.06713923
_cell_angle_beta   60.10357645
_cell_angle_gamma   60.10357296
_symmetry_Int_Tables_number   1
_chemical_formula_structural   Tb2Er13Th(CdNi)4
_chemical_formula_sum   'Tb2 Er13 Th1 Cd4 Ni4'
_cell_volume   608.48935047
_cell_formula_units_Z   1
loop_
 _symmetry_equiv_pos_site_id
 _symmetry_equiv_pos_as_xyz
  1  'x, y, z'
loop_
 _atom_site_type_symbol
 _atom_site_label
 _atom_site_symmetry_multiplicity
 _atom_site_fract_x
 _atom_site_fract_y
 _atom_site_fract_z
 _atom_site_occupancy
  Tb  Tb0  1  0.349550  0.350373  0.947197  1
  Tb  Tb1  1  0.349550  0.947197  0.350373  1
  Er  Er2  1  0.947533  0.350518  0.350518  1
  Er  Er3  1  0.812826  0.188705  0.188705  1
  Er  Er4  1  0.189542  0.813673  0.813673  1
  Er  Er5  1  0.188740  0.813429  0.188220  1
  Er  Er6  1  0.813617  0.189224  0.812780  1
  Er  Er7  1  0.188740  0.188220  0.813429  1
  Er  Er8  1  0.813617  0.812780  0.189224  1
  Er  Er9  1  0.937614  0.565724  0.565724  1
  Er  Er10  1  0.564407  0.936631  0.936631  1
  Er  Er11  1  0.566146  0.936457  0.565693  1
  Er  Er12  1  0.936852  0.563959  0.937049  1
  Er  Er13  1  0.566146  0.565693  0.936457  1
  Er  Er14  1  0.936852  0.937049  0.563959  1
  Th  Th15  1  0.343688  0.343798  0.343798  1
  Cd  Cd16  1  0.582771  0.580692  0.580692  1
  Cd  Cd17  1  0.582214  0.580715  0.254009  1
  Cd  Cd18  1  0.582214  0.254009  0.580715  1
  Cd  Cd19  1  0.254438  0.581108  0.581108  1
  Ni  Ni20  1  0.140912  0.143975  0.143975  1
  Ni  Ni21  1  0.139511  0.142752  0.572656  1
  Ni  Ni22  1  0.139511  0.572656  0.142752  1
  Ni  Ni23  1  0.573011  0.140662  0.140662  1
