# generated using pymatgen
data_Tb16MgCd3CoPd2Ru
_symmetry_space_group_name_H-M   'P 1'
_cell_length_a   9.73650183
_cell_length_b   9.73650235
_cell_length_c   9.76774700
_cell_angle_alpha   59.53381777
_cell_angle_beta   59.53381599
_cell_angle_gamma   59.49046929
_symmetry_Int_Tables_number   1
_chemical_formula_structural   Tb16MgCd3CoPd2Ru
_chemical_formula_sum   'Tb16 Mg1 Cd3 Co1 Pd2 Ru1'
_cell_volume   647.60824792
_cell_formula_units_Z   1
loop_
 _symmetry_equiv_pos_site_id
 _symmetry_equiv_pos_as_xyz
  1  'x, y, z'
loop_
 _atom_site_type_symbol
 _atom_site_label
 _atom_site_symmetry_multiplicity
 _atom_site_fract_x
 _atom_site_fract_y
 _atom_site_fract_z
 _atom_site_occupancy
  Tb  Tb0  1  0.349629  0.349629  0.356735  1
  Tb  Tb1  1  0.345930  0.345930  0.949337  1
  Tb  Tb2  1  0.341177  0.959353  0.346583  1
  Tb  Tb3  1  0.959353  0.341177  0.346583  1
  Tb  Tb4  1  0.820474  0.188120  0.189969  1
  Tb  Tb5  1  0.186281  0.818188  0.806636  1
  Tb  Tb6  1  0.188120  0.820474  0.189969  1
  Tb  Tb7  1  0.818188  0.186281  0.806636  1
  Tb  Tb8  1  0.187742  0.187742  0.815087  1
  Tb  Tb9  1  0.810439  0.810439  0.189657  1
  Tb  Tb10  1  0.935765  0.560591  0.568469  1
  Tb  Tb11  1  0.561058  0.934941  0.937003  1
  Tb  Tb12  1  0.560591  0.935765  0.568469  1
  Tb  Tb13  1  0.934941  0.561058  0.937003  1
  Tb  Tb14  1  0.564746  0.564746  0.937205  1
  Tb  Tb15  1  0.935944  0.935944  0.565537  1
  Mg  Mg16  1  0.575512  0.575512  0.575087  1
  Cd  Cd17  1  0.580915  0.580915  0.256769  1
  Cd  Cd18  1  0.582012  0.254248  0.581350  1
  Cd  Cd19  1  0.254248  0.582012  0.581350  1
  Co  Co20  1  0.143863  0.143863  0.138413  1
  Pd  Pd21  1  0.146327  0.572072  0.141638  1
  Pd  Pd22  1  0.572072  0.146327  0.141638  1
  Ru  Ru23  1  0.144674  0.144674  0.572874  1
