# generated using pymatgen
data_Tb12OsPd2Pt
_symmetry_space_group_name_H-M   'P 1'
_cell_length_a   6.45948333
_cell_length_b   7.16702076
_cell_length_c   9.58129600
_cell_angle_alpha   90.00000000
_cell_angle_beta   90.00000000
_cell_angle_gamma   89.81758198
_symmetry_Int_Tables_number   1
_chemical_formula_structural   Tb12OsPd2Pt
_chemical_formula_sum   'Tb12 Os1 Pd2 Pt1'
_cell_volume   443.56625609
_cell_formula_units_Z   1
loop_
 _symmetry_equiv_pos_site_id
 _symmetry_equiv_pos_as_xyz
  1  'x, y, z'
loop_
 _atom_site_type_symbol
 _atom_site_label
 _atom_site_symmetry_multiplicity
 _atom_site_fract_x
 _atom_site_fract_y
 _atom_site_fract_z
 _atom_site_occupancy
  Tb  Tb0  1  0.329144  0.684351  0.054704  1
  Tb  Tb1  1  0.170778  0.178855  0.439094  1
  Tb  Tb2  1  0.671210  0.323145  0.563299  1
  Tb  Tb3  1  0.820857  0.815280  0.937539  1
  Tb  Tb4  1  0.671210  0.323145  0.936701  1
  Tb  Tb5  1  0.820857  0.815280  0.562461  1
  Tb  Tb6  1  0.329144  0.684351  0.445296  1
  Tb  Tb7  1  0.170778  0.178855  0.060906  1
  Tb  Tb8  1  0.874027  0.528258  0.250000  1
  Tb  Tb9  1  0.634584  0.026403  0.250000  1
  Tb  Tb10  1  0.133140  0.475656  0.750000  1
  Tb  Tb11  1  0.375997  0.963269  0.750000  1
  Os  Os12  1  0.550854  0.612884  0.750000  1
  Pd  Pd13  1  0.439248  0.392202  0.250000  1
  Pd  Pd14  1  0.949795  0.112629  0.750000  1
  Pt  Pt15  1  0.058376  0.885432  0.250000  1
