# generated using pymatgen
data_Dy4TaMoRu6
_symmetry_space_group_name_H-M   'P 1'
_cell_length_a   5.60012502
_cell_length_b   5.19602767
_cell_length_c   9.20564300
_cell_angle_alpha   90.00000000
_cell_angle_beta   90.00000000
_cell_angle_gamma   122.76151554
_symmetry_Int_Tables_number   1
_chemical_formula_structural   Dy4TaMoRu6
_chemical_formula_sum   'Dy4 Ta1 Mo1 Ru6'
_cell_volume   225.25959087
_cell_formula_units_Z   1
loop_
 _symmetry_equiv_pos_site_id
 _symmetry_equiv_pos_as_xyz
  1  'x, y, z'
loop_
 _atom_site_type_symbol
 _atom_site_label
 _atom_site_symmetry_multiplicity
 _atom_site_fract_x
 _atom_site_fract_y
 _atom_site_fract_z
 _atom_site_occupancy
  Dy  Dy0  1  0.670460  0.340491  0.569361  1
  Dy  Dy1  1  0.328959  0.658143  0.435823  1
  Dy  Dy2  1  0.328959  0.658143  0.064177  1
  Dy  Dy3  1  0.670460  0.340491  0.930639  1
  Ta  Ta4  1  0.849387  0.699001  0.250000  1
  Mo  Mo5  1  0.150716  0.299982  0.750000  1
  Ru  Ru6  1  0.001599  0.003827  0.502890  1
  Ru  Ru7  1  0.001599  0.003827  0.997110  1
  Ru  Ru8  1  0.170362  0.812090  0.750000  1
  Ru  Ru9  1  0.641600  0.812142  0.750000  1
  Ru  Ru10  1  0.829240  0.186075  0.250000  1
  Ru  Ru11  1  0.356659  0.185785  0.250000  1
