# generated using pymatgen
data_Be15Nb6CuNi7
_symmetry_space_group_name_H-M   'P 1'
_cell_length_a   7.58350022
_cell_length_b   7.58268242
_cell_length_c   7.58334908
_cell_angle_alpha   59.99897969
_cell_angle_beta   60.00132474
_cell_angle_gamma   59.99900731
_symmetry_Int_Tables_number   1
_chemical_formula_structural   Be15Nb6CuNi7
_chemical_formula_sum   'Be15 Nb6 Cu1 Ni7'
_cell_volume   308.34461031
_cell_formula_units_Z   1
loop_
 _symmetry_equiv_pos_site_id
 _symmetry_equiv_pos_as_xyz
  1  'x, y, z'
loop_
 _atom_site_type_symbol
 _atom_site_label
 _atom_site_symmetry_multiplicity
 _atom_site_fract_x
 _atom_site_fract_y
 _atom_site_fract_z
 _atom_site_occupancy
  Be  Be0  1  0.501553  0.495189  0.501607  1
  Be  Be1  1  0.500735  0.499993  0.999658  1
  Be  Be2  1  0.999679  0.500006  0.500726  1
  Be  Be3  1  0.500710  0.000978  0.997584  1
  Be  Be4  1  0.997585  0.000959  0.500723  1
  Be  Be5  1  0.999654  0.500007  0.999606  1
  Be  Be6  1  0.500722  0.000978  0.500722  1
  Be  Be7  1  0.826072  0.521862  0.826053  1
  Be  Be8  1  0.172064  0.176696  0.479152  1
  Be  Be9  1  0.479141  0.176696  0.172070  1
  Be  Be10  1  0.172071  0.176696  0.172077  1
  Be  Be11  1  0.521916  0.826071  0.826027  1
  Be  Be12  1  0.826024  0.826048  0.826007  1
  Be  Be13  1  0.826042  0.826061  0.521914  1
  Be  Be14  1  0.175127  0.474579  0.175132  1
  Nb  Nb15  1  0.202984  0.203613  0.796699  1
  Nb  Nb16  1  0.200362  0.795051  0.804265  1
  Nb  Nb17  1  0.796711  0.203614  0.202961  1
  Nb  Nb18  1  0.200365  0.795040  0.200345  1
  Nb  Nb19  1  0.796695  0.203639  0.796694  1
  Nb  Nb20  1  0.804247  0.795040  0.200365  1
  Cu  Cu21  1  0.377704  0.866741  0.377752  1
  Ni  Ni22  1  0.622727  0.131794  0.622733  1
  Ni  Ni23  1  0.377192  0.377501  0.868045  1
  Ni  Ni24  1  0.868057  0.377490  0.377200  1
  Ni  Ni25  1  0.377205  0.377514  0.377224  1
  Ni  Ni26  1  0.132084  0.623391  0.622272  1
  Ni  Ni27  1  0.622303  0.623362  0.622307  1
  Ni  Ni28  1  0.622270  0.623392  0.132083  1
