# generated using pymatgen
data_Na2(TiS2)3
_symmetry_space_group_name_H-M   'P 1'
_cell_length_a   6.02101822
_cell_length_b   6.02101848
_cell_length_c   7.20683555
_cell_angle_alpha   81.99512646
_cell_angle_beta   81.99512227
_cell_angle_gamma   119.99349442
_symmetry_Int_Tables_number   1
_chemical_formula_structural   Na2(TiS2)3
_chemical_formula_sum   'Na2 Ti3 S6'
_cell_volume   217.32705938
_cell_formula_units_Z   1
loop_
 _symmetry_equiv_pos_site_id
 _symmetry_equiv_pos_as_xyz
  1  'x, y, z'
loop_
 _atom_site_type_symbol
 _atom_site_label
 _atom_site_symmetry_multiplicity
 _atom_site_fract_x
 _atom_site_fract_y
 _atom_site_fract_z
 _atom_site_occupancy
  Na  Na0  1  0.166585  0.833415  0.500000  1
  Na  Na1  1  0.833415  0.166585  0.500000  1
  Ti  Ti2  1  0.000000  0.000000  0.000000  1
  Ti  Ti3  1  0.333033  0.666967  0.000000  1
  Ti  Ti4  1  0.666967  0.333033  0.000000  1
  S  S5  1  0.929947  0.597672  0.206763  1
  S  S6  1  0.265284  0.265284  0.206289  1
  S  S7  1  0.597672  0.929947  0.206763  1
  S  S8  1  0.734716  0.734716  0.793711  1
  S  S9  1  0.070053  0.402328  0.793237  1
  S  S10  1  0.402328  0.070053  0.793237  1
