# generated using pymatgen
data_Ho16Sc4Ir11Rh
_symmetry_space_group_name_H-M   'P 1'
_cell_length_a   10.74415900
_cell_length_b   10.74415900
_cell_length_c   6.26553700
_cell_angle_alpha   90.00000000
_cell_angle_beta   90.00000000
_cell_angle_gamma   90.00000000
_symmetry_Int_Tables_number   1
_chemical_formula_structural   Ho16Sc4Ir11Rh
_chemical_formula_sum   'Ho16 Sc4 Ir11 Rh1'
_cell_volume   723.27449779
_cell_formula_units_Z   1
loop_
 _symmetry_equiv_pos_site_id
 _symmetry_equiv_pos_as_xyz
  1  'x, y, z'
loop_
 _atom_site_type_symbol
 _atom_site_label
 _atom_site_symmetry_multiplicity
 _atom_site_fract_x
 _atom_site_fract_y
 _atom_site_fract_z
 _atom_site_occupancy
  Ho  Ho0  1  0.288086  0.086427  0.378136  1
  Ho  Ho1  1  0.287921  0.913477  0.876744  1
  Ho  Ho2  1  0.712079  0.086523  0.876744  1
  Ho  Ho3  1  0.711914  0.913573  0.378136  1
  Ho  Ho4  1  0.586523  0.787921  0.876744  1
  Ho  Ho5  1  0.586427  0.211914  0.378136  1
  Ho  Ho6  1  0.413573  0.788086  0.378136  1
  Ho  Ho7  1  0.413477  0.212079  0.876744  1
  Ho  Ho8  1  0.211759  0.413569  0.622617  1
  Ho  Ho9  1  0.211738  0.586452  0.122685  1
  Ho  Ho10  1  0.788262  0.413548  0.122685  1
  Ho  Ho11  1  0.788241  0.586431  0.622617  1
  Ho  Ho12  1  0.913548  0.711738  0.122685  1
  Ho  Ho13  1  0.913569  0.288241  0.622617  1
  Ho  Ho14  1  0.086431  0.711759  0.622617  1
  Ho  Ho15  1  0.086452  0.288262  0.122685  1
  Sc  Sc16  1  0.000000  0.000000  0.499970  1
  Sc  Sc17  1  0.000000  0.000000  0.000174  1
  Sc  Sc18  1  0.500000  0.500000  0.000174  1
  Sc  Sc19  1  0.500000  0.500000  0.499970  1
  Ir  Ir20  1  0.851548  0.147859  0.249789  1
  Ir  Ir21  1  0.851699  0.851949  0.749913  1
  Ir  Ir22  1  0.148301  0.148051  0.749913  1
  Ir  Ir23  1  0.148452  0.852141  0.249789  1
  Ir  Ir24  1  0.648051  0.351699  0.749913  1
  Ir  Ir25  1  0.647859  0.648452  0.249789  1
  Ir  Ir26  1  0.352141  0.351548  0.249789  1
  Ir  Ir27  1  0.351949  0.648301  0.749913  1
  Ir  Ir28  1  0.500000  0.000000  0.622495  1
  Ir  Ir29  1  0.000000  0.500000  0.877930  1
  Ir  Ir30  1  0.000000  0.500000  0.377759  1
  Rh  Rh31  1  0.500000  0.000000  0.121994  1
