# generated using pymatgen
data_Nd8Dy12Si15Ir
_symmetry_space_group_name_H-M   'P 1'
_cell_length_a   7.54913176
_cell_length_b   7.79356555
_cell_length_c   14.80651337
_cell_angle_alpha   89.85123340
_cell_angle_beta   89.81767511
_cell_angle_gamma   90.29003732
_symmetry_Int_Tables_number   1
_chemical_formula_structural   Nd8Dy12Si15Ir
_chemical_formula_sum   'Nd8 Dy12 Si15 Ir1'
_cell_volume   871.11753451
_cell_formula_units_Z   1
loop_
 _symmetry_equiv_pos_site_id
 _symmetry_equiv_pos_as_xyz
  1  'x, y, z'
loop_
 _atom_site_type_symbol
 _atom_site_label
 _atom_site_symmetry_multiplicity
 _atom_site_fract_x
 _atom_site_fract_y
 _atom_site_fract_z
 _atom_site_occupancy
  Nd  Nd0  1  0.974351  0.816024  0.096436  1
  Nd  Nd1  1  0.473621  0.679086  0.401936  1
  Nd  Nd2  1  0.529539  0.325478  0.900672  1
  Nd  Nd3  1  0.027457  0.181919  0.599236  1
  Nd  Nd4  1  0.025837  0.184095  0.902243  1
  Nd  Nd5  1  0.528010  0.320369  0.599098  1
  Nd  Nd6  1  0.475962  0.678856  0.099240  1
  Nd  Nd7  1  0.973091  0.820181  0.401074  1
  Dy  Dy8  1  0.649783  0.993073  0.248971  1
  Dy  Dy9  1  0.148251  0.510196  0.247593  1
  Dy  Dy10  1  0.847930  0.491282  0.758421  1
  Dy  Dy11  1  0.350261  0.009932  0.752321  1
  Dy  Dy12  1  0.683488  0.812847  0.882092  1
  Dy  Dy13  1  0.178851  0.681524  0.622197  1
  Dy  Dy14  1  0.819978  0.333039  0.118938  1
  Dy  Dy15  1  0.316188  0.177518  0.376169  1
  Dy  Dy16  1  0.320113  0.177885  0.123388  1
  Dy  Dy17  1  0.819455  0.319262  0.377110  1
  Dy  Dy18  1  0.175406  0.674055  0.878871  1
  Dy  Dy19  1  0.682232  0.819421  0.622644  1
  Si  Si20  1  0.764764  0.623170  0.251530  1
  Si  Si21  1  0.266997  0.877827  0.250745  1
  Si  Si22  1  0.732599  0.118287  0.748980  1
  Si  Si23  1  0.235239  0.379397  0.747010  1
  Si  Si24  1  0.021626  0.112137  0.248598  1
  Si  Si25  1  0.524679  0.389566  0.251316  1
  Si  Si26  1  0.470239  0.612728  0.746406  1
  Si  Si27  1  0.974850  0.891154  0.748711  1
  Si  Si28  1  0.356385  0.970294  0.539363  1
  Si  Si29  1  0.642211  0.029950  0.041117  1
  Si  Si30  1  0.144583  0.468925  0.460277  1
  Si  Si31  1  0.152089  0.468684  0.041428  1
  Si  Si32  1  0.642548  0.030367  0.460293  1
  Si  Si33  1  0.355558  0.967773  0.961319  1
  Si  Si34  1  0.857169  0.530476  0.538579  1
  Ir  Ir35  1  0.858659  0.523222  0.955678  1
