# generated using pymatgen
data_Ac2Cd14Ag3
_symmetry_space_group_name_H-M   'P 1'
_cell_length_a   10.15835400
_cell_length_b   10.15835396
_cell_length_c   10.03782100
_cell_angle_alpha   90.00000000
_cell_angle_beta   90.00000000
_cell_angle_gamma   120.00000665
_symmetry_Int_Tables_number   1
_chemical_formula_structural   Ac2Cd14Ag3
_chemical_formula_sum   'Ac4 Cd28 Ag6'
_cell_volume   897.05017227
_cell_formula_units_Z   2
loop_
 _symmetry_equiv_pos_site_id
 _symmetry_equiv_pos_as_xyz
  1  'x, y, z'
loop_
 _atom_site_type_symbol
 _atom_site_label
 _atom_site_symmetry_multiplicity
 _atom_site_fract_x
 _atom_site_fract_y
 _atom_site_fract_z
 _atom_site_occupancy
  Ac  Ac0  1  0.000000  0.000000  0.250000  1
  Ac  Ac1  1  0.000000  0.000000  0.750000  1
  Ac  Ac2  1  0.333333  0.666667  0.750000  1
  Ac  Ac3  1  0.666667  0.333333  0.250000  1
  Cd  Cd4  1  0.333333  0.666667  0.403052  1
  Cd  Cd5  1  0.666667  0.333333  0.596948  1
  Cd  Cd6  1  0.666667  0.333333  0.903052  1
  Cd  Cd7  1  0.333333  0.666667  0.096948  1
  Cd  Cd8  1  0.332480  0.368732  0.250000  1
  Cd  Cd9  1  0.631268  0.963748  0.250000  1
  Cd  Cd10  1  0.036252  0.667520  0.250000  1
  Cd  Cd11  1  0.631268  0.667520  0.250000  1
  Cd  Cd12  1  0.036252  0.368732  0.250000  1
  Cd  Cd13  1  0.332480  0.963748  0.250000  1
  Cd  Cd14  1  0.667520  0.631268  0.750000  1
  Cd  Cd15  1  0.368732  0.036252  0.750000  1
  Cd  Cd16  1  0.963748  0.332480  0.750000  1
  Cd  Cd17  1  0.368732  0.332480  0.750000  1
  Cd  Cd18  1  0.963748  0.631268  0.750000  1
  Cd  Cd19  1  0.667520  0.036252  0.750000  1
  Cd  Cd20  1  0.164201  0.835799  0.523345  1
  Cd  Cd21  1  0.164201  0.328403  0.523345  1
  Cd  Cd22  1  0.671597  0.835799  0.523345  1
  Cd  Cd23  1  0.835799  0.164201  0.476655  1
  Cd  Cd24  1  0.835799  0.671597  0.476655  1
  Cd  Cd25  1  0.328403  0.164201  0.476655  1
  Cd  Cd26  1  0.835799  0.164201  0.023345  1
  Cd  Cd27  1  0.835799  0.671597  0.023345  1
  Cd  Cd28  1  0.328403  0.164201  0.023345  1
  Cd  Cd29  1  0.164201  0.835799  0.976655  1
  Cd  Cd30  1  0.164201  0.328403  0.976655  1
  Cd  Cd31  1  0.671597  0.835799  0.976655  1
  Ag  Ag32  1  0.500000  0.500000  0.500000  1
  Ag  Ag33  1  0.500000  0.000000  0.500000  1
  Ag  Ag34  1  0.000000  0.500000  0.500000  1
  Ag  Ag35  1  0.500000  0.500000  0.000000  1
  Ag  Ag36  1  0.500000  0.000000  0.000000  1
  Ag  Ag37  1  0.000000  0.500000  0.000000  1
