# generated using pymatgen
data_LiTb3Ni8
_symmetry_space_group_name_H-M   'P 1'
_cell_length_a   4.96609100
_cell_length_b   4.96609134
_cell_length_c   8.68104463
_cell_angle_alpha   73.37953028
_cell_angle_beta   90.00000000
_cell_angle_gamma   120.00000438
_symmetry_Int_Tables_number   1
_chemical_formula_structural   LiTb3Ni8
_chemical_formula_sum   'Li1 Tb3 Ni8'
_cell_volume   175.00488364
_cell_formula_units_Z   1
loop_
 _symmetry_equiv_pos_site_id
 _symmetry_equiv_pos_as_xyz
  1  'x, y, z'
loop_
 _atom_site_type_symbol
 _atom_site_label
 _atom_site_symmetry_multiplicity
 _atom_site_fract_x
 _atom_site_fract_y
 _atom_site_fract_z
 _atom_site_occupancy
  Li  Li0  1  0.316784  0.133568  0.049648  1
  Tb  Tb1  1  0.809785  0.119571  0.570644  1
  Tb  Tb2  1  0.196281  0.892560  0.411159  1
  Tb  Tb3  1  0.680943  0.861886  0.957170  1
  Ni  Ni4  1  0.999103  0.498207  0.002690  1
  Ni  Ni5  1  0.499783  0.499567  0.500650  1
  Ni  Ni6  1  0.751958  0.003916  0.249022  1
  Ni  Ni7  1  0.248789  0.997578  0.753659  1
  Ni  Ni8  1  0.751958  0.499021  0.249022  1
  Ni  Ni9  1  0.248789  0.497552  0.753659  1
  Ni  Ni10  1  0.247063  0.499021  0.249022  1
  Ni  Ni11  1  0.748763  0.497552  0.753659  1
