# generated using pymatgen
data_Sc3Pa2Os3
_symmetry_space_group_name_H-M   'P 1'
_cell_length_a   5.85609400
_cell_length_b   7.91243081
_cell_length_c   8.07696102
_cell_angle_alpha   119.32842379
_cell_angle_beta   90.00000000
_cell_angle_gamma   90.00000000
_symmetry_Int_Tables_number   1
_chemical_formula_structural   Sc3Pa2Os3
_chemical_formula_sum   'Sc6 Pa4 Os6'
_cell_volume   326.28413777
_cell_formula_units_Z   2
loop_
 _symmetry_equiv_pos_site_id
 _symmetry_equiv_pos_as_xyz
  1  'x, y, z'
loop_
 _atom_site_type_symbol
 _atom_site_label
 _atom_site_symmetry_multiplicity
 _atom_site_fract_x
 _atom_site_fract_y
 _atom_site_fract_z
 _atom_site_occupancy
  Sc  Sc0  1  0.000000  0.662242  0.324484  1
  Sc  Sc1  1  0.000000  0.337758  0.675516  1
  Sc  Sc2  1  0.500000  0.337758  0.675516  1
  Sc  Sc3  1  0.500000  0.662242  0.324484  1
  Sc  Sc4  1  0.750000  0.258538  0.000000  1
  Sc  Sc5  1  0.250000  0.741462  0.000000  1
  Pa  Pa6  1  0.750000  0.751267  0.748614  1
  Pa  Pa7  1  0.250000  0.248733  0.251386  1
  Pa  Pa8  1  0.750000  0.002653  0.251386  1
  Pa  Pa9  1  0.250000  0.997347  0.748614  1
  Os  Os10  1  0.750000  0.382367  0.393152  1
  Os  Os11  1  0.250000  0.617633  0.606848  1
  Os  Os12  1  0.750000  0.989214  0.606848  1
  Os  Os13  1  0.250000  0.010786  0.393152  1
  Os  Os14  1  0.750000  0.622769  0.000000  1
  Os  Os15  1  0.250000  0.377231  0.000000  1
