# generated using pymatgen
data_Na3Fe2P5O16
_symmetry_space_group_name_H-M   'P 1'
_cell_length_a   6.94319100
_cell_length_b   5.24044747
_cell_length_c   18.84087600
_cell_angle_alpha   89.76663739
_cell_angle_beta   90.00000000
_cell_angle_gamma   90.00000000
_symmetry_Int_Tables_number   1
_chemical_formula_structural   Na3Fe2P5O16
_chemical_formula_sum   'Na6 Fe4 P10 O32'
_cell_volume   685.52764512
_cell_formula_units_Z   2
loop_
 _symmetry_equiv_pos_site_id
 _symmetry_equiv_pos_as_xyz
  1  'x, y, z'
loop_
 _atom_site_type_symbol
 _atom_site_label
 _atom_site_symmetry_multiplicity
 _atom_site_fract_x
 _atom_site_fract_y
 _atom_site_fract_z
 _atom_site_occupancy
  Na  Na0  1  0.645603  0.750148  0.032837  1
  Na  Na1  1  0.034103  0.500000  0.750000  1
  Na  Na2  1  0.354397  0.249852  0.967163  1
  Na  Na3  1  0.354397  0.750148  0.532837  1
  Na  Na4  1  0.965897  0.500000  0.250000  1
  Na  Na5  1  0.645603  0.249852  0.467163  1
  Fe  Fe6  1  0.177150  0.731266  0.090769  1
  Fe  Fe7  1  0.177150  0.268734  0.409231  1
  Fe  Fe8  1  0.822850  0.268734  0.909231  1
  Fe  Fe9  1  0.822850  0.731266  0.590769  1
  P  P10  1  0.743459  0.000000  0.750000  1
  P  P11  1  0.256541  0.000000  0.250000  1
  P  P12  1  0.475311  0.244007  0.130206  1
  P  P13  1  0.475311  0.755993  0.369794  1
  P  P14  1  0.874958  0.772878  0.415475  1
  P  P15  1  0.524689  0.755993  0.869794  1
  P  P16  1  0.125042  0.772878  0.915475  1
  P  P17  1  0.125042  0.227122  0.584525  1
  P  P18  1  0.524689  0.244007  0.630206  1
  P  P19  1  0.874958  0.227122  0.084525  1
  O  O20  1  0.402608  0.044336  0.079016  1
  O  O21  1  0.597392  0.955664  0.920984  1
  O  O22  1  0.597392  0.044336  0.579016  1
  O  O23  1  0.700205  0.787997  0.354263  1
  O  O24  1  0.402608  0.955664  0.420984  1
  O  O25  1  0.599309  0.809305  0.790333  1
  O  O26  1  0.436575  0.518257  0.110655  1
  O  O27  1  0.976597  0.606985  0.878370  1
  O  O28  1  0.144335  0.163033  0.300484  1
  O  O29  1  0.219858  0.347360  0.518722  1
  O  O30  1  0.976597  0.393015  0.621630  1
  O  O31  1  0.023403  0.606985  0.378370  1
  O  O32  1  0.928140  0.051249  0.426690  1
  O  O33  1  0.855665  0.163033  0.800484  1
  O  O34  1  0.219858  0.652640  0.981278  1
  O  O35  1  0.436575  0.481743  0.389345  1
  O  O36  1  0.400691  0.190695  0.209667  1
  O  O37  1  0.928140  0.948751  0.073310  1
  O  O38  1  0.071860  0.948751  0.573310  1
  O  O39  1  0.599309  0.190695  0.709667  1
  O  O40  1  0.780142  0.347360  0.018722  1
  O  O41  1  0.144335  0.836967  0.199516  1
  O  O42  1  0.299795  0.787997  0.854263  1
  O  O43  1  0.023403  0.393015  0.121630  1
  O  O44  1  0.071860  0.051249  0.926690  1
  O  O45  1  0.563425  0.481743  0.889345  1
  O  O46  1  0.299795  0.212003  0.645737  1
  O  O47  1  0.563425  0.518257  0.610655  1
  O  O48  1  0.780142  0.652640  0.481278  1
  O  O49  1  0.700205  0.212003  0.145737  1
  O  O50  1  0.400691  0.809305  0.290333  1
  O  O51  1  0.855665  0.836967  0.699516  1
