# generated using pymatgen
data_Sr2Hf3As7Rh9
_symmetry_space_group_name_H-M   'P 1'
_cell_length_a   3.87797700
_cell_length_b   10.33292874
_cell_length_c   10.33293000
_cell_angle_alpha   119.99999763
_cell_angle_beta   90.00000000
_cell_angle_gamma   90.00000000
_symmetry_Int_Tables_number   1
_chemical_formula_structural   Sr2Hf3As7Rh9
_chemical_formula_sum   'Sr2 Hf3 As7 Rh9'
_cell_volume   358.57730000
_cell_formula_units_Z   1
loop_
 _symmetry_equiv_pos_site_id
 _symmetry_equiv_pos_as_xyz
  1  'x, y, z'
loop_
 _atom_site_type_symbol
 _atom_site_label
 _atom_site_symmetry_multiplicity
 _atom_site_fract_x
 _atom_site_fract_y
 _atom_site_fract_z
 _atom_site_occupancy
  Sr  Sr0  1  0.000000  0.666667  0.333333  1
  Sr  Sr1  1  0.500000  0.333333  0.666667  1
  Hf  Hf2  1  0.500000  0.772387  0.896436  1
  Hf  Hf3  1  0.500000  0.124048  0.227613  1
  Hf  Hf4  1  0.500000  0.103564  0.875952  1
  As  As5  1  0.000000  0.000000  0.000000  1
  As  As6  1  0.500000  0.707927  0.126083  1
  As  As7  1  0.500000  0.418156  0.292073  1
  As  As8  1  0.500000  0.873917  0.581844  1
  As  As9  1  0.000000  0.578301  0.690984  1
  As  As10  1  0.000000  0.112683  0.421699  1
  As  As11  1  0.000000  0.309016  0.887317  1
  Rh  Rh12  1  0.000000  0.575926  0.935327  1
  Rh  Rh13  1  0.000000  0.359401  0.424074  1
  Rh  Rh14  1  0.000000  0.064673  0.640599  1
  Rh  Rh15  1  0.000000  0.884114  0.156938  1
  Rh  Rh16  1  0.000000  0.272824  0.115886  1
  Rh  Rh17  1  0.000000  0.843062  0.727176  1
  Rh  Rh18  1  0.500000  0.951552  0.387885  1
  Rh  Rh19  1  0.500000  0.436332  0.048448  1
  Rh  Rh20  1  0.500000  0.612115  0.563668  1
