# generated using pymatgen
data_Tb6Dy10MgIn3Ru4
_symmetry_space_group_name_H-M   'P 1'
_cell_length_a   9.66185866
_cell_length_b   9.65012614
_cell_length_c   9.65012600
_cell_angle_alpha   59.99999361
_cell_angle_beta   60.04015467
_cell_angle_gamma   60.04015376
_symmetry_Int_Tables_number   1
_chemical_formula_structural   Tb6Dy10MgIn3Ru4
_chemical_formula_sum   'Tb6 Dy10 Mg1 In3 Ru4'
_cell_volume   636.61219758
_cell_formula_units_Z   1
loop_
 _symmetry_equiv_pos_site_id
 _symmetry_equiv_pos_as_xyz
  1  'x, y, z'
loop_
 _atom_site_type_symbol
 _atom_site_label
 _atom_site_symmetry_multiplicity
 _atom_site_fract_x
 _atom_site_fract_y
 _atom_site_fract_z
 _atom_site_occupancy
  Tb  Tb0  1  0.189669  0.810197  0.810197  1
  Tb  Tb1  1  0.810283  0.189783  0.189783  1
  Tb  Tb2  1  0.810283  0.189783  0.810151  1
  Tb  Tb3  1  0.189669  0.810197  0.189936  1
  Tb  Tb4  1  0.810283  0.810151  0.189783  1
  Tb  Tb5  1  0.189669  0.189936  0.810197  1
  Dy  Dy6  1  0.597621  0.596389  0.596389  1
  Dy  Dy7  1  0.597621  0.596389  0.209600  1
  Dy  Dy8  1  0.597621  0.209600  0.596389  1
  Dy  Dy9  1  0.206056  0.597982  0.597982  1
  Dy  Dy10  1  0.058012  0.441715  0.441715  1
  Dy  Dy11  1  0.439518  0.060842  0.060842  1
  Dy  Dy12  1  0.439518  0.060842  0.438799  1
  Dy  Dy13  1  0.058012  0.441715  0.058558  1
  Dy  Dy14  1  0.439518  0.438799  0.060842  1
  Dy  Dy15  1  0.058012  0.058558  0.441715  1
  Mg  Mg16  1  0.520544  0.826485  0.826485  1
  In  In17  1  0.830511  0.831902  0.831902  1
  In  In18  1  0.830511  0.831902  0.505682  1
  In  In19  1  0.830511  0.505682  0.831902  1
  Ru  Ru20  1  0.388286  0.389862  0.389862  1
  Ru  Ru21  1  0.388286  0.389862  0.831987  1
  Ru  Ru22  1  0.388286  0.831987  0.389862  1
  Ru  Ru23  1  0.831692  0.389436  0.389436  1
