# generated using pymatgen
data_Dy6Y4Cd3Fe
_symmetry_space_group_name_H-M   'P 1'
_cell_length_a   9.58857300
_cell_length_b   9.58857379
_cell_length_c   9.77737600
_cell_angle_alpha   90.00000000
_cell_angle_beta   90.00000000
_cell_angle_gamma   119.99999384
_symmetry_Int_Tables_number   1
_chemical_formula_structural   Dy6Y4Cd3Fe
_chemical_formula_sum   'Dy12 Y8 Cd6 Fe2'
_cell_volume   778.50421628
_cell_formula_units_Z   2
loop_
 _symmetry_equiv_pos_site_id
 _symmetry_equiv_pos_as_xyz
  1  'x, y, z'
loop_
 _atom_site_type_symbol
 _atom_site_label
 _atom_site_symmetry_multiplicity
 _atom_site_fract_x
 _atom_site_fract_y
 _atom_site_fract_z
 _atom_site_occupancy
  Dy  Dy0  1  0.212409  0.787591  0.435506  1
  Dy  Dy1  1  0.212409  0.424819  0.435506  1
  Dy  Dy2  1  0.575181  0.787591  0.435506  1
  Dy  Dy3  1  0.787591  0.212409  0.564494  1
  Dy  Dy4  1  0.787591  0.575181  0.564494  1
  Dy  Dy5  1  0.424819  0.212409  0.564494  1
  Dy  Dy6  1  0.787591  0.212409  0.935506  1
  Dy  Dy7  1  0.787591  0.575181  0.935506  1
  Dy  Dy8  1  0.424819  0.212409  0.935506  1
  Dy  Dy9  1  0.212409  0.787591  0.064494  1
  Dy  Dy10  1  0.212409  0.424819  0.064494  1
  Dy  Dy11  1  0.575181  0.787591  0.064494  1
  Y  Y12  1  0.000000  0.000000  0.500000  1
  Y  Y13  1  0.000000  0.000000  0.000000  1
  Y  Y14  1  0.541501  0.458499  0.250000  1
  Y  Y15  1  0.541501  0.083002  0.250000  1
  Y  Y16  1  0.916998  0.458499  0.250000  1
  Y  Y17  1  0.458499  0.541501  0.750000  1
  Y  Y18  1  0.458499  0.916998  0.750000  1
  Y  Y19  1  0.083002  0.541501  0.750000  1
  Cd  Cd20  1  0.885239  0.114761  0.250000  1
  Cd  Cd21  1  0.885239  0.770477  0.250000  1
  Cd  Cd22  1  0.229523  0.114761  0.250000  1
  Cd  Cd23  1  0.114761  0.885239  0.750000  1
  Cd  Cd24  1  0.114761  0.229523  0.750000  1
  Cd  Cd25  1  0.770477  0.885239  0.750000  1
  Fe  Fe26  1  0.333333  0.666667  0.250000  1
  Fe  Fe27  1  0.666667  0.333333  0.750000  1
