# generated using pymatgen
data_Zr7ScTa2Ti7Si16W3
_symmetry_space_group_name_H-M   'P 1'
_cell_length_a   6.64987624
_cell_length_b   6.79424355
_cell_length_c   12.98527600
_cell_angle_alpha   89.98132093
_cell_angle_beta   90.01555200
_cell_angle_gamma   90.05552787
_symmetry_Int_Tables_number   1
_chemical_formula_structural   Zr7ScTa2Ti7Si16W3
_chemical_formula_sum   'Zr7 Sc1 Ta2 Ti7 Si16 W3'
_cell_volume   586.68585280
_cell_formula_units_Z   1
loop_
 _symmetry_equiv_pos_site_id
 _symmetry_equiv_pos_as_xyz
  1  'x, y, z'
loop_
 _atom_site_type_symbol
 _atom_site_label
 _atom_site_symmetry_multiplicity
 _atom_site_fract_x
 _atom_site_fract_y
 _atom_site_fract_z
 _atom_site_occupancy
  Zr  Zr0  1  0.501062  0.673028  0.594740  1
  Zr  Zr1  1  0.997771  0.827175  0.906057  1
  Zr  Zr2  1  0.502016  0.327614  0.094484  1
  Zr  Zr3  1  0.001990  0.172493  0.405359  1
  Zr  Zr4  1  0.501730  0.326892  0.405428  1
  Zr  Zr5  1  0.003522  0.172275  0.094869  1
  Zr  Zr6  1  0.498454  0.672529  0.905929  1
  Sc  Sc7  1  0.997278  0.829014  0.594466  1
  Ta  Ta8  1  0.665006  0.172326  0.623936  1
  Ta  Ta9  1  0.838427  0.493185  0.750847  1
  Ti  Ti10  1  0.165268  0.328878  0.876139  1
  Ti  Ti11  1  0.334209  0.829667  0.125027  1
  Ti  Ti12  1  0.834659  0.669482  0.373701  1
  Ti  Ti13  1  0.333982  0.829043  0.374392  1
  Ti  Ti14  1  0.834509  0.670309  0.125481  1
  Ti  Ti15  1  0.665831  0.170111  0.875765  1
  Ti  Ti16  1  0.166326  0.327591  0.624359  1
  Si  Si17  1  0.666945  0.959019  0.458964  1
  Si  Si18  1  0.168355  0.538644  0.039699  1
  Si  Si19  1  0.331220  0.039049  0.961485  1
  Si  Si20  1  0.834360  0.467095  0.537065  1
  Si  Si21  1  0.327707  0.035526  0.537973  1
  Si  Si22  1  0.831257  0.461128  0.962680  1
  Si  Si23  1  0.668547  0.961359  0.039433  1
  Si  Si24  1  0.168450  0.538496  0.460569  1
  Si  Si25  1  0.459476  0.381998  0.751921  1
  Si  Si26  1  0.967214  0.116372  0.750962  1
  Si  Si27  1  0.535609  0.618345  0.249706  1
  Si  Si28  1  0.035756  0.881756  0.249866  1
  Si  Si29  1  0.704791  0.864824  0.750454  1
  Si  Si30  1  0.204676  0.638600  0.748691  1
  Si  Si31  1  0.296539  0.136081  0.249944  1
  Si  Si32  1  0.795977  0.363363  0.250050  1
  W  W33  1  0.339609  0.007216  0.750311  1
  W  W34  1  0.160785  0.506606  0.249814  1
  W  W35  1  0.660681  0.992909  0.249434  1
