# generated using pymatgen
data_YbScNi6B
_symmetry_space_group_name_H-M   'P 1'
_cell_length_a   5.33434451
_cell_length_b   5.33434445
_cell_length_c   5.33434500
_cell_angle_alpha   60.00000278
_cell_angle_beta   60.00000313
_cell_angle_gamma   59.99999816
_symmetry_Int_Tables_number   1
_chemical_formula_structural   YbScNi6B
_chemical_formula_sum   'Yb1 Sc1 Ni6 B1'
_cell_volume   107.33175519
_cell_formula_units_Z   1
loop_
 _symmetry_equiv_pos_site_id
 _symmetry_equiv_pos_as_xyz
  1  'x, y, z'
loop_
 _atom_site_type_symbol
 _atom_site_label
 _atom_site_symmetry_multiplicity
 _atom_site_fract_x
 _atom_site_fract_y
 _atom_site_fract_z
 _atom_site_occupancy
  Yb  Yb0  1  0.250000  0.250000  0.250000  1
  Sc  Sc1  1  0.750000  0.750000  0.750000  1
  Ni  Ni2  1  0.738792  0.261209  0.261209  1
  Ni  Ni3  1  0.261209  0.738792  0.261209  1
  Ni  Ni4  1  0.738791  0.738791  0.261210  1
  Ni  Ni5  1  0.261209  0.261209  0.738792  1
  Ni  Ni6  1  0.738791  0.261210  0.738791  1
  Ni  Ni7  1  0.261210  0.738791  0.738791  1
  B  B8  1  0.000000  0.000000  0.000000  1
