# generated using pymatgen
data_HoTmU2(InIr2)2
_symmetry_space_group_name_H-M   'P 1'
_cell_length_a   7.68906155
_cell_length_b   7.68906105
_cell_length_c   3.56427800
_cell_angle_alpha   90.00000000
_cell_angle_beta   90.00000000
_cell_angle_gamma   85.33708738
_symmetry_Int_Tables_number   1
_chemical_formula_structural   HoTmU2(InIr2)2
_chemical_formula_sum   'Ho1 Tm1 U2 In2 Ir4'
_cell_volume   210.02858762
_cell_formula_units_Z   1
loop_
 _symmetry_equiv_pos_site_id
 _symmetry_equiv_pos_as_xyz
  1  'x, y, z'
loop_
 _atom_site_type_symbol
 _atom_site_label
 _atom_site_symmetry_multiplicity
 _atom_site_fract_x
 _atom_site_fract_y
 _atom_site_fract_z
 _atom_site_occupancy
  Ho  Ho0  1  0.330420  0.830420  0.500000  1
  Tm  Tm1  1  0.669525  0.169525  0.500000  1
  U  U2  1  0.167698  0.332148  0.500000  1
  U  U3  1  0.832148  0.667698  0.500000  1
  In  In4  1  0.500421  0.499484  0.000000  1
  In  In5  1  0.999484  0.000421  0.000000  1
  Ir  Ir6  1  0.124095  0.624095  0.000000  1
  Ir  Ir7  1  0.874856  0.374856  0.000000  1
  Ir  Ir8  1  0.645613  0.855740  0.000000  1
  Ir  Ir9  1  0.355740  0.145613  0.000000  1
