# generated using pymatgen
data_K2ReNiP2
_symmetry_space_group_name_H-M   'P 1'
_cell_length_a   3.88274900
_cell_length_b   3.88274900
_cell_length_c   10.98223400
_cell_angle_alpha   90.00000000
_cell_angle_beta   90.00000000
_cell_angle_gamma   90.00000000
_symmetry_Int_Tables_number   1
_chemical_formula_structural   K2ReNiP2
_chemical_formula_sum   'K2 Re1 Ni1 P2'
_cell_volume   165.56530217
_cell_formula_units_Z   1
loop_
 _symmetry_equiv_pos_site_id
 _symmetry_equiv_pos_as_xyz
  1  'x, y, z'
loop_
 _atom_site_type_symbol
 _atom_site_label
 _atom_site_symmetry_multiplicity
 _atom_site_fract_x
 _atom_site_fract_y
 _atom_site_fract_z
 _atom_site_occupancy
  K  K0  1  0.000000  0.500000  0.291043  1
  K  K1  1  0.500000  0.000000  0.708957  1
  Re  Re2  1  0.000000  0.000000  0.000000  1
  Ni  Ni3  1  0.500000  0.500000  0.000000  1
  P  P4  1  0.000000  0.500000  0.882546  1
  P  P5  1  0.500000  0.000000  0.117454  1
