# generated using pymatgen
data_HoLuZr2(Al8Pt3)3
_symmetry_space_group_name_H-M   'P 1'
_cell_length_a   7.50198169
_cell_length_b   7.50795443
_cell_length_c   13.02903922
_cell_angle_alpha   84.52505550
_cell_angle_beta   78.94527322
_cell_angle_gamma   59.94731321
_symmetry_Int_Tables_number   1
_chemical_formula_structural   HoLuZr2(Al8Pt3)3
_chemical_formula_sum   'Ho1 Lu1 Zr2 Al24 Pt9'
_cell_volume   623.41243333
_cell_formula_units_Z   1
loop_
 _symmetry_equiv_pos_site_id
 _symmetry_equiv_pos_as_xyz
  1  'x, y, z'
loop_
 _atom_site_type_symbol
 _atom_site_label
 _atom_site_symmetry_multiplicity
 _atom_site_fract_x
 _atom_site_fract_y
 _atom_site_fract_z
 _atom_site_occupancy
  Ho  Ho0  1  0.733441  0.498332  0.808248  1
  Lu  Lu1  1  0.265810  0.501580  0.193393  1
  Zr  Zr2  1  0.393338  0.167968  0.810622  1
  Zr  Zr3  1  0.606568  0.832454  0.189243  1
  Al  Al4  1  0.681441  0.835957  0.943779  1
  Al  Al5  1  0.318229  0.164865  0.057408  1
  Al  Al6  1  0.146149  0.832997  0.562826  1
  Al  Al7  1  0.854078  0.166845  0.436788  1
  Al  Al8  1  0.479937  0.166905  0.560936  1
  Al  Al9  1  0.520214  0.833071  0.438562  1
  Al  Al10  1  0.220947  0.163389  0.325921  1
  Al  Al11  1  0.779455  0.836608  0.673162  1
  Al  Al12  1  0.436279  0.504448  0.673338  1
  Al  Al13  1  0.563826  0.495569  0.325762  1
  Al  Al14  1  0.111176  0.160156  0.672034  1
  Al  Al15  1  0.889377  0.839612  0.327044  1
  Al  Al16  1  0.352888  0.497317  0.943057  1
  Al  Al17  1  0.645540  0.503014  0.058515  1
  Al  Al18  1  0.018383  0.167659  0.951209  1
  Al  Al19  1  0.981992  0.831533  0.050014  1
  Al  Al20  1  0.186643  0.499633  0.440491  1
  Al  Al21  1  0.813575  0.500320  0.559186  1
  Al  Al22  1  0.732511  0.159610  0.183542  1
  Al  Al23  1  0.266638  0.841070  0.816319  1
  Al  Al24  1  0.065883  0.626603  0.815347  1
  Al  Al25  1  0.934896  0.373610  0.184538  1
  Al  Al26  1  0.850596  0.040972  0.815836  1
  Al  Al27  1  0.149706  0.957910  0.184054  1
  Pt  Pt28  1  0.119637  0.490959  0.639462  1
  Pt  Pt29  1  0.880952  0.509049  0.360110  1
  Pt  Pt30  1  0.656333  0.173260  0.999648  1
  Pt  Pt31  1  0.343617  0.826866  0.000442  1
  Pt  Pt32  1  0.536300  0.167384  0.361070  1
  Pt  Pt33  1  0.463547  0.832848  0.638405  1
  Pt  Pt34  1  0.778532  0.176577  0.637664  1
  Pt  Pt35  1  0.221786  0.822898  0.361921  1
  Pt  Pt36  1  0.999780  0.500153  0.000103  1
