# generated using pymatgen
data_Sm8Sc12Si15P
_symmetry_space_group_name_H-M   'P 1'
_cell_length_a   7.17636132
_cell_length_b   7.44035583
_cell_length_c   14.10462100
_cell_angle_alpha   90.00000000
_cell_angle_beta   90.00000000
_cell_angle_gamma   90.18061542
_symmetry_Int_Tables_number   1
_chemical_formula_structural   Sm8Sc12Si15P
_chemical_formula_sum   'Sm8 Sc12 Si15 P1'
_cell_volume   753.10800815
_cell_formula_units_Z   1
loop_
 _symmetry_equiv_pos_site_id
 _symmetry_equiv_pos_as_xyz
  1  'x, y, z'
loop_
 _atom_site_type_symbol
 _atom_site_label
 _atom_site_symmetry_multiplicity
 _atom_site_fract_x
 _atom_site_fract_y
 _atom_site_fract_z
 _atom_site_occupancy
  Sm  Sm0  1  0.010930  0.173532  0.097371  1
  Sm  Sm1  1  0.990472  0.828939  0.900043  1
  Sm  Sm2  1  0.489401  0.673038  0.903247  1
  Sm  Sm3  1  0.990472  0.828939  0.599957  1
  Sm  Sm4  1  0.512072  0.326672  0.096854  1
  Sm  Sm5  1  0.010930  0.173532  0.402629  1
  Sm  Sm6  1  0.512072  0.326672  0.403146  1
  Sm  Sm7  1  0.489401  0.673038  0.596753  1
  Sc  Sc8  1  0.159404  0.500987  0.750000  1
  Sc  Sc9  1  0.839493  0.499014  0.250000  1
  Sc  Sc10  1  0.340473  0.000843  0.250000  1
  Sc  Sc11  1  0.660512  0.000509  0.750000  1
  Sc  Sc12  1  0.325505  0.171869  0.627611  1
  Sc  Sc13  1  0.669558  0.824597  0.375166  1
  Sc  Sc14  1  0.169037  0.676541  0.375087  1
  Sc  Sc15  1  0.669558  0.824597  0.124834  1
  Sc  Sc16  1  0.832366  0.323048  0.626826  1
  Sc  Sc17  1  0.325505  0.171869  0.872389  1
  Sc  Sc18  1  0.832366  0.323048  0.873174  1
  Sc  Sc19  1  0.169037  0.676541  0.124913  1
  Si  Si20  1  0.965750  0.879020  0.250000  1
  Si  Si21  1  0.466004  0.620365  0.250000  1
  Si  Si22  1  0.531611  0.377028  0.750000  1
  Si  Si23  1  0.297257  0.867429  0.750000  1
  Si  Si24  1  0.713211  0.121767  0.250000  1
  Si  Si25  1  0.214191  0.378514  0.250000  1
  Si  Si26  1  0.787820  0.623165  0.750000  1
  Si  Si27  1  0.153894  0.462836  0.540303  1
  Si  Si28  1  0.845844  0.537063  0.461538  1
  Si  Si29  1  0.344197  0.964531  0.460581  1
  Si  Si30  1  0.845844  0.537063  0.038462  1
  Si  Si31  1  0.655133  0.037340  0.540785  1
  Si  Si32  1  0.153894  0.462836  0.959697  1
  Si  Si33  1  0.655133  0.037340  0.959215  1
  Si  Si34  1  0.344197  0.964531  0.039419  1
  P  P35  1  0.027456  0.131347  0.750000  1
