# generated using pymatgen
data_Mg3Hg(PN2)6
_symmetry_space_group_name_H-M   'P 1'
_cell_length_a   7.28983027
_cell_length_b   7.28982858
_cell_length_c   7.28982933
_cell_angle_alpha   109.56767550
_cell_angle_beta   109.56768274
_cell_angle_gamma   109.56766497
_symmetry_Int_Tables_number   1
_chemical_formula_structural   Mg3Hg(PN2)6
_chemical_formula_sum   'Mg3 Hg1 P6 N12'
_cell_volume   297.14576334
_cell_formula_units_Z   1
loop_
 _symmetry_equiv_pos_site_id
 _symmetry_equiv_pos_as_xyz
  1  'x, y, z'
loop_
 _atom_site_type_symbol
 _atom_site_label
 _atom_site_symmetry_multiplicity
 _atom_site_fract_x
 _atom_site_fract_y
 _atom_site_fract_z
 _atom_site_occupancy
  Mg  Mg0  1  0.006694  0.389989  0.006694  1
  Mg  Mg1  1  0.006694  0.006694  0.389989  1
  Mg  Mg2  1  0.389989  0.006694  0.006694  1
  Hg  Hg3  1  0.847049  0.847049  0.847049  1
  P  P4  1  0.506092  0.260790  0.754976  1
  P  P5  1  0.260790  0.754976  0.506092  1
  P  P6  1  0.754976  0.506092  0.260790  1
  P  P7  1  0.754976  0.260790  0.506092  1
  P  P8  1  0.506092  0.754976  0.260790  1
  P  P9  1  0.260790  0.506092  0.754976  1
  N  N10  1  0.439253  0.716582  0.439253  1
  N  N11  1  0.716582  0.439253  0.439253  1
  N  N12  1  0.439253  0.439253  0.716582  1
  N  N13  1  0.727526  0.290131  0.727526  1
  N  N14  1  0.005601  0.572253  0.284940  1
  N  N15  1  0.284940  0.572253  0.005601  1
  N  N16  1  0.284940  0.005601  0.572253  1
  N  N17  1  0.005601  0.284940  0.572253  1
  N  N18  1  0.727526  0.727526  0.290131  1
  N  N19  1  0.572253  0.005601  0.284940  1
  N  N20  1  0.290131  0.727526  0.727526  1
  N  N21  1  0.572253  0.284940  0.005601  1
