# generated using pymatgen
data_TbHo3Fe4(Co4P3)4
_symmetry_space_group_name_H-M   'P 1'
_cell_length_a   3.65826200
_cell_length_b   10.25278206
_cell_length_c   11.76727306
_cell_angle_alpha   90.01203680
_cell_angle_beta   90.00000000
_cell_angle_gamma   90.00000000
_symmetry_Int_Tables_number   1
_chemical_formula_structural   TbHo3Fe4(Co4P3)4
_chemical_formula_sum   'Tb1 Ho3 Fe4 Co16 P12'
_cell_volume   441.35937253
_cell_formula_units_Z   1
loop_
 _symmetry_equiv_pos_site_id
 _symmetry_equiv_pos_as_xyz
  1  'x, y, z'
loop_
 _atom_site_type_symbol
 _atom_site_label
 _atom_site_symmetry_multiplicity
 _atom_site_fract_x
 _atom_site_fract_y
 _atom_site_fract_z
 _atom_site_occupancy
  Tb  Tb0  1  0.250000  0.581476  0.703266  1
  Ho  Ho1  1  0.250000  0.918552  0.203264  1
  Ho  Ho2  1  0.750000  0.418577  0.296782  1
  Ho  Ho3  1  0.750000  0.081433  0.796761  1
  Fe  Fe4  1  0.250000  0.709901  0.987328  1
  Fe  Fe5  1  0.250000  0.790130  0.487275  1
  Fe  Fe6  1  0.750000  0.290062  0.012691  1
  Fe  Fe7  1  0.750000  0.209864  0.512623  1
  Co  Co8  1  0.250000  0.405836  0.486988  1
  Co  Co9  1  0.250000  0.094065  0.987107  1
  Co  Co10  1  0.750000  0.594043  0.512347  1
  Co  Co11  1  0.750000  0.905949  0.012910  1
  Co  Co12  1  0.250000  0.221238  0.176536  1
  Co  Co13  1  0.250000  0.278590  0.676497  1
  Co  Co14  1  0.750000  0.779074  0.823614  1
  Co  Co15  1  0.750000  0.721252  0.323439  1
  Co  Co16  1  0.250000  0.882591  0.698346  1
  Co  Co17  1  0.250000  0.617652  0.198392  1
  Co  Co18  1  0.750000  0.117655  0.301621  1
  Co  Co19  1  0.750000  0.381936  0.801862  1
  Co  Co20  1  0.250000  0.466426  0.933212  1
  Co  Co21  1  0.250000  0.033446  0.432928  1
  Co  Co22  1  0.750000  0.533436  0.067169  1
  Co  Co23  1  0.750000  0.966693  0.567017  1
  P  P24  1  0.250000  0.418930  0.113253  1
  P  P25  1  0.250000  0.081031  0.613214  1
  P  P26  1  0.750000  0.581043  0.887339  1
  P  P27  1  0.750000  0.918931  0.386773  1
  P  P28  1  0.250000  0.269480  0.868145  1
  P  P29  1  0.250000  0.230557  0.368134  1
  P  P30  1  0.750000  0.730557  0.131846  1
  P  P31  1  0.750000  0.770152  0.631595  1
  P  P32  1  0.250000  0.601895  0.392285  1
  P  P33  1  0.250000  0.898084  0.892219  1
  P  P34  1  0.750000  0.397569  0.607472  1
  P  P35  1  0.750000  0.101896  0.107750  1
