# generated using pymatgen
data_Be2AlTc2
_symmetry_space_group_name_H-M   'P 1'
_cell_length_a   5.99376000
_cell_length_b   5.99376000
_cell_length_c   3.16825200
_cell_angle_alpha   90.00000000
_cell_angle_beta   90.00000000
_cell_angle_gamma   90.00000000
_symmetry_Int_Tables_number   1
_chemical_formula_structural   Be2AlTc2
_chemical_formula_sum   'Be4 Al2 Tc4'
_cell_volume   113.81995665
_cell_formula_units_Z   2
loop_
 _symmetry_equiv_pos_site_id
 _symmetry_equiv_pos_as_xyz
  1  'x, y, z'
loop_
 _atom_site_type_symbol
 _atom_site_label
 _atom_site_symmetry_multiplicity
 _atom_site_fract_x
 _atom_site_fract_y
 _atom_site_fract_z
 _atom_site_occupancy
  Be  Be0  1  0.880184  0.380184  0.000000  1
  Be  Be1  1  0.380184  0.119816  0.000000  1
  Be  Be2  1  0.619816  0.880184  0.000000  1
  Be  Be3  1  0.119816  0.619816  0.000000  1
  Al  Al4  1  0.000000  0.000000  0.000000  1
  Al  Al5  1  0.500000  0.500000  0.000000  1
  Tc  Tc6  1  0.675182  0.175182  0.500000  1
  Tc  Tc7  1  0.175182  0.324818  0.500000  1
  Tc  Tc8  1  0.824818  0.675182  0.500000  1
  Tc  Tc9  1  0.324818  0.824818  0.500000  1
