# generated using pymatgen
data_Er2P7(Ru5Rh)2
_symmetry_space_group_name_H-M   'P 1'
_cell_length_a   9.40011436
_cell_length_b   9.46470131
_cell_length_c   3.93409900
_cell_angle_alpha   90.00000000
_cell_angle_beta   90.00000000
_cell_angle_gamma   120.16053917
_symmetry_Int_Tables_number   1
_chemical_formula_structural   Er2P7(Ru5Rh)2
_chemical_formula_sum   'Er2 P7 Ru10 Rh2'
_cell_volume   302.62941138
_cell_formula_units_Z   1
loop_
 _symmetry_equiv_pos_site_id
 _symmetry_equiv_pos_as_xyz
  1  'x, y, z'
loop_
 _atom_site_type_symbol
 _atom_site_label
 _atom_site_symmetry_multiplicity
 _atom_site_fract_x
 _atom_site_fract_y
 _atom_site_fract_z
 _atom_site_occupancy
  Er  Er0  1  0.668160  0.332974  0.500000  1
  Er  Er1  1  0.329385  0.665148  0.000000  1
  P  P2  1  0.600558  0.715637  0.500000  1
  P  P3  1  0.000084  0.002358  0.000000  1
  P  P4  1  0.279464  0.880747  0.500000  1
  P  P5  1  0.114477  0.402608  0.500000  1
  P  P6  1  0.884254  0.576899  0.000000  1
  P  P7  1  0.424140  0.301663  0.000000  1
  P  P8  1  0.698485  0.119357  0.000000  1
  Ru  Ru9  1  0.913801  0.126023  0.500000  1
  Ru  Ru10  1  0.214915  0.088300  0.500000  1
  Ru  Ru11  1  0.875156  0.790454  0.500000  1
  Ru  Ru12  1  0.725060  0.889677  0.000000  1
  Ru  Ru13  1  0.108862  0.839006  0.000000  1
  Ru  Ru14  1  0.166044  0.274145  0.000000  1
  Ru  Ru15  1  0.431231  0.064474  0.000000  1
  Ru  Ru16  1  0.935680  0.363097  0.000000  1
  Ru  Ru17  1  0.636625  0.569463  0.000000  1
  Ru  Ru18  1  0.051330  0.609831  0.500000  1
  Rh  Rh19  1  0.551447  0.941957  0.500000  1
  Rh  Rh20  1  0.390844  0.446179  0.500000  1
