# generated using pymatgen
data_Dy2Er3Bi2Ru
_symmetry_space_group_name_H-M   'P 1'
_cell_length_a   7.93342400
_cell_length_b   8.97322300
_cell_length_c   12.42898700
_cell_angle_alpha   90.00000000
_cell_angle_beta   90.00000000
_cell_angle_gamma   90.00000000
_symmetry_Int_Tables_number   1
_chemical_formula_structural   Dy2Er3Bi2Ru
_chemical_formula_sum   'Dy8 Er12 Bi8 Ru4'
_cell_volume   884.79948320
_cell_formula_units_Z   4
loop_
 _symmetry_equiv_pos_site_id
 _symmetry_equiv_pos_as_xyz
  1  'x, y, z'
loop_
 _atom_site_type_symbol
 _atom_site_label
 _atom_site_symmetry_multiplicity
 _atom_site_fract_x
 _atom_site_fract_y
 _atom_site_fract_z
 _atom_site_occupancy
  Dy  Dy0  1  0.661192  0.750000  0.707748  1
  Dy  Dy1  1  0.338808  0.250000  0.292252  1
  Dy  Dy2  1  0.161192  0.250000  0.792252  1
  Dy  Dy3  1  0.838808  0.750000  0.207748  1
  Dy  Dy4  1  0.128161  0.750000  0.812001  1
  Dy  Dy5  1  0.871839  0.250000  0.187999  1
  Dy  Dy6  1  0.628161  0.250000  0.687999  1
  Dy  Dy7  1  0.371839  0.750000  0.312001  1
  Er  Er8  1  0.555117  0.750000  0.995183  1
  Er  Er9  1  0.444883  0.250000  0.004817  1
  Er  Er10  1  0.055117  0.250000  0.504817  1
  Er  Er11  1  0.944883  0.750000  0.495183  1
  Er  Er12  1  0.827165  0.458399  0.933962  1
  Er  Er13  1  0.172835  0.541601  0.066038  1
  Er  Er14  1  0.327165  0.541601  0.566038  1
  Er  Er15  1  0.172835  0.958399  0.066038  1
  Er  Er16  1  0.672835  0.458399  0.433962  1
  Er  Er17  1  0.827165  0.041601  0.933962  1
  Er  Er18  1  0.672835  0.041601  0.433962  1
  Er  Er19  1  0.327165  0.958399  0.566038  1
  Bi  Bi20  1  0.936350  0.005221  0.672159  1
  Bi  Bi21  1  0.063650  0.994779  0.327841  1
  Bi  Bi22  1  0.436350  0.994779  0.827841  1
  Bi  Bi23  1  0.063650  0.505221  0.327841  1
  Bi  Bi24  1  0.563650  0.005221  0.172159  1
  Bi  Bi25  1  0.936350  0.494779  0.672159  1
  Bi  Bi26  1  0.563650  0.494779  0.172159  1
  Bi  Bi27  1  0.436350  0.505221  0.827841  1
  Ru  Ru28  1  0.926823  0.750000  0.991186  1
  Ru  Ru29  1  0.073177  0.250000  0.008814  1
  Ru  Ru30  1  0.426823  0.250000  0.508814  1
  Ru  Ru31  1  0.573177  0.750000  0.491186  1
