# generated using pymatgen
data_Y11In9Pt4
_symmetry_space_group_name_H-M   'P 1'
_cell_length_a   13.28033274
_cell_length_b   13.28033280
_cell_length_c   3.70128400
_cell_angle_alpha   90.00000000
_cell_angle_beta   90.00000000
_cell_angle_gamma   112.85295998
_symmetry_Int_Tables_number   1
_chemical_formula_structural   Y11In9Pt4
_chemical_formula_sum   'Y11 In9 Pt4'
_cell_volume   601.54457836
_cell_formula_units_Z   1
loop_
 _symmetry_equiv_pos_site_id
 _symmetry_equiv_pos_as_xyz
  1  'x, y, z'
loop_
 _atom_site_type_symbol
 _atom_site_label
 _atom_site_symmetry_multiplicity
 _atom_site_fract_x
 _atom_site_fract_y
 _atom_site_fract_z
 _atom_site_occupancy
  Y  Y0  1  0.074502  0.414348  0.000000  1
  Y  Y1  1  0.925498  0.585652  0.000000  1
  Y  Y2  1  0.414348  0.074502  0.000000  1
  Y  Y3  1  0.585652  0.925498  0.000000  1
  Y  Y4  1  0.626029  0.373971  0.000000  1
  Y  Y5  1  0.373971  0.626029  0.000000  1
  Y  Y6  1  0.839299  0.160701  0.000000  1
  Y  Y7  1  0.160701  0.839299  0.000000  1
  Y  Y8  1  0.000000  0.000000  0.000000  1
  Y  Y9  1  0.310295  0.310295  0.000000  1
  Y  Y10  1  0.689705  0.689705  0.000000  1
  In  In11  1  0.842734  0.367121  0.500000  1
  In  In12  1  0.157266  0.632879  0.500000  1
  In  In13  1  0.367121  0.842734  0.500000  1
  In  In14  1  0.632879  0.157266  0.500000  1
  In  In15  1  0.072121  0.215258  0.500000  1
  In  In16  1  0.927879  0.784742  0.500000  1
  In  In17  1  0.215258  0.072121  0.500000  1
  In  In18  1  0.784742  0.927879  0.500000  1
  In  In19  1  0.500000  0.500000  0.500000  1
  Pt  Pt20  1  0.246179  0.448863  0.500000  1
  Pt  Pt21  1  0.753821  0.551137  0.500000  1
  Pt  Pt22  1  0.448863  0.246179  0.500000  1
  Pt  Pt23  1  0.551137  0.753821  0.500000  1
