# generated using pymatgen
data_K2Cr(PdO2)3
_symmetry_space_group_name_H-M   'P 1'
_cell_length_a   7.22916050
_cell_length_b   7.22916078
_cell_length_c   7.22916075
_cell_angle_alpha   49.61887615
_cell_angle_beta   49.61887231
_cell_angle_gamma   49.61886940
_symmetry_Int_Tables_number   1
_chemical_formula_structural   K2Cr(PdO2)3
_chemical_formula_sum   'K2 Cr1 Pd3 O6'
_cell_volume   201.57145447
_cell_formula_units_Z   1
loop_
 _symmetry_equiv_pos_site_id
 _symmetry_equiv_pos_as_xyz
  1  'x, y, z'
loop_
 _atom_site_type_symbol
 _atom_site_label
 _atom_site_symmetry_multiplicity
 _atom_site_fract_x
 _atom_site_fract_y
 _atom_site_fract_z
 _atom_site_occupancy
  K  K0  1  0.829002  0.829002  0.829002  1
  K  K1  1  0.170998  0.170998  0.170998  1
  Cr  Cr2  1  0.000000  0.000000  0.000000  1
  Pd  Pd3  1  0.000000  0.500000  0.500000  1
  Pd  Pd4  1  0.500000  0.000000  0.500000  1
  Pd  Pd5  1  0.500000  0.500000  0.000000  1
  O  O6  1  0.890803  0.385749  0.890803  1
  O  O7  1  0.890803  0.890803  0.385749  1
  O  O8  1  0.385749  0.890803  0.890803  1
  O  O9  1  0.109197  0.614251  0.109197  1
  O  O10  1  0.109197  0.109197  0.614251  1
  O  O11  1  0.614251  0.109197  0.109197  1
