# generated using pymatgen
data_Y2Lu3Tl4
_symmetry_space_group_name_H-M   'P 1'
_cell_length_a   7.83156900
_cell_length_b   8.16399000
_cell_length_c   15.65214800
_cell_angle_alpha   90.00000000
_cell_angle_beta   90.00000000
_cell_angle_gamma   90.00000000
_symmetry_Int_Tables_number   1
_chemical_formula_structural   Y2Lu3Tl4
_chemical_formula_sum   'Y8 Lu12 Tl16'
_cell_volume   1000.74905451
_cell_formula_units_Z   4
loop_
 _symmetry_equiv_pos_site_id
 _symmetry_equiv_pos_as_xyz
  1  'x, y, z'
loop_
 _atom_site_type_symbol
 _atom_site_label
 _atom_site_symmetry_multiplicity
 _atom_site_fract_x
 _atom_site_fract_y
 _atom_site_fract_z
 _atom_site_occupancy
  Y  Y0  1  0.004448  0.818053  0.404661  1
  Y  Y1  1  0.504448  0.681947  0.095339  1
  Y  Y2  1  0.495552  0.318053  0.595339  1
  Y  Y3  1  0.995552  0.181947  0.904661  1
  Y  Y4  1  0.995552  0.181947  0.595339  1
  Y  Y5  1  0.495552  0.318053  0.904661  1
  Y  Y6  1  0.504448  0.681947  0.404661  1
  Y  Y7  1  0.004448  0.818053  0.095339  1
  Lu  Lu8  1  0.676939  0.999538  0.250000  1
  Lu  Lu9  1  0.176939  0.500462  0.250000  1
  Lu  Lu10  1  0.823061  0.499538  0.750000  1
  Lu  Lu11  1  0.323061  0.000462  0.750000  1
  Lu  Lu12  1  0.657417  0.835391  0.624314  1
  Lu  Lu13  1  0.157417  0.664609  0.875686  1
  Lu  Lu14  1  0.842583  0.335391  0.375686  1
  Lu  Lu15  1  0.342583  0.164609  0.124314  1
  Lu  Lu16  1  0.342583  0.164609  0.375686  1
  Lu  Lu17  1  0.842583  0.335391  0.124314  1
  Lu  Lu18  1  0.157417  0.664609  0.624314  1
  Lu  Lu19  1  0.657417  0.835391  0.875686  1
  Tl  Tl20  1  0.807437  0.643612  0.250000  1
  Tl  Tl21  1  0.307437  0.856388  0.250000  1
  Tl  Tl22  1  0.692563  0.143612  0.750000  1
  Tl  Tl23  1  0.192563  0.356388  0.750000  1
  Tl  Tl24  1  0.539698  0.380544  0.250000  1
  Tl  Tl25  1  0.039698  0.119456  0.250000  1
  Tl  Tl26  1  0.960302  0.880544  0.750000  1
  Tl  Tl27  1  0.460302  0.619456  0.750000  1
  Tl  Tl28  1  0.815824  0.536802  0.539946  1
  Tl  Tl29  1  0.315824  0.963198  0.960054  1
  Tl  Tl30  1  0.684176  0.036802  0.460054  1
  Tl  Tl31  1  0.184176  0.463198  0.039946  1
  Tl  Tl32  1  0.184176  0.463198  0.460054  1
  Tl  Tl33  1  0.684176  0.036802  0.039946  1
  Tl  Tl34  1  0.315824  0.963198  0.539946  1
  Tl  Tl35  1  0.815824  0.536802  0.960054  1
