# generated using pymatgen
data_Ba12Si3PI8
_symmetry_space_group_name_H-M   'P 1'
_cell_length_a   16.42653252
_cell_length_b   15.67124663
_cell_length_c   8.68337499
_cell_angle_alpha   79.16559126
_cell_angle_beta   69.55607742
_cell_angle_gamma   31.48640632
_symmetry_Int_Tables_number   1
_chemical_formula_structural   Ba12Si3PI8
_chemical_formula_sum   'Ba12 Si3 P1 I8'
_cell_volume   1066.02429230
_cell_formula_units_Z   1
loop_
 _symmetry_equiv_pos_site_id
 _symmetry_equiv_pos_as_xyz
  1  'x, y, z'
loop_
 _atom_site_type_symbol
 _atom_site_label
 _atom_site_symmetry_multiplicity
 _atom_site_fract_x
 _atom_site_fract_y
 _atom_site_fract_z
 _atom_site_occupancy
  Ba  Ba0  1  0.371752  0.945084  0.589654  1
  Ba  Ba1  1  0.588206  0.094234  0.374249  1
  Ba  Ba2  1  0.304182  0.877690  0.155288  1
  Ba  Ba3  1  0.945084  0.371752  0.093512  1
  Ba  Ba4  1  0.460083  0.040604  0.040370  1
  Ba  Ba5  1  0.877690  0.304182  0.662839  1
  Ba  Ba6  1  0.094234  0.588206  0.943312  1
  Ba  Ba7  1  0.660987  0.156265  0.875165  1
  Ba  Ba8  1  0.793029  0.207842  0.207488  1
  Ba  Ba9  1  0.207842  0.793029  0.791641  1
  Ba  Ba10  1  0.156265  0.660987  0.307582  1
  Ba  Ba11  1  0.040604  0.460083  0.458943  1
  Si  Si12  1  0.918132  0.918132  0.081868  1
  Si  Si13  1  0.164263  0.164263  0.335737  1
  Si  Si14  1  0.333758  0.333758  0.166242  1
  P  P15  1  0.084256  0.084256  0.915744  1
  I  I16  1  0.671342  0.671342  0.828658  1
  I  I17  1  0.745623  0.745623  0.254377  1
  I  I18  1  0.252721  0.252721  0.747279  1
  I  I19  1  0.578021  0.578021  0.421979  1
  I  I20  1  0.996904  0.996904  0.503096  1
  I  I21  1  0.827461  0.827461  0.672539  1
  I  I22  1  0.423093  0.423093  0.576907  1
  I  I23  1  0.504467  0.504467  0.995533  1
