# generated using pymatgen
data_NaU4PbS10
_symmetry_space_group_name_H-M   'P 1'
_cell_length_a   7.39888400
_cell_length_b   8.19884964
_cell_length_c   11.65014531
_cell_angle_alpha   89.60482067
_cell_angle_beta   90.00000000
_cell_angle_gamma   90.00000000
_symmetry_Int_Tables_number   1
_chemical_formula_structural   NaU4PbS10
_chemical_formula_sum   'Na2 U8 Pb2 S20'
_cell_volume   706.70823608
_cell_formula_units_Z   2
loop_
 _symmetry_equiv_pos_site_id
 _symmetry_equiv_pos_as_xyz
  1  'x, y, z'
loop_
 _atom_site_type_symbol
 _atom_site_label
 _atom_site_symmetry_multiplicity
 _atom_site_fract_x
 _atom_site_fract_y
 _atom_site_fract_z
 _atom_site_occupancy
  Na  Na0  1  0.017586  0.995072  0.320214  1
  Na  Na1  1  0.517586  0.004928  0.179786  1
  U  U2  1  0.022787  0.499843  0.318850  1
  U  U3  1  0.522787  0.500157  0.181150  1
  U  U4  1  0.981760  0.501538  0.679613  1
  U  U5  1  0.481760  0.498462  0.820387  1
  U  U6  1  0.075007  0.748787  0.012737  1
  U  U7  1  0.575007  0.251213  0.487263  1
  U  U8  1  0.925685  0.250607  0.997937  1
  U  U9  1  0.425685  0.749393  0.502063  1
  Pb  Pb10  1  0.982229  0.007327  0.671567  1
  Pb  Pb11  1  0.482229  0.992673  0.828433  1
  S  S12  1  0.164348  0.452321  0.096989  1
  S  S13  1  0.664348  0.547679  0.403011  1
  S  S14  1  0.839091  0.545152  0.902511  1
  S  S15  1  0.339091  0.454848  0.597489  1
  S  S16  1  0.453000  0.714648  0.001467  1
  S  S17  1  0.953000  0.285352  0.498533  1
  S  S18  1  0.547661  0.282347  0.998923  1
  S  S19  1  0.047661  0.717653  0.501077  1
  S  S20  1  0.331626  0.286060  0.316777  1
  S  S21  1  0.831626  0.713940  0.183223  1
  S  S22  1  0.662187  0.719735  0.683901  1
  S  S23  1  0.162187  0.280265  0.816099  1
  S  S24  1  0.661085  0.959664  0.412691  1
  S  S25  1  0.161085  0.040336  0.087309  1
  S  S26  1  0.340321  0.038820  0.587197  1
  S  S27  1  0.840321  0.961180  0.912803  1
  S  S28  1  0.302215  0.726656  0.280254  1
  S  S29  1  0.802215  0.273344  0.219746  1
  S  S30  1  0.693413  0.271253  0.714394  1
  S  S31  1  0.193413  0.728747  0.785606  1
