# generated using pymatgen
data_Li4Y4Pt3Rh
_symmetry_space_group_name_H-M   'P 1'
_cell_length_a   3.99477800
_cell_length_b   7.06882435
_cell_length_c   8.43024164
_cell_angle_alpha   89.78515206
_cell_angle_beta   90.00000000
_cell_angle_gamma   90.00000000
_symmetry_Int_Tables_number   1
_chemical_formula_structural   Li4Y4Pt3Rh
_chemical_formula_sum   'Li4 Y4 Pt3 Rh1'
_cell_volume   238.05472692
_cell_formula_units_Z   1
loop_
 _symmetry_equiv_pos_site_id
 _symmetry_equiv_pos_as_xyz
  1  'x, y, z'
loop_
 _atom_site_type_symbol
 _atom_site_label
 _atom_site_symmetry_multiplicity
 _atom_site_fract_x
 _atom_site_fract_y
 _atom_site_fract_z
 _atom_site_occupancy
  Li  Li0  1  0.250000  0.626694  0.555985  1
  Li  Li1  1  0.750000  0.374957  0.443703  1
  Li  Li2  1  0.750000  0.875101  0.058545  1
  Li  Li3  1  0.250000  0.124807  0.943827  1
  Y  Y4  1  0.250000  0.548124  0.177885  1
  Y  Y5  1  0.750000  0.449856  0.817650  1
  Y  Y6  1  0.750000  0.958766  0.678592  1
  Y  Y7  1  0.250000  0.048637  0.323749  1
  Pt  Pt8  1  0.250000  0.745142  0.873347  1
  Pt  Pt9  1  0.750000  0.253189  0.125963  1
  Pt  Pt10  1  0.750000  0.752720  0.373885  1
  Rh  Rh11  1  0.250000  0.242005  0.626869  1
