# generated using pymatgen
data_NaNdMnPt3
_symmetry_space_group_name_H-M   'P 1'
_cell_length_a   5.28507484
_cell_length_b   5.58329704
_cell_length_c   5.58329600
_cell_angle_alpha   59.99999429
_cell_angle_beta   58.11515818
_cell_angle_gamma   58.11515987
_symmetry_Int_Tables_number   1
_chemical_formula_structural   NaNdMnPt3
_chemical_formula_sum   'Na1 Nd1 Mn1 Pt3'
_cell_volume   113.06768121
_cell_formula_units_Z   1
loop_
 _symmetry_equiv_pos_site_id
 _symmetry_equiv_pos_as_xyz
  1  'x, y, z'
loop_
 _atom_site_type_symbol
 _atom_site_label
 _atom_site_symmetry_multiplicity
 _atom_site_fract_x
 _atom_site_fract_y
 _atom_site_fract_z
 _atom_site_occupancy
  Na  Na0  1  0.007885  0.997371  0.997371  1
  Nd  Nd1  1  0.260245  0.246585  0.246585  1
  Mn  Mn2  1  0.119775  0.626742  0.626742  1
  Pt  Pt3  1  0.620699  0.627287  0.627287  1
  Pt  Pt4  1  0.620699  0.627287  0.124727  1
  Pt  Pt5  1  0.620699  0.124727  0.627287  1
