# generated using pymatgen
data_YPuSe2
_symmetry_space_group_name_H-M   'P 1'
_cell_length_a   7.18042355
_cell_length_b   7.18042365
_cell_length_c   7.18042381
_cell_angle_alpha   32.98964758
_cell_angle_beta   32.98964966
_cell_angle_gamma   32.98964342
_symmetry_Int_Tables_number   1
_chemical_formula_structural   YPuSe2
_chemical_formula_sum   'Y1 Pu1 Se2'
_cell_volume   97.67123046
_cell_formula_units_Z   1
loop_
 _symmetry_equiv_pos_site_id
 _symmetry_equiv_pos_as_xyz
  1  'x, y, z'
loop_
 _atom_site_type_symbol
 _atom_site_label
 _atom_site_symmetry_multiplicity
 _atom_site_fract_x
 _atom_site_fract_y
 _atom_site_fract_z
 _atom_site_occupancy
  Y  Y0  1  0.500000  0.500000  0.500000  1
  Pu  Pu1  1  0.000000  0.000000  0.000000  1
  Se  Se2  1  0.248159  0.248159  0.248159  1
  Se  Se3  1  0.751841  0.751841  0.751841  1
