# generated using pymatgen
data_SrCaPt4F24
_symmetry_space_group_name_H-M   'P 1'
_cell_length_a   10.39996187
_cell_length_b   10.39996262
_cell_length_c   10.39996100
_cell_angle_alpha   131.67727149
_cell_angle_beta   131.67727519
_cell_angle_gamma   70.73922167
_symmetry_Int_Tables_number   1
_chemical_formula_structural   SrCaPt4F24
_chemical_formula_sum   'Sr1 Ca1 Pt4 F24'
_cell_volume   614.67381811
_cell_formula_units_Z   1
loop_
 _symmetry_equiv_pos_site_id
 _symmetry_equiv_pos_as_xyz
  1  'x, y, z'
loop_
 _atom_site_type_symbol
 _atom_site_label
 _atom_site_symmetry_multiplicity
 _atom_site_fract_x
 _atom_site_fract_y
 _atom_site_fract_z
 _atom_site_occupancy
  Sr  Sr0  1  0.750141  0.250253  0.500039  1
  Ca  Ca1  1  0.000055  0.999961  0.000007  1
  Pt  Pt2  1  0.787107  0.787394  0.000176  1
  Pt  Pt3  1  0.212723  0.212848  0.999801  1
  Pt  Pt4  1  0.971662  0.471560  0.499888  1
  Pt  Pt5  1  0.528410  0.028214  0.500108  1
  F  F6  1  0.865027  0.752571  0.198129  1
  F  F7  1  0.554389  0.667164  0.802077  1
  F  F8  1  0.421253  0.792556  0.311292  1
  F  F9  1  0.332863  0.135025  0.887199  1
  F  F10  1  0.247688  0.445601  0.112578  1
  F  F11  1  0.207129  0.518520  0.628302  1
  F  F12  1  0.642238  0.263030  0.678271  1
  F  F13  1  0.736775  0.415019  0.378987  1
  F  F14  1  0.036049  0.357664  0.620906  1
  F  F15  1  0.087524  0.271810  0.106407  1
  F  F16  1  0.165216  0.981053  0.893368  1
  F  F17  1  0.584966  0.963931  0.321881  1
  F  F18  1  0.728141  0.834790  0.815874  1
  F  F19  1  0.018904  0.912483  0.184357  1
  F  F20  1  0.301379  0.069013  0.312754  1
  F  F21  1  0.930881  0.243581  0.232124  1
  F  F22  1  0.011436  0.698586  0.767709  1
  F  F23  1  0.435715  0.270826  0.280566  1
  F  F24  1  0.990072  0.155075  0.719189  1
  F  F25  1  0.756500  0.988555  0.687411  1
  F  F26  1  0.729209  0.010028  0.165063  1
  F  F27  1  0.844862  0.564371  0.835165  1
  F  F28  1  0.481447  0.109838  0.688802  1
  F  F29  1  0.890242  0.578678  0.371570  1
