# generated using pymatgen
data_Y3Zn3GaSiHg
_symmetry_space_group_name_H-M   'P 1'
_cell_length_a   6.97797000
_cell_length_b   6.97797025
_cell_length_c   4.37412600
_cell_angle_alpha   90.00000000
_cell_angle_beta   90.00000000
_cell_angle_gamma   120.00000829
_symmetry_Int_Tables_number   1
_chemical_formula_structural   Y3Zn3GaSiHg
_chemical_formula_sum   'Y3 Zn3 Ga1 Si1 Hg1'
_cell_volume   184.45061011
_cell_formula_units_Z   1
loop_
 _symmetry_equiv_pos_site_id
 _symmetry_equiv_pos_as_xyz
  1  'x, y, z'
loop_
 _atom_site_type_symbol
 _atom_site_label
 _atom_site_symmetry_multiplicity
 _atom_site_fract_x
 _atom_site_fract_y
 _atom_site_fract_z
 _atom_site_occupancy
  Y  Y0  1  0.999425  0.568390  0.000000  1
  Y  Y1  1  0.431610  0.431034  0.000000  1
  Y  Y2  1  0.568966  0.000575  0.000000  1
  Zn  Zn3  1  0.746972  0.746461  0.500000  1
  Zn  Zn4  1  0.253539  0.000510  0.500000  1
  Zn  Zn5  1  0.999490  0.253028  0.500000  1
  Ga  Ga6  1  0.333333  0.666667  0.500000  1
  Si  Si7  1  0.666667  0.333333  0.500000  1
  Hg  Hg8  1  0.000000  0.000000  0.000000  1
