# generated using pymatgen
data_CaPrAl20(IrOs)2
_symmetry_space_group_name_H-M   'P 1'
_cell_length_a   6.88832464
_cell_length_b   6.88937391
_cell_length_c   9.18427400
_cell_angle_alpha   90.00000000
_cell_angle_beta   90.00000000
_cell_angle_gamma   96.67980143
_symmetry_Int_Tables_number   1
_chemical_formula_structural   CaPrAl20(IrOs)2
_chemical_formula_sum   'Ca1 Pr1 Al20 Ir2 Os2'
_cell_volume   432.89246761
_cell_formula_units_Z   1
loop_
 _symmetry_equiv_pos_site_id
 _symmetry_equiv_pos_as_xyz
  1  'x, y, z'
loop_
 _atom_site_type_symbol
 _atom_site_label
 _atom_site_symmetry_multiplicity
 _atom_site_fract_x
 _atom_site_fract_y
 _atom_site_fract_z
 _atom_site_occupancy
  Ca  Ca0  1  0.870519  0.124984  0.750000  1
  Pr  Pr1  1  0.127745  0.876186  0.250000  1
  Al  Al2  1  0.620757  0.375469  0.550493  1
  Al  Al3  1  0.380708  0.622829  0.448919  1
  Al  Al4  1  0.380708  0.622829  0.051081  1
  Al  Al5  1  0.620757  0.375469  0.949507  1
  Al  Al6  1  0.224005  0.223819  0.499907  1
  Al  Al7  1  0.774479  0.778322  0.502273  1
  Al  Al8  1  0.774479  0.778322  0.997727  1
  Al  Al9  1  0.224005  0.223819  0.000093  1
  Al  Al10  1  0.840376  0.158240  0.101837  1
  Al  Al11  1  0.160131  0.840802  0.896760  1
  Al  Al12  1  0.160131  0.840802  0.603240  1
  Al  Al13  1  0.840376  0.158240  0.398163  1
  Al  Al14  1  0.853959  0.585544  0.750000  1
  Al  Al15  1  0.144599  0.411729  0.250000  1
  Al  Al16  1  0.413754  0.143799  0.750000  1
  Al  Al17  1  0.589907  0.857771  0.250000  1
  Al  Al18  1  0.222042  0.480330  0.750000  1
  Al  Al19  1  0.776675  0.516494  0.250000  1
  Al  Al20  1  0.519530  0.781184  0.750000  1
  Al  Al21  1  0.484124  0.220727  0.250000  1
  Ir  Ir22  1  0.999518  0.501170  0.500043  1
  Ir  Ir23  1  0.999518  0.501170  0.999957  1
  Os  Os24  1  0.498598  0.999975  0.999981  1
  Os  Os25  1  0.498598  0.999975  0.500019  1
