# generated using pymatgen
data_LiHo3Ag2Ge2Pb
_symmetry_space_group_name_H-M   'P 1'
_cell_length_a   7.23374875
_cell_length_b   7.16275766
_cell_length_c   4.35163300
_cell_angle_alpha   90.00000000
_cell_angle_beta   90.00000000
_cell_angle_gamma   119.67588011
_symmetry_Int_Tables_number   1
_chemical_formula_structural   LiHo3Ag2Ge2Pb
_chemical_formula_sum   'Li1 Ho3 Ag2 Ge2 Pb1'
_cell_volume   195.90059368
_cell_formula_units_Z   1
loop_
 _symmetry_equiv_pos_site_id
 _symmetry_equiv_pos_as_xyz
  1  'x, y, z'
loop_
 _atom_site_type_symbol
 _atom_site_label
 _atom_site_symmetry_multiplicity
 _atom_site_fract_x
 _atom_site_fract_y
 _atom_site_fract_z
 _atom_site_occupancy
  Li  Li0  1  0.000000  0.245541  0.500000  1
  Ho  Ho1  1  0.000000  0.566187  0.000000  1
  Ho  Ho2  1  0.556923  0.997498  0.000000  1
  Ho  Ho3  1  0.443077  0.440574  0.000000  1
  Ag  Ag4  1  0.260430  0.001981  0.500000  1
  Ag  Ag5  1  0.739570  0.741551  0.500000  1
  Ge  Ge6  1  0.324298  0.657295  0.500000  1
  Ge  Ge7  1  0.675702  0.332997  0.500000  1
  Pb  Pb8  1  0.000000  0.016376  0.000000  1
