# generated using pymatgen
data_Ho16MgIn3PdRh3
_symmetry_space_group_name_H-M   'P 1'
_cell_length_a   9.62223994
_cell_length_b   9.63604814
_cell_length_c   9.62224061
_cell_angle_alpha   60.08140411
_cell_angle_beta   60.15224701
_cell_angle_gamma   60.08140373
_symmetry_Int_Tables_number   1
_chemical_formula_structural   Ho16MgIn3PdRh3
_chemical_formula_sum   'Ho16 Mg1 In3 Pd1 Rh3'
_cell_volume   632.36535580
_cell_formula_units_Z   1
loop_
 _symmetry_equiv_pos_site_id
 _symmetry_equiv_pos_as_xyz
  1  'x, y, z'
loop_
 _atom_site_type_symbol
 _atom_site_label
 _atom_site_symmetry_multiplicity
 _atom_site_fract_x
 _atom_site_fract_y
 _atom_site_fract_z
 _atom_site_occupancy
  Ho  Ho0  1  0.188249  0.186994  0.812151  1
  Ho  Ho1  1  0.603820  0.597625  0.197845  1
  Ho  Ho2  1  0.440134  0.063728  0.440134  1
  Ho  Ho3  1  0.440403  0.439776  0.059144  1
  Ho  Ho4  1  0.814636  0.185349  0.814636  1
  Ho  Ho5  1  0.187559  0.810705  0.187559  1
  Ho  Ho6  1  0.437972  0.066542  0.057872  1
  Ho  Ho7  1  0.186155  0.812756  0.815673  1
  Ho  Ho8  1  0.062577  0.437275  0.062577  1
  Ho  Ho9  1  0.815673  0.812756  0.186155  1
  Ho  Ho10  1  0.197845  0.597625  0.603820  1
  Ho  Ho11  1  0.059144  0.439776  0.440403  1
  Ho  Ho12  1  0.057872  0.066542  0.437972  1
  Ho  Ho13  1  0.812151  0.186994  0.188249  1
  Ho  Ho14  1  0.600083  0.202418  0.600083  1
  Ho  Ho15  1  0.601040  0.596299  0.601040  1
  Mg  Mg16  1  0.828081  0.828501  0.828081  1
  In  In17  1  0.832471  0.833143  0.501386  1
  In  In18  1  0.501386  0.833143  0.832471  1
  In  In19  1  0.832975  0.500831  0.832975  1
  Pd  Pd20  1  0.392586  0.821694  0.392586  1
  Rh  Rh21  1  0.392721  0.393529  0.392721  1
  Rh  Rh22  1  0.822263  0.393001  0.392202  1
  Rh  Rh23  1  0.392202  0.393001  0.822263  1
