# generated using pymatgen
data_HoEr4Nb3(Co4P3)4
_symmetry_space_group_name_H-M   'P 1'
_cell_length_a   12.15321500
_cell_length_b   12.15321531
_cell_length_c   3.68568800
_cell_angle_alpha   90.00000000
_cell_angle_beta   90.00000000
_cell_angle_gamma   120.00000187
_symmetry_Int_Tables_number   1
_chemical_formula_structural   HoEr4Nb3(Co4P3)4
_chemical_formula_sum   'Ho1 Er4 Nb3 Co16 P12'
_cell_volume   471.44557663
_cell_formula_units_Z   1
loop_
 _symmetry_equiv_pos_site_id
 _symmetry_equiv_pos_as_xyz
  1  'x, y, z'
loop_
 _atom_site_type_symbol
 _atom_site_label
 _atom_site_symmetry_multiplicity
 _atom_site_fract_x
 _atom_site_fract_y
 _atom_site_fract_z
 _atom_site_occupancy
  Ho  Ho0  1  0.666667  0.333333  0.000000  1
  Er  Er1  1  0.816701  0.000115  0.500000  1
  Er  Er2  1  0.999885  0.816587  0.500000  1
  Er  Er3  1  0.183413  0.183299  0.500000  1
  Er  Er4  1  0.333333  0.666667  0.000000  1
  Nb  Nb5  1  0.444808  0.999902  0.000000  1
  Nb  Nb6  1  0.000098  0.444906  0.000000  1
  Nb  Nb7  1  0.555094  0.555192  0.000000  1
  Co  Co8  1  0.278680  0.999901  0.500000  1
  Co  Co9  1  0.000099  0.278779  0.500000  1
  Co  Co10  1  0.721221  0.721320  0.500000  1
  Co  Co11  1  0.626499  0.803565  0.000000  1
  Co  Co12  1  0.196435  0.822935  0.000000  1
  Co  Co13  1  0.177065  0.373501  0.000000  1
  Co  Co14  1  0.373315  0.176896  0.000000  1
  Co  Co15  1  0.803581  0.626685  0.000000  1
  Co  Co16  1  0.823104  0.196419  0.000000  1
  Co  Co17  1  0.519232  0.872622  0.500000  1
  Co  Co18  1  0.127378  0.646610  0.500000  1
  Co  Co19  1  0.353390  0.480768  0.500000  1
  Co  Co20  1  0.480362  0.353345  0.500000  1
  Co  Co21  1  0.872983  0.519638  0.500000  1
  Co  Co22  1  0.646655  0.127017  0.500000  1
  Co  Co23  1  0.000000  0.000000  0.000000  1
  P  P24  1  0.177878  0.999898  0.000000  1
  P  P25  1  0.000102  0.177980  0.000000  1
  P  P26  1  0.822020  0.822122  0.000000  1
  P  P27  1  0.519919  0.688249  0.500000  1
  P  P28  1  0.311751  0.831669  0.500000  1
  P  P29  1  0.168331  0.480081  0.500000  1
  P  P30  1  0.479670  0.167961  0.500000  1
  P  P31  1  0.688291  0.520330  0.500000  1
  P  P32  1  0.832039  0.311709  0.500000  1
  P  P33  1  0.644724  0.000011  0.000000  1
  P  P34  1  0.999989  0.644713  0.000000  1
  P  P35  1  0.355287  0.355276  0.000000  1
