# generated using pymatgen
data_CoAgAsO4
_symmetry_space_group_name_H-M   'P 1'
_cell_length_a   10.92398600
_cell_length_b   5.41657347
_cell_length_c   9.31632800
_cell_angle_alpha   54.91118535
_cell_angle_beta   90.00000000
_cell_angle_gamma   90.00000000
_symmetry_Int_Tables_number   1
_chemical_formula_structural   CoAgAsO4
_chemical_formula_sum   'Co4 Ag4 As4 O16'
_cell_volume   451.06891898
_cell_formula_units_Z   4
loop_
 _symmetry_equiv_pos_site_id
 _symmetry_equiv_pos_as_xyz
  1  'x, y, z'
loop_
 _atom_site_type_symbol
 _atom_site_label
 _atom_site_symmetry_multiplicity
 _atom_site_fract_x
 _atom_site_fract_y
 _atom_site_fract_z
 _atom_site_occupancy
  Co  Co0  1  0.338108  0.342597  0.974871  1
  Co  Co1  1  0.161892  0.342597  0.474871  1
  Co  Co2  1  0.661892  0.657403  0.025129  1
  Co  Co3  1  0.838108  0.657403  0.525129  1
  Ag  Ag4  1  0.390342  0.828165  0.481358  1
  Ag  Ag5  1  0.109658  0.828165  0.981358  1
  Ag  Ag6  1  0.609658  0.171835  0.518642  1
  Ag  Ag7  1  0.890342  0.171835  0.018642  1
  As  As8  1  0.397196  0.608843  0.208983  1
  As  As9  1  0.102804  0.608843  0.708983  1
  As  As10  1  0.602804  0.391157  0.791017  1
  As  As11  1  0.897196  0.391157  0.291017  1
  O  O12  1  0.378479  0.942359  0.191601  1
  O  O13  1  0.121521  0.942359  0.691601  1
  O  O14  1  0.621521  0.057641  0.808399  1
  O  O15  1  0.878479  0.057641  0.308399  1
  O  O16  1  0.550965  0.516169  0.226594  1
  O  O17  1  0.949035  0.516169  0.726594  1
  O  O18  1  0.449035  0.483831  0.773406  1
  O  O19  1  0.050965  0.483831  0.273406  1
  O  O20  1  0.330996  0.642797  0.031088  1
  O  O21  1  0.169004  0.642797  0.531088  1
  O  O22  1  0.669004  0.357203  0.968912  1
  O  O23  1  0.830996  0.357203  0.468912  1
  O  O24  1  0.331483  0.322010  0.404844  1
  O  O25  1  0.168517  0.322010  0.904844  1
  O  O26  1  0.668517  0.677990  0.595156  1
  O  O27  1  0.831483  0.677990  0.095156  1
