# generated using pymatgen
data_Yb6Pr14Si15Sn
_symmetry_space_group_name_H-M   'P 1'
_cell_length_a   7.95936684
_cell_length_b   7.96333151
_cell_length_c   15.18821426
_cell_angle_alpha   89.95689597
_cell_angle_beta   89.73366846
_cell_angle_gamma   89.70935727
_symmetry_Int_Tables_number   1
_chemical_formula_structural   Yb6Pr14Si15Sn
_chemical_formula_sum   'Yb6 Pr14 Si15 Sn1'
_cell_volume   962.65270758
_cell_formula_units_Z   1
loop_
 _symmetry_equiv_pos_site_id
 _symmetry_equiv_pos_as_xyz
  1  'x, y, z'
loop_
 _atom_site_type_symbol
 _atom_site_label
 _atom_site_symmetry_multiplicity
 _atom_site_fract_x
 _atom_site_fract_y
 _atom_site_fract_z
 _atom_site_occupancy
  Yb  Yb0  1  0.308218  0.308139  0.000839  1
  Yb  Yb1  1  0.193873  0.810696  0.251688  1
  Yb  Yb2  1  0.800698  0.188977  0.750482  1
  Yb  Yb3  1  0.684482  0.696532  0.498209  1
  Yb  Yb4  1  0.376968  0.013933  0.451036  1
  Yb  Yb5  1  0.494166  0.872282  0.699366  1
  Pr  Pr6  1  0.507395  0.120143  0.198459  1
  Pr  Pr7  1  0.880089  0.492227  0.301302  1
  Pr  Pr8  1  0.119841  0.512547  0.804705  1
  Pr  Pr9  1  0.622451  0.990735  0.949262  1
  Pr  Pr10  1  0.002017  0.386279  0.547085  1
  Pr  Pr11  1  0.990339  0.621423  0.052795  1
  Pr  Pr12  1  0.127678  0.982731  0.878889  1
  Pr  Pr13  1  0.514317  0.624438  0.126319  1
  Pr  Pr14  1  0.493343  0.383109  0.625042  1
  Pr  Pr15  1  0.624848  0.517621  0.875589  1
  Pr  Pr16  1  0.375956  0.484148  0.372619  1
  Pr  Pr17  1  0.874621  0.014400  0.374597  1
  Pr  Pr18  1  0.986856  0.125129  0.124462  1
  Pr  Pr19  1  0.007385  0.862562  0.620366  1
  Si  Si20  1  0.331644  0.698464  0.953497  1
  Si  Si21  1  0.666721  0.300913  0.448962  1
  Si  Si22  1  0.700719  0.330558  0.050308  1
  Si  Si23  1  0.296405  0.662946  0.547347  1
  Si  Si24  1  0.800043  0.832555  0.199254  1
  Si  Si25  1  0.165697  0.202515  0.300366  1
  Si  Si26  1  0.837032  0.797370  0.801856  1
  Si  Si27  1  0.288161  0.919522  0.061123  1
  Si  Si28  1  0.583403  0.784667  0.307925  1
  Si  Si29  1  0.427933  0.218098  0.814566  1
  Si  Si30  1  0.791959  0.577550  0.691728  1
  Si  Si31  1  0.210533  0.419974  0.190630  1
  Si  Si32  1  0.721883  0.086879  0.557987  1
  Si  Si33  1  0.920522  0.288663  0.940797  1
  Si  Si34  1  0.075994  0.707482  0.437832  1
  Sn  Sn35  1  0.195808  0.163797  0.692712  1
