# generated using pymatgen
data_NaNd(PSe3)2
_symmetry_space_group_name_H-M   'P 1'
_cell_length_a   7.79007900
_cell_length_b   11.81840382
_cell_length_c   12.28925600
_cell_angle_alpha   111.55991578
_cell_angle_beta   90.00000000
_cell_angle_gamma   90.00000000
_symmetry_Int_Tables_number   1
_chemical_formula_structural   NaNd(PSe3)2
_chemical_formula_sum   'Na4 Nd4 P8 Se24'
_cell_volume   1052.26472068
_cell_formula_units_Z   4
loop_
 _symmetry_equiv_pos_site_id
 _symmetry_equiv_pos_as_xyz
  1  'x, y, z'
loop_
 _atom_site_type_symbol
 _atom_site_label
 _atom_site_symmetry_multiplicity
 _atom_site_fract_x
 _atom_site_fract_y
 _atom_site_fract_z
 _atom_site_occupancy
  Na  Na0  1  0.392451  0.623479  0.858594  1
  Na  Na1  1  0.107549  0.123479  0.858594  1
  Na  Na2  1  0.892451  0.876521  0.141406  1
  Na  Na3  1  0.607549  0.376521  0.141406  1
  Nd  Nd4  1  0.893651  0.411252  0.655110  1
  Nd  Nd5  1  0.106349  0.588748  0.344890  1
  Nd  Nd6  1  0.393651  0.088748  0.344890  1
  Nd  Nd7  1  0.606349  0.911252  0.655110  1
  P  P8  1  0.387000  0.748997  0.195507  1
  P  P9  1  0.401817  0.252069  0.679590  1
  P  P10  1  0.113000  0.248997  0.195507  1
  P  P11  1  0.901817  0.247931  0.320410  1
  P  P12  1  0.613000  0.251003  0.804493  1
  P  P13  1  0.598183  0.747931  0.320410  1
  P  P14  1  0.098183  0.752069  0.679590  1
  P  P15  1  0.887000  0.751003  0.804493  1
  Se  Se16  1  0.295004  0.559146  0.117599  1
  Se  Se17  1  0.180875  0.855656  0.311190  1
  Se  Se18  1  0.704996  0.440854  0.882401  1
  Se  Se19  1  0.319125  0.355656  0.311190  1
  Se  Se20  1  0.995715  0.654699  0.910359  1
  Se  Se21  1  0.471258  0.683760  0.450365  1
  Se  Se22  1  0.819125  0.144344  0.688810  1
  Se  Se23  1  0.004285  0.345301  0.089641  1
  Se  Se24  1  0.793496  0.626608  0.207428  1
  Se  Se25  1  0.807911  0.437118  0.408246  1
  Se  Se26  1  0.028742  0.183760  0.450365  1
  Se  Se27  1  0.204996  0.059146  0.117599  1
  Se  Se28  1  0.680875  0.644344  0.688810  1
  Se  Se29  1  0.504285  0.154699  0.910359  1
  Se  Se30  1  0.795004  0.940854  0.882401  1
  Se  Se31  1  0.706504  0.126608  0.207428  1
  Se  Se32  1  0.192089  0.562882  0.591754  1
  Se  Se33  1  0.307911  0.062882  0.591754  1
  Se  Se34  1  0.293496  0.873392  0.792572  1
  Se  Se35  1  0.495715  0.845301  0.089641  1
  Se  Se36  1  0.971258  0.816240  0.549635  1
  Se  Se37  1  0.206504  0.373392  0.792572  1
  Se  Se38  1  0.528742  0.316240  0.549635  1
  Se  Se39  1  0.692089  0.937118  0.408246  1
