# generated using pymatgen
data_Zn2Cu(SnPt)2
_symmetry_space_group_name_H-M   'P 1'
_cell_length_a   4.34133200
_cell_length_b   4.34133117
_cell_length_c   15.73836100
_cell_angle_alpha   90.00000000
_cell_angle_beta   90.00000000
_cell_angle_gamma   119.99997581
_symmetry_Int_Tables_number   1
_chemical_formula_structural   Zn2Cu(SnPt)2
_chemical_formula_sum   'Zn4 Cu2 Sn4 Pt4'
_cell_volume   256.88346856
_cell_formula_units_Z   2
loop_
 _symmetry_equiv_pos_site_id
 _symmetry_equiv_pos_as_xyz
  1  'x, y, z'
loop_
 _atom_site_type_symbol
 _atom_site_label
 _atom_site_symmetry_multiplicity
 _atom_site_fract_x
 _atom_site_fract_y
 _atom_site_fract_z
 _atom_site_occupancy
  Zn  Zn0  1  0.000000  0.000000  0.671337  1
  Zn  Zn1  1  0.000000  0.000000  0.328663  1
  Zn  Zn2  1  0.333333  0.666667  0.767692  1
  Zn  Zn3  1  0.666667  0.333333  0.232308  1
  Cu  Cu4  1  0.000000  0.000000  0.168923  1
  Cu  Cu5  1  0.000000  0.000000  0.831077  1
  Sn  Sn6  1  0.333333  0.666667  0.078087  1
  Sn  Sn7  1  0.666667  0.333333  0.921913  1
  Sn  Sn8  1  0.666667  0.333333  0.570942  1
  Sn  Sn9  1  0.333333  0.666667  0.429058  1
  Pt  Pt10  1  0.000000  0.000000  0.000000  1
  Pt  Pt11  1  0.000000  0.000000  0.500000  1
  Pt  Pt12  1  0.333333  0.666667  0.255030  1
  Pt  Pt13  1  0.666667  0.333333  0.744970  1
