# generated using pymatgen
data_Hf18Co2Re3Mo2W3
_symmetry_space_group_name_H-M   'P 1'
_cell_length_a   8.63968535
_cell_length_b   8.64437391
_cell_length_c   8.47150600
_cell_angle_alpha   90.00000000
_cell_angle_beta   90.00000000
_cell_angle_gamma   120.06573845
_symmetry_Int_Tables_number   1
_chemical_formula_structural   Hf18Co2Re3Mo2W3
_chemical_formula_sum   'Hf18 Co2 Re3 Mo2 W3'
_cell_volume   547.56370834
_cell_formula_units_Z   1
loop_
 _symmetry_equiv_pos_site_id
 _symmetry_equiv_pos_as_xyz
  1  'x, y, z'
loop_
 _atom_site_type_symbol
 _atom_site_label
 _atom_site_symmetry_multiplicity
 _atom_site_fract_x
 _atom_site_fract_y
 _atom_site_fract_z
 _atom_site_occupancy
  Hf  Hf0  1  0.201518  0.799251  0.440794  1
  Hf  Hf1  1  0.200352  0.400944  0.441020  1
  Hf  Hf2  1  0.598371  0.799610  0.442132  1
  Hf  Hf3  1  0.799622  0.200736  0.560171  1
  Hf  Hf4  1  0.798637  0.597916  0.559253  1
  Hf  Hf5  1  0.401300  0.201102  0.558628  1
  Hf  Hf6  1  0.799622  0.200736  0.939829  1
  Hf  Hf7  1  0.798637  0.597916  0.940747  1
  Hf  Hf8  1  0.401300  0.201102  0.941372  1
  Hf  Hf9  1  0.201518  0.799251  0.059206  1
  Hf  Hf10  1  0.200352  0.400944  0.058980  1
  Hf  Hf11  1  0.598371  0.799610  0.057868  1
  Hf  Hf12  1  0.540347  0.456763  0.250000  1
  Hf  Hf13  1  0.541434  0.083951  0.250000  1
  Hf  Hf14  1  0.916180  0.457188  0.250000  1
  Hf  Hf15  1  0.457553  0.541686  0.750000  1
  Hf  Hf16  1  0.458986  0.915835  0.750000  1
  Hf  Hf17  1  0.084473  0.540807  0.750000  1
  Co  Co18  1  0.333476  0.666814  0.250000  1
  Co  Co19  1  0.666041  0.333328  0.750000  1
  Re  Re20  1  0.225040  0.113433  0.250000  1
  Re  Re21  1  0.112184  0.224917  0.750000  1
  Re  Re22  1  0.774806  0.888121  0.750000  1
  Mo  Mo23  1  0.887953  0.775901  0.250000  1
  Mo  Mo24  1  0.112104  0.888622  0.750000  1
  W  W25  1  0.888833  0.112582  0.250000  1
  W  W26  1  0.000495  0.000467  0.500883  1
  W  W27  1  0.000495  0.000467  0.999117  1
