# generated using pymatgen
data_PH2Cl7
_symmetry_space_group_name_H-M   'P 1'
_cell_length_a   6.93001285
_cell_length_b   6.67244010
_cell_length_c   7.70021937
_cell_angle_alpha   100.67759212
_cell_angle_beta   102.49986237
_cell_angle_gamma   100.52498781
_symmetry_Int_Tables_number   1
_chemical_formula_structural   PH2Cl7
_chemical_formula_sum   'P1 H2 Cl7'
_cell_volume   332.26393469
_cell_formula_units_Z   1
loop_
 _symmetry_equiv_pos_site_id
 _symmetry_equiv_pos_as_xyz
  1  'x, y, z'
loop_
 _atom_site_type_symbol
 _atom_site_label
 _atom_site_symmetry_multiplicity
 _atom_site_fract_x
 _atom_site_fract_y
 _atom_site_fract_z
 _atom_site_occupancy
  P  P0  1  0.729116  0.439592  0.829334  1
  H  H1  1  0.434379  0.949282  0.234924  1
  H  H2  1  0.126887  0.295739  0.288575  1
  Cl  Cl3  1  0.939515  0.689378  0.977778  1
  Cl  Cl4  1  0.539868  0.324751  0.964427  1
  Cl  Cl5  1  0.568285  0.838339  0.297857  1
  Cl  Cl6  1  0.247218  0.108402  0.134524  1
  Cl  Cl7  1  0.860821  0.219011  0.739062  1
  Cl  Cl8  1  0.040499  0.430633  0.380342  1
  Cl  Cl9  1  0.573966  0.520185  0.617207  1
