# generated using pymatgen
data_Y3Fe2P6Ir7
_symmetry_space_group_name_H-M   'P 1'
_cell_length_a   3.88932500
_cell_length_b   11.19201200
_cell_length_c   12.54241800
_cell_angle_alpha   90.00000000
_cell_angle_beta   90.00000000
_cell_angle_gamma   90.00000000
_symmetry_Int_Tables_number   1
_chemical_formula_structural   Y3Fe2P6Ir7
_chemical_formula_sum   'Y6 Fe4 P12 Ir14'
_cell_volume   545.96357980
_cell_formula_units_Z   2
loop_
 _symmetry_equiv_pos_site_id
 _symmetry_equiv_pos_as_xyz
  1  'x, y, z'
loop_
 _atom_site_type_symbol
 _atom_site_label
 _atom_site_symmetry_multiplicity
 _atom_site_fract_x
 _atom_site_fract_y
 _atom_site_fract_z
 _atom_site_occupancy
  Y  Y0  1  0.000000  0.500000  0.521595  1
  Y  Y1  1  0.500000  0.000000  0.478658  1
  Y  Y2  1  0.500000  0.826171  0.197117  1
  Y  Y3  1  0.500000  0.173829  0.197117  1
  Y  Y4  1  0.000000  0.680933  0.801413  1
  Y  Y5  1  0.000000  0.319067  0.801413  1
  Fe  Fe6  1  0.000000  0.500000  0.001072  1
  Fe  Fe7  1  0.500000  0.000000  0.004407  1
  Fe  Fe8  1  0.000000  0.162576  0.002553  1
  Fe  Fe9  1  0.000000  0.837424  0.002553  1
  P  P10  1  0.500000  0.315021  0.621211  1
  P  P11  1  0.500000  0.684979  0.621211  1
  P  P12  1  0.000000  0.184471  0.378258  1
  P  P13  1  0.000000  0.815529  0.378258  1
  P  P14  1  0.500000  0.500000  0.887206  1
  P  P15  1  0.000000  0.000000  0.103986  1
  P  P16  1  0.500000  0.845774  0.902694  1
  P  P17  1  0.500000  0.154226  0.902694  1
  P  P18  1  0.000000  0.665710  0.100463  1
  P  P19  1  0.000000  0.334290  0.100463  1
  P  P20  1  0.500000  0.500000  0.351913  1
  P  P21  1  0.000000  0.000000  0.649830  1
  Ir  Ir22  1  0.500000  0.293060  0.427820  1
  Ir  Ir23  1  0.500000  0.706940  0.427820  1
  Ir  Ir24  1  0.000000  0.204060  0.571629  1
  Ir  Ir25  1  0.000000  0.795940  0.571629  1
  Ir  Ir26  1  0.500000  0.871625  0.718612  1
  Ir  Ir27  1  0.500000  0.128375  0.718612  1
  Ir  Ir28  1  0.000000  0.629603  0.281901  1
  Ir  Ir29  1  0.000000  0.370397  0.281901  1
  Ir  Ir30  1  0.500000  0.333876  0.995471  1
  Ir  Ir31  1  0.500000  0.666124  0.995471  1
  Ir  Ir32  1  0.500000  0.500000  0.165918  1
  Ir  Ir33  1  0.000000  0.000000  0.838780  1
  Ir  Ir34  1  0.500000  0.500000  0.704052  1
  Ir  Ir35  1  0.000000  0.000000  0.294303  1
