# generated using pymatgen
data_Nd10CuSn3Bi3As
_symmetry_space_group_name_H-M   'P 1'
_cell_length_a   9.59369300
_cell_length_b   9.59369374
_cell_length_c   6.68948800
_cell_angle_alpha   90.00000000
_cell_angle_beta   90.00000000
_cell_angle_gamma   119.99999399
_symmetry_Int_Tables_number   1
_chemical_formula_structural   Nd10CuSn3Bi3As
_chemical_formula_sum   'Nd10 Cu1 Sn3 Bi3 As1'
_cell_volume   533.20621676
_cell_formula_units_Z   1
loop_
 _symmetry_equiv_pos_site_id
 _symmetry_equiv_pos_as_xyz
  1  'x, y, z'
loop_
 _atom_site_type_symbol
 _atom_site_label
 _atom_site_symmetry_multiplicity
 _atom_site_fract_x
 _atom_site_fract_y
 _atom_site_fract_z
 _atom_site_occupancy
  Nd  Nd0  1  0.666667  0.333333  0.995884  1
  Nd  Nd1  1  0.333333  0.666667  0.995884  1
  Nd  Nd2  1  0.333333  0.666667  0.504459  1
  Nd  Nd3  1  0.666667  0.333333  0.504459  1
  Nd  Nd4  1  0.746658  0.746658  0.751504  1
  Nd  Nd5  1  0.253342  0.000000  0.751504  1
  Nd  Nd6  1  0.000000  0.253342  0.751504  1
  Nd  Nd7  1  0.252100  0.252100  0.248007  1
  Nd  Nd8  1  0.747900  0.000000  0.248007  1
  Nd  Nd9  1  0.000000  0.747900  0.248007  1
  Cu  Cu10  1  0.000000  0.000000  0.501927  1
  Sn  Sn11  1  0.388078  0.388078  0.748771  1
  Sn  Sn12  1  0.611922  0.000000  0.748771  1
  Sn  Sn13  1  0.000000  0.611922  0.748771  1
  Bi  Bi14  1  0.610733  0.610733  0.251075  1
  Bi  Bi15  1  0.389267  0.000000  0.251075  1
  Bi  Bi16  1  0.000000  0.389267  0.251075  1
  As  As17  1  0.000000  0.000000  0.999313  1
