# generated using pymatgen
data_Nd3Y5(CdIr)2
_symmetry_space_group_name_H-M   'P 1'
_cell_length_a   9.77868917
_cell_length_b   9.77868985
_cell_length_c   9.77868900
_cell_angle_alpha   59.99999950
_cell_angle_beta   59.99999720
_cell_angle_gamma   60.00000239
_symmetry_Int_Tables_number   1
_chemical_formula_structural   Nd3Y5(CdIr)2
_chemical_formula_sum   'Nd6 Y10 Cd4 Ir4'
_cell_volume   661.19102066
_cell_formula_units_Z   2
loop_
 _symmetry_equiv_pos_site_id
 _symmetry_equiv_pos_as_xyz
  1  'x, y, z'
loop_
 _atom_site_type_symbol
 _atom_site_label
 _atom_site_symmetry_multiplicity
 _atom_site_fract_x
 _atom_site_fract_y
 _atom_site_fract_z
 _atom_site_occupancy
  Nd  Nd0  1  0.940599  0.559401  0.559401  1
  Nd  Nd1  1  0.559401  0.940599  0.940599  1
  Nd  Nd2  1  0.559401  0.940599  0.559401  1
  Nd  Nd3  1  0.940599  0.559401  0.940599  1
  Nd  Nd4  1  0.559401  0.559401  0.940599  1
  Nd  Nd5  1  0.940599  0.940599  0.559401  1
  Y  Y6  1  0.347908  0.347908  0.347908  1
  Y  Y7  1  0.347908  0.347908  0.956277  1
  Y  Y8  1  0.347908  0.956277  0.347908  1
  Y  Y9  1  0.956277  0.347908  0.347908  1
  Y  Y10  1  0.811444  0.188556  0.188556  1
  Y  Y11  1  0.188556  0.811444  0.811444  1
  Y  Y12  1  0.188556  0.811444  0.188556  1
  Y  Y13  1  0.811444  0.188556  0.811444  1
  Y  Y14  1  0.188556  0.188556  0.811444  1
  Y  Y15  1  0.811444  0.811444  0.188556  1
  Cd  Cd16  1  0.579720  0.579720  0.579720  1
  Cd  Cd17  1  0.579720  0.579720  0.260839  1
  Cd  Cd18  1  0.579720  0.260839  0.579720  1
  Cd  Cd19  1  0.260839  0.579720  0.579720  1
  Ir  Ir20  1  0.141013  0.141013  0.141013  1
  Ir  Ir21  1  0.141013  0.141013  0.576961  1
  Ir  Ir22  1  0.141013  0.576961  0.141013  1
  Ir  Ir23  1  0.576961  0.141013  0.141013  1
