# generated using pymatgen
data_K12Rb8Si4As5P7
_symmetry_space_group_name_H-M   'P 1'
_cell_length_a   5.29835700
_cell_length_b   14.56647627
_cell_length_c   15.70503574
_cell_angle_alpha   90.12149105
_cell_angle_beta   90.00000000
_cell_angle_gamma   90.00000000
_symmetry_Int_Tables_number   1
_chemical_formula_structural   K12Rb8Si4As5P7
_chemical_formula_sum   'K12 Rb8 Si4 As5 P7'
_cell_volume   1212.08667193
_cell_formula_units_Z   1
loop_
 _symmetry_equiv_pos_site_id
 _symmetry_equiv_pos_as_xyz
  1  'x, y, z'
loop_
 _atom_site_type_symbol
 _atom_site_label
 _atom_site_symmetry_multiplicity
 _atom_site_fract_x
 _atom_site_fract_y
 _atom_site_fract_z
 _atom_site_occupancy
  K  K0  1  0.250000  0.426269  0.567668  1
  K  K1  1  0.750000  0.574020  0.435756  1
  K  K2  1  0.750000  0.927145  0.935012  1
  K  K3  1  0.250000  0.072678  0.064539  1
  K  K4  1  0.250000  0.824162  0.085037  1
  K  K5  1  0.750000  0.176703  0.914281  1
  K  K6  1  0.750000  0.320277  0.416267  1
  K  K7  1  0.250000  0.676378  0.585557  1
  K  K8  1  0.250000  0.231533  0.257078  1
  K  K9  1  0.750000  0.765777  0.742214  1
  K  K10  1  0.750000  0.735589  0.241784  1
  K  K11  1  0.250000  0.265479  0.758207  1
  Rb  Rb12  1  0.250000  0.943992  0.302068  1
  Rb  Rb13  1  0.750000  0.056241  0.697785  1
  Rb  Rb14  1  0.750000  0.443278  0.196063  1
  Rb  Rb15  1  0.250000  0.556568  0.802568  1
  Rb  Rb16  1  0.250000  0.131098  0.514423  1
  Rb  Rb17  1  0.750000  0.869499  0.485424  1
  Rb  Rb18  1  0.750000  0.631510  0.984598  1
  Rb  Rb19  1  0.250000  0.368708  0.014538  1
  Si  Si20  1  0.250000  0.589696  0.290703  1
  Si  Si21  1  0.750000  0.414821  0.708045  1
  Si  Si22  1  0.750000  0.084492  0.206935  1
  Si  Si23  1  0.250000  0.914889  0.792672  1
  As  As24  1  0.250000  0.601153  0.142070  1
  As  As25  1  0.750000  0.400916  0.857039  1
  As  As26  1  0.750000  0.098197  0.356078  1
  As  As27  1  0.250000  0.900456  0.643666  1
  As  As28  1  0.250000  0.444674  0.351840  1
  P  P29  1  0.750000  0.552603  0.650127  1
  P  P30  1  0.750000  0.946781  0.148769  1
  P  P31  1  0.250000  0.052701  0.850761  1
  P  P32  1  0.250000  0.711817  0.373570  1
  P  P33  1  0.750000  0.290672  0.627402  1
  P  P34  1  0.750000  0.207935  0.125774  1
  P  P35  1  0.250000  0.791296  0.873679  1
