# generated using pymatgen
data_Lu2NbReN6
_symmetry_space_group_name_H-M   'P 1'
_cell_length_a   7.37967031
_cell_length_b   7.37967023
_cell_length_c   6.25210341
_cell_angle_alpha   72.29701929
_cell_angle_beta   72.29701166
_cell_angle_gamma   80.21665175
_symmetry_Int_Tables_number   1
_chemical_formula_structural   Lu2NbReN6
_chemical_formula_sum   'Lu4 Nb2 Re2 N12'
_cell_volume   307.87559302
_cell_formula_units_Z   2
loop_
 _symmetry_equiv_pos_site_id
 _symmetry_equiv_pos_as_xyz
  1  'x, y, z'
loop_
 _atom_site_type_symbol
 _atom_site_label
 _atom_site_symmetry_multiplicity
 _atom_site_fract_x
 _atom_site_fract_y
 _atom_site_fract_z
 _atom_site_occupancy
  Lu  Lu0  1  0.912089  0.087911  0.750000  1
  Lu  Lu1  1  0.091518  0.908482  0.250000  1
  Lu  Lu2  1  0.723727  0.276273  0.250000  1
  Lu  Lu3  1  0.280345  0.719655  0.750000  1
  Nb  Nb4  1  0.622055  0.801201  0.283123  1
  Nb  Nb5  1  0.198799  0.377945  0.216877  1
  Re  Re6  1  0.383329  0.203643  0.713362  1
  Re  Re7  1  0.796357  0.616671  0.786638  1
  N  N8  1  0.670095  0.611182  0.088293  1
  N  N9  1  0.364156  0.882240  0.348288  1
  N  N10  1  0.388818  0.329905  0.411707  1
  N  N11  1  0.117760  0.635844  0.151712  1
  N  N12  1  0.993015  0.209926  0.353383  1
  N  N13  1  0.790074  0.006985  0.146617  1
  N  N14  1  0.219842  0.011263  0.837614  1
  N  N15  1  0.625599  0.112897  0.679782  1
  N  N16  1  0.327969  0.381388  0.886279  1
  N  N17  1  0.887103  0.374401  0.820218  1
  N  N18  1  0.618612  0.672031  0.613721  1
  N  N19  1  0.988737  0.780158  0.662386  1
