# generated using pymatgen
data_LuTi3(GaRh5)2
_symmetry_space_group_name_H-M   'P 1'
_cell_length_a   4.04313900
_cell_length_b   5.45541362
_cell_length_c   10.76850575
_cell_angle_alpha   90.20293589
_cell_angle_beta   90.00000000
_cell_angle_gamma   90.00000000
_symmetry_Int_Tables_number   1
_chemical_formula_structural   LuTi3(GaRh5)2
_chemical_formula_sum   'Lu1 Ti3 Ga2 Rh10'
_cell_volume   237.51939393
_cell_formula_units_Z   1
loop_
 _symmetry_equiv_pos_site_id
 _symmetry_equiv_pos_as_xyz
  1  'x, y, z'
loop_
 _atom_site_type_symbol
 _atom_site_label
 _atom_site_symmetry_multiplicity
 _atom_site_fract_x
 _atom_site_fract_y
 _atom_site_fract_z
 _atom_site_occupancy
  Lu  Lu0  1  0.500000  0.316296  0.136953  1
  Ti  Ti1  1  0.500000  0.678028  0.858923  1
  Ti  Ti2  1  0.500000  0.819471  0.359531  1
  Ti  Ti3  1  0.500000  0.177127  0.638131  1
  Ga  Ga4  1  0.000000  0.999713  0.996134  1
  Ga  Ga5  1  0.000000  0.503579  0.502014  1
  Rh  Rh6  1  0.000000  0.000544  0.504075  1
  Rh  Rh7  1  0.000000  0.515930  0.989764  1
  Rh  Rh8  1  0.000000  0.058688  0.256782  1
  Rh  Rh9  1  0.000000  0.926351  0.752436  1
  Rh  Rh10  1  0.000000  0.572186  0.260500  1
  Rh  Rh11  1  0.000000  0.426413  0.742332  1
  Rh  Rh12  1  0.500000  0.305005  0.399029  1
  Rh  Rh13  1  0.500000  0.695219  0.612511  1
  Rh  Rh14  1  0.500000  0.813136  0.111474  1
  Rh  Rh15  1  0.500000  0.192311  0.879410  1
