# generated using pymatgen
data_Ta12Al8BAu4C3
_symmetry_space_group_name_H-M   'P 1'
_cell_length_a   8.42265458
_cell_length_b   8.45896892
_cell_length_c   8.42265400
_cell_angle_alpha   60.14191221
_cell_angle_beta   60.00000227
_cell_angle_gamma   60.14191146
_symmetry_Int_Tables_number   1
_chemical_formula_structural   Ta12Al8BAu4C3
_chemical_formula_sum   'Ta12 Al8 B1 Au4 C3'
_cell_volume   425.23463211
_cell_formula_units_Z   1
loop_
 _symmetry_equiv_pos_site_id
 _symmetry_equiv_pos_as_xyz
  1  'x, y, z'
loop_
 _atom_site_type_symbol
 _atom_site_label
 _atom_site_symmetry_multiplicity
 _atom_site_fract_x
 _atom_site_fract_y
 _atom_site_fract_z
 _atom_site_occupancy
  Ta  Ta0  1  0.569816  0.925552  0.569816  1
  Ta  Ta1  1  0.320213  0.680537  0.679036  1
  Ta  Ta2  1  0.680184  0.324448  0.315184  1
  Ta  Ta3  1  0.320213  0.680537  0.320213  1
  Ta  Ta4  1  0.679036  0.680537  0.320213  1
  Ta  Ta5  1  0.315184  0.324448  0.680184  1
  Ta  Ta6  1  0.570964  0.569463  0.929787  1
  Ta  Ta7  1  0.929787  0.569463  0.570964  1
  Ta  Ta8  1  0.569816  0.925552  0.934816  1
  Ta  Ta9  1  0.934816  0.925552  0.569816  1
  Ta  Ta10  1  0.680184  0.324448  0.680184  1
  Ta  Ta11  1  0.929787  0.569463  0.929787  1
  Al  Al12  1  0.913609  0.913702  0.913609  1
  Al  Al13  1  0.990920  0.336298  0.336391  1
  Al  Al14  1  0.336130  0.991609  0.336130  1
  Al  Al15  1  0.336391  0.336298  0.990920  1
  Al  Al16  1  0.913870  0.258391  0.913870  1
  Al  Al17  1  0.913609  0.913702  0.259080  1
  Al  Al18  1  0.259080  0.913702  0.913609  1
  Al  Al19  1  0.336391  0.336298  0.336391  1
  B  B20  1  0.625000  0.125000  0.625000  1
  Au  Au21  1  0.125000  0.125000  0.125000  1
  Au  Au22  1  0.625000  0.125000  0.125000  1
  Au  Au23  1  0.125000  0.625000  0.125000  1
  Au  Au24  1  0.125000  0.125000  0.625000  1
  C  C25  1  0.625000  0.625000  0.625000  1
  C  C26  1  0.125000  0.625000  0.625000  1
  C  C27  1  0.625000  0.625000  0.125000  1
