# generated using pymatgen
data_DySc3(AlRh)4
_symmetry_space_group_name_H-M   'P 1'
_cell_length_a   4.21018700
_cell_length_b   6.56078396
_cell_length_c   7.74380559
_cell_angle_alpha   89.54764284
_cell_angle_beta   90.00000000
_cell_angle_gamma   90.00000000
_symmetry_Int_Tables_number   1
_chemical_formula_structural   DySc3(AlRh)4
_chemical_formula_sum   'Dy1 Sc3 Al4 Rh4'
_cell_volume   213.89371774
_cell_formula_units_Z   1
loop_
 _symmetry_equiv_pos_site_id
 _symmetry_equiv_pos_as_xyz
  1  'x, y, z'
loop_
 _atom_site_type_symbol
 _atom_site_label
 _atom_site_symmetry_multiplicity
 _atom_site_fract_x
 _atom_site_fract_y
 _atom_site_fract_z
 _atom_site_occupancy
  Dy  Dy0  1  0.750000  0.032985  0.679255  1
  Sc  Sc1  1  0.250000  0.963632  0.318173  1
  Sc  Sc2  1  0.750000  0.535864  0.824006  1
  Sc  Sc3  1  0.250000  0.465987  0.179241  1
  Al  Al4  1  0.750000  0.638678  0.437857  1
  Al  Al5  1  0.750000  0.143006  0.063400  1
  Al  Al6  1  0.250000  0.361015  0.556169  1
  Al  Al7  1  0.250000  0.855421  0.943449  1
  Rh  Rh8  1  0.750000  0.758617  0.119889  1
  Rh  Rh9  1  0.750000  0.260776  0.373694  1
  Rh  Rh10  1  0.250000  0.249490  0.884555  1
  Rh  Rh11  1  0.250000  0.734529  0.620312  1
