# generated using pymatgen
data_Sm7DySc11Si16Tc
_symmetry_space_group_name_H-M   'P 1'
_cell_length_a   7.09425606
_cell_length_b   7.41951985
_cell_length_c   14.00500644
_cell_angle_alpha   89.92250244
_cell_angle_beta   90.02135472
_cell_angle_gamma   90.09120512
_symmetry_Int_Tables_number   1
_chemical_formula_structural   Sm7DySc11Si16Tc
_chemical_formula_sum   'Sm7 Dy1 Sc11 Si16 Tc1'
_cell_volume   737.16549104
_cell_formula_units_Z   1
loop_
 _symmetry_equiv_pos_site_id
 _symmetry_equiv_pos_as_xyz
  1  'x, y, z'
loop_
 _atom_site_type_symbol
 _atom_site_label
 _atom_site_symmetry_multiplicity
 _atom_site_fract_x
 _atom_site_fract_y
 _atom_site_fract_z
 _atom_site_occupancy
  Sm  Sm0  1  0.012453  0.174967  0.094085  1
  Sm  Sm1  1  0.992885  0.820794  0.899263  1
  Sm  Sm2  1  0.486776  0.670127  0.901240  1
  Sm  Sm3  1  0.992783  0.820926  0.599798  1
  Sm  Sm4  1  0.511686  0.325863  0.095880  1
  Sm  Sm5  1  0.012837  0.174878  0.406555  1
  Sm  Sm6  1  0.511581  0.325260  0.405006  1
  Dy  Dy7  1  0.486209  0.671692  0.600040  1
  Sc  Sc8  1  0.841570  0.498228  0.250109  1
  Sc  Sc9  1  0.341961  0.001929  0.250190  1
  Sc  Sc10  1  0.657329  0.997947  0.749596  1
  Sc  Sc11  1  0.326425  0.178143  0.627505  1
  Sc  Sc12  1  0.672123  0.823690  0.375150  1
  Sc  Sc13  1  0.172537  0.674243  0.376946  1
  Sc  Sc14  1  0.672453  0.824461  0.125280  1
  Sc  Sc15  1  0.828166  0.331836  0.627887  1
  Sc  Sc16  1  0.325989  0.178227  0.871662  1
  Sc  Sc17  1  0.828664  0.331569  0.871013  1
  Sc  Sc18  1  0.172198  0.674543  0.123419  1
  Si  Si19  1  0.030247  0.126906  0.749487  1
  Si  Si20  1  0.971404  0.880303  0.250181  1
  Si  Si21  1  0.467991  0.621649  0.250256  1
  Si  Si22  1  0.519779  0.390507  0.748793  1
  Si  Si23  1  0.288374  0.869380  0.749080  1
  Si  Si24  1  0.715510  0.123356  0.250185  1
  Si  Si25  1  0.213033  0.377141  0.250249  1
  Si  Si26  1  0.793094  0.624345  0.749036  1
  Si  Si27  1  0.155430  0.465789  0.548790  1
  Si  Si28  1  0.845728  0.536848  0.463178  1
  Si  Si29  1  0.349342  0.961288  0.463814  1
  Si  Si30  1  0.846247  0.536855  0.037219  1
  Si  Si31  1  0.653475  0.032708  0.541139  1
  Si  Si32  1  0.152174  0.463745  0.952020  1
  Si  Si33  1  0.654079  0.035704  0.959447  1
  Si  Si34  1  0.349105  0.963866  0.037148  1
  Tc  Tc35  1  0.148366  0.490286  0.749351  1
