# generated using pymatgen
data_Dy8Er3Th5(MgRu)4
_symmetry_space_group_name_H-M   'P 1'
_cell_length_a   9.71944978
_cell_length_b   9.78112254
_cell_length_c   9.78094728
_cell_angle_alpha   59.63512861
_cell_angle_beta   60.21202381
_cell_angle_gamma   60.21209603
_symmetry_Int_Tables_number   1
_chemical_formula_structural   Dy8Er3Th5(MgRu)4
_chemical_formula_sum   'Dy8 Er3 Th5 Mg4 Ru4'
_cell_volume   657.75092872
_cell_formula_units_Z   1
loop_
 _symmetry_equiv_pos_site_id
 _symmetry_equiv_pos_as_xyz
  1  'x, y, z'
loop_
 _atom_site_type_symbol
 _atom_site_label
 _atom_site_symmetry_multiplicity
 _atom_site_fract_x
 _atom_site_fract_y
 _atom_site_fract_z
 _atom_site_occupancy
  Dy  Dy0  1  0.190805  0.184258  0.810272  1
  Dy  Dy1  1  0.814679  0.810258  0.184261  1
  Dy  Dy2  1  0.932632  0.567357  0.567361  1
  Dy  Dy3  1  0.564782  0.935207  0.935218  1
  Dy  Dy4  1  0.562679  0.936173  0.564101  1
  Dy  Dy5  1  0.937041  0.564110  0.936179  1
  Dy  Dy6  1  0.562688  0.564111  0.936146  1
  Dy  Dy7  1  0.937034  0.936113  0.564132  1
  Er  Er8  1  0.186191  0.813946  0.813748  1
  Er  Er9  1  0.191009  0.809518  0.184920  1
  Er  Er10  1  0.814654  0.184760  0.809478  1
  Th  Th11  1  0.341255  0.349548  0.348690  1
  Th  Th12  1  0.346860  0.347325  0.959801  1
  Th  Th13  1  0.345992  0.959839  0.347301  1
  Th  Th14  1  0.960520  0.348665  0.349528  1
  Th  Th15  1  0.816305  0.183685  0.183669  1
  Mg  Mg16  1  0.580958  0.579459  0.579733  1
  Mg  Mg17  1  0.579413  0.582112  0.258823  1
  Mg  Mg18  1  0.579663  0.258808  0.582124  1
  Mg  Mg19  1  0.259824  0.579739  0.579476  1
  Ru  Ru20  1  0.128289  0.147129  0.148128  1
  Ru  Ru21  1  0.144726  0.141696  0.568097  1
  Ru  Ru22  1  0.145448  0.568091  0.141701  1
  Ru  Ru23  1  0.576556  0.148090  0.147113  1
