# generated using pymatgen
data_DyEr9IrOs3
_symmetry_space_group_name_H-M   'P 1'
_cell_length_a   6.37331223
_cell_length_b   7.32782645
_cell_length_c   8.36903800
_cell_angle_alpha   96.77034833
_cell_angle_beta   112.24545562
_cell_angle_gamma   89.99748995
_symmetry_Int_Tables_number   1
_chemical_formula_structural   DyEr9IrOs3
_chemical_formula_sum   'Dy1 Er9 Ir1 Os3'
_cell_volume   358.81842377
_cell_formula_units_Z   1
loop_
 _symmetry_equiv_pos_site_id
 _symmetry_equiv_pos_as_xyz
  1  'x, y, z'
loop_
 _atom_site_type_symbol
 _atom_site_label
 _atom_site_symmetry_multiplicity
 _atom_site_fract_x
 _atom_site_fract_y
 _atom_site_fract_z
 _atom_site_occupancy
  Dy  Dy0  1  0.972294  0.914856  0.180559  1
  Er  Er1  1  0.791126  0.582628  0.817161  1
  Er  Er2  1  0.023072  0.084133  0.813714  1
  Er  Er3  1  0.206891  0.418035  0.180504  1
  Er  Er4  1  0.648049  0.816776  0.438628  1
  Er  Er5  1  0.209623  0.681745  0.562966  1
  Er  Er6  1  0.352744  0.181726  0.564659  1
  Er  Er7  1  0.793738  0.319673  0.438284  1
  Er  Er8  1  0.422500  0.748622  0.999193  1
  Er  Er9  1  0.577033  0.250464  0.999343  1
  Ir  Ir10  1  0.397236  0.077839  0.222185  1
  Os  Os11  1  0.823203  0.576272  0.218275  1
  Os  Os12  1  0.606482  0.924332  0.781605  1
  Os  Os13  1  0.176008  0.422897  0.782925  1
