# generated using pymatgen
data_SmCd3P6N13
_symmetry_space_group_name_H-M   'P 1'
_cell_length_a   7.34031478
_cell_length_b   7.33491785
_cell_length_c   7.33491925
_cell_angle_alpha   109.45631163
_cell_angle_beta   109.48612810
_cell_angle_gamma   109.48612864
_symmetry_Int_Tables_number   1
_chemical_formula_structural   SmCd3P6N13
_chemical_formula_sum   'Sm1 Cd3 P6 N13'
_cell_volume   303.95090074
_cell_formula_units_Z   1
loop_
 _symmetry_equiv_pos_site_id
 _symmetry_equiv_pos_as_xyz
  1  'x, y, z'
loop_
 _atom_site_type_symbol
 _atom_site_label
 _atom_site_symmetry_multiplicity
 _atom_site_fract_x
 _atom_site_fract_y
 _atom_site_fract_z
 _atom_site_occupancy
  Sm  Sm0  1  0.692940  0.000000  0.000000  1
  Cd  Cd1  1  0.003900  0.000000  0.704266  1
  Cd  Cd2  1  0.003900  0.704266  0.000000  1
  Cd  Cd3  1  0.299634  0.295734  0.295734  1
  P  P4  1  0.246755  0.748746  0.496520  1
  P  P5  1  0.750235  0.252226  0.503480  1
  P  P6  1  0.750235  0.503480  0.252226  1
  P  P7  1  0.246755  0.496520  0.748746  1
  P  P8  1  0.498009  0.747774  0.251254  1
  P  P9  1  0.498009  0.251254  0.747774  1
  N  N10  1  0.999519  0.000000  0.000000  1
  N  N11  1  0.717343  0.288362  0.288362  1
  N  N12  1  0.278945  0.710750  0.279263  1
  N  N13  1  0.299424  0.578555  0.578555  1
  N  N14  1  0.568195  0.568513  0.289250  1
  N  N15  1  0.428981  0.711638  0.000000  1
  N  N16  1  0.999682  0.720737  0.431487  1
  N  N17  1  0.568195  0.289250  0.568513  1
  N  N18  1  0.720868  0.000000  0.421445  1
  N  N19  1  0.428981  0.000000  0.711638  1
  N  N20  1  0.720868  0.421445  0.000000  1
  N  N21  1  0.278945  0.279263  0.710750  1
  N  N22  1  0.999682  0.431487  0.720737  1
