# generated using pymatgen
data_Er3Al12Ir3Ru
_symmetry_space_group_name_H-M   'P 1'
_cell_length_a   8.80082300
_cell_length_b   8.80082250
_cell_length_c   9.48274700
_cell_angle_alpha   90.00000000
_cell_angle_beta   90.00000000
_cell_angle_gamma   119.99999813
_symmetry_Int_Tables_number   1
_chemical_formula_structural   Er3Al12Ir3Ru
_chemical_formula_sum   'Er6 Al24 Ir6 Ru2'
_cell_volume   636.07943118
_cell_formula_units_Z   2
loop_
 _symmetry_equiv_pos_site_id
 _symmetry_equiv_pos_as_xyz
  1  'x, y, z'
loop_
 _atom_site_type_symbol
 _atom_site_label
 _atom_site_symmetry_multiplicity
 _atom_site_fract_x
 _atom_site_fract_y
 _atom_site_fract_z
 _atom_site_occupancy
  Er  Er0  1  0.194075  0.388151  0.250000  1
  Er  Er1  1  0.805925  0.611849  0.750000  1
  Er  Er2  1  0.611849  0.805925  0.250000  1
  Er  Er3  1  0.388151  0.194075  0.750000  1
  Er  Er4  1  0.194075  0.805925  0.250000  1
  Er  Er5  1  0.805925  0.194075  0.750000  1
  Al  Al6  1  0.333333  0.666667  0.026562  1
  Al  Al7  1  0.666667  0.333333  0.973438  1
  Al  Al8  1  0.666667  0.333333  0.526562  1
  Al  Al9  1  0.333333  0.666667  0.473438  1
  Al  Al10  1  0.162916  0.325831  0.578023  1
  Al  Al11  1  0.837084  0.674169  0.421977  1
  Al  Al12  1  0.674169  0.837084  0.578023  1
  Al  Al13  1  0.837084  0.674169  0.078023  1
  Al  Al14  1  0.325831  0.162916  0.421977  1
  Al  Al15  1  0.162916  0.325831  0.921977  1
  Al  Al16  1  0.162916  0.837084  0.578023  1
  Al  Al17  1  0.325831  0.162916  0.078023  1
  Al  Al18  1  0.837084  0.162916  0.421977  1
  Al  Al19  1  0.674169  0.837084  0.921977  1
  Al  Al20  1  0.837084  0.162916  0.078023  1
  Al  Al21  1  0.162916  0.837084  0.921977  1
  Al  Al22  1  0.562292  0.124585  0.250000  1
  Al  Al23  1  0.437708  0.875415  0.750000  1
  Al  Al24  1  0.875415  0.437708  0.250000  1
  Al  Al25  1  0.124585  0.562292  0.750000  1
  Al  Al26  1  0.562292  0.437708  0.250000  1
  Al  Al27  1  0.437708  0.562292  0.750000  1
  Al  Al28  1  0.000000  0.000000  0.250000  1
  Al  Al29  1  0.000000  0.000000  0.750000  1
  Ir  Ir30  1  0.500000  0.000000  0.000000  1
  Ir  Ir31  1  0.000000  0.500000  0.000000  1
  Ir  Ir32  1  0.500000  0.000000  0.500000  1
  Ir  Ir33  1  0.500000  0.500000  0.000000  1
  Ir  Ir34  1  0.000000  0.500000  0.500000  1
  Ir  Ir35  1  0.500000  0.500000  0.500000  1
  Ru  Ru36  1  0.000000  0.000000  0.000000  1
  Ru  Ru37  1  0.000000  0.000000  0.500000  1
