# generated using pymatgen
data_YTm5TiAl23Os8
_symmetry_space_group_name_H-M   'P 1'
_cell_length_a   8.81609700
_cell_length_b   8.82096626
_cell_length_c   9.56080587
_cell_angle_alpha   89.95765015
_cell_angle_beta   90.00000000
_cell_angle_gamma   119.98174508
_symmetry_Int_Tables_number   1
_chemical_formula_structural   YTm5TiAl23Os8
_chemical_formula_sum   'Y1 Tm5 Ti1 Al23 Os8'
_cell_volume   644.01703170
_cell_formula_units_Z   1
loop_
 _symmetry_equiv_pos_site_id
 _symmetry_equiv_pos_as_xyz
  1  'x, y, z'
loop_
 _atom_site_type_symbol
 _atom_site_label
 _atom_site_symmetry_multiplicity
 _atom_site_fract_x
 _atom_site_fract_y
 _atom_site_fract_z
 _atom_site_occupancy
  Y  Y0  1  0.192557  0.385112  0.249830  1
  Tm  Tm1  1  0.806265  0.612531  0.747777  1
  Tm  Tm2  1  0.611260  0.807144  0.249427  1
  Tm  Tm3  1  0.388409  0.193999  0.748457  1
  Tm  Tm4  1  0.195885  0.807144  0.249427  1
  Tm  Tm5  1  0.805590  0.193999  0.748457  1
  Ti  Ti6  1  0.332731  0.665462  0.995589  1
  Al  Al7  1  0.666390  0.332779  0.976344  1
  Al  Al8  1  0.666686  0.333371  0.522029  1
  Al  Al9  1  0.333343  0.666687  0.478378  1
  Al  Al10  1  0.162803  0.325607  0.576735  1
  Al  Al11  1  0.836431  0.672862  0.424019  1
  Al  Al12  1  0.673554  0.836525  0.574927  1
  Al  Al13  1  0.836491  0.672983  0.077455  1
  Al  Al14  1  0.327437  0.163792  0.425438  1
  Al  Al15  1  0.160085  0.320170  0.923396  1
  Al  Al16  1  0.162971  0.836525  0.574927  1
  Al  Al17  1  0.327808  0.164015  0.076632  1
  Al  Al18  1  0.836355  0.163792  0.425438  1
  Al  Al19  1  0.679999  0.839900  0.925514  1
  Al  Al20  1  0.836206  0.164015  0.076632  1
  Al  Al21  1  0.159902  0.839900  0.925514  1
  Al  Al22  1  0.562135  0.124272  0.252711  1
  Al  Al23  1  0.440581  0.881163  0.751088  1
  Al  Al24  1  0.876933  0.439617  0.252459  1
  Al  Al25  1  0.118446  0.559383  0.750728  1
  Al  Al26  1  0.562682  0.439617  0.252459  1
  Al  Al27  1  0.440936  0.559383  0.750728  1
  Al  Al28  1  0.998711  0.997422  0.250783  1
  Al  Al29  1  0.000283  0.000566  0.750661  1
  Os  Os30  1  0.498452  0.996905  0.003418  1
  Os  Os31  1  0.001558  0.501516  0.001285  1
  Os  Os32  1  0.499502  0.999004  0.502179  1
  Os  Os33  1  0.499958  0.501516  0.001285  1
  Os  Os34  1  0.000904  0.500604  0.503148  1
  Os  Os35  1  0.499700  0.500604  0.503148  1
  Os  Os36  1  0.000265  0.000530  0.001787  1
  Os  Os37  1  0.999793  0.999585  0.499797  1
