# generated using pymatgen
data_Lu12ZnCo4Rh
_symmetry_space_group_name_H-M   'P 1'
_cell_length_a   8.03420186
_cell_length_b   8.03420332
_cell_length_c   8.03420209
_cell_angle_alpha   110.96316263
_cell_angle_beta   111.06867805
_cell_angle_gamma   106.42414086
_symmetry_Int_Tables_number   1
_chemical_formula_structural   Lu12ZnCo4Rh
_chemical_formula_sum   'Lu12 Zn1 Co4 Rh1'
_cell_volume   398.37315393
_cell_formula_units_Z   1
loop_
 _symmetry_equiv_pos_site_id
 _symmetry_equiv_pos_as_xyz
  1  'x, y, z'
loop_
 _atom_site_type_symbol
 _atom_site_label
 _atom_site_symmetry_multiplicity
 _atom_site_fract_x
 _atom_site_fract_y
 _atom_site_fract_z
 _atom_site_occupancy
  Lu  Lu0  1  0.418152  0.224546  0.193605  1
  Lu  Lu1  1  0.581848  0.775454  0.806395  1
  Lu  Lu2  1  0.030941  0.224546  0.806395  1
  Lu  Lu3  1  0.969059  0.775454  0.193605  1
  Lu  Lu4  1  0.184941  0.284186  0.469128  1
  Lu  Lu5  1  0.815059  0.715814  0.530872  1
  Lu  Lu6  1  0.184941  0.715814  0.900754  1
  Lu  Lu7  1  0.815059  0.284186  0.099246  1
  Lu  Lu8  1  0.316720  0.621394  0.304675  1
  Lu  Lu9  1  0.683280  0.378606  0.695325  1
  Lu  Lu10  1  0.316720  0.012045  0.695325  1
  Lu  Lu11  1  0.683280  0.987955  0.304675  1
  Zn  Zn12  1  0.500000  0.500000  0.000000  1
  Co  Co13  1  0.370911  0.000000  0.370911  1
  Co  Co14  1  0.629089  0.000000  0.629089  1
  Co  Co15  1  0.114322  0.614322  0.500000  1
  Co  Co16  1  0.885678  0.385678  0.500000  1
  Rh  Rh17  1  0.000000  0.000000  0.000000  1
