# generated using pymatgen
data_YbLu3(B4Ru5)2
_symmetry_space_group_name_H-M   'P 1'
_cell_length_a   3.03952600
_cell_length_b   8.68136197
_cell_length_c   10.17957930
_cell_angle_alpha   90.14039480
_cell_angle_beta   90.00000000
_cell_angle_gamma   90.00000000
_symmetry_Int_Tables_number   1
_chemical_formula_structural   YbLu3(B4Ru5)2
_chemical_formula_sum   'Yb1 Lu3 B8 Ru10'
_cell_volume   268.61004750
_cell_formula_units_Z   1
loop_
 _symmetry_equiv_pos_site_id
 _symmetry_equiv_pos_as_xyz
  1  'x, y, z'
loop_
 _atom_site_type_symbol
 _atom_site_label
 _atom_site_symmetry_multiplicity
 _atom_site_fract_x
 _atom_site_fract_y
 _atom_site_fract_z
 _atom_site_occupancy
  Yb  Yb0  1  0.500000  0.341283  0.317901  1
  Lu  Lu1  1  0.500000  0.841524  0.183042  1
  Lu  Lu2  1  0.500000  0.158734  0.818023  1
  Lu  Lu3  1  0.500000  0.658041  0.680744  1
  B  B4  1  0.500000  0.966010  0.588318  1
  B  B5  1  0.500000  0.034895  0.410864  1
  B  B6  1  0.500000  0.852460  0.899982  1
  B  B7  1  0.500000  0.147625  0.101343  1
  B  B8  1  0.500000  0.646302  0.399414  1
  B  B9  1  0.500000  0.352854  0.599249  1
  B  B10  1  0.500000  0.465846  0.911608  1
  B  B11  1  0.500000  0.533372  0.089408  1
  Ru  Ru12  1  0.000000  0.658803  0.953314  1
  Ru  Ru13  1  0.000000  0.341852  0.044411  1
  Ru  Ru14  1  0.000000  0.842082  0.454521  1
  Ru  Ru15  1  0.000000  0.157606  0.547636  1
  Ru  Ru16  1  0.000000  0.000276  0.999490  1
  Ru  Ru17  1  0.000000  0.405399  0.761020  1
  Ru  Ru18  1  0.000000  0.595212  0.239225  1
  Ru  Ru19  1  0.000000  0.501139  0.500641  1
  Ru  Ru20  1  0.000000  0.905345  0.739007  1
  Ru  Ru21  1  0.000000  0.093339  0.260839  1
