# generated using pymatgen
data_Rb9Na7(TiSe4)4
_symmetry_space_group_name_H-M   'P 1'
_cell_length_a   7.65026722
_cell_length_b   10.38421474
_cell_length_c   15.40538674
_cell_angle_alpha   90.38615858
_cell_angle_beta   90.72297007
_cell_angle_gamma   89.62597400
_symmetry_Int_Tables_number   1
_chemical_formula_structural   Rb9Na7(TiSe4)4
_chemical_formula_sum   'Rb9 Na7 Ti4 Se16'
_cell_volume   1223.68437879
_cell_formula_units_Z   1
loop_
 _symmetry_equiv_pos_site_id
 _symmetry_equiv_pos_as_xyz
  1  'x, y, z'
loop_
 _atom_site_type_symbol
 _atom_site_label
 _atom_site_symmetry_multiplicity
 _atom_site_fract_x
 _atom_site_fract_y
 _atom_site_fract_z
 _atom_site_occupancy
  Rb  Rb0  1  0.000172  0.005207  0.000964  1
  Rb  Rb1  1  0.506073  0.999714  0.498362  1
  Rb  Rb2  1  0.995832  0.490031  0.982814  1
  Rb  Rb3  1  0.497108  0.494112  0.499812  1
  Rb  Rb4  1  0.999478  0.748266  0.439218  1
  Rb  Rb5  1  0.496137  0.251936  0.067956  1
  Rb  Rb6  1  0.995645  0.243753  0.571155  1
  Rb  Rb7  1  0.504865  0.749405  0.932743  1
  Rb  Rb8  1  0.312065  0.558022  0.227838  1
  Na  Na9  1  0.841087  0.052341  0.256806  1
  Na  Na10  1  0.348589  0.951161  0.244957  1
  Na  Na11  1  0.165915  0.564057  0.742590  1
  Na  Na12  1  0.661890  0.434677  0.754399  1
  Na  Na13  1  0.163888  0.931840  0.745283  1
  Na  Na14  1  0.664176  0.064671  0.757083  1
  Na  Na15  1  0.822153  0.422122  0.260644  1
  Ti  Ti16  1  0.773440  0.747644  0.691158  1
  Ti  Ti17  1  0.213568  0.245182  0.319073  1
  Ti  Ti18  1  0.735106  0.761837  0.184074  1
  Ti  Ti19  1  0.279835  0.249740  0.809673  1
  Se  Se20  1  0.964493  0.251871  0.808769  1
  Se  Se21  1  0.529272  0.247046  0.316577  1
  Se  Se22  1  0.458828  0.746983  0.691122  1
  Se  Se23  1  0.041826  0.798190  0.184538  1
  Se  Se24  1  0.667618  0.561730  0.111041  1
  Se  Se25  1  0.099852  0.428315  0.396505  1
  Se  Se26  1  0.379417  0.060763  0.884066  1
  Se  Se27  1  0.873199  0.936621  0.618196  1
  Se  Se28  1  0.383639  0.438410  0.884503  1
  Se  Se29  1  0.873023  0.557985  0.616808  1
  Se  Se30  1  0.610983  0.942700  0.108541  1
  Se  Se31  1  0.122036  0.054450  0.390477  1
  Se  Se32  1  0.612548  0.763165  0.328964  1
  Se  Se33  1  0.090010  0.247623  0.172457  1
  Se  Se34  1  0.407018  0.249156  0.665977  1
  Se  Se35  1  0.909214  0.749276  0.834859  1
