# generated using pymatgen
data_Sc22Os5Ru2Au
_symmetry_space_group_name_H-M   'P 1'
_cell_length_a   9.52672532
_cell_length_b   9.52672513
_cell_length_c   9.48531800
_cell_angle_alpha   60.14366758
_cell_angle_beta   60.14366822
_cell_angle_gamma   59.62403267
_symmetry_Int_Tables_number   1
_chemical_formula_structural   Sc22Os5Ru2Au
_chemical_formula_sum   'Sc22 Os5 Ru2 Au1'
_cell_volume   608.28816418
_cell_formula_units_Z   1
loop_
 _symmetry_equiv_pos_site_id
 _symmetry_equiv_pos_as_xyz
  1  'x, y, z'
loop_
 _atom_site_type_symbol
 _atom_site_label
 _atom_site_symmetry_multiplicity
 _atom_site_fract_x
 _atom_site_fract_y
 _atom_site_fract_z
 _atom_site_occupancy
  Sc  Sc0  1  0.801131  0.801131  0.198869  1
  Sc  Sc1  1  0.193769  0.806231  0.198439  1
  Sc  Sc2  1  0.806231  0.193769  0.198439  1
  Sc  Sc3  1  0.198869  0.198869  0.801131  1
  Sc  Sc4  1  0.806231  0.193769  0.801561  1
  Sc  Sc5  1  0.193769  0.806231  0.801561  1
  Sc  Sc6  1  0.614834  0.614834  0.149502  1
  Sc  Sc7  1  0.604483  0.151457  0.622030  1
  Sc  Sc8  1  0.151457  0.604483  0.622030  1
  Sc  Sc9  1  0.614834  0.614834  0.620832  1
  Sc  Sc10  1  0.385166  0.385166  0.850498  1
  Sc  Sc11  1  0.395517  0.848543  0.377970  1
  Sc  Sc12  1  0.848543  0.395517  0.377970  1
  Sc  Sc13  1  0.385166  0.385166  0.379168  1
  Sc  Sc14  1  0.835047  0.835047  0.475167  1
  Sc  Sc15  1  0.844171  0.465645  0.845092  1
  Sc  Sc16  1  0.465645  0.844171  0.845092  1
  Sc  Sc17  1  0.835047  0.835047  0.854737  1
  Sc  Sc18  1  0.164953  0.164953  0.524833  1
  Sc  Sc19  1  0.155829  0.534355  0.154908  1
  Sc  Sc20  1  0.534355  0.155829  0.154908  1
  Sc  Sc21  1  0.164953  0.164953  0.145263  1
  Os  Os22  1  0.500000  0.500000  0.500000  1
  Os  Os23  1  0.500000  0.000000  0.500000  1
  Os  Os24  1  0.000000  0.500000  0.500000  1
  Os  Os25  1  0.000000  0.500000  0.000000  1
  Os  Os26  1  0.500000  0.000000  0.000000  1
  Ru  Ru27  1  0.000000  0.000000  0.000000  1
  Ru  Ru28  1  0.500000  0.500000  0.000000  1
  Au  Au29  1  0.000000  0.000000  0.500000  1
