# generated using pymatgen
data_La16CdHg3Ir4
_symmetry_space_group_name_H-M   'P 1'
_cell_length_a   10.09674418
_cell_length_b   10.11786217
_cell_length_c   10.11786200
_cell_angle_alpha   60.00000056
_cell_angle_beta   59.93078801
_cell_angle_gamma   59.93078863
_symmetry_Int_Tables_number   1
_chemical_formula_structural   La16CdHg3Ir4
_chemical_formula_sum   'La16 Cd1 Hg3 Ir4'
_cell_volume   730.11075172
_cell_formula_units_Z   1
loop_
 _symmetry_equiv_pos_site_id
 _symmetry_equiv_pos_as_xyz
  1  'x, y, z'
loop_
 _atom_site_type_symbol
 _atom_site_label
 _atom_site_symmetry_multiplicity
 _atom_site_fract_x
 _atom_site_fract_y
 _atom_site_fract_z
 _atom_site_occupancy
  La  La0  1  0.597783  0.597457  0.597457  1
  La  La1  1  0.597783  0.597457  0.207303  1
  La  La2  1  0.597783  0.207303  0.597457  1
  La  La3  1  0.205066  0.598311  0.598311  1
  La  La4  1  0.059191  0.440584  0.440584  1
  La  La5  1  0.439149  0.060431  0.060431  1
  La  La6  1  0.439149  0.060431  0.439990  1
  La  La7  1  0.059191  0.440584  0.059641  1
  La  La8  1  0.439149  0.439990  0.060431  1
  La  La9  1  0.059191  0.059641  0.440584  1
  La  La10  1  0.189494  0.810211  0.810211  1
  La  La11  1  0.809442  0.190293  0.190293  1
  La  La12  1  0.809442  0.190293  0.809972  1
  La  La13  1  0.189494  0.810211  0.190084  1
  La  La14  1  0.809442  0.809972  0.190293  1
  La  La15  1  0.189494  0.190084  0.810211  1
  Cd  Cd16  1  0.514618  0.828460  0.828460  1
  Hg  Hg17  1  0.831913  0.834282  0.834282  1
  Hg  Hg18  1  0.831913  0.834282  0.499522  1
  Hg  Hg19  1  0.831913  0.499522  0.834282  1
  Ir  Ir20  1  0.391163  0.391469  0.391469  1
  Ir  Ir21  1  0.391163  0.391469  0.825899  1
  Ir  Ir22  1  0.391163  0.825899  0.391469  1
  Ir  Ir23  1  0.825911  0.391363  0.391363  1
