# generated using pymatgen
data_TbErNb3P7RuRh8
_symmetry_space_group_name_H-M   'P 1'
_cell_length_a   3.92472308
_cell_length_b   9.64800251
_cell_length_c   9.64399100
_cell_angle_alpha   119.99506111
_cell_angle_beta   90.01166435
_cell_angle_gamma   90.00041018
_symmetry_Int_Tables_number   1
_chemical_formula_structural   TbErNb3P7RuRh8
_chemical_formula_sum   'Tb1 Er1 Nb3 P7 Ru1 Rh8'
_cell_volume   316.26814728
_cell_formula_units_Z   1
loop_
 _symmetry_equiv_pos_site_id
 _symmetry_equiv_pos_as_xyz
  1  'x, y, z'
loop_
 _atom_site_type_symbol
 _atom_site_label
 _atom_site_symmetry_multiplicity
 _atom_site_fract_x
 _atom_site_fract_y
 _atom_site_fract_z
 _atom_site_occupancy
  Tb  Tb0  1  0.261896  0.666552  0.332189  1
  Er  Er1  1  0.761871  0.333140  0.666460  1
  Nb  Nb2  1  0.761918  0.095561  0.873931  1
  Nb  Nb3  1  0.761923  0.125287  0.221764  1
  Nb  Nb4  1  0.761866  0.778413  0.903264  1
  P  P5  1  0.261923  0.998759  0.001074  1
  P  P6  1  0.761886  0.878118  0.591745  1
  P  P7  1  0.761879  0.409541  0.286047  1
  P  P8  1  0.761847  0.717010  0.125376  1
  P  P9  1  0.261950  0.115203  0.414535  1
  P  P10  1  0.261912  0.582714  0.699830  1
  P  P11  1  0.261879  0.299211  0.882621  1
  Ru  Ru12  1  0.261826  0.883614  0.161580  1
  Rh  Rh13  1  0.261912  0.838472  0.722092  1
  Rh  Rh14  1  0.261902  0.278089  0.116781  1
  Rh  Rh15  1  0.761930  0.608786  0.556069  1
  Rh  Rh16  1  0.761905  0.444824  0.053357  1
  Rh  Rh17  1  0.761955  0.947231  0.392157  1
  Rh  Rh18  1  0.261938  0.367472  0.439170  1
  Rh  Rh19  1  0.261880  0.560107  0.927364  1
  Rh  Rh20  1  0.262004  0.071898  0.632591  1
