# generated using pymatgen
data_Yb4TmU5O18
_symmetry_space_group_name_H-M   'P 1'
_cell_length_a   6.80723106
_cell_length_b   7.46582141
_cell_length_c   8.39353767
_cell_angle_alpha   98.98063737
_cell_angle_beta   98.48729925
_cell_angle_gamma   107.77802429
_symmetry_Int_Tables_number   1
_chemical_formula_structural   Yb4TmU5O18
_chemical_formula_sum   'Yb4 Tm1 U5 O18'
_cell_volume   392.48272196
_cell_formula_units_Z   1
loop_
 _symmetry_equiv_pos_site_id
 _symmetry_equiv_pos_as_xyz
  1  'x, y, z'
loop_
 _atom_site_type_symbol
 _atom_site_label
 _atom_site_symmetry_multiplicity
 _atom_site_fract_x
 _atom_site_fract_y
 _atom_site_fract_z
 _atom_site_occupancy
  Yb  Yb0  1  0.593812  0.698047  0.196275  1
  Yb  Yb1  1  0.406721  0.303464  0.803157  1
  Yb  Yb2  1  0.208447  0.897944  0.419430  1
  Yb  Yb3  1  0.002613  0.509489  0.007228  1
  Tm  Tm4  1  0.795149  0.107193  0.579210  1
  U  U5  1  0.998017  0.997847  0.000115  1
  U  U6  1  0.790642  0.581965  0.591023  1
  U  U7  1  0.626188  0.205407  0.189999  1
  U  U8  1  0.374243  0.793749  0.807120  1
  U  U9  1  0.210983  0.421658  0.409427  1
  O  O10  1  0.818303  0.812060  0.478732  1
  O  O11  1  0.999289  0.255514  0.163015  1
  O  O12  1  0.670449  0.418773  0.061267  1
  O  O13  1  0.477890  0.998728  0.672286  1
  O  O14  1  0.860705  0.335057  0.430204  1
  O  O15  1  0.511720  0.412689  0.344039  1
  O  O16  1  0.255272  0.624503  0.276022  1
  O  O17  1  0.987141  0.830219  0.166985  1
  O  O18  1  0.656265  0.924483  0.007970  1
  O  O19  1  0.340440  0.073246  0.990991  1
  O  O20  1  0.001930  0.156507  0.822667  1
  O  O21  1  0.746011  0.369995  0.721128  1
  O  O22  1  0.491032  0.585491  0.658104  1
  O  O23  1  0.138343  0.663334  0.571911  1
  O  O24  1  0.544530  0.001905  0.328703  1
  O  O25  1  0.325894  0.579303  0.936331  1
  O  O26  1  0.996497  0.742124  0.836245  1
  O  O27  1  0.171474  0.199304  0.530413  1
