# generated using pymatgen
data_Re3Pt4
_symmetry_space_group_name_H-M   'P 1'
_cell_length_a   7.46374200
_cell_length_b   7.46401556
_cell_length_c   4.44930800
_cell_angle_alpha   90.00000000
_cell_angle_beta   90.00000000
_cell_angle_gamma   60.00131904
_symmetry_Int_Tables_number   1
_chemical_formula_structural   Re3Pt4
_chemical_formula_sum   'Re6 Pt8'
_cell_volume   214.66341247
_cell_formula_units_Z   2
loop_
 _symmetry_equiv_pos_site_id
 _symmetry_equiv_pos_as_xyz
  1  'x, y, z'
loop_
 _atom_site_type_symbol
 _atom_site_label
 _atom_site_symmetry_multiplicity
 _atom_site_fract_x
 _atom_site_fract_y
 _atom_site_fract_z
 _atom_site_occupancy
  Re  Re0  1  0.703971  0.441381  0.000000  1
  Re  Re1  1  0.298465  0.569020  0.000000  1
  Re  Re2  1  0.426116  0.846811  0.000000  1
  Re  Re3  1  0.526235  0.391301  0.499999  1
  Re  Re4  1  0.653895  0.669146  0.499999  1
  Re  Re5  1  0.248430  0.796770  0.499999  1
  Pt  Pt6  1  0.008154  0.993506  0.000000  1
  Pt  Pt7  1  0.570414  0.150456  0.000000  1
  Pt  Pt8  1  0.142186  0.286021  0.000000  1
  Pt  Pt9  1  0.850843  0.712697  0.000000  1
  Pt  Pt10  1  0.382743  0.086949  0.499999  1
  Pt  Pt11  1  0.944630  0.244551  0.499999  1
  Pt  Pt12  1  0.101721  0.525253  0.499999  1
  Pt  Pt13  1  0.808764  0.952701  0.499999  1
