# generated using pymatgen
data_ScCr3P4Ru3
_symmetry_space_group_name_H-M   'P 1'
_cell_length_a   7.04542700
_cell_length_b   7.04542609
_cell_length_c   3.48813700
_cell_angle_alpha   90.00000000
_cell_angle_beta   90.00000000
_cell_angle_gamma   119.99999958
_symmetry_Int_Tables_number   1
_chemical_formula_structural   ScCr3P4Ru3
_chemical_formula_sum   'Sc1 Cr3 P4 Ru3'
_cell_volume   149.94733454
_cell_formula_units_Z   1
loop_
 _symmetry_equiv_pos_site_id
 _symmetry_equiv_pos_as_xyz
  1  'x, y, z'
loop_
 _atom_site_type_symbol
 _atom_site_label
 _atom_site_symmetry_multiplicity
 _atom_site_fract_x
 _atom_site_fract_y
 _atom_site_fract_z
 _atom_site_occupancy
  Sc  Sc0  1  0.000000  0.000000  0.000000  1
  Cr  Cr1  1  0.458217  0.916433  0.000000  1
  Cr  Cr2  1  0.083567  0.541783  0.000000  1
  Cr  Cr3  1  0.458217  0.541783  0.000000  1
  P  P4  1  0.184566  0.369131  0.500000  1
  P  P5  1  0.630869  0.815434  0.500000  1
  P  P6  1  0.184566  0.815434  0.500000  1
  P  P7  1  0.666667  0.333333  0.000000  1
  Ru  Ru8  1  0.800026  0.600051  0.500000  1
  Ru  Ru9  1  0.399949  0.199974  0.500000  1
  Ru  Ru10  1  0.800026  0.199974  0.500000  1
