# generated using pymatgen
data_YLu3OsWC4
_symmetry_space_group_name_H-M   'P 1'
_cell_length_a   5.02239400
_cell_length_b   6.53796360
_cell_length_c   9.73468383
_cell_angle_alpha   88.84893768
_cell_angle_beta   90.00000000
_cell_angle_gamma   90.00000000
_symmetry_Int_Tables_number   1
_chemical_formula_structural   YLu3OsWC4
_chemical_formula_sum   'Y2 Lu6 Os2 W2 C8'
_cell_volume   319.58580559
_cell_formula_units_Z   2
loop_
 _symmetry_equiv_pos_site_id
 _symmetry_equiv_pos_as_xyz
  1  'x, y, z'
loop_
 _atom_site_type_symbol
 _atom_site_label
 _atom_site_symmetry_multiplicity
 _atom_site_fract_x
 _atom_site_fract_y
 _atom_site_fract_z
 _atom_site_occupancy
  Y  Y0  1  0.750000  0.966459  0.714274  1
  Y  Y1  1  0.250000  0.033541  0.285726  1
  Lu  Lu2  1  0.250000  0.673276  0.559108  1
  Lu  Lu3  1  0.750000  0.326724  0.440892  1
  Lu  Lu4  1  0.750000  0.828692  0.059965  1
  Lu  Lu5  1  0.250000  0.171308  0.940035  1
  Lu  Lu6  1  0.250000  0.542054  0.218904  1
  Lu  Lu7  1  0.750000  0.457946  0.781096  1
  Os  Os8  1  0.750000  0.779903  0.369408  1
  Os  Os9  1  0.250000  0.220097  0.630592  1
  W  W10  1  0.250000  0.711850  0.870617  1
  W  W11  1  0.750000  0.288150  0.129383  1
  C  C12  1  0.250000  0.446044  0.759286  1
  C  C13  1  0.750000  0.553956  0.240714  1
  C  C14  1  0.750000  0.050921  0.259983  1
  C  C15  1  0.250000  0.949079  0.740017  1
  C  C16  1  0.250000  0.827366  0.056882  1
  C  C17  1  0.750000  0.172634  0.943118  1
  C  C18  1  0.750000  0.665915  0.552142  1
  C  C19  1  0.250000  0.334085  0.447858  1
