# generated using pymatgen
data_Tb4PaTaOs6
_symmetry_space_group_name_H-M   'P 1'
_cell_length_a   5.33262696
_cell_length_b   5.33262581
_cell_length_c   9.25961400
_cell_angle_alpha   90.00000000
_cell_angle_beta   90.00000000
_cell_angle_gamma   115.72375107
_symmetry_Int_Tables_number   1
_chemical_formula_structural   Tb4PaTaOs6
_chemical_formula_sum   'Tb4 Pa1 Ta1 Os6'
_cell_volume   237.21952037
_cell_formula_units_Z   1
loop_
 _symmetry_equiv_pos_site_id
 _symmetry_equiv_pos_as_xyz
  1  'x, y, z'
loop_
 _atom_site_type_symbol
 _atom_site_label
 _atom_site_symmetry_multiplicity
 _atom_site_fract_x
 _atom_site_fract_y
 _atom_site_fract_z
 _atom_site_occupancy
  Tb  Tb0  1  0.331246  0.668754  0.442537  1
  Tb  Tb1  1  0.666739  0.333261  0.570397  1
  Tb  Tb2  1  0.666739  0.333261  0.929603  1
  Tb  Tb3  1  0.331246  0.668754  0.057463  1
  Pa  Pa4  1  0.845042  0.154958  0.250000  1
  Ta  Ta5  1  0.150353  0.849647  0.750000  1
  Os  Os6  1  0.003890  0.996110  0.502957  1
  Os  Os7  1  0.003890  0.996110  0.997043  1
  Os  Os8  1  0.828714  0.644096  0.250000  1
  Os  Os9  1  0.355904  0.171286  0.250000  1
  Os  Os10  1  0.175417  0.359181  0.750000  1
  Os  Os11  1  0.640819  0.824583  0.750000  1
