# generated using pymatgen
data_Sm11Y(ZnAu5)4
_symmetry_space_group_name_H-M   'P 1'
_cell_length_a   8.56775555
_cell_length_b   8.56775733
_cell_length_c   13.52926736
_cell_angle_alpha   90.02338568
_cell_angle_beta   89.97661438
_cell_angle_gamma   127.20021967
_symmetry_Int_Tables_number   1
_chemical_formula_structural   Sm11Y(ZnAu5)4
_chemical_formula_sum   'Sm11 Y1 Zn4 Au20'
_cell_volume   791.05974909
_cell_formula_units_Z   1
loop_
 _symmetry_equiv_pos_site_id
 _symmetry_equiv_pos_as_xyz
  1  'x, y, z'
loop_
 _atom_site_type_symbol
 _atom_site_label
 _atom_site_symmetry_multiplicity
 _atom_site_fract_x
 _atom_site_fract_y
 _atom_site_fract_z
 _atom_site_occupancy
  Sm  Sm0  1  0.928005  0.071995  0.250328  1
  Sm  Sm1  1  0.071380  0.928620  0.749580  1
  Sm  Sm2  1  0.319690  0.680310  0.250391  1
  Sm  Sm3  1  0.680332  0.319668  0.749570  1
  Sm  Sm4  1  0.370000  0.630000  0.538332  1
  Sm  Sm5  1  0.630069  0.369931  0.038336  1
  Sm  Sm6  1  0.369780  0.630220  0.961774  1
  Sm  Sm7  1  0.882598  0.117402  0.950949  1
  Sm  Sm8  1  0.117590  0.882410  0.049160  1
  Sm  Sm9  1  0.882270  0.117730  0.548913  1
  Sm  Sm10  1  0.117528  0.882472  0.450976  1
  Y  Y11  1  0.630130  0.369870  0.462398  1
  Zn  Zn12  1  0.720269  0.279731  0.250709  1
  Zn  Zn13  1  0.279017  0.720983  0.749535  1
  Zn  Zn14  1  0.532769  0.467231  0.250553  1
  Zn  Zn15  1  0.467746  0.532254  0.749812  1
  Au  Au16  1  0.320647  0.066512  0.249887  1
  Au  Au17  1  0.066960  0.320997  0.749731  1
  Au  Au18  1  0.679003  0.933040  0.749731  1
  Au  Au19  1  0.933488  0.679353  0.249887  1
  Au  Au20  1  0.570108  0.004750  0.396642  1
  Au  Au21  1  0.001390  0.568511  0.603421  1
  Au  Au22  1  0.569486  0.002679  0.104074  1
  Au  Au23  1  0.002433  0.569220  0.895904  1
  Au  Au24  1  0.431489  0.998610  0.603421  1
  Au  Au25  1  0.995250  0.429892  0.396642  1
  Au  Au26  1  0.430780  0.997567  0.895904  1
  Au  Au27  1  0.997321  0.430514  0.104074  1
  Au  Au28  1  0.686326  0.740635  0.394465  1
  Au  Au29  1  0.741497  0.684783  0.605108  1
  Au  Au30  1  0.686762  0.742258  0.106072  1
  Au  Au31  1  0.742500  0.686939  0.894037  1
  Au  Au32  1  0.315217  0.258503  0.605108  1
  Au  Au33  1  0.259365  0.313674  0.394465  1
  Au  Au34  1  0.313061  0.257500  0.894037  1
  Au  Au35  1  0.257742  0.313238  0.106072  1
