# generated using pymatgen
data_Er2Al2PdRu
_symmetry_space_group_name_H-M   'P 1'
_cell_length_a   4.24220700
_cell_length_b   6.88944300
_cell_length_c   7.93770100
_cell_angle_alpha   90.00000000
_cell_angle_beta   90.00000000
_cell_angle_gamma   90.00000000
_symmetry_Int_Tables_number   1
_chemical_formula_structural   Er2Al2PdRu
_chemical_formula_sum   'Er4 Al4 Pd2 Ru2'
_cell_volume   231.99076837
_cell_formula_units_Z   2
loop_
 _symmetry_equiv_pos_site_id
 _symmetry_equiv_pos_as_xyz
  1  'x, y, z'
loop_
 _atom_site_type_symbol
 _atom_site_label
 _atom_site_symmetry_multiplicity
 _atom_site_fract_x
 _atom_site_fract_y
 _atom_site_fract_z
 _atom_site_occupancy
  Er  Er0  1  0.250000  0.034236  0.323975  1
  Er  Er1  1  0.250000  0.534236  0.176025  1
  Er  Er2  1  0.750000  0.972737  0.683798  1
  Er  Er3  1  0.750000  0.472737  0.816202  1
  Al  Al4  1  0.250000  0.139578  0.935967  1
  Al  Al5  1  0.250000  0.639578  0.564033  1
  Al  Al6  1  0.750000  0.855434  0.056163  1
  Al  Al7  1  0.750000  0.355434  0.443837  1
  Pd  Pd8  1  0.750000  0.730701  0.376912  1
  Pd  Pd9  1  0.750000  0.230701  0.123088  1
  Ru  Ru10  1  0.250000  0.267314  0.618351  1
  Ru  Ru11  1  0.250000  0.767314  0.881649  1
