# generated using pymatgen
data_Sc2MnFe11P7
_symmetry_space_group_name_H-M   'P 1'
_cell_length_a   8.89914967
_cell_length_b   8.89208312
_cell_length_c   3.58089800
_cell_angle_alpha   90.00000000
_cell_angle_beta   90.00000000
_cell_angle_gamma   120.05290673
_symmetry_Int_Tables_number   1
_chemical_formula_structural   Sc2MnFe11P7
_chemical_formula_sum   'Sc2 Mn1 Fe11 P7'
_cell_volume   245.26909441
_cell_formula_units_Z   1
loop_
 _symmetry_equiv_pos_site_id
 _symmetry_equiv_pos_as_xyz
  1  'x, y, z'
loop_
 _atom_site_type_symbol
 _atom_site_label
 _atom_site_symmetry_multiplicity
 _atom_site_fract_x
 _atom_site_fract_y
 _atom_site_fract_z
 _atom_site_occupancy
  Sc  Sc0  1  0.000518  0.999855  0.000000  1
  Sc  Sc1  1  0.667962  0.334264  0.500000  1
  Mn  Mn2  1  0.451111  0.883437  0.500000  1
  Fe  Fe3  1  0.390940  0.297713  0.000000  1
  Fe  Fe4  1  0.905370  0.608949  0.000000  1
  Fe  Fe5  1  0.703844  0.095244  0.000000  1
  Fe  Fe6  1  0.606721  0.784430  0.000000  1
  Fe  Fe7  1  0.175012  0.388695  0.000000  1
  Fe  Fe8  1  0.214405  0.822921  0.000000  1
  Fe  Fe9  1  0.769385  0.716510  0.500000  1
  Fe  Fe10  1  0.949073  0.231147  0.500000  1
  Fe  Fe11  1  0.284173  0.053324  0.500000  1
  Fe  Fe12  1  0.429875  0.547857  0.500000  1
  Fe  Fe13  1  0.113968  0.568632  0.500000  1
  P  P14  1  0.632092  0.550333  0.000000  1
  P  P15  1  0.917771  0.368600  0.000000  1
  P  P16  1  0.451520  0.085262  0.000000  1
  P  P17  1  0.745749  0.956613  0.500000  1
  P  P18  1  0.216502  0.260862  0.500000  1
  P  P19  1  0.044139  0.783416  0.500000  1
  P  P20  1  0.329870  0.661936  0.000000  1
