# generated using pymatgen
data_Y6Sn5HgPd6
_symmetry_space_group_name_H-M   'P 1'
_cell_length_a   7.73819500
_cell_length_b   7.73401635
_cell_length_c   7.67459059
_cell_angle_alpha   90.08515623
_cell_angle_beta   90.00000000
_cell_angle_gamma   120.01787869
_symmetry_Int_Tables_number   1
_chemical_formula_structural   Y6Sn5HgPd6
_chemical_formula_sum   'Y6 Sn5 Hg1 Pd6'
_cell_volume   397.69643182
_cell_formula_units_Z   1
loop_
 _symmetry_equiv_pos_site_id
 _symmetry_equiv_pos_as_xyz
  1  'x, y, z'
loop_
 _atom_site_type_symbol
 _atom_site_label
 _atom_site_symmetry_multiplicity
 _atom_site_fract_x
 _atom_site_fract_y
 _atom_site_fract_z
 _atom_site_occupancy
  Y  Y0  1  0.408021  0.003549  0.246250  1
  Y  Y1  1  0.601495  0.601362  0.246970  1
  Y  Y2  1  0.992576  0.394828  0.247244  1
  Y  Y3  1  0.404472  0.996451  0.753750  1
  Y  Y4  1  0.597748  0.605172  0.752756  1
  Y  Y5  1  0.000133  0.398638  0.753030  1
  Sn  Sn6  1  0.270628  0.267875  0.499787  1
  Sn  Sn7  1  0.002753  0.732125  0.500213  1
  Sn  Sn8  1  0.998843  0.743029  0.999879  1
  Sn  Sn9  1  0.255814  0.256971  0.000121  1
  Sn  Sn10  1  0.737033  0.000000  0.500000  1
  Hg  Hg11  1  0.727186  0.000000  0.000000  1
  Pd  Pd12  1  0.321131  0.656472  0.005878  1
  Pd  Pd13  1  0.333872  0.665518  0.493402  1
  Pd  Pd14  1  0.664660  0.343528  0.994122  1
  Pd  Pd15  1  0.668354  0.334482  0.506598  1
  Pd  Pd16  1  0.007510  0.999737  0.258516  1
  Pd  Pd17  1  0.007773  0.000263  0.741484  1
