# generated using pymatgen
data_Ca2YbLu5(B6Os)4
_symmetry_space_group_name_H-M   'P 1'
_cell_length_a   3.60534300
_cell_length_b   9.08883669
_cell_length_c   11.48214430
_cell_angle_alpha   89.92644226
_cell_angle_beta   90.00000000
_cell_angle_gamma   90.00000000
_symmetry_Int_Tables_number   1
_chemical_formula_structural   Ca2YbLu5(B6Os)4
_chemical_formula_sum   'Ca2 Yb1 Lu5 B24 Os4'
_cell_volume   376.25088538
_cell_formula_units_Z   1
loop_
 _symmetry_equiv_pos_site_id
 _symmetry_equiv_pos_as_xyz
  1  'x, y, z'
loop_
 _atom_site_type_symbol
 _atom_site_label
 _atom_site_symmetry_multiplicity
 _atom_site_fract_x
 _atom_site_fract_y
 _atom_site_fract_z
 _atom_site_occupancy
  Ca  Ca0  1  0.000000  0.323519  0.414395  1
  Ca  Ca1  1  0.000000  0.676610  0.585225  1
  Yb  Yb2  1  0.000000  0.822989  0.086092  1
  Lu  Lu3  1  0.000000  0.176195  0.914798  1
  Lu  Lu4  1  0.000000  0.942144  0.367830  1
  Lu  Lu5  1  0.000000  0.057256  0.630958  1
  Lu  Lu6  1  0.000000  0.443355  0.130691  1
  Lu  Lu7  1  0.000000  0.557776  0.869737  1
  B  B8  1  0.500000  0.553545  0.432249  1
  B  B9  1  0.500000  0.445730  0.568479  1
  B  B10  1  0.500000  0.053875  0.065865  1
  B  B11  1  0.500000  0.946544  0.933867  1
  B  B12  1  0.500000  0.750078  0.416720  1
  B  B13  1  0.500000  0.249758  0.583434  1
  B  B14  1  0.500000  0.249752  0.080304  1
  B  B15  1  0.500000  0.750707  0.918660  1
  B  B16  1  0.500000  0.792278  0.263402  1
  B  B17  1  0.500000  0.207127  0.737245  1
  B  B18  1  0.500000  0.291863  0.233410  1
  B  B19  1  0.500000  0.709217  0.766146  1
  B  B20  1  0.500000  0.630860  0.184522  1
  B  B21  1  0.500000  0.368555  0.816726  1
  B  B22  1  0.500000  0.130361  0.313270  1
  B  B23  1  0.500000  0.870291  0.685745  1
  B  B24  1  0.500000  0.982217  0.210599  1
  B  B25  1  0.500000  0.018428  0.788977  1
  B  B26  1  0.500000  0.483256  0.287166  1
  B  B27  1  0.500000  0.516372  0.713420  1
  B  B28  1  0.500000  0.598490  0.027069  1
  B  B29  1  0.500000  0.399926  0.972580  1
  B  B30  1  0.500000  0.096000  0.473322  1
  B  B31  1  0.500000  0.904085  0.526184  1
  Os  Os32  1  0.000000  0.639949  0.318946  1
  Os  Os33  1  0.000000  0.358565  0.682792  1
  Os  Os34  1  0.000000  0.138711  0.178171  1
  Os  Os35  1  0.000000  0.863613  0.821003  1
