# generated using pymatgen
data_Dy8Ho4GaNi4Sn
_symmetry_space_group_name_H-M   'P 1'
_cell_length_a   8.34309008
_cell_length_b   8.34325877
_cell_length_c   8.34308832
_cell_angle_alpha   112.81459046
_cell_angle_beta   109.66236739
_cell_angle_gamma   106.00728536
_symmetry_Int_Tables_number   1
_chemical_formula_structural   Dy8Ho4GaNi4Sn
_chemical_formula_sum   'Dy8 Ho4 Ga1 Ni4 Sn1'
_cell_volume   445.49024245
_cell_formula_units_Z   1
loop_
 _symmetry_equiv_pos_site_id
 _symmetry_equiv_pos_as_xyz
  1  'x, y, z'
loop_
 _atom_site_type_symbol
 _atom_site_label
 _atom_site_symmetry_multiplicity
 _atom_site_fract_x
 _atom_site_fract_y
 _atom_site_fract_z
 _atom_site_occupancy
  Dy  Dy0  1  0.427635  0.229710  0.197937  1
  Dy  Dy1  1  0.572365  0.770290  0.802063  1
  Dy  Dy2  1  0.031773  0.229710  0.802076  1
  Dy  Dy3  1  0.968227  0.770290  0.197924  1
  Dy  Dy4  1  0.180711  0.286481  0.467190  1
  Dy  Dy5  1  0.819289  0.713519  0.532810  1
  Dy  Dy6  1  0.180709  0.713519  0.894231  1
  Dy  Dy7  1  0.819291  0.286481  0.105769  1
  Ho  Ho8  1  0.322887  0.631931  0.309044  1
  Ho  Ho9  1  0.677113  0.368069  0.690956  1
  Ho  Ho10  1  0.322889  0.013839  0.690950  1
  Ho  Ho11  1  0.677111  0.986161  0.309050  1
  Ga  Ga12  1  0.000000  0.000000  0.000000  1
  Ni  Ni13  1  0.351884  0.000000  0.351884  1
  Ni  Ni14  1  0.648116  0.000000  0.648116  1
  Ni  Ni15  1  0.122315  0.622314  0.499999  1
  Ni  Ni16  1  0.877685  0.377686  0.500001  1
  Sn  Sn17  1  0.500000  0.500000  0.000000  1
