# generated using pymatgen
data_Yb6RuPtO12
_symmetry_space_group_name_H-M   'P 1'
_cell_length_a   6.48471467
_cell_length_b   6.48471398
_cell_length_c   6.48471400
_cell_angle_alpha   92.21832998
_cell_angle_beta   92.21831206
_cell_angle_gamma   92.21833611
_symmetry_Int_Tables_number   1
_chemical_formula_structural   Yb6RuPtO12
_chemical_formula_sum   'Yb6 Ru1 Pt1 O12'
_cell_volume   272.06269165
_cell_formula_units_Z   1
loop_
 _symmetry_equiv_pos_site_id
 _symmetry_equiv_pos_as_xyz
  1  'x, y, z'
loop_
 _atom_site_type_symbol
 _atom_site_label
 _atom_site_symmetry_multiplicity
 _atom_site_fract_x
 _atom_site_fract_y
 _atom_site_fract_z
 _atom_site_occupancy
  Yb  Yb0  1  0.927989  0.429668  0.744816  1
  Yb  Yb1  1  0.744816  0.927989  0.429668  1
  Yb  Yb2  1  0.570332  0.255184  0.072011  1
  Yb  Yb3  1  0.429668  0.744816  0.927989  1
  Yb  Yb4  1  0.255184  0.072011  0.570332  1
  Yb  Yb5  1  0.072011  0.570332  0.255184  1
  Ru  Ru6  1  0.500000  0.500000  0.500000  1
  Pt  Pt7  1  0.000000  0.000000  0.000000  1
  O  O8  1  0.931508  0.292307  0.071188  1
  O  O9  1  0.928812  0.068492  0.707693  1
  O  O10  1  0.785025  0.576986  0.453139  1
  O  O11  1  0.707693  0.928812  0.068492  1
  O  O12  1  0.576986  0.453139  0.785025  1
  O  O13  1  0.546861  0.214975  0.423014  1
  O  O14  1  0.453139  0.785025  0.576986  1
  O  O15  1  0.423014  0.546861  0.214975  1
  O  O16  1  0.292307  0.071188  0.931508  1
  O  O17  1  0.214975  0.423014  0.546861  1
  O  O18  1  0.071188  0.931508  0.292307  1
  O  O19  1  0.068492  0.707693  0.928812  1
