# generated using pymatgen
data_CaY(NiB4)2
_symmetry_space_group_name_H-M   'P 1'
_cell_length_a   6.84466985
_cell_length_b   6.84467105
_cell_length_c   6.84467100
_cell_angle_alpha   112.90557502
_cell_angle_beta   112.90557264
_cell_angle_gamma   102.80144254
_symmetry_Int_Tables_number   1
_chemical_formula_structural   CaY(NiB4)2
_chemical_formula_sum   'Ca2 Y2 Ni4 B16'
_cell_volume   244.38299274
_cell_formula_units_Z   2
loop_
 _symmetry_equiv_pos_site_id
 _symmetry_equiv_pos_as_xyz
  1  'x, y, z'
loop_
 _atom_site_type_symbol
 _atom_site_label
 _atom_site_symmetry_multiplicity
 _atom_site_fract_x
 _atom_site_fract_y
 _atom_site_fract_z
 _atom_site_occupancy
  Ca  Ca0  1  0.797725  0.797725  0.000000  1
  Ca  Ca1  1  0.202275  0.202275  0.000000  1
  Y  Y2  1  0.750000  0.250000  0.500000  1
  Y  Y3  1  0.250000  0.750000  0.500000  1
  Ni  Ni4  1  0.272943  0.500000  0.772943  1
  Ni  Ni5  1  0.727057  0.500000  0.227057  1
  Ni  Ni6  1  0.500000  0.727057  0.227057  1
  Ni  Ni7  1  0.500000  0.272943  0.772943  1
  B  B8  1  0.276865  0.112420  0.389286  1
  B  B9  1  0.723135  0.887580  0.610714  1
  B  B10  1  0.276865  0.887580  0.164445  1
  B  B11  1  0.723135  0.112420  0.835555  1
  B  B12  1  0.112420  0.723135  0.835555  1
  B  B13  1  0.887580  0.276865  0.164445  1
  B  B14  1  0.112420  0.276865  0.389286  1
  B  B15  1  0.887580  0.723135  0.610714  1
  B  B16  1  0.113138  0.113138  0.530143  1
  B  B17  1  0.582996  0.582996  0.469857  1
  B  B18  1  0.113138  0.582996  0.000000  1
  B  B19  1  0.582996  0.113138  0.000000  1
  B  B20  1  0.886862  0.886862  0.469857  1
  B  B21  1  0.417004  0.417004  0.530143  1
  B  B22  1  0.886862  0.417004  0.000000  1
  B  B23  1  0.417004  0.886862  0.000000  1
