# generated using pymatgen
data_Ca7ThAs6
_symmetry_space_group_name_H-M   'P 1'
_cell_length_a   7.80661968
_cell_length_b   7.80661937
_cell_length_c   7.80662075
_cell_angle_alpha   109.69464816
_cell_angle_beta   109.69464785
_cell_angle_gamma   109.69463536
_symmetry_Int_Tables_number   1
_chemical_formula_structural   Ca7ThAs6
_chemical_formula_sum   'Ca7 Th1 As6'
_cell_volume   363.18007791
_cell_formula_units_Z   1
loop_
 _symmetry_equiv_pos_site_id
 _symmetry_equiv_pos_as_xyz
  1  'x, y, z'
loop_
 _atom_site_type_symbol
 _atom_site_label
 _atom_site_symmetry_multiplicity
 _atom_site_fract_x
 _atom_site_fract_y
 _atom_site_fract_z
 _atom_site_occupancy
  Ca  Ca0  1  0.137221  0.137221  0.137221  1
  Ca  Ca1  1  0.493843  0.004444  0.870053  1
  Ca  Ca2  1  0.870053  0.493843  0.004444  1
  Ca  Ca3  1  0.004444  0.870053  0.493843  1
  Ca  Ca4  1  0.361822  0.499169  0.999186  1
  Ca  Ca5  1  0.999186  0.361822  0.499169  1
  Ca  Ca6  1  0.499169  0.999186  0.361822  1
  Th  Th7  1  0.642201  0.642201  0.642201  1
  As  As8  1  0.627187  0.381230  0.257950  1
  As  As9  1  0.257950  0.627187  0.381230  1
  As  As10  1  0.745403  0.868161  0.112129  1
  As  As11  1  0.112129  0.745403  0.868161  1
  As  As12  1  0.381230  0.257950  0.627187  1
  As  As13  1  0.868161  0.112129  0.745403  1
