# generated using pymatgen
data_Li2Er3Tm(ZnPt2)2
_symmetry_space_group_name_H-M   'P 1'
_cell_length_a   4.02242000
_cell_length_b   6.95022133
_cell_length_c   8.29940739
_cell_angle_alpha   89.96483955
_cell_angle_beta   90.00000000
_cell_angle_gamma   90.00000000
_symmetry_Int_Tables_number   1
_chemical_formula_structural   Li2Er3Tm(ZnPt2)2
_chemical_formula_sum   'Li2 Er3 Tm1 Zn2 Pt4'
_cell_volume   232.02407585
_cell_formula_units_Z   1
loop_
 _symmetry_equiv_pos_site_id
 _symmetry_equiv_pos_as_xyz
  1  'x, y, z'
loop_
 _atom_site_type_symbol
 _atom_site_label
 _atom_site_symmetry_multiplicity
 _atom_site_fract_x
 _atom_site_fract_y
 _atom_site_fract_z
 _atom_site_occupancy
  Li  Li0  1  0.250000  0.629673  0.559461  1
  Li  Li1  1  0.250000  0.129465  0.940481  1
  Er  Er2  1  0.250000  0.045523  0.319024  1
  Er  Er3  1  0.250000  0.545567  0.181208  1
  Er  Er4  1  0.750000  0.455234  0.814969  1
  Tm  Tm5  1  0.750000  0.955183  0.684869  1
  Zn  Zn6  1  0.750000  0.370630  0.437492  1
  Zn  Zn7  1  0.750000  0.870659  0.062400  1
  Pt  Pt8  1  0.250000  0.246127  0.621905  1
  Pt  Pt9  1  0.250000  0.747219  0.877905  1
  Pt  Pt10  1  0.750000  0.752489  0.377959  1
  Pt  Pt11  1  0.750000  0.252234  0.122329  1
