# generated using pymatgen
data_Y4ReB12Os
_symmetry_space_group_name_H-M   'P 1'
_cell_length_a   3.67301800
_cell_length_b   9.16986112
_cell_length_c   11.55770906
_cell_angle_alpha   90.12830794
_cell_angle_beta   90.00000000
_cell_angle_gamma   90.00000000
_symmetry_Int_Tables_number   1
_chemical_formula_structural   Y4ReB12Os
_chemical_formula_sum   'Y8 Re2 B24 Os2'
_cell_volume   389.27497345
_cell_formula_units_Z   2
loop_
 _symmetry_equiv_pos_site_id
 _symmetry_equiv_pos_as_xyz
  1  'x, y, z'
loop_
 _atom_site_type_symbol
 _atom_site_label
 _atom_site_symmetry_multiplicity
 _atom_site_fract_x
 _atom_site_fract_y
 _atom_site_fract_z
 _atom_site_occupancy
  Y  Y0  1  0.000000  0.320824  0.412481  1
  Y  Y1  1  0.000000  0.679176  0.587519  1
  Y  Y2  1  0.000000  0.824635  0.084704  1
  Y  Y3  1  0.000000  0.175365  0.915296  1
  Y  Y4  1  0.000000  0.943443  0.370652  1
  Y  Y5  1  0.000000  0.056557  0.629348  1
  Y  Y6  1  0.000000  0.442572  0.128835  1
  Y  Y7  1  0.000000  0.557428  0.871165  1
  Re  Re8  1  0.000000  0.138420  0.179491  1
  Re  Re9  1  0.000000  0.861580  0.820509  1
  B  B10  1  0.500000  0.553983  0.432803  1
  B  B11  1  0.500000  0.446017  0.567197  1
  B  B12  1  0.500000  0.053367  0.067137  1
  B  B13  1  0.500000  0.946633  0.932863  1
  B  B14  1  0.500000  0.748392  0.418529  1
  B  B15  1  0.500000  0.251608  0.581471  1
  B  B16  1  0.500000  0.248442  0.081277  1
  B  B17  1  0.500000  0.751558  0.918723  1
  B  B18  1  0.500000  0.790298  0.265896  1
  B  B19  1  0.500000  0.209702  0.734104  1
  B  B20  1  0.500000  0.291243  0.234594  1
  B  B21  1  0.500000  0.708757  0.765406  1
  B  B22  1  0.500000  0.631124  0.186442  1
  B  B23  1  0.500000  0.368876  0.813558  1
  B  B24  1  0.500000  0.131547  0.314435  1
  B  B25  1  0.500000  0.868453  0.685565  1
  B  B26  1  0.500000  0.983199  0.212316  1
  B  B27  1  0.500000  0.016801  0.787684  1
  B  B28  1  0.500000  0.483548  0.288180  1
  B  B29  1  0.500000  0.516452  0.711820  1
  B  B30  1  0.500000  0.603420  0.028908  1
  B  B31  1  0.500000  0.396580  0.971092  1
  B  B32  1  0.500000  0.103753  0.471367  1
  B  B33  1  0.500000  0.896247  0.528633  1
  Os  Os34  1  0.000000  0.637516  0.321977  1
  Os  Os35  1  0.000000  0.362484  0.678023  1
