# generated using pymatgen
data_Li4Yb3DySi8
_symmetry_space_group_name_H-M   'P 1'
_cell_length_a   3.79527800
_cell_length_b   7.81751298
_cell_length_c   10.46418780
_cell_angle_alpha   90.22103514
_cell_angle_beta   90.00000000
_cell_angle_gamma   90.00000000
_symmetry_Int_Tables_number   1
_chemical_formula_structural   Li4Yb3DySi8
_chemical_formula_sum   'Li4 Yb3 Dy1 Si8'
_cell_volume   310.46632257
_cell_formula_units_Z   1
loop_
 _symmetry_equiv_pos_site_id
 _symmetry_equiv_pos_as_xyz
  1  'x, y, z'
loop_
 _atom_site_type_symbol
 _atom_site_label
 _atom_site_symmetry_multiplicity
 _atom_site_fract_x
 _atom_site_fract_y
 _atom_site_fract_z
 _atom_site_occupancy
  Li  Li0  1  0.250000  0.990566  0.389666  1
  Li  Li1  1  0.250000  0.498979  0.108372  1
  Li  Li2  1  0.750000  0.002998  0.608794  1
  Li  Li3  1  0.750000  0.503733  0.889256  1
  Yb  Yb4  1  0.250000  0.137476  0.866309  1
  Yb  Yb5  1  0.250000  0.634572  0.634443  1
  Yb  Yb6  1  0.750000  0.864524  0.136259  1
  Dy  Dy7  1  0.750000  0.369671  0.366363  1
  Si  Si8  1  0.250000  0.233246  0.563220  1
  Si  Si9  1  0.250000  0.735593  0.931679  1
  Si  Si10  1  0.750000  0.758963  0.432538  1
  Si  Si11  1  0.750000  0.271051  0.072917  1
  Si  Si12  1  0.250000  0.656270  0.321893  1
  Si  Si13  1  0.250000  0.166568  0.182527  1
  Si  Si14  1  0.750000  0.337524  0.672823  1
  Si  Si15  1  0.750000  0.838267  0.822942  1
