# generated using pymatgen
data_NaV2(As2O7)2
_symmetry_space_group_name_H-M   'P 1'
_cell_length_a   5.07382493
_cell_length_b   7.45439313
_cell_length_c   8.08161761
_cell_angle_alpha   90.90971324
_cell_angle_beta   86.39180126
_cell_angle_gamma   75.03924054
_symmetry_Int_Tables_number   1
_chemical_formula_structural   NaV2(As2O7)2
_chemical_formula_sum   'Na1 V2 As4 O14'
_cell_volume   294.55508585
_cell_formula_units_Z   1
loop_
 _symmetry_equiv_pos_site_id
 _symmetry_equiv_pos_as_xyz
  1  'x, y, z'
loop_
 _atom_site_type_symbol
 _atom_site_label
 _atom_site_symmetry_multiplicity
 _atom_site_fract_x
 _atom_site_fract_y
 _atom_site_fract_z
 _atom_site_occupancy
  Na  Na0  1  0.000255  0.999834  0.000022  1
  V  V1  1  0.500123  0.500065  0.000020  1
  V  V2  1  0.000006  0.000261  0.500159  1
  As  As3  1  0.976592  0.627797  0.753865  1
  As  As4  1  0.023676  0.372250  0.245983  1
  As  As5  1  0.380687  0.233680  0.693603  1
  As  As6  1  0.619302  0.766259  0.306511  1
  O  O7  1  0.198545  0.455976  0.620965  1
  O  O8  1  0.801434  0.543794  0.379079  1
  O  O9  1  0.151176  0.661954  0.922768  1
  O  O10  1  0.848730  0.337988  0.077268  1
  O  O11  1  0.453417  0.267771  0.896104  1
  O  O12  1  0.546601  0.732194  0.103866  1
  O  O13  1  0.700736  0.540679  0.805258  1
  O  O14  1  0.348785  0.809863  0.447229  1
  O  O15  1  0.650880  0.190154  0.552696  1
  O  O16  1  0.167161  0.090372  0.701822  1
  O  O17  1  0.299639  0.459138  0.194414  1
  O  O18  1  0.142910  0.171467  0.339821  1
  O  O19  1  0.856811  0.828757  0.660254  1
  O  O20  1  0.832537  0.909745  0.298290  1
