# generated using pymatgen
data_Eu3YTa4O16
_symmetry_space_group_name_H-M   'P 1'
_cell_length_a   5.47508966
_cell_length_b   7.71876429
_cell_length_c   7.73947300
_cell_angle_alpha   80.05315229
_cell_angle_beta   89.81789105
_cell_angle_gamma   89.65670615
_symmetry_Int_Tables_number   1
_chemical_formula_structural   Eu3YTa4O16
_chemical_formula_sum   'Eu3 Y1 Ta4 O16'
_cell_volume   322.15426562
_cell_formula_units_Z   1
loop_
 _symmetry_equiv_pos_site_id
 _symmetry_equiv_pos_as_xyz
  1  'x, y, z'
loop_
 _atom_site_type_symbol
 _atom_site_label
 _atom_site_symmetry_multiplicity
 _atom_site_fract_x
 _atom_site_fract_y
 _atom_site_fract_z
 _atom_site_occupancy
  Eu  Eu0  1  0.224903  0.356710  0.894986  1
  Eu  Eu1  1  0.724345  0.642845  0.604497  1
  Eu  Eu2  1  0.777778  0.644423  0.105375  1
  Y  Y3  1  0.283613  0.359125  0.392906  1
  Ta  Ta4  1  0.733998  0.166164  0.688192  1
  Ta  Ta5  1  0.234959  0.836949  0.808172  1
  Ta  Ta6  1  0.267531  0.836262  0.308427  1
  Ta  Ta7  1  0.766401  0.165850  0.190788  1
  O  O8  1  0.499760  0.332331  0.132322  1
  O  O9  1  0.008704  0.665184  0.371317  1
  O  O10  1  0.494138  0.664308  0.871403  1
  O  O11  1  0.997558  0.330588  0.620763  1
  O  O12  1  0.989941  0.380872  0.174917  1
  O  O13  1  0.488331  0.613401  0.331606  1
  O  O14  1  0.010285  0.617616  0.833127  1
  O  O15  1  0.507168  0.382693  0.665905  1
  O  O16  1  0.848846  0.174668  0.941325  1
  O  O17  1  0.353604  0.828886  0.558084  1
  O  O18  1  0.148988  0.831879  0.057808  1
  O  O19  1  0.635389  0.171511  0.442045  1
  O  O20  1  0.415899  0.055221  0.801099  1
  O  O21  1  0.915279  0.944752  0.699296  1
  O  O22  1  0.588532  0.942500  0.202122  1
  O  O23  1  0.084051  0.055260  0.303521  1
