# generated using pymatgen
data_Er7Lu3(Bi2Ir)2
_symmetry_space_group_name_H-M   'P 1'
_cell_length_a   7.86804985
_cell_length_b   8.95989598
_cell_length_c   12.41614658
_cell_angle_alpha   89.95901593
_cell_angle_beta   90.13645558
_cell_angle_gamma   90.06460660
_symmetry_Int_Tables_number   1
_chemical_formula_structural   Er7Lu3(Bi2Ir)2
_chemical_formula_sum   'Er14 Lu6 Bi8 Ir4'
_cell_volume   875.29668477
_cell_formula_units_Z   2
loop_
 _symmetry_equiv_pos_site_id
 _symmetry_equiv_pos_as_xyz
  1  'x, y, z'
loop_
 _atom_site_type_symbol
 _atom_site_label
 _atom_site_symmetry_multiplicity
 _atom_site_fract_x
 _atom_site_fract_y
 _atom_site_fract_z
 _atom_site_occupancy
  Er  Er0  1  0.661383  0.749515  0.707757  1
  Er  Er1  1  0.338617  0.250485  0.292243  1
  Er  Er2  1  0.160604  0.249821  0.792544  1
  Er  Er3  1  0.839396  0.750179  0.207456  1
  Er  Er4  1  0.125720  0.750727  0.810076  1
  Er  Er5  1  0.874280  0.249273  0.189924  1
  Er  Er6  1  0.625826  0.251320  0.690805  1
  Er  Er7  1  0.374174  0.748680  0.309195  1
  Er  Er8  1  0.557297  0.749862  0.998183  1
  Er  Er9  1  0.442703  0.250138  0.001817  1
  Er  Er10  1  0.055490  0.251854  0.501601  1
  Er  Er11  1  0.944510  0.748146  0.498399  1
  Er  Er12  1  0.674536  0.042417  0.433209  1
  Er  Er13  1  0.325464  0.957583  0.566791  1
  Lu  Lu14  1  0.828673  0.457763  0.933348  1
  Lu  Lu15  1  0.171327  0.542237  0.066652  1
  Lu  Lu16  1  0.328829  0.543181  0.566924  1
  Lu  Lu17  1  0.171546  0.957775  0.066594  1
  Lu  Lu18  1  0.671171  0.456819  0.433076  1
  Lu  Lu19  1  0.828454  0.042225  0.933406  1
  Bi  Bi20  1  0.934491  0.008576  0.672281  1
  Bi  Bi21  1  0.065509  0.991424  0.327719  1
  Bi  Bi22  1  0.437024  0.992058  0.827608  1
  Bi  Bi23  1  0.063138  0.507968  0.326910  1
  Bi  Bi24  1  0.562976  0.007942  0.172392  1
  Bi  Bi25  1  0.936862  0.492032  0.673090  1
  Bi  Bi26  1  0.563821  0.491679  0.172305  1
  Bi  Bi27  1  0.436179  0.508321  0.827695  1
  Ir  Ir28  1  0.929433  0.749983  0.992469  1
  Ir  Ir29  1  0.070567  0.250017  0.007531  1
  Ir  Ir30  1  0.427906  0.251492  0.508156  1
  Ir  Ir31  1  0.572094  0.748508  0.491844  1
