# generated using pymatgen
data_Yb3InAg2Ge3
_symmetry_space_group_name_H-M   'P 1'
_cell_length_a   7.21346600
_cell_length_b   7.19499656
_cell_length_c   4.40440700
_cell_angle_alpha   90.00000000
_cell_angle_beta   90.00000000
_cell_angle_gamma   120.08495154
_symmetry_Int_Tables_number   1
_chemical_formula_structural   Yb3InAg2Ge3
_chemical_formula_sum   'Yb3 In1 Ag2 Ge3'
_cell_volume   197.79725057
_cell_formula_units_Z   1
loop_
 _symmetry_equiv_pos_site_id
 _symmetry_equiv_pos_as_xyz
  1  'x, y, z'
loop_
 _atom_site_type_symbol
 _atom_site_label
 _atom_site_symmetry_multiplicity
 _atom_site_fract_x
 _atom_site_fract_y
 _atom_site_fract_z
 _atom_site_occupancy
  Yb  Yb0  1  0.997502  0.569862  0.000000  1
  Yb  Yb1  1  0.427640  0.430138  0.000000  1
  Yb  Yb2  1  0.585569  0.000000  0.000000  1
  In  In3  1  0.244754  0.000000  0.500000  1
  Ag  Ag4  1  0.746554  0.747132  0.500000  1
  Ag  Ag5  1  0.999422  0.252868  0.500000  1
  Ge  Ge6  1  0.995257  0.000000  0.000000  1
  Ge  Ge7  1  0.669455  0.335608  0.500000  1
  Ge  Ge8  1  0.333846  0.664392  0.500000  1
