# generated using pymatgen
data_Y5TmAl24(Os3Ru)2
_symmetry_space_group_name_H-M   'P 1'
_cell_length_a   8.81051600
_cell_length_b   8.81911954
_cell_length_c   9.54232100
_cell_angle_alpha   90.00000000
_cell_angle_beta   90.00000000
_cell_angle_gamma   119.96774162
_symmetry_Int_Tables_number   1
_chemical_formula_structural   Y5TmAl24(Os3Ru)2
_chemical_formula_sum   'Y5 Tm1 Al24 Os6 Ru2'
_cell_volume   642.32127350
_cell_formula_units_Z   1
loop_
 _symmetry_equiv_pos_site_id
 _symmetry_equiv_pos_as_xyz
  1  'x, y, z'
loop_
 _atom_site_type_symbol
 _atom_site_label
 _atom_site_symmetry_multiplicity
 _atom_site_fract_x
 _atom_site_fract_y
 _atom_site_fract_z
 _atom_site_occupancy
  Y  Y0  1  0.806684  0.193063  0.750000  1
  Y  Y1  1  0.192828  0.807001  0.250000  1
  Y  Y2  1  0.386379  0.193063  0.750000  1
  Y  Y3  1  0.614173  0.807001  0.250000  1
  Y  Y4  1  0.806480  0.612960  0.750000  1
  Tm  Tm5  1  0.194566  0.389132  0.250000  1
  Al  Al6  1  0.666496  0.332991  0.985749  1
  Al  Al7  1  0.333263  0.666528  0.015225  1
  Al  Al8  1  0.333263  0.666528  0.484775  1
  Al  Al9  1  0.666496  0.332991  0.514251  1
  Al  Al10  1  0.838508  0.162318  0.423031  1
  Al  Al11  1  0.162179  0.837761  0.576224  1
  Al  Al12  1  0.323808  0.162318  0.423031  1
  Al  Al13  1  0.162179  0.837761  0.923776  1
  Al  Al14  1  0.675583  0.837761  0.576224  1
  Al  Al15  1  0.838508  0.162318  0.076969  1
  Al  Al16  1  0.837871  0.675743  0.423221  1
  Al  Al17  1  0.675583  0.837761  0.923776  1
  Al  Al18  1  0.162011  0.324021  0.575498  1
  Al  Al19  1  0.323808  0.162318  0.076969  1
  Al  Al20  1  0.162011  0.324021  0.924502  1
  Al  Al21  1  0.837871  0.675743  0.076779  1
  Al  Al22  1  0.439106  0.560276  0.750000  1
  Al  Al23  1  0.559639  0.439342  0.250000  1
  Al  Al24  1  0.121168  0.560276  0.750000  1
  Al  Al25  1  0.879705  0.439342  0.250000  1
  Al  Al26  1  0.439397  0.878795  0.750000  1
  Al  Al27  1  0.560463  0.120925  0.250000  1
  Al  Al28  1  0.999755  0.999511  0.750000  1
  Al  Al29  1  0.001563  0.003127  0.250000  1
  Os  Os30  1  0.499307  0.499642  0.000559  1
  Os  Os31  1  0.000336  0.499642  0.000559  1
  Os  Os32  1  0.499307  0.499642  0.499441  1
  Os  Os33  1  0.499858  0.999716  0.000218  1
  Os  Os34  1  0.000336  0.499642  0.499441  1
  Os  Os35  1  0.499858  0.999716  0.499782  1
  Ru  Ru36  1  0.999827  0.999653  0.000022  1
  Ru  Ru37  1  0.999827  0.999653  0.499978  1
