# generated using pymatgen
data_YbHo5(SiPd)6
_symmetry_space_group_name_H-M   'P 1'
_cell_length_a   4.32526600
_cell_length_b   7.43478680
_cell_length_c   20.99644193
_cell_angle_alpha   90.08220020
_cell_angle_beta   90.00000000
_cell_angle_gamma   90.00000000
_symmetry_Int_Tables_number   1
_chemical_formula_structural   YbHo5(SiPd)6
_chemical_formula_sum   'Yb2 Ho10 Si12 Pd12'
_cell_volume   675.19092870
_cell_formula_units_Z   2
loop_
 _symmetry_equiv_pos_site_id
 _symmetry_equiv_pos_as_xyz
  1  'x, y, z'
loop_
 _atom_site_type_symbol
 _atom_site_label
 _atom_site_symmetry_multiplicity
 _atom_site_fract_x
 _atom_site_fract_y
 _atom_site_fract_z
 _atom_site_occupancy
  Yb  Yb0  1  0.250000  0.704529  0.332297  1
  Yb  Yb1  1  0.750000  0.295471  0.667703  1
  Ho  Ho2  1  0.750000  0.203613  0.167477  1
  Ho  Ho3  1  0.250000  0.796387  0.832523  1
  Ho  Ho4  1  0.250000  0.795889  0.166546  1
  Ho  Ho5  1  0.750000  0.204111  0.833454  1
  Ho  Ho6  1  0.750000  0.295957  0.333856  1
  Ho  Ho7  1  0.250000  0.704043  0.666144  1
  Ho  Ho8  1  0.250000  0.709827  0.000783  1
  Ho  Ho9  1  0.750000  0.290173  0.999217  1
  Ho  Ho10  1  0.750000  0.207430  0.499439  1
  Ho  Ho11  1  0.250000  0.792570  0.500561  1
  Si  Si12  1  0.250000  0.091361  0.071088  1
  Si  Si13  1  0.750000  0.908639  0.928912  1
  Si  Si14  1  0.750000  0.588198  0.433172  1
  Si  Si15  1  0.250000  0.411802  0.566828  1
  Si  Si16  1  0.250000  0.088288  0.271789  1
  Si  Si17  1  0.750000  0.911712  0.728211  1
  Si  Si18  1  0.750000  0.584801  0.226133  1
  Si  Si19  1  0.250000  0.415199  0.773867  1
  Si  Si20  1  0.250000  0.089575  0.394615  1
  Si  Si21  1  0.750000  0.910425  0.605385  1
  Si  Si22  1  0.750000  0.589140  0.104236  1
  Si  Si23  1  0.250000  0.410860  0.895764  1
  Pd  Pd24  1  0.250000  0.416937  0.236285  1
  Pd  Pd25  1  0.750000  0.583063  0.763715  1
  Pd  Pd26  1  0.750000  0.916211  0.262523  1
  Pd  Pd27  1  0.250000  0.083789  0.737477  1
  Pd  Pd28  1  0.250000  0.416234  0.436919  1
  Pd  Pd29  1  0.750000  0.583766  0.563081  1
  Pd  Pd30  1  0.750000  0.917191  0.062010  1
  Pd  Pd31  1  0.250000  0.082809  0.937990  1
  Pd  Pd32  1  0.250000  0.420732  0.093805  1
  Pd  Pd33  1  0.750000  0.579268  0.906195  1
  Pd  Pd34  1  0.750000  0.917927  0.406840  1
  Pd  Pd35  1  0.250000  0.082073  0.593160  1
