# generated using pymatgen
data_CsRbAs2Pd
_symmetry_space_group_name_H-M   'P 1'
_cell_length_a   8.12702703
_cell_length_b   8.12702628
_cell_length_c   6.42123300
_cell_angle_alpha   90.00000000
_cell_angle_beta   90.00000000
_cell_angle_gamma   127.53395494
_symmetry_Int_Tables_number   1
_chemical_formula_structural   CsRbAs2Pd
_chemical_formula_sum   'Cs2 Rb2 As4 Pd2'
_cell_volume   336.31856416
_cell_formula_units_Z   2
loop_
 _symmetry_equiv_pos_site_id
 _symmetry_equiv_pos_as_xyz
  1  'x, y, z'
loop_
 _atom_site_type_symbol
 _atom_site_label
 _atom_site_symmetry_multiplicity
 _atom_site_fract_x
 _atom_site_fract_y
 _atom_site_fract_z
 _atom_site_occupancy
  Cs  Cs0  1  0.409511  0.590489  0.250000  1
  Cs  Cs1  1  0.590489  0.409511  0.750000  1
  Rb  Rb2  1  0.793109  0.206891  0.250000  1
  Rb  Rb3  1  0.206891  0.793109  0.750000  1
  As  As4  1  0.063426  0.275466  0.750000  1
  As  As5  1  0.936574  0.724534  0.250000  1
  As  As6  1  0.275466  0.063426  0.250000  1
  As  As7  1  0.724534  0.936574  0.750000  1
  Pd  Pd8  1  0.000000  0.000000  0.000000  1
  Pd  Pd9  1  0.000000  0.000000  0.500000  1
