# generated using pymatgen
data_YHo15CdHg3Pt4
_symmetry_space_group_name_H-M   'P 1'
_cell_length_a   9.62330720
_cell_length_b   9.63712892
_cell_length_c   9.63119200
_cell_angle_alpha   60.02037658
_cell_angle_beta   59.97289260
_cell_angle_gamma   60.03004882
_symmetry_Int_Tables_number   1
_chemical_formula_structural   YHo15CdHg3Pt4
_chemical_formula_sum   'Y1 Ho15 Cd1 Hg3 Pt4'
_cell_volume   631.70357888
_cell_formula_units_Z   1
loop_
 _symmetry_equiv_pos_site_id
 _symmetry_equiv_pos_as_xyz
  1  'x, y, z'
loop_
 _atom_site_type_symbol
 _atom_site_label
 _atom_site_symmetry_multiplicity
 _atom_site_fract_x
 _atom_site_fract_y
 _atom_site_fract_z
 _atom_site_occupancy
  Y  Y0  1  0.935726  0.936840  0.563717  1
  Ho  Ho1  1  0.354279  0.353705  0.351587  1
  Ho  Ho2  1  0.354279  0.353705  0.940429  1
  Ho  Ho3  1  0.357334  0.934937  0.353864  1
  Ho  Ho4  1  0.932285  0.357569  0.355074  1
  Ho  Ho5  1  0.810636  0.189792  0.189894  1
  Ho  Ho6  1  0.188246  0.811540  0.810567  1
  Ho  Ho7  1  0.188246  0.811540  0.189648  1
  Ho  Ho8  1  0.810636  0.189792  0.809678  1
  Ho  Ho9  1  0.189263  0.190371  0.810184  1
  Ho  Ho10  1  0.810766  0.811103  0.189065  1
  Ho  Ho11  1  0.934952  0.563928  0.564722  1
  Ho  Ho12  1  0.562953  0.936504  0.936051  1
  Ho  Ho13  1  0.562953  0.936504  0.564493  1
  Ho  Ho14  1  0.934952  0.563928  0.936397  1
  Ho  Ho15  1  0.564672  0.565131  0.935098  1
  Cd  Cd16  1  0.255894  0.579719  0.582193  1
  Hg  Hg17  1  0.584597  0.586613  0.588055  1
  Hg  Hg18  1  0.584597  0.586613  0.240734  1
  Hg  Hg19  1  0.583779  0.240452  0.587884  1
  Pt  Pt20  1  0.143497  0.143901  0.145383  1
  Pt  Pt21  1  0.143497  0.143901  0.567221  1
  Pt  Pt22  1  0.142434  0.569161  0.144203  1
  Pt  Pt23  1  0.569529  0.142752  0.143859  1
