# generated using pymatgen
data_MnFe(Sb6Pd)2
_symmetry_space_group_name_H-M   'P 1'
_cell_length_a   8.08922985
_cell_length_b   8.08758697
_cell_length_c   9.35188221
_cell_angle_alpha   55.05947116
_cell_angle_beta   54.66333542
_cell_angle_gamma   70.55415118
_symmetry_Int_Tables_number   1
_chemical_formula_structural   MnFe(Sb6Pd)2
_chemical_formula_sum   'Mn1 Fe1 Sb12 Pd2'
_cell_volume   409.13827787
_cell_formula_units_Z   1
loop_
 _symmetry_equiv_pos_site_id
 _symmetry_equiv_pos_as_xyz
  1  'x, y, z'
loop_
 _atom_site_type_symbol
 _atom_site_label
 _atom_site_symmetry_multiplicity
 _atom_site_fract_x
 _atom_site_fract_y
 _atom_site_fract_z
 _atom_site_occupancy
  Mn  Mn0  1  0.500000  0.000000  0.500000  1
  Fe  Fe1  1  0.000000  0.500000  0.500000  1
  Sb  Sb2  1  0.674285  0.667004  0.489572  1
  Sb  Sb3  1  0.325715  0.332996  0.510428  1
  Sb  Sb4  1  0.650780  0.651737  0.196609  1
  Sb  Sb5  1  0.349220  0.348263  0.803391  1
  Sb  Sb6  1  0.163412  0.851124  0.651636  1
  Sb  Sb7  1  0.836588  0.148876  0.348364  1
  Sb  Sb8  1  0.853742  0.168169  0.651600  1
  Sb  Sb9  1  0.146258  0.831831  0.348400  1
  Sb  Sb10  1  0.819539  0.493346  0.833398  1
  Sb  Sb11  1  0.180461  0.506654  0.166602  1
  Sb  Sb12  1  0.503885  0.185201  0.163122  1
  Sb  Sb13  1  0.496115  0.814799  0.836878  1
  Pd  Pd14  1  0.000000  0.500000  0.000000  1
  Pd  Pd15  1  0.500000  0.000000  0.000000  1
