# generated using pymatgen
data_MnBe6Cd7Si6(SO12)2
_symmetry_space_group_name_H-M   'P 1'
_cell_length_a   8.56042000
_cell_length_b   8.56042000
_cell_length_c   8.56042000
_cell_angle_alpha   90.00000000
_cell_angle_beta   90.00000000
_cell_angle_gamma   90.00000000
_symmetry_Int_Tables_number   1
_chemical_formula_structural   MnBe6Cd7Si6(SO12)2
_chemical_formula_sum   'Mn1 Be6 Cd7 Si6 S2 O24'
_cell_volume   627.31434527
_cell_formula_units_Z   1
loop_
 _symmetry_equiv_pos_site_id
 _symmetry_equiv_pos_as_xyz
  1  'x, y, z'
loop_
 _atom_site_type_symbol
 _atom_site_label
 _atom_site_symmetry_multiplicity
 _atom_site_fract_x
 _atom_site_fract_y
 _atom_site_fract_z
 _atom_site_occupancy
  Mn  Mn0  1  0.318791  0.681209  0.318791  1
  Be  Be1  1  0.250692  0.500159  0.001084  1
  Be  Be2  1  0.500268  0.999059  0.750294  1
  Be  Be3  1  0.499841  0.998916  0.250692  1
  Be  Be4  1  0.000941  0.249706  0.500268  1
  Be  Be5  1  0.001084  0.749308  0.499841  1
  Be  Be6  1  0.750294  0.499732  0.000941  1
  Cd  Cd7  1  0.669036  0.331321  0.332226  1
  Cd  Cd8  1  0.829113  0.830021  0.170222  1
  Cd  Cd9  1  0.169979  0.829778  0.829113  1
  Cd  Cd10  1  0.828986  0.171014  0.828986  1
  Cd  Cd11  1  0.668679  0.667774  0.669036  1
  Cd  Cd12  1  0.170222  0.170887  0.169979  1
  Cd  Cd13  1  0.332226  0.330964  0.668679  1
  Si  Si14  1  0.750262  0.999143  0.500316  1
  Si  Si15  1  0.499514  0.749220  0.001554  1
  Si  Si16  1  0.500316  0.249738  0.000857  1
  Si  Si17  1  0.250780  0.998446  0.499514  1
  Si  Si18  1  0.001554  0.500486  0.250780  1
  Si  Si19  1  0.000857  0.499684  0.750262  1
  S  S20  1  0.999789  0.000211  0.999789  1
  S  S21  1  0.492664  0.507336  0.492664  1
  O  O22  1  0.856545  0.429608  0.856689  1
  O  O23  1  0.857452  0.571671  0.144730  1
  O  O24  1  0.428329  0.855270  0.857452  1
  O  O25  1  0.571124  0.855973  0.144592  1
  O  O26  1  0.857188  0.855482  0.428695  1
  O  O27  1  0.144730  0.142548  0.428329  1
  O  O28  1  0.357153  0.357183  0.929552  1
  O  O29  1  0.144592  0.428876  0.144027  1
  O  O30  1  0.144518  0.571305  0.857188  1
  O  O31  1  0.570392  0.143311  0.856545  1
  O  O32  1  0.428695  0.142812  0.144518  1
  O  O33  1  0.856689  0.143455  0.570392  1
  O  O34  1  0.144027  0.855408  0.571124  1
  O  O35  1  0.929904  0.357404  0.357504  1
  O  O36  1  0.355342  0.922416  0.355874  1
  O  O37  1  0.642817  0.070448  0.357153  1
  O  O38  1  0.929552  0.642847  0.642817  1
  O  O39  1  0.644842  0.928160  0.644821  1
  O  O40  1  0.077584  0.644126  0.355342  1
  O  O41  1  0.071840  0.355179  0.644842  1
  O  O42  1  0.357504  0.070096  0.642596  1
  O  O43  1  0.355874  0.644658  0.077584  1
  O  O44  1  0.644821  0.355158  0.071840  1
  O  O45  1  0.642596  0.642496  0.929904  1
