# generated using pymatgen
data_Tb2Y3Er5(In2Pd)4
_symmetry_space_group_name_H-M   'P 1'
_cell_length_a   3.61996800
_cell_length_b   8.15206824
_cell_length_c   18.21281489
_cell_angle_alpha   89.93098558
_cell_angle_beta   90.00000000
_cell_angle_gamma   90.00000000
_symmetry_Int_Tables_number   1
_chemical_formula_structural   Tb2Y3Er5(In2Pd)4
_chemical_formula_sum   'Tb2 Y3 Er5 In8 Pd4'
_cell_volume   537.46389680
_cell_formula_units_Z   1
loop_
 _symmetry_equiv_pos_site_id
 _symmetry_equiv_pos_as_xyz
  1  'x, y, z'
loop_
 _atom_site_type_symbol
 _atom_site_label
 _atom_site_symmetry_multiplicity
 _atom_site_fract_x
 _atom_site_fract_y
 _atom_site_fract_z
 _atom_site_occupancy
  Tb  Tb0  1  0.000000  0.261278  0.717874  1
  Tb  Tb1  1  0.000000  0.761290  0.782087  1
  Y  Y2  1  0.000000  0.500215  0.499586  1
  Y  Y3  1  0.000000  0.999606  0.999933  1
  Y  Y4  1  0.000000  0.739200  0.281890  1
  Er  Er5  1  0.000000  0.239306  0.218505  1
  Er  Er6  1  0.000000  0.617766  0.084564  1
  Er  Er7  1  0.000000  0.381270  0.916291  1
  Er  Er8  1  0.000000  0.881494  0.583793  1
  Er  Er9  1  0.000000  0.118878  0.415559  1
  In  In10  1  0.500000  0.703913  0.934287  1
  In  In11  1  0.500000  0.294126  0.067051  1
  In  In12  1  0.500000  0.796381  0.433818  1
  In  In13  1  0.500000  0.204356  0.565770  1
  In  In14  1  0.500000  0.582106  0.650681  1
  In  In15  1  0.500000  0.417495  0.348829  1
  In  In16  1  0.500000  0.919657  0.150710  1
  In  In17  1  0.500000  0.082130  0.849321  1
  Pd  Pd18  1  0.500000  0.520701  0.195232  1
  Pd  Pd19  1  0.500000  0.475728  0.805312  1
  Pd  Pd20  1  0.500000  0.975806  0.694731  1
  Pd  Pd21  1  0.500000  0.027296  0.304173  1
