# generated using pymatgen
data_TmU2As3
_symmetry_space_group_name_H-M   'P 1'
_cell_length_a   3.99620700
_cell_length_b   3.99620831
_cell_length_c   10.18634000
_cell_angle_alpha   90.00000000
_cell_angle_beta   90.00000000
_cell_angle_gamma   119.99999747
_symmetry_Int_Tables_number   1
_chemical_formula_structural   TmU2As3
_chemical_formula_sum   'Tm1 U2 As3'
_cell_volume   140.87856041
_cell_formula_units_Z   1
loop_
 _symmetry_equiv_pos_site_id
 _symmetry_equiv_pos_as_xyz
  1  'x, y, z'
loop_
 _atom_site_type_symbol
 _atom_site_label
 _atom_site_symmetry_multiplicity
 _atom_site_fract_x
 _atom_site_fract_y
 _atom_site_fract_z
 _atom_site_occupancy
  Tm  Tm0  1  0.000000  0.000000  0.000000  1
  U  U1  1  0.333333  0.666667  0.669687  1
  U  U2  1  0.666667  0.333333  0.330313  1
  As  As3  1  0.333333  0.666667  0.162995  1
  As  As4  1  0.666667  0.333333  0.837005  1
  As  As5  1  0.000000  0.000000  0.500000  1
