# generated using pymatgen
data_Lu4GaCo4Si3
_symmetry_space_group_name_H-M   'P 1'
_cell_length_a   4.17213800
_cell_length_b   6.75350523
_cell_length_c   6.94012033
_cell_angle_alpha   89.45031907
_cell_angle_beta   90.00000000
_cell_angle_gamma   90.00000000
_symmetry_Int_Tables_number   1
_chemical_formula_structural   Lu4GaCo4Si3
_chemical_formula_sum   'Lu4 Ga1 Co4 Si3'
_cell_volume   195.53968866
_cell_formula_units_Z   1
loop_
 _symmetry_equiv_pos_site_id
 _symmetry_equiv_pos_as_xyz
  1  'x, y, z'
loop_
 _atom_site_type_symbol
 _atom_site_label
 _atom_site_symmetry_multiplicity
 _atom_site_fract_x
 _atom_site_fract_y
 _atom_site_fract_z
 _atom_site_occupancy
  Lu  Lu0  1  0.750000  0.517596  0.805904  1
  Lu  Lu1  1  0.750000  0.013659  0.691246  1
  Lu  Lu2  1  0.250000  0.490378  0.195162  1
  Lu  Lu3  1  0.250000  0.983949  0.306845  1
  Ga  Ga4  1  0.750000  0.199649  0.105655  1
  Co  Co5  1  0.750000  0.355542  0.447054  1
  Co  Co6  1  0.750000  0.834489  0.063732  1
  Co  Co7  1  0.250000  0.651303  0.562841  1
  Co  Co8  1  0.250000  0.148331  0.925500  1
  Si  Si9  1  0.750000  0.700284  0.393764  1
  Si  Si10  1  0.250000  0.802156  0.894888  1
  Si  Si11  1  0.250000  0.302665  0.607409  1
