# generated using pymatgen
data_Sc4Al4Co3Ni
_symmetry_space_group_name_H-M   'P 1'
_cell_length_a   4.05434100
_cell_length_b   6.48481839
_cell_length_c   7.34127100
_cell_angle_alpha   90.14715327
_cell_angle_beta   90.00000000
_cell_angle_gamma   90.00000000
_symmetry_Int_Tables_number   1
_chemical_formula_structural   Sc4Al4Co3Ni
_chemical_formula_sum   'Sc4 Al4 Co3 Ni1'
_cell_volume   193.01360171
_cell_formula_units_Z   1
loop_
 _symmetry_equiv_pos_site_id
 _symmetry_equiv_pos_as_xyz
  1  'x, y, z'
loop_
 _atom_site_type_symbol
 _atom_site_label
 _atom_site_symmetry_multiplicity
 _atom_site_fract_x
 _atom_site_fract_y
 _atom_site_fract_z
 _atom_site_occupancy
  Sc  Sc0  1  0.250000  0.535203  0.675779  1
  Sc  Sc1  1  0.250000  0.026109  0.827867  1
  Sc  Sc2  1  0.750000  0.972555  0.175873  1
  Sc  Sc3  1  0.750000  0.472890  0.320749  1
  Al  Al4  1  0.750000  0.357873  0.938791  1
  Al  Al5  1  0.250000  0.141800  0.439035  1
  Al  Al6  1  0.250000  0.643245  0.059653  1
  Al  Al7  1  0.750000  0.854932  0.560438  1
  Co  Co8  1  0.250000  0.760682  0.381155  1
  Co  Co9  1  0.750000  0.738327  0.879582  1
  Co  Co10  1  0.250000  0.264367  0.120513  1
  Ni  Ni11  1  0.750000  0.232017  0.620566  1
