# generated using pymatgen
data_Tb16YLu3Sn16
_symmetry_space_group_name_H-M   'P 1'
_cell_length_a   8.02686633
_cell_length_b   8.18414533
_cell_length_c   15.49992300
_cell_angle_alpha   90.00000000
_cell_angle_beta   90.00000000
_cell_angle_gamma   90.03274237
_symmetry_Int_Tables_number   1
_chemical_formula_structural   Tb16YLu3Sn16
_chemical_formula_sum   'Tb16 Y1 Lu3 Sn16'
_cell_volume   1018.23690472
_cell_formula_units_Z   1
loop_
 _symmetry_equiv_pos_site_id
 _symmetry_equiv_pos_as_xyz
  1  'x, y, z'
loop_
 _atom_site_type_symbol
 _atom_site_label
 _atom_site_symmetry_multiplicity
 _atom_site_fract_x
 _atom_site_fract_y
 _atom_site_fract_z
 _atom_site_occupancy
  Tb  Tb0  1  0.367695  0.836715  0.878262  1
  Tb  Tb1  1  0.866932  0.663896  0.621715  1
  Tb  Tb2  1  0.632579  0.163611  0.378179  1
  Tb  Tb3  1  0.132564  0.336392  0.121899  1
  Tb  Tb4  1  0.632579  0.163611  0.121821  1
  Tb  Tb5  1  0.132564  0.336392  0.378101  1
  Tb  Tb6  1  0.367695  0.836715  0.621738  1
  Tb  Tb7  1  0.866932  0.663896  0.878285  1
  Tb  Tb8  1  0.520324  0.319887  0.902561  1
  Tb  Tb9  1  0.019936  0.179792  0.597458  1
  Tb  Tb10  1  0.479878  0.679940  0.402438  1
  Tb  Tb11  1  0.979927  0.820022  0.097517  1
  Tb  Tb12  1  0.479878  0.679940  0.097562  1
  Tb  Tb13  1  0.979927  0.820022  0.402483  1
  Tb  Tb14  1  0.520324  0.319887  0.597439  1
  Tb  Tb15  1  0.019936  0.179792  0.902542  1
  Y  Y16  1  0.198070  0.502302  0.750000  1
  Lu  Lu17  1  0.698522  0.997481  0.750000  1
  Lu  Lu18  1  0.801568  0.497593  0.250000  1
  Lu  Lu19  1  0.301572  0.002379  0.250000  1
  Sn  Sn20  1  0.292588  0.034719  0.042858  1
  Sn  Sn21  1  0.792600  0.465322  0.457145  1
  Sn  Sn22  1  0.707409  0.965270  0.542810  1
  Sn  Sn23  1  0.207384  0.534760  0.957578  1
  Sn  Sn24  1  0.707409  0.965270  0.957190  1
  Sn  Sn25  1  0.207384  0.534760  0.542422  1
  Sn  Sn26  1  0.292588  0.034719  0.457142  1
  Sn  Sn27  1  0.792600  0.465322  0.042855  1
  Sn  Sn28  1  0.564931  0.618763  0.750000  1
  Sn  Sn29  1  0.063709  0.882010  0.750000  1
  Sn  Sn30  1  0.436212  0.381554  0.250000  1
  Sn  Sn31  1  0.936114  0.118370  0.250000  1
  Sn  Sn32  1  0.328804  0.146751  0.750000  1
  Sn  Sn33  1  0.828181  0.351926  0.750000  1
  Sn  Sn34  1  0.671409  0.852189  0.250000  1
  Sn  Sn35  1  0.171274  0.648027  0.250000  1
