# generated using pymatgen
data_ErSc4GaBi2
_symmetry_space_group_name_H-M   'P 1'
_cell_length_a   7.69193700
_cell_length_b   8.92290900
_cell_length_c   11.37289200
_cell_angle_alpha   90.00000000
_cell_angle_beta   90.00000000
_cell_angle_gamma   90.00000000
_symmetry_Int_Tables_number   1
_chemical_formula_structural   ErSc4GaBi2
_chemical_formula_sum   'Er4 Sc16 Ga4 Bi8'
_cell_volume   780.57223151
_cell_formula_units_Z   4
loop_
 _symmetry_equiv_pos_site_id
 _symmetry_equiv_pos_as_xyz
  1  'x, y, z'
loop_
 _atom_site_type_symbol
 _atom_site_label
 _atom_site_symmetry_multiplicity
 _atom_site_fract_x
 _atom_site_fract_y
 _atom_site_fract_z
 _atom_site_occupancy
  Er  Er0  1  0.321298  0.250000  0.213240  1
  Er  Er1  1  0.821298  0.250000  0.286760  1
  Er  Er2  1  0.678702  0.750000  0.786760  1
  Er  Er3  1  0.178702  0.750000  0.713240  1
  Sc  Sc4  1  0.344087  0.750000  0.206556  1
  Sc  Sc5  1  0.844087  0.750000  0.293444  1
  Sc  Sc6  1  0.655913  0.250000  0.793444  1
  Sc  Sc7  1  0.155913  0.250000  0.706556  1
  Sc  Sc8  1  0.681848  0.558247  0.057667  1
  Sc  Sc9  1  0.181848  0.941753  0.442333  1
  Sc  Sc10  1  0.318152  0.058247  0.942333  1
  Sc  Sc11  1  0.818152  0.441753  0.557667  1
  Sc  Sc12  1  0.318152  0.441753  0.942333  1
  Sc  Sc13  1  0.818152  0.058247  0.557667  1
  Sc  Sc14  1  0.681848  0.941753  0.057667  1
  Sc  Sc15  1  0.181848  0.558247  0.442333  1
  Sc  Sc16  1  0.468400  0.250000  0.489155  1
  Sc  Sc17  1  0.968400  0.250000  0.010845  1
  Sc  Sc18  1  0.531600  0.750000  0.510845  1
  Sc  Sc19  1  0.031600  0.750000  0.989155  1
  Ga  Ga20  1  0.403876  0.750000  0.965202  1
  Ga  Ga21  1  0.903876  0.750000  0.534798  1
  Ga  Ga22  1  0.596124  0.250000  0.034798  1
  Ga  Ga23  1  0.096124  0.250000  0.465202  1
  Bi  Bi24  1  0.556188  0.991676  0.325200  1
  Bi  Bi25  1  0.056188  0.508324  0.174800  1
  Bi  Bi26  1  0.443812  0.491676  0.674800  1
  Bi  Bi27  1  0.943812  0.008324  0.825200  1
  Bi  Bi28  1  0.443812  0.008324  0.674800  1
  Bi  Bi29  1  0.943812  0.491676  0.825200  1
  Bi  Bi30  1  0.556188  0.508324  0.325200  1
  Bi  Bi31  1  0.056188  0.991676  0.174800  1
