# generated using pymatgen
data_Ho3UGe2Ru3
_symmetry_space_group_name_H-M   'P 1'
_cell_length_a   7.07298600
_cell_length_b   7.07298775
_cell_length_c   4.08308200
_cell_angle_alpha   90.00000000
_cell_angle_beta   90.00000000
_cell_angle_gamma   120.00000117
_symmetry_Int_Tables_number   1
_chemical_formula_structural   Ho3UGe2Ru3
_chemical_formula_sum   'Ho3 U1 Ge2 Ru3'
_cell_volume   176.89861506
_cell_formula_units_Z   1
loop_
 _symmetry_equiv_pos_site_id
 _symmetry_equiv_pos_as_xyz
  1  'x, y, z'
loop_
 _atom_site_type_symbol
 _atom_site_label
 _atom_site_symmetry_multiplicity
 _atom_site_fract_x
 _atom_site_fract_y
 _atom_site_fract_z
 _atom_site_occupancy
  Ho  Ho0  1  0.457672  0.457672  0.000000  1
  Ho  Ho1  1  0.542328  0.000000  0.000000  1
  Ho  Ho2  1  0.000000  0.542328  0.000000  1
  U  U3  1  0.000000  0.000000  0.000000  1
  Ge  Ge4  1  0.666667  0.333333  0.500000  1
  Ge  Ge5  1  0.333333  0.666667  0.500000  1
  Ru  Ru6  1  0.000000  0.233116  0.500000  1
  Ru  Ru7  1  0.766884  0.766884  0.500000  1
  Ru  Ru8  1  0.233116  0.000000  0.500000  1
