# generated using pymatgen
data_Li3ErLu2Si3
_symmetry_space_group_name_H-M   'P 1'
_cell_length_a   6.87923269
_cell_length_b   6.87923050
_cell_length_c   4.20000400
_cell_angle_alpha   90.00000000
_cell_angle_beta   90.00000000
_cell_angle_gamma   120.42992860
_symmetry_Int_Tables_number   1
_chemical_formula_structural   Li3ErLu2Si3
_chemical_formula_sum   'Li3 Er1 Lu2 Si3'
_cell_volume   171.38088330
_cell_formula_units_Z   1
loop_
 _symmetry_equiv_pos_site_id
 _symmetry_equiv_pos_as_xyz
  1  'x, y, z'
loop_
 _atom_site_type_symbol
 _atom_site_label
 _atom_site_symmetry_multiplicity
 _atom_site_fract_x
 _atom_site_fract_y
 _atom_site_fract_z
 _atom_site_occupancy
  Li  Li0  1  0.231611  0.999501  0.500000  1
  Li  Li1  1  0.999501  0.231611  0.500000  1
  Li  Li2  1  0.767928  0.767928  0.500000  1
  Er  Er3  1  0.431010  0.431010  0.000000  1
  Lu  Lu4  1  0.571438  0.000732  0.000000  1
  Lu  Lu5  1  0.000732  0.571438  0.000000  1
  Si  Si6  1  0.333181  0.668840  0.500000  1
  Si  Si7  1  0.668840  0.333181  0.500000  1
  Si  Si8  1  0.995759  0.995759  0.000000  1
