# generated using pymatgen
data_Nd2Ga4SiPt3
_symmetry_space_group_name_H-M   'P 1'
_cell_length_a   8.43292114
_cell_length_b   8.51339530
_cell_length_c   8.51337600
_cell_angle_alpha   138.32694848
_cell_angle_beta   107.53518685
_cell_angle_gamma   87.37429587
_symmetry_Int_Tables_number   1
_chemical_formula_structural   Nd2Ga4SiPt3
_chemical_formula_sum   'Nd4 Ga8 Si2 Pt6'
_cell_volume   371.68169202
_cell_formula_units_Z   2
loop_
 _symmetry_equiv_pos_site_id
 _symmetry_equiv_pos_as_xyz
  1  'x, y, z'
loop_
 _atom_site_type_symbol
 _atom_site_label
 _atom_site_symmetry_multiplicity
 _atom_site_fract_x
 _atom_site_fract_y
 _atom_site_fract_z
 _atom_site_occupancy
  Nd  Nd0  1  0.865232  0.629790  0.235473  1
  Nd  Nd1  1  0.134768  0.370210  0.764527  1
  Nd  Nd2  1  0.393746  0.130212  0.263528  1
  Nd  Nd3  1  0.606254  0.869788  0.736472  1
  Ga  Ga4  1  0.499999  0.747442  0.247444  1
  Ga  Ga5  1  0.500001  0.252558  0.752556  1
  Ga  Ga6  1  0.232479  0.973484  0.749082  1
  Ga  Ga7  1  0.767519  0.516604  0.741008  1
  Ga  Ga8  1  0.767521  0.026516  0.250918  1
  Ga  Ga9  1  0.232481  0.483396  0.258992  1
  Ga  Ga10  1  0.039215  0.892207  0.147014  1
  Ga  Ga11  1  0.960785  0.107793  0.852986  1
  Si  Si12  1  0.743744  0.392423  0.351323  1
  Si  Si13  1  0.256256  0.607577  0.648677  1
  Pt  Pt14  1  0.000005  0.739788  0.739786  1
  Pt  Pt15  1  0.999995  0.260212  0.260214  1
  Pt  Pt16  1  0.248993  0.862668  0.386313  1
  Pt  Pt17  1  0.751007  0.137332  0.613687  1
  Pt  Pt18  1  0.484944  0.363366  0.121572  1
  Pt  Pt19  1  0.515056  0.636634  0.878428  1
