# generated using pymatgen
data_Er4Ga24Pt8Rh
_symmetry_space_group_name_H-M   'P 1'
_cell_length_a   7.55279570
_cell_length_b   7.56476582
_cell_length_c   13.23944956
_cell_angle_alpha   84.67263043
_cell_angle_beta   79.24291503
_cell_angle_gamma   59.94644940
_symmetry_Int_Tables_number   1
_chemical_formula_structural   Er4Ga24Pt8Rh
_chemical_formula_sum   'Er4 Ga24 Pt8 Rh1'
_cell_volume   643.23474979
_cell_formula_units_Z   1
loop_
 _symmetry_equiv_pos_site_id
 _symmetry_equiv_pos_as_xyz
  1  'x, y, z'
loop_
 _atom_site_type_symbol
 _atom_site_label
 _atom_site_symmetry_multiplicity
 _atom_site_fract_x
 _atom_site_fract_y
 _atom_site_fract_z
 _atom_site_occupancy
  Er  Er0  1  0.396074  0.165807  0.809392  1
  Er  Er1  1  0.603926  0.834193  0.190608  1
  Er  Er2  1  0.729878  0.499652  0.809422  1
  Er  Er3  1  0.270122  0.500348  0.190578  1
  Ga  Ga4  1  0.686760  0.829767  0.940239  1
  Ga  Ga5  1  0.313240  0.170233  0.059761  1
  Ga  Ga6  1  0.146247  0.832852  0.561388  1
  Ga  Ga7  1  0.853753  0.167148  0.438612  1
  Ga  Ga8  1  0.480829  0.166537  0.557756  1
  Ga  Ga9  1  0.519171  0.833463  0.442244  1
  Ga  Ga10  1  0.221671  0.165579  0.323106  1
  Ga  Ga11  1  0.778329  0.834421  0.676894  1
  Ga  Ga12  1  0.435629  0.504651  0.676450  1
  Ga  Ga13  1  0.564371  0.495349  0.323550  1
  Ga  Ga14  1  0.106613  0.163421  0.675615  1
  Ga  Ga15  1  0.893387  0.836579  0.324385  1
  Ga  Ga16  1  0.353809  0.496151  0.940260  1
  Ga  Ga17  1  0.646191  0.503849  0.059740  1
  Ga  Ga18  1  0.018920  0.175860  0.944477  1
  Ga  Ga19  1  0.981080  0.824140  0.055523  1
  Ga  Ga20  1  0.186063  0.499455  0.442115  1
  Ga  Ga21  1  0.813937  0.500545  0.557885  1
  Ga  Ga22  1  0.737615  0.164184  0.182000  1
  Ga  Ga23  1  0.262385  0.835816  0.818000  1
  Ga  Ga24  1  0.060234  0.626658  0.819241  1
  Ga  Ga25  1  0.939766  0.373342  0.180759  1
  Ga  Ga26  1  0.856933  0.039407  0.817598  1
  Ga  Ga27  1  0.143067  0.960593  0.182402  1
  Pt  Pt28  1  0.118414  0.493637  0.640131  1
  Pt  Pt29  1  0.881586  0.506363  0.359869  1
  Pt  Pt30  1  0.660848  0.169583  0.999856  1
  Pt  Pt31  1  0.339152  0.830417  0.000144  1
  Pt  Pt32  1  0.539584  0.166758  0.359567  1
  Pt  Pt33  1  0.460416  0.833242  0.640433  1
  Pt  Pt34  1  0.778360  0.174485  0.638702  1
  Pt  Pt35  1  0.221640  0.825515  0.361298  1
  Rh  Rh36  1  0.000000  0.500000  0.000000  1
