# generated using pymatgen
data_Ba6Lu3ScSe12
_symmetry_space_group_name_H-M   'P 1'
_cell_length_a   8.76752026
_cell_length_b   8.76751955
_cell_length_c   8.76752102
_cell_angle_alpha   93.05333339
_cell_angle_beta   93.05333681
_cell_angle_gamma   93.05332912
_symmetry_Int_Tables_number   1
_chemical_formula_structural   Ba6Lu3ScSe12
_chemical_formula_sum   'Ba6 Lu3 Sc1 Se12'
_cell_volume   670.97747336
_cell_formula_units_Z   1
loop_
 _symmetry_equiv_pos_site_id
 _symmetry_equiv_pos_as_xyz
  1  'x, y, z'
loop_
 _atom_site_type_symbol
 _atom_site_label
 _atom_site_symmetry_multiplicity
 _atom_site_fract_x
 _atom_site_fract_y
 _atom_site_fract_z
 _atom_site_occupancy
  Ba  Ba0  1  0.366974  0.751565  0.132857  1
  Ba  Ba1  1  0.132857  0.366974  0.751565  1
  Ba  Ba2  1  0.751565  0.132857  0.366974  1
  Ba  Ba3  1  0.633026  0.248435  0.867143  1
  Ba  Ba4  1  0.867143  0.633026  0.248435  1
  Ba  Ba5  1  0.248435  0.867143  0.633026  1
  Lu  Lu6  1  0.500000  0.500000  0.500000  1
  Lu  Lu7  1  0.248421  0.248421  0.248421  1
  Lu  Lu8  1  0.751579  0.751579  0.751579  1
  Sc  Sc9  1  0.000000  0.000000  0.000000  1
  Se  Se10  1  0.535092  0.406741  0.195277  1
  Se  Se11  1  0.195277  0.535092  0.406741  1
  Se  Se12  1  0.406741  0.195277  0.535092  1
  Se  Se13  1  0.964702  0.298919  0.089430  1
  Se  Se14  1  0.089430  0.964702  0.298919  1
  Se  Se15  1  0.298919  0.089430  0.964702  1
  Se  Se16  1  0.464908  0.593259  0.804723  1
  Se  Se17  1  0.804723  0.464908  0.593259  1
  Se  Se18  1  0.593259  0.804723  0.464908  1
  Se  Se19  1  0.035298  0.701081  0.910570  1
  Se  Se20  1  0.701081  0.910570  0.035298  1
  Se  Se21  1  0.910570  0.035298  0.701081  1
