# generated using pymatgen
data_BaU2SnI12
_symmetry_space_group_name_H-M   'P 1'
_cell_length_a   8.23583061
_cell_length_b   8.15167043
_cell_length_c   15.21626756
_cell_angle_alpha   95.45874548
_cell_angle_beta   96.10713204
_cell_angle_gamma   120.17079387
_symmetry_Int_Tables_number   1
_chemical_formula_structural   BaU2SnI12
_chemical_formula_sum   'Ba1 U2 Sn1 I12'
_cell_volume   864.93479760
_cell_formula_units_Z   1
loop_
 _symmetry_equiv_pos_site_id
 _symmetry_equiv_pos_as_xyz
  1  'x, y, z'
loop_
 _atom_site_type_symbol
 _atom_site_label
 _atom_site_symmetry_multiplicity
 _atom_site_fract_x
 _atom_site_fract_y
 _atom_site_fract_z
 _atom_site_occupancy
  Ba  Ba0  1  0.165976  0.826973  0.995638  1
  U  U1  1  0.832784  0.159105  0.000149  1
  U  U2  1  0.659692  0.333599  0.499470  1
  Sn  Sn3  1  0.327127  0.665548  0.497782  1
  I  I4  1  0.176577  0.501463  0.120649  1
  I  I5  1  0.584712  0.207451  0.119574  1
  I  I6  1  0.887097  0.915251  0.123844  1
  I  I7  1  0.592854  0.584352  0.383018  1
  I  I8  1  0.927905  0.304021  0.386716  1
  I  I9  1  0.316547  0.975379  0.385690  1
  I  I10  1  0.021717  0.672520  0.612983  1
  I  I11  1  0.678596  0.053576  0.612687  1
  I  I12  1  0.419232  0.407399  0.616310  1
  I  I13  1  0.078877  0.119620  0.875900  1
  I  I14  1  0.774442  0.404719  0.878641  1
  I  I15  1  0.495869  0.809028  0.880149  1
