# generated using pymatgen
data_Y5Hf5(Si5Ir2)4
_symmetry_space_group_name_H-M   'P 1'
_cell_length_a   12.49462100
_cell_length_b   12.49462100
_cell_length_c   4.16890600
_cell_angle_alpha   90.00000000
_cell_angle_beta   90.00000000
_cell_angle_gamma   90.00000000
_symmetry_Int_Tables_number   1
_chemical_formula_structural   Y5Hf5(Si5Ir2)4
_chemical_formula_sum   'Y5 Hf5 Si20 Ir8'
_cell_volume   650.83106949
_cell_formula_units_Z   1
loop_
 _symmetry_equiv_pos_site_id
 _symmetry_equiv_pos_as_xyz
  1  'x, y, z'
loop_
 _atom_site_type_symbol
 _atom_site_label
 _atom_site_symmetry_multiplicity
 _atom_site_fract_x
 _atom_site_fract_y
 _atom_site_fract_z
 _atom_site_occupancy
  Y  Y0  1  0.000000  0.000000  0.000000  1
  Y  Y1  1  0.884402  0.385034  0.500000  1
  Y  Y2  1  0.115598  0.614966  0.500000  1
  Y  Y3  1  0.385034  0.115598  0.500000  1
  Y  Y4  1  0.614966  0.884402  0.500000  1
  Hf  Hf5  1  0.500000  0.500000  0.000000  1
  Hf  Hf6  1  0.673263  0.175301  0.500000  1
  Hf  Hf7  1  0.326737  0.824699  0.500000  1
  Hf  Hf8  1  0.175301  0.326737  0.500000  1
  Hf  Hf9  1  0.824699  0.673263  0.500000  1
  Si  Si10  1  0.565858  0.068049  0.000000  1
  Si  Si11  1  0.434142  0.931951  0.000000  1
  Si  Si12  1  0.068049  0.434142  0.000000  1
  Si  Si13  1  0.931951  0.565858  0.000000  1
  Si  Si14  1  0.665163  0.701333  0.000000  1
  Si  Si15  1  0.334837  0.298667  0.000000  1
  Si  Si16  1  0.163726  0.800246  0.000000  1
  Si  Si17  1  0.836274  0.199754  0.000000  1
  Si  Si18  1  0.298667  0.665163  0.000000  1
  Si  Si19  1  0.701333  0.334837  0.000000  1
  Si  Si20  1  0.199754  0.163726  0.000000  1
  Si  Si21  1  0.800246  0.836274  0.000000  1
  Si  Si22  1  0.650819  0.508204  0.500000  1
  Si  Si23  1  0.349181  0.491796  0.500000  1
  Si  Si24  1  0.157467  0.992480  0.500000  1
  Si  Si25  1  0.842533  0.007520  0.500000  1
  Si  Si26  1  0.491796  0.650819  0.500000  1
  Si  Si27  1  0.508204  0.349181  0.500000  1
  Si  Si28  1  0.007520  0.157467  0.500000  1
  Si  Si29  1  0.992480  0.842533  0.500000  1
  Ir  Ir30  1  0.741590  0.522066  0.000000  1
  Ir  Ir31  1  0.258410  0.477934  0.000000  1
  Ir  Ir32  1  0.246586  0.977254  0.000000  1
  Ir  Ir33  1  0.753414  0.022746  0.000000  1
  Ir  Ir34  1  0.477934  0.741590  0.000000  1
  Ir  Ir35  1  0.522066  0.258410  0.000000  1
  Ir  Ir36  1  0.022746  0.246586  0.000000  1
  Ir  Ir37  1  0.977254  0.753414  0.000000  1
