# generated using pymatgen
data_Nd2Tm4PtRh17
_symmetry_space_group_name_H-M   'P 1'
_cell_length_a   5.29257567
_cell_length_b   5.29417834
_cell_length_c   17.46711201
_cell_angle_alpha   89.99678624
_cell_angle_beta   89.99895443
_cell_angle_gamma   120.01269106
_symmetry_Int_Tables_number   1
_chemical_formula_structural   Nd2Tm4PtRh17
_chemical_formula_sum   'Nd2 Tm4 Pt1 Rh17'
_cell_volume   423.80085215
_cell_formula_units_Z   1
loop_
 _symmetry_equiv_pos_site_id
 _symmetry_equiv_pos_as_xyz
  1  'x, y, z'
loop_
 _atom_site_type_symbol
 _atom_site_label
 _atom_site_symmetry_multiplicity
 _atom_site_fract_x
 _atom_site_fract_y
 _atom_site_fract_z
 _atom_site_occupancy
  Nd  Nd0  1  0.333326  0.666691  0.749755  1
  Nd  Nd1  1  0.666674  0.333309  0.250245  1
  Tm  Tm2  1  0.333312  0.666675  0.540956  1
  Tm  Tm3  1  0.666671  0.333302  0.041690  1
  Tm  Tm4  1  0.666688  0.333325  0.459044  1
  Tm  Tm5  1  0.333329  0.666698  0.958310  1
  Pt  Pt6  1  0.000000  0.000000  0.000000  1
  Rh  Rh7  1  0.167903  0.335742  0.125002  1
  Rh  Rh8  1  0.832465  0.664996  0.624220  1
  Rh  Rh9  1  0.664249  0.832077  0.124980  1
  Rh  Rh10  1  0.167896  0.832081  0.125019  1
  Rh  Rh11  1  0.832444  0.167526  0.624238  1
  Rh  Rh12  1  0.335020  0.167534  0.624202  1
  Rh  Rh13  1  0.832097  0.664258  0.874998  1
  Rh  Rh14  1  0.832104  0.167919  0.874981  1
  Rh  Rh15  1  0.335751  0.167923  0.875020  1
  Rh  Rh16  1  0.664980  0.832466  0.375798  1
  Rh  Rh17  1  0.167556  0.832474  0.375762  1
  Rh  Rh18  1  0.167535  0.335004  0.375780  1
  Rh  Rh19  1  0.999857  0.000014  0.250263  1
  Rh  Rh20  1  0.000143  0.999986  0.749737  1
  Rh  Rh21  1  0.333501  0.666604  0.249737  1
  Rh  Rh22  1  0.666499  0.333396  0.750263  1
  Rh  Rh23  1  0.000000  0.000000  0.500000  1
