# generated using pymatgen
data_Ca5NdNp2O12
_symmetry_space_group_name_H-M   'P 1'
_cell_length_a   6.85207844
_cell_length_b   6.77731090
_cell_length_c   6.86181264
_cell_angle_alpha   92.03993579
_cell_angle_beta   91.06326150
_cell_angle_gamma   91.58991148
_symmetry_Int_Tables_number   1
_chemical_formula_structural   Ca5NdNp2O12
_chemical_formula_sum   'Ca5 Nd1 Np2 O12'
_cell_volume   318.26795687
_cell_formula_units_Z   1
loop_
 _symmetry_equiv_pos_site_id
 _symmetry_equiv_pos_as_xyz
  1  'x, y, z'
loop_
 _atom_site_type_symbol
 _atom_site_label
 _atom_site_symmetry_multiplicity
 _atom_site_fract_x
 _atom_site_fract_y
 _atom_site_fract_z
 _atom_site_occupancy
  Ca  Ca0  1  0.753038  0.941402  0.443224  1
  Ca  Ca1  1  0.558271  0.249793  0.062003  1
  Ca  Ca2  1  0.248885  0.056138  0.553064  1
  Ca  Ca3  1  0.061339  0.560794  0.249586  1
  Ca  Ca4  1  0.440715  0.749271  0.941257  1
  Nd  Nd5  1  0.938450  0.440338  0.749390  1
  Np  Np6  1  0.000642  0.999389  0.003274  1
  Np  Np7  1  0.497646  0.501172  0.496818  1
  O  O8  1  0.287406  0.064100  0.934998  1
  O  O9  1  0.061060  0.925543  0.296191  1
  O  O10  1  0.918603  0.302334  0.063254  1
  O  O11  1  0.712552  0.935067  0.068622  1
  O  O12  1  0.939521  0.080356  0.705381  1
  O  O13  1  0.082360  0.695815  0.935086  1
  O  O14  1  0.200406  0.408812  0.535697  1
  O  O15  1  0.415632  0.542692  0.206341  1
  O  O16  1  0.457012  0.793058  0.587877  1
  O  O17  1  0.586669  0.456737  0.791676  1
  O  O18  1  0.797015  0.589433  0.464313  1
  O  O19  1  0.542779  0.207756  0.411947  1
