# generated using pymatgen
data_CaPr5NdFeI12
_symmetry_space_group_name_H-M   'P 1'
_cell_length_a   10.22844504
_cell_length_b   10.10819229
_cell_length_c   10.08896641
_cell_angle_alpha   106.93927730
_cell_angle_beta   106.88397872
_cell_angle_gamma   107.25364434
_symmetry_Int_Tables_number   1
_chemical_formula_structural   CaPr5NdFeI12
_chemical_formula_sum   'Ca1 Pr5 Nd1 Fe1 I12'
_cell_volume   868.09504419
_cell_formula_units_Z   1
loop_
 _symmetry_equiv_pos_site_id
 _symmetry_equiv_pos_as_xyz
  1  'x, y, z'
loop_
 _atom_site_type_symbol
 _atom_site_label
 _atom_site_symmetry_multiplicity
 _atom_site_fract_x
 _atom_site_fract_y
 _atom_site_fract_z
 _atom_site_occupancy
  Ca  Ca0  1  0.000116  0.999871  0.000009  1
  Pr  Pr1  1  0.525350  0.595824  0.791265  1
  Pr  Pr2  1  0.193662  0.474201  0.399065  1
  Pr  Pr3  1  0.474719  0.404150  0.208650  1
  Pr  Pr4  1  0.596087  0.791491  0.525161  1
  Pr  Pr5  1  0.404602  0.208590  0.474952  1
  Nd  Nd6  1  0.804174  0.525831  0.600398  1
  Fe  Fe7  1  0.500189  0.500004  0.499715  1
  I  I8  1  0.722543  0.185082  0.572782  1
  I  I9  1  0.956394  0.879264  0.657659  1
  I  I10  1  0.573130  0.724034  0.183858  1
  I  I11  1  0.120618  0.340946  0.040640  1
  I  I12  1  0.661476  0.959095  0.882394  1
  I  I13  1  0.879319  0.657987  0.957464  1
  I  I14  1  0.043445  0.118797  0.342135  1
  I  I15  1  0.815014  0.427130  0.276730  1
  I  I16  1  0.338705  0.040959  0.117765  1
  I  I17  1  0.278838  0.817208  0.427876  1
  I  I18  1  0.184512  0.573409  0.725194  1
  I  I19  1  0.427107  0.276128  0.816288  1
