# generated using pymatgen
data_AlCu3Sn5(IrSe8)2
_symmetry_space_group_name_H-M   'P 1'
_cell_length_a   7.72637800
_cell_length_b   7.69426129
_cell_length_c   10.92034935
_cell_angle_alpha   90.51045809
_cell_angle_beta   90.00000000
_cell_angle_gamma   90.00000000
_symmetry_Int_Tables_number   1
_chemical_formula_structural   AlCu3Sn5(IrSe8)2
_chemical_formula_sum   'Al1 Cu3 Sn5 Ir2 Se16'
_cell_volume   649.17558538
_cell_formula_units_Z   1
loop_
 _symmetry_equiv_pos_site_id
 _symmetry_equiv_pos_as_xyz
  1  'x, y, z'
loop_
 _atom_site_type_symbol
 _atom_site_label
 _atom_site_symmetry_multiplicity
 _atom_site_fract_x
 _atom_site_fract_y
 _atom_site_fract_z
 _atom_site_occupancy
  Al  Al0  1  0.000000  0.253624  0.743235  1
  Cu  Cu1  1  0.000000  0.003531  0.125911  1
  Cu  Cu2  1  0.500000  0.499114  0.628590  1
  Cu  Cu3  1  0.500000  0.999896  0.866787  1
  Sn  Sn4  1  0.500000  0.739094  0.252791  1
  Sn  Sn5  1  0.760111  0.007526  0.504843  1
  Sn  Sn6  1  0.249098  0.495991  0.998469  1
  Sn  Sn7  1  0.239889  0.007526  0.504843  1
  Sn  Sn8  1  0.750902  0.495991  0.998469  1
  Ir  Ir9  1  0.500000  0.246902  0.246311  1
  Ir  Ir10  1  0.000000  0.755113  0.751902  1
  Se  Se11  1  0.000000  0.265461  0.509178  1
  Se  Se12  1  0.500000  0.751019  0.998310  1
  Se  Se13  1  0.000000  0.752779  0.523272  1
  Se  Se14  1  0.500000  0.246272  0.015118  1
  Se  Se15  1  0.222941  0.999368  0.752697  1
  Se  Se16  1  0.730260  0.473569  0.247238  1
  Se  Se17  1  0.777059  0.999368  0.752697  1
  Se  Se18  1  0.269740  0.473569  0.247238  1
  Se  Se19  1  0.500000  0.754710  0.503698  1
  Se  Se20  1  0.000000  0.243798  0.985028  1
  Se  Se21  1  0.500000  0.249231  0.480828  1
  Se  Se22  1  0.000000  0.747818  0.984254  1
  Se  Se23  1  0.267532  0.011620  0.252014  1
  Se  Se24  1  0.777137  0.507747  0.749633  1
  Se  Se25  1  0.732468  0.011620  0.252014  1
  Se  Se26  1  0.222863  0.507747  0.749633  1
