# generated using pymatgen
data_Dy4Ga5Ni9
_symmetry_space_group_name_H-M   'P 1'
_cell_length_a   5.17007498
_cell_length_b   5.17007594
_cell_length_c   12.20453200
_cell_angle_alpha   77.77156935
_cell_angle_beta   77.77156686
_cell_angle_gamma   60.00000693
_symmetry_Int_Tables_number   1
_chemical_formula_structural   Dy4Ga5Ni9
_chemical_formula_sum   'Dy4 Ga5 Ni9'
_cell_volume   273.93754301
_cell_formula_units_Z   1
loop_
 _symmetry_equiv_pos_site_id
 _symmetry_equiv_pos_as_xyz
  1  'x, y, z'
loop_
 _atom_site_type_symbol
 _atom_site_label
 _atom_site_symmetry_multiplicity
 _atom_site_fract_x
 _atom_site_fract_y
 _atom_site_fract_z
 _atom_site_occupancy
  Dy  Dy0  1  0.951784  0.951784  0.144645  1
  Dy  Dy1  1  0.048216  0.048216  0.855355  1
  Dy  Dy2  1  0.854449  0.854449  0.436653  1
  Dy  Dy3  1  0.145551  0.145551  0.563347  1
  Ga  Ga4  1  0.500000  0.500000  0.500000  1
  Ga  Ga5  1  0.722378  0.722378  0.832868  1
  Ga  Ga6  1  0.277622  0.277622  0.167132  1
  Ga  Ga7  1  0.610639  0.610639  0.168083  1
  Ga  Ga8  1  0.389361  0.389361  0.831917  1
  Ni  Ni9  1  0.000000  0.500000  0.000000  1
  Ni  Ni10  1  0.500000  0.000000  0.000000  1
  Ni  Ni11  1  0.500000  0.500000  0.000000  1
  Ni  Ni12  1  0.386726  0.386726  0.332107  1
  Ni  Ni13  1  0.894442  0.386726  0.332107  1
  Ni  Ni14  1  0.386726  0.894442  0.332107  1
  Ni  Ni15  1  0.613274  0.613274  0.667893  1
  Ni  Ni16  1  0.105558  0.613274  0.667893  1
  Ni  Ni17  1  0.613274  0.105558  0.667893  1
