# generated using pymatgen
data_Sm5Nb2Co16P12W
_symmetry_space_group_name_H-M   'P 1'
_cell_length_a   12.23830500
_cell_length_b   12.24138581
_cell_length_c   3.74011700
_cell_angle_alpha   90.00000000
_cell_angle_beta   90.00000000
_cell_angle_gamma   119.99167783
_symmetry_Int_Tables_number   1
_chemical_formula_structural   Sm5Nb2Co16P12W
_chemical_formula_sum   'Sm5 Nb2 Co16 P12 W1'
_cell_volume   485.29307220
_cell_formula_units_Z   1
loop_
 _symmetry_equiv_pos_site_id
 _symmetry_equiv_pos_as_xyz
  1  'x, y, z'
loop_
 _atom_site_type_symbol
 _atom_site_label
 _atom_site_symmetry_multiplicity
 _atom_site_fract_x
 _atom_site_fract_y
 _atom_site_fract_z
 _atom_site_occupancy
  Sm  Sm0  1  0.814103  0.000000  0.500000  1
  Sm  Sm1  1  0.000246  0.816036  0.500000  1
  Sm  Sm2  1  0.184210  0.183964  0.500000  1
  Sm  Sm3  1  0.333422  0.667415  0.000000  1
  Sm  Sm4  1  0.666009  0.332585  0.000000  1
  Nb  Nb5  1  0.000283  0.443091  0.000000  1
  Nb  Nb6  1  0.557193  0.556909  0.000000  1
  Co  Co7  1  0.282071  0.000000  0.500000  1
  Co  Co8  1  0.999879  0.279911  0.500000  1
  Co  Co9  1  0.719968  0.720089  0.500000  1
  Co  Co10  1  0.624030  0.802368  0.000000  1
  Co  Co11  1  0.200467  0.825092  0.000000  1
  Co  Co12  1  0.177294  0.374481  0.000000  1
  Co  Co13  1  0.375374  0.174908  0.000000  1
  Co  Co14  1  0.802813  0.625519  0.000000  1
  Co  Co15  1  0.821663  0.197632  0.000000  1
  Co  Co16  1  0.517502  0.875577  0.500000  1
  Co  Co17  1  0.127294  0.646973  0.500000  1
  Co  Co18  1  0.354558  0.480280  0.500000  1
  Co  Co19  1  0.480321  0.353027  0.500000  1
  Co  Co20  1  0.874279  0.519720  0.500000  1
  Co  Co21  1  0.641925  0.124423  0.500000  1
  Co  Co22  1  0.000000  0.000000  0.000000  1
  P  P23  1  0.180093  0.000000  0.000000  1
  P  P24  1  0.999322  0.179660  0.000000  1
  P  P25  1  0.819662  0.820340  0.000000  1
  P  P26  1  0.522327  0.690021  0.500000  1
  P  P27  1  0.313913  0.836379  0.500000  1
  P  P28  1  0.167078  0.477592  0.500000  1
  P  P29  1  0.477534  0.163621  0.500000  1
  P  P30  1  0.689486  0.522408  0.500000  1
  P  P31  1  0.832306  0.309979  0.500000  1
  P  P32  1  0.637408  0.000000  0.000000  1
  P  P33  1  0.001427  0.642245  0.000000  1
  P  P34  1  0.359181  0.357755  0.000000  1
  W  W35  1  0.445359  0.000000  0.000000  1
