# generated using pymatgen
data_TbYb3Pa4(ReB6)4
_symmetry_space_group_name_H-M   'P 1'
_cell_length_a   3.71030300
_cell_length_b   9.19681805
_cell_length_c   11.46072232
_cell_angle_alpha   90.05486567
_cell_angle_beta   90.00000000
_cell_angle_gamma   90.00000000
_symmetry_Int_Tables_number   1
_chemical_formula_structural   TbYb3Pa4(ReB6)4
_chemical_formula_sum   'Tb1 Yb3 Pa4 Re4 B24'
_cell_volume   391.07383752
_cell_formula_units_Z   1
loop_
 _symmetry_equiv_pos_site_id
 _symmetry_equiv_pos_as_xyz
  1  'x, y, z'
loop_
 _atom_site_type_symbol
 _atom_site_label
 _atom_site_symmetry_multiplicity
 _atom_site_fract_x
 _atom_site_fract_y
 _atom_site_fract_z
 _atom_site_occupancy
  Tb  Tb0  1  0.000000  0.551884  0.878944  1
  Yb  Yb1  1  0.000000  0.949056  0.380714  1
  Yb  Yb2  1  0.000000  0.051084  0.618783  1
  Yb  Yb3  1  0.000000  0.446864  0.123915  1
  Pa  Pa4  1  0.000000  0.324566  0.410870  1
  Pa  Pa5  1  0.000000  0.676182  0.586670  1
  Pa  Pa6  1  0.000000  0.825000  0.090106  1
  Pa  Pa7  1  0.000000  0.174931  0.912125  1
  Re  Re8  1  0.000000  0.640197  0.322226  1
  Re  Re9  1  0.000000  0.360194  0.677416  1
  Re  Re10  1  0.000000  0.139209  0.177613  1
  Re  Re11  1  0.000000  0.860877  0.822000  1
  B  B12  1  0.500000  0.552974  0.432074  1
  B  B13  1  0.500000  0.446979  0.567306  1
  B  B14  1  0.500000  0.052760  0.067906  1
  B  B15  1  0.500000  0.947398  0.932183  1
  B  B16  1  0.500000  0.747255  0.421327  1
  B  B17  1  0.500000  0.252901  0.578012  1
  B  B18  1  0.500000  0.246680  0.079181  1
  B  B19  1  0.500000  0.753773  0.921863  1
  B  B20  1  0.500000  0.794938  0.268654  1
  B  B21  1  0.500000  0.204380  0.731200  1
  B  B22  1  0.500000  0.294393  0.231576  1
  B  B23  1  0.500000  0.705733  0.768183  1
  B  B24  1  0.500000  0.635981  0.187271  1
  B  B25  1  0.500000  0.362846  0.812870  1
  B  B26  1  0.500000  0.136067  0.313364  1
  B  B27  1  0.500000  0.864174  0.686236  1
  B  B28  1  0.500000  0.984445  0.214981  1
  B  B29  1  0.500000  0.015889  0.784950  1
  B  B30  1  0.500000  0.484673  0.285623  1
  B  B31  1  0.500000  0.515372  0.713878  1
  B  B32  1  0.500000  0.624192  0.034933  1
  B  B33  1  0.500000  0.375697  0.965446  1
  B  B34  1  0.500000  0.127710  0.464170  1
  B  B35  1  0.500000  0.872743  0.535433  1
