# generated using pymatgen
data_Eu(Sn2Rh)2
_symmetry_space_group_name_H-M   'P 1'
_cell_length_a   4.56709400
_cell_length_b   7.26211000
_cell_length_c   18.78344200
_cell_angle_alpha   90.00000000
_cell_angle_beta   90.00000000
_cell_angle_gamma   90.00000000
_symmetry_Int_Tables_number   1
_chemical_formula_structural   Eu(Sn2Rh)2
_chemical_formula_sum   'Eu4 Sn16 Rh8'
_cell_volume   622.98551849
_cell_formula_units_Z   4
loop_
 _symmetry_equiv_pos_site_id
 _symmetry_equiv_pos_as_xyz
  1  'x, y, z'
loop_
 _atom_site_type_symbol
 _atom_site_label
 _atom_site_symmetry_multiplicity
 _atom_site_fract_x
 _atom_site_fract_y
 _atom_site_fract_z
 _atom_site_occupancy
  Eu  Eu0  1  0.250000  0.997874  0.857918  1
  Eu  Eu1  1  0.250000  0.502126  0.357918  1
  Eu  Eu2  1  0.750000  0.002126  0.142082  1
  Eu  Eu3  1  0.750000  0.497874  0.642082  1
  Sn  Sn4  1  0.250000  0.302448  0.182167  1
  Sn  Sn5  1  0.250000  0.197552  0.682167  1
  Sn  Sn6  1  0.750000  0.697552  0.817833  1
  Sn  Sn7  1  0.750000  0.802448  0.317833  1
  Sn  Sn8  1  0.250000  0.722729  0.194606  1
  Sn  Sn9  1  0.250000  0.777271  0.694606  1
  Sn  Sn10  1  0.750000  0.277271  0.805394  1
  Sn  Sn11  1  0.750000  0.222729  0.305394  1
  Sn  Sn12  1  0.250000  0.866689  0.031650  1
  Sn  Sn13  1  0.250000  0.633311  0.531650  1
  Sn  Sn14  1  0.750000  0.133311  0.968350  1
  Sn  Sn15  1  0.750000  0.366689  0.468350  1
  Sn  Sn16  1  0.250000  0.518270  0.931231  1
  Sn  Sn17  1  0.250000  0.981730  0.431231  1
  Sn  Sn18  1  0.750000  0.481730  0.068769  1
  Sn  Sn19  1  0.750000  0.018270  0.568769  1
  Rh  Rh20  1  0.250000  0.255124  0.035452  1
  Rh  Rh21  1  0.250000  0.244876  0.535452  1
  Rh  Rh22  1  0.750000  0.744876  0.964548  1
  Rh  Rh23  1  0.750000  0.755124  0.464548  1
  Rh  Rh24  1  0.250000  0.018032  0.286096  1
  Rh  Rh25  1  0.250000  0.481968  0.786096  1
  Rh  Rh26  1  0.750000  0.981968  0.713904  1
  Rh  Rh27  1  0.750000  0.518032  0.213904  1
