# generated using pymatgen
data_CaTm2(BPt2)3
_symmetry_space_group_name_H-M   'P 1'
_cell_length_a   5.36188735
_cell_length_b   5.36188711
_cell_length_c   7.84286800
_cell_angle_alpha   90.00000000
_cell_angle_beta   90.00000000
_cell_angle_gamma   119.52351689
_symmetry_Int_Tables_number   1
_chemical_formula_structural   CaTm2(BPt2)3
_chemical_formula_sum   'Ca1 Tm2 B3 Pt6'
_cell_volume   196.20322104
_cell_formula_units_Z   1
loop_
 _symmetry_equiv_pos_site_id
 _symmetry_equiv_pos_as_xyz
  1  'x, y, z'
loop_
 _atom_site_type_symbol
 _atom_site_label
 _atom_site_symmetry_multiplicity
 _atom_site_fract_x
 _atom_site_fract_y
 _atom_site_fract_z
 _atom_site_occupancy
  Ca  Ca0  1  0.500000  0.500000  0.833333  1
  Tm  Tm1  1  0.500000  0.000000  0.501786  1
  Tm  Tm2  1  0.000000  0.500000  0.164881  1
  B  B3  1  0.500000  0.500000  0.333333  1
  B  B4  1  0.500000  0.000000  0.998253  1
  B  B5  1  0.000000  0.500000  0.668414  1
  Pt  Pt6  1  0.150136  0.849864  0.833333  1
  Pt  Pt7  1  0.145416  0.301226  0.496870  1
  Pt  Pt8  1  0.698774  0.854584  0.169797  1
  Pt  Pt9  1  0.849864  0.150136  0.833333  1
  Pt  Pt10  1  0.854584  0.698774  0.496870  1
  Pt  Pt11  1  0.301226  0.145416  0.169797  1
