# generated using pymatgen
data_Sc2Co5Si14Ru
_symmetry_space_group_name_H-M   'P 1'
_cell_length_a   7.68370372
_cell_length_b   7.62080305
_cell_length_c   7.62080166
_cell_angle_alpha   57.42381153
_cell_angle_beta   57.13634039
_cell_angle_gamma   57.13632917
_symmetry_Int_Tables_number   1
_chemical_formula_structural   Sc2Co5Si14Ru
_chemical_formula_sum   'Sc2 Co5 Si14 Ru1'
_cell_volume   295.42193101
_cell_formula_units_Z   1
loop_
 _symmetry_equiv_pos_site_id
 _symmetry_equiv_pos_as_xyz
  1  'x, y, z'
loop_
 _atom_site_type_symbol
 _atom_site_label
 _atom_site_symmetry_multiplicity
 _atom_site_fract_x
 _atom_site_fract_y
 _atom_site_fract_z
 _atom_site_occupancy
  Sc  Sc0  1  0.999585  0.000037  0.001404  1
  Sc  Sc1  1  0.500415  0.498596  0.499963  1
  Co  Co2  1  0.071987  0.426970  0.751234  1
  Co  Co3  1  0.250000  0.925075  0.574925  1
  Co  Co4  1  0.571196  0.251012  0.926521  1
  Co  Co5  1  0.928804  0.573479  0.248988  1
  Co  Co6  1  0.428013  0.748766  0.073030  1
  Si  Si7  1  0.750000  0.742675  0.757325  1
  Si  Si8  1  0.250000  0.250555  0.249445  1
  Si  Si9  1  0.855687  0.072379  0.671402  1
  Si  Si10  1  0.667056  0.849068  0.073038  1
  Si  Si11  1  0.075291  0.665330  0.850892  1
  Si  Si12  1  0.644313  0.828598  0.427621  1
  Si  Si13  1  0.424709  0.649108  0.834670  1
  Si  Si14  1  0.832944  0.426962  0.650932  1
  Si  Si15  1  0.162607  0.577002  0.351185  1
  Si  Si16  1  0.566861  0.357744  0.160461  1
  Si  Si17  1  0.341957  0.167969  0.574930  1
  Si  Si18  1  0.933139  0.339539  0.142256  1
  Si  Si19  1  0.337393  0.148815  0.922998  1
  Si  Si20  1  0.158043  0.925070  0.332031  1
  Ru  Ru21  1  0.750000  0.075252  0.424748  1
