# generated using pymatgen
data_Lu2Be3Fe14C3
_symmetry_space_group_name_H-M   'P 1'
_cell_length_a   6.31144092
_cell_length_b   6.31144065
_cell_length_c   6.31143911
_cell_angle_alpha   83.12179665
_cell_angle_beta   83.12179265
_cell_angle_gamma   83.12179327
_symmetry_Int_Tables_number   1
_chemical_formula_structural   Lu2Be3Fe14C3
_chemical_formula_sum   'Lu2 Be3 Fe14 C3'
_cell_volume   246.38451174
_cell_formula_units_Z   1
loop_
 _symmetry_equiv_pos_site_id
 _symmetry_equiv_pos_as_xyz
  1  'x, y, z'
loop_
 _atom_site_type_symbol
 _atom_site_label
 _atom_site_symmetry_multiplicity
 _atom_site_fract_x
 _atom_site_fract_y
 _atom_site_fract_z
 _atom_site_occupancy
  Lu  Lu0  1  0.342649  0.342649  0.342649  1
  Lu  Lu1  1  0.657351  0.657351  0.657351  1
  Be  Be2  1  0.000000  0.000000  0.500000  1
  Be  Be3  1  0.000000  0.500000  0.000000  1
  Be  Be4  1  0.500000  0.000000  0.000000  1
  Fe  Fe5  1  0.098892  0.098892  0.098892  1
  Fe  Fe6  1  0.901108  0.901108  0.901108  1
  Fe  Fe7  1  0.720111  0.279889  0.000000  1
  Fe  Fe8  1  0.279889  0.000000  0.720111  1
  Fe  Fe9  1  0.000000  0.720111  0.279889  1
  Fe  Fe10  1  0.279889  0.720111  0.000000  1
  Fe  Fe11  1  0.720111  0.000000  0.279889  1
  Fe  Fe12  1  0.000000  0.279889  0.720111  1
  Fe  Fe13  1  0.141326  0.659781  0.659781  1
  Fe  Fe14  1  0.659781  0.659781  0.141326  1
  Fe  Fe15  1  0.659781  0.141326  0.659781  1
  Fe  Fe16  1  0.340219  0.858674  0.340219  1
  Fe  Fe17  1  0.340219  0.340219  0.858674  1
  Fe  Fe18  1  0.858674  0.340219  0.340219  1
  C  C19  1  0.500000  0.500000  0.000000  1
  C  C20  1  0.500000  0.000000  0.500000  1
  C  C21  1  0.000000  0.500000  0.500000  1
