# generated using pymatgen
data_Th4Zn10InGa
_symmetry_space_group_name_H-M   'P 1'
_cell_length_a   8.50798800
_cell_length_b   8.50798744
_cell_length_c   8.99621900
_cell_angle_alpha   90.00000000
_cell_angle_beta   90.00000000
_cell_angle_gamma   149.57084836
_symmetry_Int_Tables_number   1
_chemical_formula_structural   Th4Zn10InGa
_chemical_formula_sum   'Th4 Zn10 In1 Ga1'
_cell_volume   329.81441315
_cell_formula_units_Z   1
loop_
 _symmetry_equiv_pos_site_id
 _symmetry_equiv_pos_as_xyz
  1  'x, y, z'
loop_
 _atom_site_type_symbol
 _atom_site_label
 _atom_site_symmetry_multiplicity
 _atom_site_fract_x
 _atom_site_fract_y
 _atom_site_fract_z
 _atom_site_occupancy
  Th  Th0  1  0.202378  0.797622  0.250000  1
  Th  Th1  1  0.795432  0.204568  0.750000  1
  Th  Th2  1  0.000385  0.999615  0.487304  1
  Th  Th3  1  0.000385  0.999615  0.012696  1
  Zn  Zn4  1  0.813490  0.186510  0.391146  1
  Zn  Zn5  1  0.185349  0.814651  0.606914  1
  Zn  Zn6  1  0.813490  0.186510  0.108854  1
  Zn  Zn7  1  0.185349  0.814651  0.893086  1
  Zn  Zn8  1  0.650837  0.349163  0.478562  1
  Zn  Zn9  1  0.345062  0.654938  0.515525  1
  Zn  Zn10  1  0.650837  0.349163  0.021438  1
  Zn  Zn11  1  0.345062  0.654938  0.984475  1
  Zn  Zn12  1  0.403817  0.596183  0.250000  1
  Zn  Zn13  1  0.604545  0.395455  0.750000  1
  In  In14  1  0.446343  0.553657  0.750000  1
  Ga  Ga15  1  0.557238  0.442762  0.250000  1
