# generated using pymatgen
data_Gd6PtRh17
_symmetry_space_group_name_H-M   'P 1'
_cell_length_a   5.24991400
_cell_length_b   5.24991409
_cell_length_c   17.52803600
_cell_angle_alpha   90.00000000
_cell_angle_beta   90.00000000
_cell_angle_gamma   119.99999941
_symmetry_Int_Tables_number   1
_chemical_formula_structural   Gd6PtRh17
_chemical_formula_sum   'Gd6 Pt1 Rh17'
_cell_volume   418.37745806
_cell_formula_units_Z   1
loop_
 _symmetry_equiv_pos_site_id
 _symmetry_equiv_pos_as_xyz
  1  'x, y, z'
loop_
 _atom_site_type_symbol
 _atom_site_label
 _atom_site_symmetry_multiplicity
 _atom_site_fract_x
 _atom_site_fract_y
 _atom_site_fract_z
 _atom_site_occupancy
  Gd  Gd0  1  0.333333  0.666666  0.043494  1
  Gd  Gd1  1  0.333333  0.666666  0.251086  1
  Gd  Gd2  1  0.333333  0.666666  0.458366  1
  Gd  Gd3  1  0.666667  0.333334  0.541634  1
  Gd  Gd4  1  0.666667  0.333334  0.748914  1
  Gd  Gd5  1  0.666667  0.333334  0.956506  1
  Pt  Pt6  1  0.000000  0.000000  0.000000  1
  Rh  Rh7  1  0.335308  0.167654  0.126936  1
  Rh  Rh8  1  0.832345  0.167654  0.126936  1
  Rh  Rh9  1  0.832346  0.664692  0.126936  1
  Rh  Rh10  1  0.000000  0.000000  0.250699  1
  Rh  Rh11  1  0.666667  0.333334  0.250110  1
  Rh  Rh12  1  0.334665  0.167332  0.374475  1
  Rh  Rh13  1  0.832667  0.167332  0.374475  1
  Rh  Rh14  1  0.832668  0.665335  0.374475  1
  Rh  Rh15  1  0.000000  0.000000  0.500000  1
  Rh  Rh16  1  0.167332  0.334665  0.625526  1
  Rh  Rh17  1  0.167333  0.832668  0.625526  1
  Rh  Rh18  1  0.665335  0.832668  0.625526  1
  Rh  Rh19  1  0.000000  0.000000  0.749301  1
  Rh  Rh20  1  0.333333  0.666666  0.749890  1
  Rh  Rh21  1  0.167654  0.335308  0.873064  1
  Rh  Rh22  1  0.167655  0.832346  0.873064  1
  Rh  Rh23  1  0.664692  0.832346  0.873064  1
