# generated using pymatgen
data_YbHo15(LuIr3)4
_symmetry_space_group_name_H-M   'P 1'
_cell_length_a   10.79994252
_cell_length_b   10.81515589
_cell_length_c   6.33438550
_cell_angle_alpha   89.92364354
_cell_angle_beta   90.13046971
_cell_angle_gamma   89.86517444
_symmetry_Int_Tables_number   1
_chemical_formula_structural   YbHo15(LuIr3)4
_chemical_formula_sum   'Yb1 Ho15 Lu4 Ir12'
_cell_volume   739.87099313
_cell_formula_units_Z   1
loop_
 _symmetry_equiv_pos_site_id
 _symmetry_equiv_pos_as_xyz
  1  'x, y, z'
loop_
 _atom_site_type_symbol
 _atom_site_label
 _atom_site_symmetry_multiplicity
 _atom_site_fract_x
 _atom_site_fract_y
 _atom_site_fract_z
 _atom_site_occupancy
  Yb  Yb0  1  0.288979  0.087884  0.375603  1
  Ho  Ho1  1  0.290661  0.912335  0.878588  1
  Ho  Ho2  1  0.709191  0.086290  0.878362  1
  Ho  Ho3  1  0.709655  0.912756  0.378571  1
  Ho  Ho4  1  0.587636  0.791095  0.878038  1
  Ho  Ho5  1  0.585998  0.209285  0.378288  1
  Ho  Ho6  1  0.412043  0.791758  0.378028  1
  Ho  Ho7  1  0.412931  0.209213  0.878836  1
  Ho  Ho8  1  0.209649  0.412785  0.622796  1
  Ho  Ho9  1  0.210145  0.587244  0.121893  1
  Ho  Ho10  1  0.790370  0.412295  0.121612  1
  Ho  Ho11  1  0.790485  0.587276  0.621537  1
  Ho  Ho12  1  0.912793  0.709641  0.121922  1
  Ho  Ho13  1  0.912229  0.290074  0.622438  1
  Ho  Ho14  1  0.087361  0.709374  0.621579  1
  Ho  Ho15  1  0.088095  0.290236  0.121413  1
  Lu  Lu16  1  0.001371  0.000029  0.499790  1
  Lu  Lu17  1  0.999348  0.000171  0.999607  1
  Lu  Lu18  1  0.500121  0.500424  0.999470  1
  Lu  Lu19  1  0.499864  0.500483  0.499413  1
  Ir  Ir20  1  0.848905  0.151644  0.250493  1
  Ir  Ir21  1  0.849355  0.848498  0.749452  1
  Ir  Ir22  1  0.149896  0.152298  0.755892  1
  Ir  Ir23  1  0.149344  0.844699  0.247206  1
  Ir  Ir24  1  0.651006  0.348289  0.749871  1
  Ir  Ir25  1  0.651186  0.651695  0.250309  1
  Ir  Ir26  1  0.349322  0.352208  0.248009  1
  Ir  Ir27  1  0.348352  0.652033  0.749309  1
  Ir  Ir28  1  0.501421  0.999488  0.122237  1
  Ir  Ir29  1  0.502135  0.999085  0.623959  1
  Ir  Ir30  1  0.000121  0.499877  0.877830  1
  Ir  Ir31  1  0.000030  0.499538  0.377649  1
