# generated using pymatgen
data_ZrSc7Ti7Si16Mo5
_symmetry_space_group_name_H-M   'P 1'
_cell_length_a   6.60877955
_cell_length_b   6.78790987
_cell_length_c   12.91639857
_cell_angle_alpha   90.03591628
_cell_angle_beta   89.97761399
_cell_angle_gamma   90.04527479
_symmetry_Int_Tables_number   1
_chemical_formula_structural   ZrSc7Ti7Si16Mo5
_chemical_formula_sum   'Zr1 Sc7 Ti7 Si16 Mo5'
_cell_volume   579.42671721
_cell_formula_units_Z   1
loop_
 _symmetry_equiv_pos_site_id
 _symmetry_equiv_pos_as_xyz
  1  'x, y, z'
loop_
 _atom_site_type_symbol
 _atom_site_label
 _atom_site_symmetry_multiplicity
 _atom_site_fract_x
 _atom_site_fract_y
 _atom_site_fract_z
 _atom_site_occupancy
  Zr  Zr0  1  0.500896  0.327370  0.095703  1
  Sc  Sc1  1  0.999879  0.172404  0.405576  1
  Sc  Sc2  1  0.499374  0.675090  0.594264  1
  Sc  Sc3  1  0.000842  0.827700  0.905439  1
  Sc  Sc4  1  0.498905  0.671960  0.904367  1
  Sc  Sc5  1  0.001980  0.828638  0.594288  1
  Sc  Sc6  1  0.499429  0.326642  0.406435  1
  Sc  Sc7  1  0.999161  0.174153  0.095021  1
  Ti  Ti8  1  0.835992  0.328480  0.626134  1
  Ti  Ti9  1  0.332099  0.171321  0.873348  1
  Ti  Ti10  1  0.168319  0.668359  0.126220  1
  Ti  Ti11  1  0.667609  0.829380  0.374104  1
  Ti  Ti12  1  0.167144  0.671317  0.374588  1
  Ti  Ti13  1  0.665337  0.830138  0.125899  1
  Ti  Ti14  1  0.832524  0.329105  0.872327  1
  Si  Si15  1  0.663860  0.036144  0.542093  1
  Si  Si16  1  0.168303  0.463189  0.959055  1
  Si  Si17  1  0.331924  0.963086  0.040559  1
  Si  Si18  1  0.833609  0.535302  0.459050  1
  Si  Si19  1  0.332218  0.961849  0.459631  1
  Si  Si20  1  0.834841  0.537252  0.040874  1
  Si  Si21  1  0.665243  0.035183  0.958420  1
  Si  Si22  1  0.168814  0.462930  0.541735  1
  Si  Si23  1  0.532755  0.382842  0.747829  1
  Si  Si24  1  0.035948  0.115422  0.750117  1
  Si  Si25  1  0.465194  0.616898  0.251165  1
  Si  Si26  1  0.966284  0.883863  0.249598  1
  Si  Si27  1  0.795709  0.639234  0.749333  1
  Si  Si28  1  0.297680  0.861894  0.750158  1
  Si  Si29  1  0.202446  0.361282  0.251355  1
  Si  Si30  1  0.705249  0.138232  0.251027  1
  Mo  Mo31  1  0.330172  0.168749  0.624850  1
  Mo  Mo32  1  0.662145  0.008770  0.749971  1
  Mo  Mo33  1  0.159438  0.493290  0.750264  1
  Mo  Mo34  1  0.339514  0.994649  0.249483  1
  Mo  Mo35  1  0.839162  0.507883  0.249715  1
