# generated using pymatgen
data_Tb2Tm(AgGe)3
_symmetry_space_group_name_H-M   'P 1'
_cell_length_a   7.18101716
_cell_length_b   7.20819526
_cell_length_c   4.19712400
_cell_angle_alpha   90.00000000
_cell_angle_beta   90.00000000
_cell_angle_gamma   120.12527836
_symmetry_Int_Tables_number   1
_chemical_formula_structural   Tb2Tm(AgGe)3
_chemical_formula_sum   'Tb2 Tm1 Ag3 Ge3'
_cell_volume   187.90801552
_cell_formula_units_Z   1
loop_
 _symmetry_equiv_pos_site_id
 _symmetry_equiv_pos_as_xyz
  1  'x, y, z'
loop_
 _atom_site_type_symbol
 _atom_site_label
 _atom_site_symmetry_multiplicity
 _atom_site_fract_x
 _atom_site_fract_y
 _atom_site_fract_z
 _atom_site_occupancy
  Tb  Tb0  1  0.416161  0.416589  0.500000  1
  Tb  Tb1  1  0.583839  0.000428  0.500000  1
  Tm  Tm2  1  0.000000  0.584210  0.500000  1
  Ag  Ag3  1  0.749343  0.748312  0.000000  1
  Ag  Ag4  1  0.250657  0.998969  0.000000  1
  Ag  Ag5  1  0.000000  0.252791  0.000000  1
  Ge  Ge6  1  0.669545  0.335152  0.000000  1
  Ge  Ge7  1  0.330455  0.665608  0.000000  1
  Ge  Ge8  1  0.000000  0.997940  0.500000  1
