# generated using pymatgen
data_Y3Tm8LuOs4
_symmetry_space_group_name_H-M   'P 1'
_cell_length_a   7.38694363
_cell_length_b   8.92543000
_cell_length_c   6.25730998
_cell_angle_alpha   90.00000000
_cell_angle_beta   89.82938686
_cell_angle_gamma   90.00000000
_symmetry_Int_Tables_number   1
_chemical_formula_structural   Y3Tm8LuOs4
_chemical_formula_sum   'Y3 Tm8 Lu1 Os4'
_cell_volume   412.55293213
_cell_formula_units_Z   1
loop_
 _symmetry_equiv_pos_site_id
 _symmetry_equiv_pos_as_xyz
  1  'x, y, z'
loop_
 _atom_site_type_symbol
 _atom_site_label
 _atom_site_symmetry_multiplicity
 _atom_site_fract_x
 _atom_site_fract_y
 _atom_site_fract_z
 _atom_site_occupancy
  Y  Y0  1  0.538561  0.250000  0.873082  1
  Y  Y1  1  0.039411  0.250000  0.627908  1
  Y  Y2  1  0.461449  0.750000  0.127692  1
  Tm  Tm3  1  0.676011  0.062064  0.335106  1
  Tm  Tm4  1  0.172719  0.438436  0.166680  1
  Tm  Tm5  1  0.324421  0.563289  0.664220  1
  Tm  Tm6  1  0.826324  0.936622  0.832559  1
  Tm  Tm7  1  0.324421  0.936711  0.664220  1
  Tm  Tm8  1  0.826324  0.563378  0.832559  1
  Tm  Tm9  1  0.676011  0.437936  0.335106  1
  Tm  Tm10  1  0.172719  0.061564  0.166680  1
  Lu  Lu11  1  0.959699  0.750000  0.370925  1
  Os  Os12  1  0.883434  0.250000  0.043589  1
  Os  Os13  1  0.383461  0.250000  0.456101  1
  Os  Os14  1  0.115642  0.750000  0.962409  1
  Os  Os15  1  0.619392  0.750000  0.541161  1
