# generated using pymatgen
data_Ac2Tm3Sn4
_symmetry_space_group_name_H-M   'P 1'
_cell_length_a   8.30120300
_cell_length_b   8.39856300
_cell_length_c   15.88273900
_cell_angle_alpha   90.00000000
_cell_angle_beta   90.00000000
_cell_angle_gamma   90.00000000
_symmetry_Int_Tables_number   1
_chemical_formula_structural   Ac2Tm3Sn4
_chemical_formula_sum   'Ac8 Tm12 Sn16'
_cell_volume   1107.31559886
_cell_formula_units_Z   4
loop_
 _symmetry_equiv_pos_site_id
 _symmetry_equiv_pos_as_xyz
  1  'x, y, z'
loop_
 _atom_site_type_symbol
 _atom_site_label
 _atom_site_symmetry_multiplicity
 _atom_site_fract_x
 _atom_site_fract_y
 _atom_site_fract_z
 _atom_site_occupancy
  Ac  Ac0  1  0.514150  0.324467  0.904958  1
  Ac  Ac1  1  0.014150  0.175533  0.595042  1
  Ac  Ac2  1  0.485850  0.675533  0.404958  1
  Ac  Ac3  1  0.985850  0.824467  0.095042  1
  Ac  Ac4  1  0.485850  0.675533  0.095042  1
  Ac  Ac5  1  0.985850  0.824467  0.404958  1
  Ac  Ac6  1  0.514150  0.324467  0.595042  1
  Ac  Ac7  1  0.014150  0.175533  0.904958  1
  Tm  Tm8  1  0.356948  0.838807  0.875138  1
  Tm  Tm9  1  0.856948  0.661193  0.624862  1
  Tm  Tm10  1  0.643052  0.161193  0.375138  1
  Tm  Tm11  1  0.143052  0.338807  0.124862  1
  Tm  Tm12  1  0.643052  0.161193  0.124862  1
  Tm  Tm13  1  0.143052  0.338807  0.375138  1
  Tm  Tm14  1  0.356948  0.838807  0.624862  1
  Tm  Tm15  1  0.856948  0.661193  0.875138  1
  Tm  Tm16  1  0.192171  0.506592  0.750000  1
  Tm  Tm17  1  0.692171  0.993408  0.750000  1
  Tm  Tm18  1  0.807829  0.493408  0.250000  1
  Tm  Tm19  1  0.307829  0.006592  0.250000  1
  Sn  Sn20  1  0.313132  0.047383  0.045270  1
  Sn  Sn21  1  0.813132  0.452617  0.454730  1
  Sn  Sn22  1  0.686868  0.952617  0.545270  1
  Sn  Sn23  1  0.186868  0.547383  0.954730  1
  Sn  Sn24  1  0.686868  0.952617  0.954730  1
  Sn  Sn25  1  0.186868  0.547383  0.545270  1
  Sn  Sn26  1  0.313132  0.047383  0.454730  1
  Sn  Sn27  1  0.813132  0.452617  0.045270  1
  Sn  Sn28  1  0.555401  0.634112  0.750000  1
  Sn  Sn29  1  0.055401  0.865888  0.750000  1
  Sn  Sn30  1  0.444599  0.365888  0.250000  1
  Sn  Sn31  1  0.944599  0.134112  0.250000  1
  Sn  Sn32  1  0.323175  0.135801  0.750000  1
  Sn  Sn33  1  0.823175  0.364199  0.750000  1
  Sn  Sn34  1  0.676825  0.864199  0.250000  1
  Sn  Sn35  1  0.176825  0.635801  0.250000  1
