# generated using pymatgen
data_Dy4Y2TcB14Ru
_symmetry_space_group_name_H-M   'P 1'
_cell_length_a   8.09824900
_cell_length_b   8.09824809
_cell_length_c   9.36597100
_cell_angle_alpha   90.00000000
_cell_angle_beta   90.00000000
_cell_angle_gamma   154.73764364
_symmetry_Int_Tables_number   1
_chemical_formula_structural   Dy4Y2TcB14Ru
_chemical_formula_sum   'Dy4 Y2 Tc1 B14 Ru1'
_cell_volume   262.13352609
_cell_formula_units_Z   1
loop_
 _symmetry_equiv_pos_site_id
 _symmetry_equiv_pos_as_xyz
  1  'x, y, z'
loop_
 _atom_site_type_symbol
 _atom_site_label
 _atom_site_symmetry_multiplicity
 _atom_site_fract_x
 _atom_site_fract_y
 _atom_site_fract_z
 _atom_site_occupancy
  Dy  Dy0  1  0.894850  0.105150  0.438733  1
  Dy  Dy1  1  0.105219  0.894781  0.559577  1
  Dy  Dy2  1  0.894850  0.105150  0.061267  1
  Dy  Dy3  1  0.105219  0.894781  0.940423  1
  Y  Y4  1  0.242564  0.757436  0.250000  1
  Y  Y5  1  0.756938  0.243062  0.750000  1
  Tc  Tc6  1  0.053073  0.946927  0.250000  1
  B  B7  1  0.727254  0.272746  0.466471  1
  B  B8  1  0.273151  0.726849  0.534416  1
  B  B9  1  0.727254  0.272746  0.033529  1
  B  B10  1  0.273151  0.726849  0.965584  1
  B  B11  1  0.631668  0.368332  0.151114  1
  B  B12  1  0.368807  0.631193  0.848617  1
  B  B13  1  0.631668  0.368332  0.348886  1
  B  B14  1  0.368807  0.631193  0.651383  1
  B  B15  1  0.520748  0.479252  0.095952  1
  B  B16  1  0.479277  0.520723  0.903404  1
  B  B17  1  0.520748  0.479252  0.404048  1
  B  B18  1  0.479277  0.520723  0.596596  1
  B  B19  1  0.457378  0.542622  0.250000  1
  B  B20  1  0.542119  0.457881  0.750000  1
  Ru  Ru21  1  0.945980  0.054020  0.750000  1
