# generated using pymatgen
data_Dy12Co4OsPb
_symmetry_space_group_name_H-M   'P 1'
_cell_length_a   8.31725334
_cell_length_b   8.31725354
_cell_length_c   8.31725397
_cell_angle_alpha   111.51271232
_cell_angle_beta   110.48408445
_cell_angle_gamma   106.45996079
_symmetry_Int_Tables_number   1
_chemical_formula_structural   Dy12Co4OsPb
_chemical_formula_sum   'Dy12 Co4 Os1 Pb1'
_cell_volume   441.96336475
_cell_formula_units_Z   1
loop_
 _symmetry_equiv_pos_site_id
 _symmetry_equiv_pos_as_xyz
  1  'x, y, z'
loop_
 _atom_site_type_symbol
 _atom_site_label
 _atom_site_symmetry_multiplicity
 _atom_site_fract_x
 _atom_site_fract_y
 _atom_site_fract_z
 _atom_site_occupancy
  Dy  Dy0  1  0.411238  0.216892  0.194347  1
  Dy  Dy1  1  0.588762  0.783108  0.805653  1
  Dy  Dy2  1  0.022547  0.216892  0.805653  1
  Dy  Dy3  1  0.977453  0.783108  0.194347  1
  Dy  Dy4  1  0.180774  0.281592  0.462365  1
  Dy  Dy5  1  0.819226  0.718408  0.537635  1
  Dy  Dy6  1  0.180774  0.718408  0.899183  1
  Dy  Dy7  1  0.819226  0.281592  0.100817  1
  Dy  Dy8  1  0.313750  0.621924  0.308174  1
  Dy  Dy9  1  0.686250  0.378076  0.691826  1
  Dy  Dy10  1  0.313750  0.005575  0.691826  1
  Dy  Dy11  1  0.686250  0.994425  0.308174  1
  Co  Co12  1  0.377471  0.000000  0.377471  1
  Co  Co13  1  0.622529  0.000000  0.622529  1
  Co  Co14  1  0.110981  0.610981  0.500000  1
  Co  Co15  1  0.889019  0.389019  0.500000  1
  Os  Os16  1  0.000000  0.000000  0.000000  1
  Pb  Pb17  1  0.500000  0.500000  0.000000  1
