# generated using pymatgen
data_Tb4Er3FeBr12
_symmetry_space_group_name_H-M   'P 1'
_cell_length_a   9.15265098
_cell_length_b   9.24837363
_cell_length_c   9.25595650
_cell_angle_alpha   107.06973044
_cell_angle_beta   106.94513314
_cell_angle_gamma   106.63877287
_symmetry_Int_Tables_number   1
_chemical_formula_structural   Tb4Er3FeBr12
_chemical_formula_sum   'Tb4 Er3 Fe1 Br12'
_cell_volume   654.53469991
_cell_formula_units_Z   1
loop_
 _symmetry_equiv_pos_site_id
 _symmetry_equiv_pos_as_xyz
  1  'x, y, z'
loop_
 _atom_site_type_symbol
 _atom_site_label
 _atom_site_symmetry_multiplicity
 _atom_site_fract_x
 _atom_site_fract_y
 _atom_site_fract_z
 _atom_site_occupancy
  Tb  Tb0  1  0.293878  0.020581  0.095874  1
  Tb  Tb1  1  0.901344  0.693892  0.978511  1
  Tb  Tb2  1  0.980361  0.901095  0.693930  1
  Tb  Tb3  1  0.707265  0.979465  0.906504  1
  Er  Er4  1  0.498889  0.500894  0.499961  1
  Er  Er5  1  0.097334  0.300742  0.020769  1
  Er  Er6  1  0.020734  0.099075  0.301921  1
  Fe  Fe7  1  0.000601  0.999232  0.999877  1
  Br  Br8  1  0.460072  0.385955  0.169756  1
  Br  Br9  1  0.166674  0.462281  0.384211  1
  Br  Br10  1  0.383563  0.170945  0.461828  1
  Br  Br11  1  0.535996  0.614218  0.829487  1
  Br  Br12  1  0.829683  0.534856  0.611790  1
  Br  Br13  1  0.614001  0.830666  0.539313  1
  Br  Br14  1  0.780453  0.319282  0.928664  1
  Br  Br15  1  0.929759  0.782593  0.321933  1
  Br  Br16  1  0.323339  0.931882  0.781162  1
  Br  Br17  1  0.222633  0.677542  0.071357  1
  Br  Br18  1  0.070879  0.222920  0.679309  1
  Br  Br19  1  0.682543  0.071883  0.223843  1
