# generated using pymatgen
data_TbHo3Er4(ReC2)4
_symmetry_space_group_name_H-M   'P 1'
_cell_length_a   5.08098200
_cell_length_b   6.57055401
_cell_length_c   9.82186401
_cell_angle_alpha   90.08965747
_cell_angle_beta   90.00000000
_cell_angle_gamma   90.00000000
_symmetry_Int_Tables_number   1
_chemical_formula_structural   TbHo3Er4(ReC2)4
_chemical_formula_sum   'Tb1 Ho3 Er4 Re4 C8'
_cell_volume   327.90121875
_cell_formula_units_Z   1
loop_
 _symmetry_equiv_pos_site_id
 _symmetry_equiv_pos_as_xyz
  1  'x, y, z'
loop_
 _atom_site_type_symbol
 _atom_site_label
 _atom_site_symmetry_multiplicity
 _atom_site_fract_x
 _atom_site_fract_y
 _atom_site_fract_z
 _atom_site_occupancy
  Tb  Tb0  1  0.250000  0.532745  0.215343  1
  Ho  Ho1  1  0.750000  0.466923  0.784230  1
  Ho  Ho2  1  0.250000  0.032930  0.284287  1
  Ho  Ho3  1  0.750000  0.966952  0.715895  1
  Er  Er4  1  0.750000  0.822249  0.056839  1
  Er  Er5  1  0.250000  0.677933  0.557146  1
  Er  Er6  1  0.750000  0.321825  0.443149  1
  Er  Er7  1  0.250000  0.178088  0.942817  1
  Re  Re8  1  0.750000  0.278055  0.133442  1
  Re  Re9  1  0.250000  0.221319  0.633621  1
  Re  Re10  1  0.750000  0.778681  0.366717  1
  Re  Re11  1  0.250000  0.721757  0.866391  1
  C  C12  1  0.750000  0.174745  0.949580  1
  C  C13  1  0.250000  0.826636  0.049728  1
  C  C14  1  0.750000  0.674885  0.550357  1
  C  C15  1  0.250000  0.324609  0.450129  1
  C  C16  1  0.750000  0.045755  0.259618  1
  C  C17  1  0.250000  0.454035  0.759608  1
  C  C18  1  0.750000  0.545819  0.240735  1
  C  C19  1  0.250000  0.954058  0.740368  1
