# generated using pymatgen
data_Na2Ga2Sb3
_symmetry_space_group_name_H-M   'P 1'
_cell_length_a   14.13909331
_cell_length_b   7.23511600
_cell_length_c   15.43416100
_cell_angle_alpha   90.00000000
_cell_angle_beta   90.34432154
_cell_angle_gamma   90.00000000
_symmetry_Int_Tables_number   1
_chemical_formula_structural   Na2Ga2Sb3
_chemical_formula_sum   'Na16 Ga16 Sb24'
_cell_volume   1578.85498694
_cell_formula_units_Z   8
loop_
 _symmetry_equiv_pos_site_id
 _symmetry_equiv_pos_as_xyz
  1  'x, y, z'
loop_
 _atom_site_type_symbol
 _atom_site_label
 _atom_site_symmetry_multiplicity
 _atom_site_fract_x
 _atom_site_fract_y
 _atom_site_fract_z
 _atom_site_occupancy
  Na  Na0  1  0.863065  0.041923  0.012064  1
  Na  Na1  1  0.650607  0.563028  0.021184  1
  Na  Na2  1  0.561073  0.062032  0.098815  1
  Na  Na3  1  0.921299  0.538300  0.114802  1
  Na  Na4  1  0.078700  0.038300  0.385198  1
  Na  Na5  1  0.438927  0.562033  0.401184  1
  Na  Na6  1  0.349393  0.063029  0.478816  1
  Na  Na7  1  0.136935  0.541923  0.487935  1
  Na  Na8  1  0.863064  0.458078  0.512064  1
  Na  Na9  1  0.650607  0.936971  0.521184  1
  Na  Na10  1  0.561073  0.437968  0.598815  1
  Na  Na11  1  0.921299  0.961699  0.614802  1
  Na  Na12  1  0.078700  0.461699  0.885198  1
  Na  Na13  1  0.438927  0.937968  0.901185  1
  Na  Na14  1  0.349393  0.436971  0.978816  1
  Na  Na15  1  0.136936  0.958078  0.987936  1
  Ga  Ga16  1  0.315825  0.712268  0.154645  1
  Ga  Ga17  1  0.184239  0.235768  0.165172  1
  Ga  Ga18  1  0.090481  0.714472  0.228629  1
  Ga  Ga19  1  0.411886  0.229502  0.241593  1
  Ga  Ga20  1  0.588114  0.729503  0.258407  1
  Ga  Ga21  1  0.909519  0.214472  0.271372  1
  Ga  Ga22  1  0.815760  0.735768  0.334829  1
  Ga  Ga23  1  0.684175  0.212267  0.345355  1
  Ga  Ga24  1  0.315825  0.787733  0.654644  1
  Ga  Ga25  1  0.184239  0.264231  0.665172  1
  Ga  Ga26  1  0.090481  0.785527  0.728628  1
  Ga  Ga27  1  0.411886  0.270496  0.741593  1
  Ga  Ga28  1  0.588114  0.770497  0.758407  1
  Ga  Ga29  1  0.909519  0.285529  0.771372  1
  Ga  Ga30  1  0.815760  0.764232  0.834829  1
  Ga  Ga31  1  0.684175  0.287733  0.845356  1
  Sb  Sb32  1  0.155115  0.554333  0.080118  1
  Sb  Sb33  1  0.339276  0.057657  0.096167  1
  Sb  Sb34  1  0.480892  0.517932  0.152382  1
  Sb  Sb35  1  0.023689  0.032207  0.162858  1
  Sb  Sb36  1  0.751441  0.825545  0.172276  1
  Sb  Sb37  1  0.744909  0.227894  0.180013  1
  Sb  Sb38  1  0.255091  0.727894  0.319987  1
  Sb  Sb39  1  0.248559  0.325545  0.327724  1
  Sb  Sb40  1  0.976311  0.532207  0.337143  1
  Sb  Sb41  1  0.519107  0.017932  0.347619  1
  Sb  Sb42  1  0.660725  0.557658  0.403833  1
  Sb  Sb43  1  0.844885  0.054333  0.419882  1
  Sb  Sb44  1  0.155115  0.945668  0.580118  1
  Sb  Sb45  1  0.339276  0.442342  0.596168  1
  Sb  Sb46  1  0.480892  0.982069  0.652381  1
  Sb  Sb47  1  0.023689  0.467792  0.662858  1
  Sb  Sb48  1  0.751441  0.674454  0.672276  1
  Sb  Sb49  1  0.744910  0.272106  0.680013  1
  Sb  Sb50  1  0.255091  0.772106  0.819987  1
  Sb  Sb51  1  0.248559  0.174454  0.827724  1
  Sb  Sb52  1  0.976311  0.967792  0.837143  1
  Sb  Sb53  1  0.519107  0.482068  0.847619  1
  Sb  Sb54  1  0.660725  0.942342  0.903832  1
  Sb  Sb55  1  0.844885  0.445667  0.919882  1
