# generated using pymatgen
data_LaYb2ThPd4
_symmetry_space_group_name_H-M   'P 1'
_cell_length_a   4.57561000
_cell_length_b   5.71748712
_cell_length_c   7.31397674
_cell_angle_alpha   91.04168921
_cell_angle_beta   90.00000000
_cell_angle_gamma   90.00000000
_symmetry_Int_Tables_number   1
_chemical_formula_structural   LaYb2ThPd4
_chemical_formula_sum   'La1 Yb2 Th1 Pd4'
_cell_volume   191.30925876
_cell_formula_units_Z   1
loop_
 _symmetry_equiv_pos_site_id
 _symmetry_equiv_pos_as_xyz
  1  'x, y, z'
loop_
 _atom_site_type_symbol
 _atom_site_label
 _atom_site_symmetry_multiplicity
 _atom_site_fract_x
 _atom_site_fract_y
 _atom_site_fract_z
 _atom_site_occupancy
  La  La0  1  0.250000  0.139483  0.181165  1
  Yb  Yb1  1  0.750000  0.642660  0.317894  1
  Yb  Yb2  1  0.750000  0.857322  0.817088  1
  Th  Th3  1  0.250000  0.361174  0.682312  1
  Pd  Pd4  1  0.250000  0.840318  0.548351  1
  Pd  Pd5  1  0.250000  0.649013  0.037761  1
  Pd  Pd6  1  0.750000  0.153992  0.470454  1
  Pd  Pd7  1  0.750000  0.356037  0.944973  1
