# generated using pymatgen
data_Ho2TmSn3IrRh2
_symmetry_space_group_name_H-M   'P 1'
_cell_length_a   7.67741008
_cell_length_b   7.67047183
_cell_length_c   3.69664800
_cell_angle_alpha   90.00000000
_cell_angle_beta   90.00000000
_cell_angle_gamma   120.04666254
_symmetry_Int_Tables_number   1
_chemical_formula_structural   Ho2TmSn3IrRh2
_chemical_formula_sum   'Ho2 Tm1 Sn3 Ir1 Rh2'
_cell_volume   188.43915563
_cell_formula_units_Z   1
loop_
 _symmetry_equiv_pos_site_id
 _symmetry_equiv_pos_as_xyz
  1  'x, y, z'
loop_
 _atom_site_type_symbol
 _atom_site_label
 _atom_site_symmetry_multiplicity
 _atom_site_fract_x
 _atom_site_fract_y
 _atom_site_fract_z
 _atom_site_occupancy
  Ho  Ho0  1  0.997992  0.402139  0.000000  1
  Ho  Ho1  1  0.597900  0.595820  0.000000  1
  Tm  Tm2  1  0.404107  0.002207  0.000000  1
  Sn  Sn3  1  0.265467  0.266618  0.500000  1
  Sn  Sn4  1  0.002979  0.735460  0.500000  1
  Sn  Sn5  1  0.731974  0.997953  0.500000  1
  Ir  Ir6  1  0.665809  0.332278  0.500000  1
  Rh  Rh7  1  0.333512  0.667515  0.500000  1
  Rh  Rh8  1  0.000260  0.000010  0.000000  1
