# generated using pymatgen
data_NaBe(Cu2Si)4
_symmetry_space_group_name_H-M   'P 1'
_cell_length_a   8.08746501
_cell_length_b   8.08746517
_cell_length_c   8.08746424
_cell_angle_alpha   120.67977694
_cell_angle_beta   120.67977721
_cell_angle_gamma   88.82656922
_symmetry_Int_Tables_number   1
_chemical_formula_structural   NaBe(Cu2Si)4
_chemical_formula_sum   'Na2 Be2 Cu16 Si8'
_cell_volume   370.11616231
_cell_formula_units_Z   2
loop_
 _symmetry_equiv_pos_site_id
 _symmetry_equiv_pos_as_xyz
  1  'x, y, z'
loop_
 _atom_site_type_symbol
 _atom_site_label
 _atom_site_symmetry_multiplicity
 _atom_site_fract_x
 _atom_site_fract_y
 _atom_site_fract_z
 _atom_site_occupancy
  Na  Na0  1  0.250000  0.250000  0.000000  1
  Na  Na1  1  0.750000  0.750000  0.000000  1
  Be  Be2  1  0.500000  0.000000  0.500000  1
  Be  Be3  1  0.000000  0.500000  0.500000  1
  Cu  Cu4  1  0.941905  0.210461  0.152366  1
  Cu  Cu5  1  0.210461  0.058095  0.268556  1
  Cu  Cu6  1  0.789539  0.941905  0.731444  1
  Cu  Cu7  1  0.441905  0.289539  0.731444  1
  Cu  Cu8  1  0.058095  0.789539  0.847634  1
  Cu  Cu9  1  0.801004  0.059372  0.500000  1
  Cu  Cu10  1  0.559372  0.301004  0.500000  1
  Cu  Cu11  1  0.198996  0.940628  0.500000  1
  Cu  Cu12  1  0.440628  0.698996  0.500000  1
  Cu  Cu13  1  0.940628  0.440628  0.741631  1
  Cu  Cu14  1  0.698996  0.198996  0.258369  1
  Cu  Cu15  1  0.059372  0.559372  0.258369  1
  Cu  Cu16  1  0.710461  0.441905  0.152366  1
  Cu  Cu17  1  0.558095  0.710461  0.268556  1
  Cu  Cu18  1  0.301004  0.801004  0.741631  1
  Cu  Cu19  1  0.289539  0.558095  0.847634  1
  Si  Si20  1  0.792955  0.292955  0.854410  1
  Si  Si21  1  0.561455  0.061455  0.854410  1
  Si  Si22  1  0.061455  0.207045  0.500000  1
  Si  Si23  1  0.292955  0.438545  0.500000  1
  Si  Si24  1  0.938545  0.792955  0.500000  1
  Si  Si25  1  0.438545  0.938545  0.145590  1
  Si  Si26  1  0.207045  0.707045  0.145590  1
  Si  Si27  1  0.707045  0.561455  0.500000  1
