# generated using pymatgen
data_La8YbIr5Pd
_symmetry_space_group_name_H-M   'P 1'
_cell_length_a   7.80850638
_cell_length_b   7.82824980
_cell_length_c   7.79507639
_cell_angle_alpha   69.74316589
_cell_angle_beta   69.93281755
_cell_angle_gamma   69.37664658
_symmetry_Int_Tables_number   1
_chemical_formula_structural   La8YbIr5Pd
_chemical_formula_sum   'La8 Yb1 Ir5 Pd1'
_cell_volume   404.88097472
_cell_formula_units_Z   1
loop_
 _symmetry_equiv_pos_site_id
 _symmetry_equiv_pos_as_xyz
  1  'x, y, z'
loop_
 _atom_site_type_symbol
 _atom_site_label
 _atom_site_symmetry_multiplicity
 _atom_site_fract_x
 _atom_site_fract_y
 _atom_site_fract_z
 _atom_site_occupancy
  La  La0  1  0.802298  0.800774  0.808673  1
  La  La1  1  0.194550  0.193506  0.187681  1
  La  La2  1  0.151989  0.394276  0.681268  1
  La  La3  1  0.672387  0.146061  0.385517  1
  La  La4  1  0.387543  0.678931  0.149968  1
  La  La5  1  0.853566  0.617915  0.318039  1
  La  La6  1  0.328617  0.845348  0.611865  1
  La  La7  1  0.603026  0.324386  0.861522  1
  Yb  Yb8  1  0.000546  0.000658  0.999600  1
  Ir  Ir9  1  0.584161  0.954293  0.174245  1
  Ir  Ir10  1  0.180819  0.583406  0.952017  1
  Ir  Ir11  1  0.047344  0.824421  0.417934  1
  Ir  Ir12  1  0.416153  0.050016  0.819464  1
  Ir  Ir13  1  0.823018  0.413746  0.048498  1
  Pd  Pd14  1  0.953982  0.172263  0.583708  1
