# generated using pymatgen
data_Ba6Lu(IrO6)2
_symmetry_space_group_name_H-M   'P 1'
_cell_length_a   9.21503753
_cell_length_b   9.21503716
_cell_length_c   7.42092175
_cell_angle_alpha   68.09477363
_cell_angle_beta   68.09477754
_cell_angle_gamma   36.88147506
_symmetry_Int_Tables_number   1
_chemical_formula_structural   Ba6Lu(IrO6)2
_chemical_formula_sum   'Ba6 Lu1 Ir2 O12'
_cell_volume   347.72543247
_cell_formula_units_Z   1
loop_
 _symmetry_equiv_pos_site_id
 _symmetry_equiv_pos_as_xyz
  1  'x, y, z'
loop_
 _atom_site_type_symbol
 _atom_site_label
 _atom_site_symmetry_multiplicity
 _atom_site_fract_x
 _atom_site_fract_y
 _atom_site_fract_z
 _atom_site_occupancy
  Ba  Ba0  1  0.881667  0.881667  0.709161  1
  Ba  Ba1  1  0.215385  0.215385  0.707435  1
  Ba  Ba2  1  0.548769  0.548769  0.706402  1
  Ba  Ba3  1  0.451231  0.451231  0.293598  1
  Ba  Ba4  1  0.784615  0.784615  0.292565  1
  Ba  Ba5  1  0.118333  0.118333  0.290839  1
  Lu  Lu6  1  0.000000  0.000000  0.000000  1
  Ir  Ir7  1  0.669590  0.669590  0.999486  1
  Ir  Ir8  1  0.330410  0.330410  0.000514  1
  O  O9  1  0.944404  0.944404  0.324644  1
  O  O10  1  0.282090  0.282090  0.305929  1
  O  O11  1  0.616917  0.616917  0.303932  1
  O  O12  1  0.383083  0.383083  0.696068  1
  O  O13  1  0.717910  0.717910  0.694071  1
  O  O14  1  0.055596  0.055596  0.675356  1
  O  O15  1  0.500000  0.000000  0.000000  1
  O  O16  1  0.825632  0.351319  0.998994  1
  O  O17  1  0.174368  0.648681  0.001006  1
  O  O18  1  0.000000  0.500000  0.000000  1
  O  O19  1  0.351319  0.825632  0.998994  1
  O  O20  1  0.648681  0.174368  0.001006  1
