# generated using pymatgen
data_Tm2Lu2Rh2Pb5
_symmetry_space_group_name_H-M   'P 1'
_cell_length_a   8.14564293
_cell_length_b   3.50312600
_cell_length_c   9.83065421
_cell_angle_alpha   90.00000000
_cell_angle_beta   93.79429374
_cell_angle_gamma   90.00000000
_symmetry_Int_Tables_number   1
_chemical_formula_structural   Tm2Lu2Rh2Pb5
_chemical_formula_sum   'Tm2 Lu2 Rh2 Pb5'
_cell_volume   279.90493574
_cell_formula_units_Z   1
loop_
 _symmetry_equiv_pos_site_id
 _symmetry_equiv_pos_as_xyz
  1  'x, y, z'
loop_
 _atom_site_type_symbol
 _atom_site_label
 _atom_site_symmetry_multiplicity
 _atom_site_fract_x
 _atom_site_fract_y
 _atom_site_fract_z
 _atom_site_occupancy
  Tm  Tm0  1  0.301874  0.500000  0.565424  1
  Tm  Tm1  1  0.693781  0.500000  0.840829  1
  Lu  Lu2  1  0.306545  0.500000  0.159718  1
  Lu  Lu3  1  0.697178  0.500000  0.434894  1
  Rh  Rh4  1  0.419194  0.000000  0.362092  1
  Rh  Rh5  1  0.581495  0.000000  0.636695  1
  Pb  Pb6  1  0.000442  0.000000  0.000207  1
  Pb  Pb7  1  0.646045  0.000000  0.137344  1
  Pb  Pb8  1  0.040118  0.000000  0.335701  1
  Pb  Pb9  1  0.959749  0.000000  0.664040  1
  Pb  Pb10  1  0.353581  0.000000  0.863057  1
