# generated using pymatgen
data_K9Rb3(VSe4)4
_symmetry_space_group_name_H-M   'P 1'
_cell_length_a   9.77462006
_cell_length_b   9.86665461
_cell_length_c   11.01172100
_cell_angle_alpha   90.00000000
_cell_angle_beta   90.00000000
_cell_angle_gamma   89.65550551
_symmetry_Int_Tables_number   1
_chemical_formula_structural   K9Rb3(VSe4)4
_chemical_formula_sum   'K9 Rb3 V4 Se16'
_cell_volume   1061.98201137
_cell_formula_units_Z   1
loop_
 _symmetry_equiv_pos_site_id
 _symmetry_equiv_pos_as_xyz
  1  'x, y, z'
loop_
 _atom_site_type_symbol
 _atom_site_label
 _atom_site_symmetry_multiplicity
 _atom_site_fract_x
 _atom_site_fract_y
 _atom_site_fract_z
 _atom_site_occupancy
  K  K0  1  0.874770  0.923395  0.250000  1
  K  K1  1  0.555731  0.203653  0.048437  1
  K  K2  1  0.054738  0.295924  0.453169  1
  K  K3  1  0.445726  0.793915  0.547841  1
  K  K4  1  0.943540  0.705220  0.953798  1
  K  K5  1  0.445726  0.793915  0.952159  1
  K  K6  1  0.943540  0.705220  0.546202  1
  K  K7  1  0.555731  0.203653  0.451563  1
  K  K8  1  0.054738  0.295924  0.046831  1
  Rb  Rb9  1  0.638549  0.410380  0.750000  1
  Rb  Rb10  1  0.138633  0.087738  0.750000  1
  Rb  Rb11  1  0.357123  0.589812  0.250000  1
  V  V12  1  0.715847  0.981177  0.750000  1
  V  V13  1  0.214080  0.517376  0.750000  1
  V  V14  1  0.286680  0.017094  0.250000  1
  V  V15  1  0.782290  0.482625  0.250000  1
  Se  Se16  1  0.830608  0.045472  0.577940  1
  Se  Se17  1  0.329475  0.452063  0.921822  1
  Se  Se18  1  0.170758  0.951970  0.078910  1
  Se  Se19  1  0.666170  0.544087  0.422265  1
  Se  Se20  1  0.170758  0.951970  0.421090  1
  Se  Se21  1  0.666170  0.544087  0.077735  1
  Se  Se22  1  0.830608  0.045472  0.922060  1
  Se  Se23  1  0.329475  0.452063  0.578178  1
  Se  Se24  1  0.695220  0.749644  0.750000  1
  Se  Se25  1  0.193371  0.749155  0.750000  1
  Se  Se26  1  0.304514  0.248966  0.250000  1
  Se  Se27  1  0.808580  0.250520  0.250000  1
  Se  Se28  1  0.499563  0.075398  0.750000  1
  Se  Se29  1  0.998416  0.424001  0.750000  1
  Se  Se30  1  0.503987  0.924384  0.250000  1
  Se  Se31  1  0.994887  0.583725  0.250000  1
