# generated using pymatgen
data_Zr16Ir3Pd5C4
_symmetry_space_group_name_H-M   'P 1'
_cell_length_a   8.90157112
_cell_length_b   8.92664600
_cell_length_c   8.92664600
_cell_angle_alpha   59.99999999
_cell_angle_beta   59.90677371
_cell_angle_gamma   59.90677992
_symmetry_Int_Tables_number   1
_chemical_formula_structural   Zr16Ir3Pd5C4
_chemical_formula_sum   'Zr16 Ir3 Pd5 C4'
_cell_volume   500.85833261
_cell_formula_units_Z   1
loop_
 _symmetry_equiv_pos_site_id
 _symmetry_equiv_pos_as_xyz
  1  'x, y, z'
loop_
 _atom_site_type_symbol
 _atom_site_label
 _atom_site_symmetry_multiplicity
 _atom_site_fract_x
 _atom_site_fract_y
 _atom_site_fract_z
 _atom_site_occupancy
  Zr  Zr0  1  0.110386  0.629871  0.629871  1
  Zr  Zr1  1  0.630964  0.115396  0.626819  1
  Zr  Zr2  1  0.630964  0.626819  0.115396  1
  Zr  Zr3  1  0.630964  0.626819  0.626819  1
  Zr  Zr4  1  0.816775  0.817167  0.183029  1
  Zr  Zr5  1  0.177509  0.186153  0.818169  1
  Zr  Zr6  1  0.816775  0.183029  0.817167  1
  Zr  Zr7  1  0.177509  0.818169  0.186153  1
  Zr  Zr8  1  0.177509  0.818169  0.818169  1
  Zr  Zr9  1  0.816775  0.183029  0.183029  1
  Zr  Zr10  1  0.434046  0.432349  0.066803  1
  Zr  Zr11  1  0.066291  0.066208  0.433750  1
  Zr  Zr12  1  0.434046  0.066803  0.432349  1
  Zr  Zr13  1  0.066291  0.433750  0.066208  1
  Zr  Zr14  1  0.066291  0.433750  0.433750  1
  Zr  Zr15  1  0.434046  0.066803  0.066803  1
  Ir  Ir16  1  0.841644  0.471948  0.843204  1
  Ir  Ir17  1  0.841644  0.843204  0.471948  1
  Ir  Ir18  1  0.841644  0.843204  0.843204  1
  Pd  Pd19  1  0.761075  0.412975  0.412975  1
  Pd  Pd20  1  0.414019  0.759358  0.413312  1
  Pd  Pd21  1  0.414019  0.413312  0.759358  1
  Pd  Pd22  1  0.414019  0.413312  0.413312  1
  Pd  Pd23  1  0.481200  0.839599  0.839599  1
  C  C24  1  0.622172  0.125943  0.125943  1
  C  C25  1  0.127141  0.623179  0.124841  1
  C  C26  1  0.127141  0.124841  0.623179  1
  C  C27  1  0.127141  0.124841  0.124841  1
