# generated using pymatgen
data_LaPd2(SO4)4
_symmetry_space_group_name_H-M   'P 1'
_cell_length_a   6.50947174
_cell_length_b   6.50947152
_cell_length_c   8.93658946
_cell_angle_alpha   74.26406812
_cell_angle_beta   74.26406894
_cell_angle_gamma   88.85974067
_symmetry_Int_Tables_number   1
_chemical_formula_structural   LaPd2(SO4)4
_chemical_formula_sum   'La1 Pd2 S4 O16'
_cell_volume   350.23134640
_cell_formula_units_Z   1
loop_
 _symmetry_equiv_pos_site_id
 _symmetry_equiv_pos_as_xyz
  1  'x, y, z'
loop_
 _atom_site_type_symbol
 _atom_site_label
 _atom_site_symmetry_multiplicity
 _atom_site_fract_x
 _atom_site_fract_y
 _atom_site_fract_z
 _atom_site_occupancy
  La  La0  1  0.000000  0.000000  0.000000  1
  Pd  Pd1  1  0.000000  0.000000  0.500000  1
  Pd  Pd2  1  0.500000  0.500000  0.500000  1
  S  S3  1  0.087335  0.591217  0.738275  1
  S  S4  1  0.591217  0.087335  0.738275  1
  S  S5  1  0.912665  0.408783  0.261725  1
  S  S6  1  0.408783  0.912665  0.261725  1
  O  O7  1  0.327960  0.632173  0.670141  1
  O  O8  1  0.632173  0.327960  0.670141  1
  O  O9  1  0.672040  0.367827  0.329859  1
  O  O10  1  0.367827  0.672040  0.329859  1
  O  O11  1  0.021075  0.704034  0.863185  1
  O  O12  1  0.704034  0.021075  0.863185  1
  O  O13  1  0.978925  0.295966  0.136815  1
  O  O14  1  0.295966  0.978925  0.136815  1
  O  O15  1  0.986937  0.681016  0.600490  1
  O  O16  1  0.681016  0.986937  0.600490  1
  O  O17  1  0.013063  0.318984  0.399510  1
  O  O18  1  0.318984  0.013063  0.399510  1
  O  O19  1  0.028351  0.361367  0.797208  1
  O  O20  1  0.361367  0.028351  0.797208  1
  O  O21  1  0.971649  0.638633  0.202792  1
  O  O22  1  0.638633  0.971649  0.202792  1
