# generated using pymatgen
data_Ti8Cu3PtO2
_symmetry_space_group_name_H-M   'P 1'
_cell_length_a   8.18588970
_cell_length_b   8.14609246
_cell_length_c   8.14609257
_cell_angle_alpha   59.93001535
_cell_angle_beta   59.83825490
_cell_angle_gamma   59.83825519
_symmetry_Int_Tables_number   1
_chemical_formula_structural   Ti8Cu3PtO2
_chemical_formula_sum   'Ti16 Cu6 Pt2 O4'
_cell_volume   382.96084944
_cell_formula_units_Z   2
loop_
 _symmetry_equiv_pos_site_id
 _symmetry_equiv_pos_as_xyz
  1  'x, y, z'
loop_
 _atom_site_type_symbol
 _atom_site_label
 _atom_site_symmetry_multiplicity
 _atom_site_fract_x
 _atom_site_fract_y
 _atom_site_fract_z
 _atom_site_occupancy
  Ti  Ti0  1  0.820206  0.178144  0.820903  1
  Ti  Ti1  1  0.188515  0.817460  0.175790  1
  Ti  Ti2  1  0.431766  0.074210  0.432540  1
  Ti  Ti3  1  0.430900  0.076781  0.061418  1
  Ti  Ti4  1  0.071807  0.425939  0.430446  1
  Ti  Ti5  1  0.069253  0.429097  0.071856  1
  Ti  Ti6  1  0.180747  0.178144  0.820903  1
  Ti  Ti7  1  0.429794  0.429097  0.071856  1
  Ti  Ti8  1  0.125000  0.617398  0.632602  1
  Ti  Ti9  1  0.627581  0.621934  0.122903  1
  Ti  Ti10  1  0.625000  0.617398  0.632602  1
  Ti  Ti11  1  0.622419  0.127097  0.628066  1
  Ti  Ti12  1  0.178193  0.819554  0.824061  1
  Ti  Ti13  1  0.819100  0.188582  0.173219  1
  Ti  Ti14  1  0.061485  0.074210  0.432540  1
  Ti  Ti15  1  0.818234  0.817460  0.175790  1
  Cu  Cu16  1  0.833262  0.833909  0.834285  1
  Cu  Cu17  1  0.498543  0.833909  0.834285  1
  Cu  Cu18  1  0.416738  0.415715  0.416091  1
  Cu  Cu19  1  0.414443  0.415603  0.755512  1
  Cu  Cu20  1  0.835557  0.494488  0.834397  1
  Cu  Cu21  1  0.751457  0.415715  0.416091  1
  Pt  Pt22  1  0.410702  0.765163  0.413433  1
  Pt  Pt23  1  0.839298  0.836567  0.484837  1
  O  O24  1  0.124529  0.123667  0.627274  1
  O  O25  1  0.625000  0.125017  0.124983  1
  O  O26  1  0.125000  0.125017  0.124983  1
  O  O27  1  0.125471  0.622726  0.126333  1
