# generated using pymatgen
data_Zr4Pd7Pt4Rh
_symmetry_space_group_name_H-M   'P 1'
_cell_length_a   5.69167267
_cell_length_b   5.71294083
_cell_length_c   9.33569212
_cell_angle_alpha   90.37401935
_cell_angle_beta   90.12957927
_cell_angle_gamma   119.88570532
_symmetry_Int_Tables_number   1
_chemical_formula_structural   Zr4Pd7Pt4Rh
_chemical_formula_sum   'Zr4 Pd7 Pt4 Rh1'
_cell_volume   263.18297178
_cell_formula_units_Z   1
loop_
 _symmetry_equiv_pos_site_id
 _symmetry_equiv_pos_as_xyz
  1  'x, y, z'
loop_
 _atom_site_type_symbol
 _atom_site_label
 _atom_site_symmetry_multiplicity
 _atom_site_fract_x
 _atom_site_fract_y
 _atom_site_fract_z
 _atom_site_occupancy
  Zr  Zr0  1  0.999597  0.000540  0.499093  1
  Zr  Zr1  1  0.999264  0.000393  0.000837  1
  Zr  Zr2  1  0.336413  0.672052  0.254302  1
  Zr  Zr3  1  0.664519  0.327345  0.745521  1
  Pd  Pd4  1  0.499829  0.499929  0.999119  1
  Pd  Pd5  1  0.499680  0.000066  0.999660  1
  Pd  Pd6  1  0.830595  0.661939  0.248653  1
  Pd  Pd7  1  0.339909  0.171664  0.249168  1
  Pd  Pd8  1  0.169891  0.827587  0.751388  1
  Pd  Pd9  1  0.169523  0.337898  0.751272  1
  Pd  Pd10  1  0.660367  0.828672  0.750900  1
  Pt  Pt11  1  0.499856  0.500189  0.501008  1
  Pt  Pt12  1  0.999996  0.500456  0.500321  1
  Pt  Pt13  1  0.999675  0.499923  0.999774  1
  Pt  Pt14  1  0.830342  0.171022  0.248709  1
  Rh  Rh15  1  0.500543  0.000326  0.500273  1
