# generated using pymatgen
data_Ho2Al2Ag5
_symmetry_space_group_name_H-M   'P 1'
_cell_length_a   5.46083290
_cell_length_b   5.37395766
_cell_length_c   13.93518100
_cell_angle_alpha   90.00000000
_cell_angle_beta   90.00000000
_cell_angle_gamma   120.08409686
_symmetry_Int_Tables_number   1
_chemical_formula_structural   Ho2Al2Ag5
_chemical_formula_sum   'Ho4 Al4 Ag10'
_cell_volume   353.85694276
_cell_formula_units_Z   2
loop_
 _symmetry_equiv_pos_site_id
 _symmetry_equiv_pos_as_xyz
  1  'x, y, z'
loop_
 _atom_site_type_symbol
 _atom_site_label
 _atom_site_symmetry_multiplicity
 _atom_site_fract_x
 _atom_site_fract_y
 _atom_site_fract_z
 _atom_site_occupancy
  Ho  Ho0  1  0.818520  0.819736  0.115040  1
  Ho  Ho1  1  0.177907  0.176181  0.878178  1
  Ho  Ho2  1  0.818520  0.819736  0.384960  1
  Ho  Ho3  1  0.177907  0.176181  0.621822  1
  Al  Al4  1  0.172225  0.673286  0.750000  1
  Al  Al5  1  0.675817  0.173595  0.750000  1
  Al  Al6  1  0.675833  0.672932  0.750000  1
  Al  Al7  1  0.323979  0.832879  0.250000  1
  Ag  Ag8  1  0.167692  0.496896  0.072466  1
  Ag  Ag9  1  0.518425  0.839215  0.915284  1
  Ag  Ag10  1  0.478918  0.152698  0.073578  1
  Ag  Ag11  1  0.834641  0.509368  0.582219  1
  Ag  Ag12  1  0.478918  0.152698  0.426422  1
  Ag  Ag13  1  0.834641  0.509368  0.917781  1
  Ag  Ag14  1  0.829772  0.326793  0.250000  1
  Ag  Ag15  1  0.518425  0.839215  0.584716  1
  Ag  Ag16  1  0.167692  0.496896  0.427534  1
  Ag  Ag17  1  0.330170  0.332325  0.250000  1
