# generated using pymatgen
data_Y5Si6P6Ir19
_symmetry_space_group_name_H-M   'P 1'
_cell_length_a   12.80209200
_cell_length_b   12.80209173
_cell_length_c   3.95603400
_cell_angle_alpha   90.00000000
_cell_angle_beta   90.00000000
_cell_angle_gamma   120.00000588
_symmetry_Int_Tables_number   1
_chemical_formula_structural   Y5Si6P6Ir19
_chemical_formula_sum   'Y5 Si6 P6 Ir19'
_cell_volume   561.50354162
_cell_formula_units_Z   1
loop_
 _symmetry_equiv_pos_site_id
 _symmetry_equiv_pos_as_xyz
  1  'x, y, z'
loop_
 _atom_site_type_symbol
 _atom_site_label
 _atom_site_symmetry_multiplicity
 _atom_site_fract_x
 _atom_site_fract_y
 _atom_site_fract_z
 _atom_site_occupancy
  Y  Y0  1  0.666667  0.333333  0.000000  1
  Y  Y1  1  0.333333  0.666667  0.000000  1
  Y  Y2  1  0.816461  0.814833  0.500000  1
  Y  Y3  1  0.185167  0.001627  0.500000  1
  Y  Y4  1  0.998373  0.183539  0.500000  1
  Si  Si5  1  0.682082  0.162451  0.500000  1
  Si  Si6  1  0.837549  0.519631  0.500000  1
  Si  Si7  1  0.480369  0.317918  0.500000  1
  Si  Si8  1  0.636122  0.635243  0.000000  1
  Si  Si9  1  0.364757  0.000880  0.000000  1
  Si  Si10  1  0.999120  0.363878  0.000000  1
  P  P11  1  0.177546  0.694031  0.500000  1
  P  P12  1  0.516485  0.822454  0.500000  1
  P  P13  1  0.305969  0.483515  0.500000  1
  P  P14  1  0.176522  0.180416  0.000000  1
  P  P15  1  0.819584  0.996105  0.000000  1
  P  P16  1  0.003895  0.823478  0.000000  1
  Ir  Ir17  1  0.808523  0.175741  0.000000  1
  Ir  Ir18  1  0.824259  0.632782  0.000000  1
  Ir  Ir19  1  0.367218  0.191477  0.000000  1
  Ir  Ir20  1  0.182667  0.800836  0.000000  1
  Ir  Ir21  1  0.618169  0.817333  0.000000  1
  Ir  Ir22  1  0.199164  0.381831  0.000000  1
  Ir  Ir23  1  0.458041  0.443247  0.000000  1
  Ir  Ir24  1  0.556753  0.014795  0.000000  1
  Ir  Ir25  1  0.985205  0.541959  0.000000  1
  Ir  Ir26  1  0.278188  0.284651  0.500000  1
  Ir  Ir27  1  0.715349  0.993537  0.500000  1
  Ir  Ir28  1  0.006463  0.721812  0.500000  1
  Ir  Ir29  1  0.869168  0.353426  0.500000  1
  Ir  Ir30  1  0.646574  0.515744  0.500000  1
  Ir  Ir31  1  0.484256  0.130832  0.500000  1
  Ir  Ir32  1  0.368316  0.874044  0.500000  1
  Ir  Ir33  1  0.505729  0.631684  0.500000  1
  Ir  Ir34  1  0.125956  0.494271  0.500000  1
  Ir  Ir35  1  0.000000  0.000000  0.000000  1
