# generated using pymatgen
data_YEr3Tm4(ReB6)4
_symmetry_space_group_name_H-M   'P 1'
_cell_length_a   3.65243700
_cell_length_b   9.12172601
_cell_length_c   11.49673202
_cell_angle_alpha   90.00569738
_cell_angle_beta   90.00003877
_cell_angle_gamma   89.99997134
_symmetry_Int_Tables_number   1
_chemical_formula_structural   YEr3Tm4(ReB6)4
_chemical_formula_sum   'Y1 Er3 Tm4 Re4 B24'
_cell_volume   383.03121049
_cell_formula_units_Z   1
loop_
 _symmetry_equiv_pos_site_id
 _symmetry_equiv_pos_as_xyz
  1  'x, y, z'
loop_
 _atom_site_type_symbol
 _atom_site_label
 _atom_site_symmetry_multiplicity
 _atom_site_fract_x
 _atom_site_fract_y
 _atom_site_fract_z
 _atom_site_occupancy
  Y  Y0  1  0.999992  0.177106  0.913919  1
  Er  Er1  1  0.999993  0.323274  0.413900  1
  Er  Er2  1  0.000006  0.676754  0.586068  1
  Er  Er3  1  0.999992  0.823198  0.086146  1
  Tm  Tm4  1  0.999999  0.943175  0.370348  1
  Tm  Tm5  1  0.000000  0.056716  0.629601  1
  Tm  Tm6  1  0.999998  0.443368  0.129900  1
  Tm  Tm7  1  0.999998  0.556850  0.870212  1
  Re  Re8  1  0.999998  0.638960  0.320545  1
  Re  Re9  1  0.999997  0.361348  0.679077  1
  Re  Re10  1  0.000024  0.138998  0.180022  1
  Re  Re11  1  0.000008  0.860442  0.820239  1
  B  B12  1  0.500002  0.553204  0.433101  1
  B  B13  1  0.500000  0.446912  0.566788  1
  B  B14  1  0.500000  0.052923  0.067396  1
  B  B15  1  0.500000  0.946195  0.933072  1
  B  B16  1  0.500000  0.749907  0.418863  1
  B  B17  1  0.499998  0.250080  0.580961  1
  B  B18  1  0.500002  0.250061  0.081816  1
  B  B19  1  0.500003  0.749881  0.918899  1
  B  B20  1  0.499995  0.792695  0.265243  1
  B  B21  1  0.499999  0.207502  0.734267  1
  B  B22  1  0.500003  0.292788  0.234995  1
  B  B23  1  0.500001  0.707185  0.765140  1
  B  B24  1  0.499995  0.630521  0.184961  1
  B  B25  1  0.499997  0.370015  0.814644  1
  B  B26  1  0.500004  0.130443  0.315192  1
  B  B27  1  0.500000  0.869363  0.684775  1
  B  B28  1  0.500003  0.981397  0.212329  1
  B  B29  1  0.500004  0.017881  0.787480  1
  B  B30  1  0.499998  0.481568  0.287910  1
  B  B31  1  0.499998  0.518630  0.712046  1
  B  B32  1  0.499997  0.599297  0.027712  1
  B  B33  1  0.499996  0.401417  0.972501  1
  B  B34  1  0.499999  0.099269  0.472285  1
  B  B35  1  0.499999  0.900673  0.527646  1
