# generated using pymatgen
data_HoTm6CoI12
_symmetry_space_group_name_H-M   'P 1'
_cell_length_a   9.66698545
_cell_length_b   9.66698396
_cell_length_c   9.66698464
_cell_angle_alpha   106.81239919
_cell_angle_beta   106.81239436
_cell_angle_gamma   106.81240014
_symmetry_Int_Tables_number   1
_chemical_formula_structural   HoTm6CoI12
_chemical_formula_sum   'Ho1 Tm6 Co1 I12'
_cell_volume   756.16520915
_cell_formula_units_Z   1
loop_
 _symmetry_equiv_pos_site_id
 _symmetry_equiv_pos_as_xyz
  1  'x, y, z'
loop_
 _atom_site_type_symbol
 _atom_site_label
 _atom_site_symmetry_multiplicity
 _atom_site_fract_x
 _atom_site_fract_y
 _atom_site_fract_z
 _atom_site_occupancy
  Ho  Ho0  1  0.500000  0.500000  0.500000  1
  Tm  Tm1  1  0.283786  0.090104  0.021180  1
  Tm  Tm2  1  0.021180  0.283786  0.090104  1
  Tm  Tm3  1  0.090104  0.021180  0.283786  1
  Tm  Tm4  1  0.716214  0.909896  0.978820  1
  Tm  Tm5  1  0.978820  0.716214  0.909896  1
  Tm  Tm6  1  0.909896  0.978820  0.716214  1
  Co  Co7  1  0.000000  0.000000  0.000000  1
  I  I8  1  0.462678  0.160013  0.386066  1
  I  I9  1  0.386066  0.462678  0.160013  1
  I  I10  1  0.160013  0.386066  0.462678  1
  I  I11  1  0.537322  0.839987  0.613934  1
  I  I12  1  0.613934  0.537322  0.839987  1
  I  I13  1  0.839987  0.613934  0.537322  1
  I  I14  1  0.323620  0.776411  0.929601  1
  I  I15  1  0.929601  0.323620  0.776411  1
  I  I16  1  0.776411  0.929601  0.323620  1
  I  I17  1  0.676380  0.223589  0.070399  1
  I  I18  1  0.070399  0.676380  0.223589  1
  I  I19  1  0.223589  0.070399  0.676380  1
