# generated using pymatgen
data_DyMg(TaS2)8
_symmetry_space_group_name_H-M   'P 1'
_cell_length_a   6.69256700
_cell_length_b   6.69256635
_cell_length_c   13.20009300
_cell_angle_alpha   90.00000000
_cell_angle_beta   90.00000000
_cell_angle_gamma   120.00000815
_symmetry_Int_Tables_number   1
_chemical_formula_structural   DyMg(TaS2)8
_chemical_formula_sum   'Dy1 Mg1 Ta8 S16'
_cell_volume   512.02716217
_cell_formula_units_Z   1
loop_
 _symmetry_equiv_pos_site_id
 _symmetry_equiv_pos_as_xyz
  1  'x, y, z'
loop_
 _atom_site_type_symbol
 _atom_site_label
 _atom_site_symmetry_multiplicity
 _atom_site_fract_x
 _atom_site_fract_y
 _atom_site_fract_z
 _atom_site_occupancy
  Dy  Dy0  1  0.000000  0.000000  0.500000  1
  Mg  Mg1  1  0.000000  0.000000  0.000000  1
  Ta  Ta2  1  0.505432  0.494568  0.760214  1
  Ta  Ta3  1  0.010861  0.505432  0.239786  1
  Ta  Ta4  1  0.494568  0.989139  0.239786  1
  Ta  Ta5  1  0.505432  0.010861  0.760214  1
  Ta  Ta6  1  0.989139  0.494568  0.760214  1
  Ta  Ta7  1  0.494568  0.505432  0.239786  1
  Ta  Ta8  1  0.000000  0.000000  0.758403  1
  Ta  Ta9  1  0.000000  0.000000  0.241597  1
  S  S10  1  0.830711  0.169289  0.358406  1
  S  S11  1  0.830711  0.661423  0.358406  1
  S  S12  1  0.338577  0.169289  0.358406  1
  S  S13  1  0.663194  0.831597  0.876730  1
  S  S14  1  0.169289  0.338577  0.641594  1
  S  S15  1  0.168403  0.831597  0.876730  1
  S  S16  1  0.168403  0.336806  0.876730  1
  S  S17  1  0.831597  0.168403  0.123270  1
  S  S18  1  0.336806  0.168403  0.123270  1
  S  S19  1  0.661423  0.830711  0.641594  1
  S  S20  1  0.333333  0.666667  0.119286  1
  S  S21  1  0.666667  0.333333  0.638947  1
  S  S22  1  0.666667  0.333333  0.880714  1
  S  S23  1  0.333333  0.666667  0.361053  1
  S  S24  1  0.831597  0.663194  0.123270  1
  S  S25  1  0.169289  0.830711  0.641594  1
