# generated using pymatgen
data_Sr15La2Nd3Pt16
_symmetry_space_group_name_H-M   'P 1'
_cell_length_a   7.94061036
_cell_length_b   8.10383790
_cell_length_c   15.60393904
_cell_angle_alpha   90.02171784
_cell_angle_beta   90.12929205
_cell_angle_gamma   90.09747295
_symmetry_Int_Tables_number   1
_chemical_formula_structural   Sr15La2Nd3Pt16
_chemical_formula_sum   'Sr15 La2 Nd3 Pt16'
_cell_volume   1004.10033199
_cell_formula_units_Z   1
loop_
 _symmetry_equiv_pos_site_id
 _symmetry_equiv_pos_as_xyz
  1  'x, y, z'
loop_
 _atom_site_type_symbol
 _atom_site_label
 _atom_site_symmetry_multiplicity
 _atom_site_fract_x
 _atom_site_fract_y
 _atom_site_fract_z
 _atom_site_occupancy
  Sr  Sr0  1  0.164371  0.328218  0.379754  1
  Sr  Sr1  1  0.337080  0.828472  0.619149  1
  Sr  Sr2  1  0.837805  0.671277  0.882411  1
  Sr  Sr3  1  0.492271  0.323248  0.903977  1
  Sr  Sr4  1  0.990831  0.178619  0.597486  1
  Sr  Sr5  1  0.508570  0.679810  0.401865  1
  Sr  Sr6  1  0.008743  0.821050  0.096335  1
  Sr  Sr7  1  0.505716  0.678525  0.095667  1
  Sr  Sr8  1  0.005737  0.819900  0.406679  1
  Sr  Sr9  1  0.494645  0.318939  0.593674  1
  Sr  Sr10  1  0.993560  0.180844  0.905849  1
  Sr  Sr11  1  0.175289  0.486734  0.749896  1
  Sr  Sr12  1  0.676126  0.014324  0.751268  1
  Sr  Sr13  1  0.827305  0.515964  0.249857  1
  Sr  Sr14  1  0.321063  0.985463  0.250418  1
  La  La15  1  0.336241  0.833643  0.878437  1
  La  La16  1  0.834454  0.669255  0.623522  1
  Nd  Nd17  1  0.664776  0.169904  0.374795  1
  Nd  Nd18  1  0.163484  0.329337  0.122351  1
  Nd  Nd19  1  0.662328  0.171130  0.121692  1
  Pt  Pt20  1  0.329477  0.043529  0.039307  1
  Pt  Pt21  1  0.818361  0.458912  0.463548  1
  Pt  Pt22  1  0.681273  0.958794  0.534879  1
  Pt  Pt23  1  0.176556  0.542041  0.965036  1
  Pt  Pt24  1  0.651391  0.973922  0.961430  1
  Pt  Pt25  1  0.139569  0.531592  0.543962  1
  Pt  Pt26  1  0.359471  0.031498  0.455074  1
  Pt  Pt27  1  0.845736  0.453282  0.044747  1
  Pt  Pt28  1  0.543375  0.625910  0.754270  1
  Pt  Pt29  1  0.044856  0.877126  0.749201  1
  Pt  Pt30  1  0.461047  0.370439  0.244767  1
  Pt  Pt31  1  0.949915  0.126485  0.243311  1
  Pt  Pt32  1  0.288550  0.120270  0.756097  1
  Pt  Pt33  1  0.786011  0.381311  0.744764  1
  Pt  Pt34  1  0.707142  0.884933  0.249690  1
  Pt  Pt35  1  0.216876  0.615299  0.244834  1
