# generated using pymatgen
data_Pr2Nd2PdAu3
_symmetry_space_group_name_H-M   'P 1'
_cell_length_a   4.82402000
_cell_length_b   5.84929985
_cell_length_c   7.47731304
_cell_angle_alpha   88.88981763
_cell_angle_beta   90.00000000
_cell_angle_gamma   90.00000000
_symmetry_Int_Tables_number   1
_chemical_formula_structural   Pr2Nd2PdAu3
_chemical_formula_sum   'Pr2 Nd2 Pd1 Au3'
_cell_volume   210.94877900
_cell_formula_units_Z   1
loop_
 _symmetry_equiv_pos_site_id
 _symmetry_equiv_pos_as_xyz
  1  'x, y, z'
loop_
 _atom_site_type_symbol
 _atom_site_label
 _atom_site_symmetry_multiplicity
 _atom_site_fract_x
 _atom_site_fract_y
 _atom_site_fract_z
 _atom_site_occupancy
  Pr  Pr0  1  0.250000  0.355606  0.683434  1
  Pr  Pr1  1  0.750000  0.649514  0.317910  1
  Nd  Nd2  1  0.250000  0.145305  0.188074  1
  Nd  Nd3  1  0.750000  0.852821  0.809469  1
  Pd  Pd4  1  0.250000  0.849941  0.540421  1
  Au  Au5  1  0.250000  0.653178  0.040400  1
  Au  Au6  1  0.750000  0.147059  0.459845  1
  Au  Au7  1  0.750000  0.346574  0.960448  1
