# generated using pymatgen
data_Pr16Sm4Si15Br
_symmetry_space_group_name_H-M   'P 1'
_cell_length_a   7.94312849
_cell_length_b   7.87845772
_cell_length_c   15.33051457
_cell_angle_alpha   89.66505467
_cell_angle_beta   89.18000198
_cell_angle_gamma   90.28977658
_symmetry_Int_Tables_number   1
_chemical_formula_structural   Pr16Sm4Si15Br
_chemical_formula_sum   'Pr16 Sm4 Si15 Br1'
_cell_volume   959.25017699
_cell_formula_units_Z   1
loop_
 _symmetry_equiv_pos_site_id
 _symmetry_equiv_pos_as_xyz
  1  'x, y, z'
loop_
 _atom_site_type_symbol
 _atom_site_label
 _atom_site_symmetry_multiplicity
 _atom_site_fract_x
 _atom_site_fract_y
 _atom_site_fract_z
 _atom_site_occupancy
  Pr  Pr0  1  0.380348  0.005529  0.442522  1
  Pr  Pr1  1  0.496312  0.867614  0.699286  1
  Pr  Pr2  1  0.510309  0.121282  0.196665  1
  Pr  Pr3  1  0.874834  0.485707  0.300639  1
  Pr  Pr4  1  0.123114  0.518632  0.804371  1
  Pr  Pr5  1  0.633318  0.985767  0.952088  1
  Pr  Pr6  1  0.996715  0.382705  0.544815  1
  Pr  Pr7  1  0.992781  0.623205  0.053307  1
  Pr  Pr8  1  0.140169  0.987673  0.874978  1
  Pr  Pr9  1  0.519191  0.629337  0.126505  1
  Pr  Pr10  1  0.480585  0.370675  0.631017  1
  Pr  Pr11  1  0.635078  0.522856  0.876297  1
  Pr  Pr12  1  0.367879  0.476675  0.374523  1
  Pr  Pr13  1  0.870607  0.020546  0.376761  1
  Pr  Pr14  1  0.982555  0.127395  0.123917  1
  Pr  Pr15  1  0.014013  0.863486  0.620249  1
  Sm  Sm16  1  0.311828  0.310307  0.999710  1
  Sm  Sm17  1  0.186822  0.808403  0.249377  1
  Sm  Sm18  1  0.795319  0.189723  0.753043  1
  Sm  Sm19  1  0.685875  0.688667  0.497641  1
  Si  Si20  1  0.331637  0.695813  0.951904  1
  Si  Si21  1  0.662202  0.306468  0.454841  1
  Si  Si22  1  0.699647  0.334204  0.049466  1
  Si  Si23  1  0.306596  0.668512  0.548018  1
  Si  Si24  1  0.806051  0.830723  0.203825  1
  Si  Si25  1  0.168392  0.191964  0.295631  1
  Si  Si26  1  0.841639  0.807905  0.796095  1
  Si  Si27  1  0.287981  0.923346  0.059814  1
  Si  Si28  1  0.575745  0.784594  0.310017  1
  Si  Si29  1  0.453764  0.209924  0.825899  1
  Si  Si30  1  0.790439  0.575787  0.687672  1
  Si  Si31  1  0.211771  0.424260  0.189536  1
  Si  Si32  1  0.705057  0.074625  0.561786  1
  Si  Si33  1  0.929208  0.290493  0.939327  1
  Si  Si34  1  0.075353  0.711325  0.438462  1
  Br  Br35  1  0.156866  0.183870  0.689997  1
