# generated using pymatgen
data_Cs4Si2Au7
_symmetry_space_group_name_H-M   'P 1'
_cell_length_a   10.35987053
_cell_length_b   10.35987077
_cell_length_c   10.35987064
_cell_angle_alpha   37.84206653
_cell_angle_beta   37.84206293
_cell_angle_gamma   37.84206514
_symmetry_Int_Tables_number   1
_chemical_formula_structural   Cs4Si2Au7
_chemical_formula_sum   'Cs4 Si2 Au7'
_cell_volume   375.53677623
_cell_formula_units_Z   1
loop_
 _symmetry_equiv_pos_site_id
 _symmetry_equiv_pos_as_xyz
  1  'x, y, z'
loop_
 _atom_site_type_symbol
 _atom_site_label
 _atom_site_symmetry_multiplicity
 _atom_site_fract_x
 _atom_site_fract_y
 _atom_site_fract_z
 _atom_site_occupancy
  Cs  Cs0  1  0.683070  0.683070  0.683070  1
  Cs  Cs1  1  0.316930  0.316930  0.316930  1
  Cs  Cs2  1  0.810261  0.810261  0.810261  1
  Cs  Cs3  1  0.189739  0.189739  0.189739  1
  Si  Si4  1  0.545722  0.545722  0.545722  1
  Si  Si5  1  0.454278  0.454278  0.454278  1
  Au  Au6  1  0.000000  0.000000  0.000000  1
  Au  Au7  1  0.227662  0.227662  0.794044  1
  Au  Au8  1  0.794044  0.227662  0.227662  1
  Au  Au9  1  0.227662  0.794044  0.227662  1
  Au  Au10  1  0.772338  0.205956  0.772338  1
  Au  Au11  1  0.772338  0.772338  0.205956  1
  Au  Au12  1  0.205956  0.772338  0.772338  1
