# generated using pymatgen
data_ErPdI18
_symmetry_space_group_name_H-M   'P 1'
_cell_length_a   10.29038475
_cell_length_b   10.29038710
_cell_length_c   10.29038788
_cell_angle_alpha   88.03739143
_cell_angle_beta   88.03739076
_cell_angle_gamma   88.03741259
_symmetry_Int_Tables_number   1
_chemical_formula_structural   ErPdI18
_chemical_formula_sum   'Er1 Pd1 I18'
_cell_volume   1087.79528674
_cell_formula_units_Z   1
loop_
 _symmetry_equiv_pos_site_id
 _symmetry_equiv_pos_as_xyz
  1  'x, y, z'
loop_
 _atom_site_type_symbol
 _atom_site_label
 _atom_site_symmetry_multiplicity
 _atom_site_fract_x
 _atom_site_fract_y
 _atom_site_fract_z
 _atom_site_occupancy
  Er  Er0  1  0.500000  0.500000  0.500000  1
  Pd  Pd1  1  0.000000  0.000000  0.000000  1
  I  I2  1  0.751841  0.120211  0.618759  1
  I  I3  1  0.994524  0.030715  0.730873  1
  I  I4  1  0.618759  0.751841  0.120211  1
  I  I5  1  0.969285  0.269127  0.005476  1
  I  I6  1  0.730873  0.994524  0.030715  1
  I  I7  1  0.030715  0.730873  0.994524  1
  I  I8  1  0.005476  0.969285  0.269127  1
  I  I9  1  0.879789  0.381241  0.248159  1
  I  I10  1  0.269127  0.005476  0.969285  1
  I  I11  1  0.248159  0.879789  0.381241  1
  I  I12  1  0.120211  0.618759  0.751841  1
  I  I13  1  0.381241  0.248159  0.879789  1
  I  I14  1  0.790560  0.532725  0.478474  1
  I  I15  1  0.532725  0.478474  0.790560  1
  I  I16  1  0.209440  0.467275  0.521526  1
  I  I17  1  0.467275  0.521526  0.209440  1
  I  I18  1  0.478474  0.790560  0.532725  1
  I  I19  1  0.521526  0.209440  0.467275  1
