# generated using pymatgen
data_Hf3Pa(GeRh5)2
_symmetry_space_group_name_H-M   'P 1'
_cell_length_a   4.07813400
_cell_length_b   5.64414649
_cell_length_c   11.05032493
_cell_angle_alpha   89.57741118
_cell_angle_beta   90.00000000
_cell_angle_gamma   90.00000000
_symmetry_Int_Tables_number   1
_chemical_formula_structural   Hf3Pa(GeRh5)2
_chemical_formula_sum   'Hf3 Pa1 Ge2 Rh10'
_cell_volume   254.34488278
_cell_formula_units_Z   1
loop_
 _symmetry_equiv_pos_site_id
 _symmetry_equiv_pos_as_xyz
  1  'x, y, z'
loop_
 _atom_site_type_symbol
 _atom_site_label
 _atom_site_symmetry_multiplicity
 _atom_site_fract_x
 _atom_site_fract_y
 _atom_site_fract_z
 _atom_site_occupancy
  Hf  Hf0  1  0.500000  0.819436  0.353529  1
  Hf  Hf1  1  0.500000  0.678041  0.864433  1
  Hf  Hf2  1  0.500000  0.321318  0.140837  1
  Pa  Pa3  1  0.500000  0.181088  0.640837  1
  Ge  Ge4  1  0.000000  0.512141  0.491696  1
  Ge  Ge5  1  0.000000  0.999942  0.004147  1
  Rh  Rh6  1  0.500000  0.186634  0.897263  1
  Rh  Rh7  1  0.500000  0.809345  0.106989  1
  Rh  Rh8  1  0.500000  0.688661  0.607006  1
  Rh  Rh9  1  0.500000  0.306657  0.390502  1
  Rh  Rh10  1  0.000000  0.434777  0.746582  1
  Rh  Rh11  1  0.000000  0.567704  0.256064  1
  Rh  Rh12  1  0.000000  0.993864  0.497117  1
  Rh  Rh13  1  0.000000  0.500491  0.001679  1
  Rh  Rh14  1  0.000000  0.068023  0.241329  1
  Rh  Rh15  1  0.000000  0.931880  0.759990  1
