# generated using pymatgen
data_CsCaBO3
_symmetry_space_group_name_H-M   'P 1'
_cell_length_a   7.68483500
_cell_length_b   7.68483500
_cell_length_c   7.68483500
_cell_angle_alpha   90.00000000
_cell_angle_beta   90.00000000
_cell_angle_gamma   90.00000000
_symmetry_Int_Tables_number   1
_chemical_formula_structural   CsCaBO3
_chemical_formula_sum   'Cs4 Ca4 B4 O12'
_cell_volume   453.84091044
_cell_formula_units_Z   4
loop_
 _symmetry_equiv_pos_site_id
 _symmetry_equiv_pos_as_xyz
  1  'x, y, z'
loop_
 _atom_site_type_symbol
 _atom_site_label
 _atom_site_symmetry_multiplicity
 _atom_site_fract_x
 _atom_site_fract_y
 _atom_site_fract_z
 _atom_site_occupancy
  Cs  Cs0  1  0.639288  0.139288  0.360712  1
  Cs  Cs1  1  0.139288  0.360712  0.639288  1
  Cs  Cs2  1  0.360712  0.639288  0.139288  1
  Cs  Cs3  1  0.860712  0.860712  0.860712  1
  Ca  Ca4  1  0.643845  0.356155  0.856155  1
  Ca  Ca5  1  0.143845  0.143845  0.143845  1
  Ca  Ca6  1  0.856155  0.643845  0.356155  1
  Ca  Ca7  1  0.356155  0.856155  0.643845  1
  B  B8  1  0.598410  0.598410  0.598410  1
  B  B9  1  0.401590  0.098410  0.901590  1
  B  B10  1  0.098410  0.901590  0.401590  1
  B  B11  1  0.901590  0.401590  0.098410  1
  O  O12  1  0.522696  0.088135  0.765905  1
  O  O13  1  0.234095  0.022696  0.411865  1
  O  O14  1  0.588135  0.734095  0.477304  1
  O  O15  1  0.022696  0.411865  0.234095  1
  O  O16  1  0.734095  0.477304  0.588135  1
  O  O17  1  0.088135  0.765905  0.522696  1
  O  O18  1  0.477304  0.588135  0.734095  1
  O  O19  1  0.765905  0.522696  0.088135  1
  O  O20  1  0.411865  0.234095  0.022696  1
  O  O21  1  0.977304  0.911865  0.265905  1
  O  O22  1  0.265905  0.977304  0.911865  1
  O  O23  1  0.911865  0.265905  0.977304  1
