# generated using pymatgen
data_LaPr2Nd(SiO5)2
_symmetry_space_group_name_H-M   'P 1'
_cell_length_a   7.46788700
_cell_length_b   6.98083374
_cell_length_c   9.36769818
_cell_angle_alpha   71.49079828
_cell_angle_beta   90.00000000
_cell_angle_gamma   90.00000000
_symmetry_Int_Tables_number   1
_chemical_formula_structural   LaPr2Nd(SiO5)2
_chemical_formula_sum   'La2 Pr4 Nd2 Si4 O20'
_cell_volume   463.09614132
_cell_formula_units_Z   2
loop_
 _symmetry_equiv_pos_site_id
 _symmetry_equiv_pos_as_xyz
  1  'x, y, z'
loop_
 _atom_site_type_symbol
 _atom_site_label
 _atom_site_symmetry_multiplicity
 _atom_site_fract_x
 _atom_site_fract_y
 _atom_site_fract_z
 _atom_site_occupancy
  La  La0  1  0.624989  0.232166  0.983559  1
  La  La1  1  0.124989  0.267834  0.016441  1
  Pr  Pr2  1  0.654383  0.092813  0.610726  1
  Pr  Pr3  1  0.844581  0.593605  0.609791  1
  Pr  Pr4  1  0.154383  0.407187  0.389274  1
  Pr  Pr5  1  0.344581  0.906395  0.390209  1
  Nd  Nd6  1  0.875353  0.735539  0.979414  1
  Nd  Nd7  1  0.375353  0.764461  0.020586  1
  Si  Si8  1  0.080515  0.042243  0.701284  1
  Si  Si9  1  0.580515  0.457757  0.298716  1
  Si  Si10  1  0.420316  0.544721  0.700618  1
  Si  Si11  1  0.920316  0.955279  0.299382  1
  O  O12  1  0.570654  0.366406  0.705302  1
  O  O13  1  0.367288  0.499315  0.880080  1
  O  O14  1  0.375293  0.044833  0.114502  1
  O  O15  1  0.867288  0.000685  0.119920  1
  O  O16  1  0.250591  0.057531  0.590881  1
  O  O17  1  0.749403  0.942678  0.408430  1
  O  O18  1  0.039295  0.746630  0.368317  1
  O  O19  1  0.135236  0.989019  0.881247  1
  O  O20  1  0.461521  0.248209  0.364864  1
  O  O21  1  0.622660  0.950002  0.885658  1
  O  O22  1  0.070654  0.133594  0.294698  1
  O  O23  1  0.122660  0.549998  0.114342  1
  O  O24  1  0.750591  0.442469  0.409119  1
  O  O25  1  0.539295  0.753370  0.631683  1
  O  O26  1  0.961521  0.251791  0.635136  1
  O  O27  1  0.927923  0.865627  0.706563  1
  O  O28  1  0.635236  0.510981  0.118753  1
  O  O29  1  0.875293  0.455167  0.885498  1
  O  O30  1  0.427923  0.634373  0.293437  1
  O  O31  1  0.249403  0.557322  0.591570  1
