# generated using pymatgen
data_SrCe2HfSb5
_symmetry_space_group_name_H-M   'P 1'
_cell_length_a   9.54361200
_cell_length_b   9.54777614
_cell_length_c   6.38448300
_cell_angle_alpha   90.00000000
_cell_angle_beta   90.00000000
_cell_angle_gamma   119.98556681
_symmetry_Int_Tables_number   1
_chemical_formula_structural   SrCe2HfSb5
_chemical_formula_sum   'Sr2 Ce4 Hf2 Sb10'
_cell_volume   503.88857778
_cell_formula_units_Z   2
loop_
 _symmetry_equiv_pos_site_id
 _symmetry_equiv_pos_as_xyz
  1  'x, y, z'
loop_
 _atom_site_type_symbol
 _atom_site_label
 _atom_site_symmetry_multiplicity
 _atom_site_fract_x
 _atom_site_fract_y
 _atom_site_fract_z
 _atom_site_occupancy
  Sr  Sr0  1  0.613411  0.000000  0.250000  1
  Sr  Sr1  1  0.386589  0.000000  0.750000  1
  Ce  Ce2  1  0.010602  0.622014  0.250000  1
  Ce  Ce3  1  0.989398  0.377986  0.750000  1
  Ce  Ce4  1  0.388588  0.377986  0.250000  1
  Ce  Ce5  1  0.611412  0.622014  0.750000  1
  Hf  Hf6  1  0.000000  0.000000  0.000000  1
  Hf  Hf7  1  0.000000  0.000000  0.500000  1
  Sb  Sb8  1  0.255674  0.000000  0.250000  1
  Sb  Sb9  1  0.744326  0.000000  0.750000  1
  Sb  Sb10  1  0.007946  0.265077  0.250000  1
  Sb  Sb11  1  0.992054  0.734923  0.750000  1
  Sb  Sb12  1  0.742869  0.734923  0.250000  1
  Sb  Sb13  1  0.257131  0.265077  0.750000  1
  Sb  Sb14  1  0.323700  0.647400  0.000000  1
  Sb  Sb15  1  0.676300  0.352600  0.000000  1
  Sb  Sb16  1  0.676300  0.352600  0.500000  1
  Sb  Sb17  1  0.323700  0.647400  0.500000  1
