# generated using pymatgen
data_Na3U4O12
_symmetry_space_group_name_H-M   'P 1'
_cell_length_a   7.20830896
_cell_length_b   7.20830917
_cell_length_c   7.20830811
_cell_angle_alpha   109.50201350
_cell_angle_beta   109.60181893
_cell_angle_gamma   109.30996235
_symmetry_Int_Tables_number   1
_chemical_formula_structural   Na3U4O12
_chemical_formula_sum   'Na3 U4 O12'
_cell_volume   288.32038877
_cell_formula_units_Z   1
loop_
 _symmetry_equiv_pos_site_id
 _symmetry_equiv_pos_as_xyz
  1  'x, y, z'
loop_
 _atom_site_type_symbol
 _atom_site_label
 _atom_site_symmetry_multiplicity
 _atom_site_fract_x
 _atom_site_fract_y
 _atom_site_fract_z
 _atom_site_occupancy
  Na  Na0  1  0.500000  0.000000  0.500000  1
  Na  Na1  1  0.500000  0.500000  0.000000  1
  Na  Na2  1  0.000000  0.500000  0.500000  1
  U  U3  1  0.500000  0.000000  0.000000  1
  U  U4  1  0.000000  0.500000  0.000000  1
  U  U5  1  0.500000  0.500000  0.500000  1
  U  U6  1  0.000000  0.000000  0.500000  1
  O  O7  1  0.703336  0.212125  0.915461  1
  O  O8  1  0.084027  0.291875  0.792151  1
  O  O9  1  0.791633  0.088379  0.296747  1
  O  O10  1  0.296664  0.787875  0.084539  1
  O  O11  1  0.296664  0.212125  0.508788  1
  O  O12  1  0.208367  0.505114  0.296747  1
  O  O13  1  0.500277  0.708125  0.792151  1
  O  O14  1  0.499723  0.291875  0.207849  1
  O  O15  1  0.791633  0.494886  0.703253  1
  O  O16  1  0.703336  0.787875  0.491212  1
  O  O17  1  0.915973  0.708125  0.207849  1
  O  O18  1  0.208367  0.911621  0.703253  1
