# generated using pymatgen
data_Sc6B4Ir3Ru2Rh5
_symmetry_space_group_name_H-M   'P 1'
_cell_length_a   9.60827113
_cell_length_b   9.57204416
_cell_length_c   3.06837700
_cell_angle_alpha   90.00000000
_cell_angle_beta   90.00000000
_cell_angle_gamma   90.10654855
_symmetry_Int_Tables_number   1
_chemical_formula_structural   Sc6B4Ir3Ru2Rh5
_chemical_formula_sum   'Sc6 B4 Ir3 Ru2 Rh5'
_cell_volume   282.20058584
_cell_formula_units_Z   1
loop_
 _symmetry_equiv_pos_site_id
 _symmetry_equiv_pos_as_xyz
  1  'x, y, z'
loop_
 _atom_site_type_symbol
 _atom_site_label
 _atom_site_symmetry_multiplicity
 _atom_site_fract_x
 _atom_site_fract_y
 _atom_site_fract_z
 _atom_site_occupancy
  Sc  Sc0  1  0.827499  0.325209  0.000000  1
  Sc  Sc1  1  0.325359  0.172499  0.000000  1
  Sc  Sc2  1  0.673727  0.827144  0.000000  1
  Sc  Sc3  1  0.173506  0.673962  0.000000  1
  Sc  Sc4  1  0.999266  0.998151  0.000000  1
  Sc  Sc5  1  0.500102  0.499904  0.000000  1
  B  B6  1  0.621190  0.120001  0.000000  1
  B  B7  1  0.119952  0.379045  0.000000  1
  B  B8  1  0.879589  0.619976  0.000000  1
  B  B9  1  0.378909  0.880214  0.000000  1
  Ir  Ir10  1  0.073269  0.221509  0.500000  1
  Ir  Ir11  1  0.222054  0.926761  0.500000  1
  Ir  Ir12  1  0.778398  0.074093  0.500000  1
  Ru  Ru13  1  0.500574  0.999951  0.500000  1
  Ru  Ru14  1  0.999871  0.501022  0.500000  1
  Rh  Rh15  1  0.926522  0.778568  0.500000  1
  Rh  Rh16  1  0.427393  0.720867  0.500000  1
  Rh  Rh17  1  0.572469  0.279504  0.500000  1
  Rh  Rh18  1  0.721590  0.573822  0.500000  1
  Rh  Rh19  1  0.278761  0.427799  0.500000  1
