# generated using pymatgen
data_La2Mg3AgAu8
_symmetry_space_group_name_H-M   'P 1'
_cell_length_a   5.82293520
_cell_length_b   5.82293533
_cell_length_c   10.16290100
_cell_angle_alpha   90.00000000
_cell_angle_beta   90.00000000
_cell_angle_gamma   122.58725659
_symmetry_Int_Tables_number   1
_chemical_formula_structural   La2Mg3AgAu8
_chemical_formula_sum   'La2 Mg3 Ag1 Au8'
_cell_volume   290.34125356
_cell_formula_units_Z   1
loop_
 _symmetry_equiv_pos_site_id
 _symmetry_equiv_pos_as_xyz
  1  'x, y, z'
loop_
 _atom_site_type_symbol
 _atom_site_label
 _atom_site_symmetry_multiplicity
 _atom_site_fract_x
 _atom_site_fract_y
 _atom_site_fract_z
 _atom_site_occupancy
  La  La0  1  0.000000  0.500000  0.752535  1
  La  La1  1  0.500000  0.000000  0.247465  1
  Mg  Mg2  1  0.000000  0.000000  0.500000  1
  Mg  Mg3  1  0.000000  0.000000  0.000000  1
  Mg  Mg4  1  0.500000  0.500000  0.500000  1
  Ag  Ag5  1  0.500000  0.500000  0.000000  1
  Au  Au6  1  0.000000  0.500000  0.053286  1
  Au  Au7  1  0.500000  0.000000  0.550471  1
  Au  Au8  1  0.500000  0.000000  0.946714  1
  Au  Au9  1  0.000000  0.500000  0.449529  1
  Au  Au10  1  0.195602  0.302134  0.252992  1
  Au  Au11  1  0.697866  0.804398  0.747008  1
  Au  Au12  1  0.302134  0.195602  0.747008  1
  Au  Au13  1  0.804398  0.697866  0.252992  1
