# generated using pymatgen
data_Hf12Ta3Ti(Co2N)4
_symmetry_space_group_name_H-M   'P 1'
_cell_length_a   8.40880453
_cell_length_b   8.40880366
_cell_length_c   8.40880427
_cell_angle_alpha   59.97090545
_cell_angle_beta   59.97090575
_cell_angle_gamma   59.97090388
_symmetry_Int_Tables_number   1
_chemical_formula_structural   Hf12Ta3Ti(Co2N)4
_chemical_formula_sum   'Hf12 Ta3 Ti1 Co8 N4'
_cell_volume   420.14682198
_cell_formula_units_Z   1
loop_
 _symmetry_equiv_pos_site_id
 _symmetry_equiv_pos_as_xyz
  1  'x, y, z'
loop_
 _atom_site_type_symbol
 _atom_site_label
 _atom_site_symmetry_multiplicity
 _atom_site_fract_x
 _atom_site_fract_y
 _atom_site_fract_z
 _atom_site_occupancy
  Hf  Hf0  1  0.811612  0.811612  0.189108  1
  Hf  Hf1  1  0.187883  0.187883  0.811925  1
  Hf  Hf2  1  0.811612  0.189108  0.811612  1
  Hf  Hf3  1  0.187883  0.811925  0.187883  1
  Hf  Hf4  1  0.189108  0.811612  0.811612  1
  Hf  Hf5  1  0.811925  0.187883  0.187883  1
  Hf  Hf6  1  0.438388  0.438388  0.060892  1
  Hf  Hf7  1  0.062117  0.062117  0.438075  1
  Hf  Hf8  1  0.438388  0.060892  0.438388  1
  Hf  Hf9  1  0.062117  0.438075  0.062117  1
  Hf  Hf10  1  0.060892  0.438388  0.438388  1
  Hf  Hf11  1  0.438075  0.062117  0.062117  1
  Ta  Ta12  1  0.125000  0.625000  0.625000  1
  Ta  Ta13  1  0.625000  0.125000  0.625000  1
  Ta  Ta14  1  0.625000  0.625000  0.125000  1
  Ti  Ti15  1  0.625000  0.625000  0.625000  1
  Co  Co16  1  0.749640  0.418851  0.418851  1
  Co  Co17  1  0.418851  0.749640  0.418851  1
  Co  Co18  1  0.418851  0.418851  0.749640  1
  Co  Co19  1  0.416833  0.416833  0.416833  1
  Co  Co20  1  0.500360  0.831149  0.831149  1
  Co  Co21  1  0.831149  0.500360  0.831149  1
  Co  Co22  1  0.831149  0.831149  0.500360  1
  Co  Co23  1  0.833167  0.833167  0.833167  1
  N  N24  1  0.625000  0.125000  0.125000  1
  N  N25  1  0.125000  0.625000  0.125000  1
  N  N26  1  0.125000  0.125000  0.625000  1
  N  N27  1  0.125000  0.125000  0.125000  1
