# generated using pymatgen
data_YTm15
_symmetry_space_group_name_H-M   'P 1'
_cell_length_a   7.16164000
_cell_length_b   7.16164072
_cell_length_c   11.02407700
_cell_angle_alpha   90.00000000
_cell_angle_beta   90.00000000
_cell_angle_gamma   119.99999669
_symmetry_Int_Tables_number   1
_chemical_formula_structural   YTm15
_chemical_formula_sum   'Y1 Tm15'
_cell_volume   489.66368887
_cell_formula_units_Z   1
loop_
 _symmetry_equiv_pos_site_id
 _symmetry_equiv_pos_as_xyz
  1  'x, y, z'
loop_
 _atom_site_type_symbol
 _atom_site_label
 _atom_site_symmetry_multiplicity
 _atom_site_fract_x
 _atom_site_fract_y
 _atom_site_fract_z
 _atom_site_occupancy
  Y  Y0  1  0.000000  0.000000  0.500000  1
  Tm  Tm1  1  0.000000  0.000000  0.000000  1
  Tm  Tm2  1  0.002316  0.501158  0.500000  1
  Tm  Tm3  1  0.999287  0.499643  0.000000  1
  Tm  Tm4  1  0.498842  0.501158  0.500000  1
  Tm  Tm5  1  0.500357  0.499643  0.000000  1
  Tm  Tm6  1  0.498842  0.997684  0.500000  1
  Tm  Tm7  1  0.500357  0.000713  0.000000  1
  Tm  Tm8  1  0.167131  0.334261  0.248557  1
  Tm  Tm9  1  0.167131  0.334261  0.751443  1
  Tm  Tm10  1  0.167131  0.832869  0.248557  1
  Tm  Tm11  1  0.167131  0.832869  0.751443  1
  Tm  Tm12  1  0.665739  0.832869  0.248557  1
  Tm  Tm13  1  0.665739  0.832869  0.751443  1
  Tm  Tm14  1  0.666667  0.333333  0.251651  1
  Tm  Tm15  1  0.666667  0.333333  0.748349  1
