# generated using pymatgen
data_Th3SiAsSe
_symmetry_space_group_name_H-M   'P 1'
_cell_length_a   7.33146686
_cell_length_b   7.33146717
_cell_length_c   7.33146680
_cell_angle_alpha   145.99064551
_cell_angle_beta   131.64415437
_cell_angle_gamma   60.43250630
_symmetry_Int_Tables_number   1
_chemical_formula_structural   Th3SiAsSe
_chemical_formula_sum   'Th3 Si1 As1 Se1'
_cell_volume   163.15253289
_cell_formula_units_Z   1
loop_
 _symmetry_equiv_pos_site_id
 _symmetry_equiv_pos_as_xyz
  1  'x, y, z'
loop_
 _atom_site_type_symbol
 _atom_site_label
 _atom_site_symmetry_multiplicity
 _atom_site_fract_x
 _atom_site_fract_y
 _atom_site_fract_z
 _atom_site_occupancy
  Th  Th0  1  0.004325  0.004325  0.000000  1
  Th  Th1  1  0.657864  0.657864  0.000000  1
  Th  Th2  1  0.337739  0.337739  0.000000  1
  Si  Si3  1  0.498942  0.998942  0.500000  1
  As  As4  1  0.168463  0.668463  0.500000  1
  Se  Se5  1  0.832667  0.332667  0.500000  1
