# generated using pymatgen
data_Li3Er5Pt4
_symmetry_space_group_name_H-M   'P 1'
_cell_length_a   4.06635900
_cell_length_b   7.10865092
_cell_length_c   8.67485210
_cell_angle_alpha   91.05438168
_cell_angle_beta   90.00000000
_cell_angle_gamma   90.00000000
_symmetry_Int_Tables_number   1
_chemical_formula_structural   Li3Er5Pt4
_chemical_formula_sum   'Li3 Er5 Pt4'
_cell_volume   250.71565013
_cell_formula_units_Z   1
loop_
 _symmetry_equiv_pos_site_id
 _symmetry_equiv_pos_as_xyz
  1  'x, y, z'
loop_
 _atom_site_type_symbol
 _atom_site_label
 _atom_site_symmetry_multiplicity
 _atom_site_fract_x
 _atom_site_fract_y
 _atom_site_fract_z
 _atom_site_occupancy
  Li  Li0  1  0.250000  0.627961  0.556967  1
  Li  Li1  1  0.250000  0.146527  0.930670  1
  Li  Li2  1  0.750000  0.372200  0.444404  1
  Er  Er3  1  0.250000  0.053350  0.338700  1
  Er  Er4  1  0.250000  0.522658  0.190680  1
  Er  Er5  1  0.750000  0.960901  0.670427  1
  Er  Er6  1  0.750000  0.445874  0.818204  1
  Er  Er7  1  0.750000  0.872966  0.057540  1
  Pt  Pt8  1  0.250000  0.248002  0.625771  1
  Pt  Pt9  1  0.250000  0.735991  0.868840  1
  Pt  Pt10  1  0.750000  0.758246  0.371982  1
  Pt  Pt11  1  0.750000  0.255326  0.125815  1
