# generated using pymatgen
data_AcAg(Te3O8)2
_symmetry_space_group_name_H-M   'P 1'
_cell_length_a   7.00579740
_cell_length_b   7.00579765
_cell_length_c   10.28431000
_cell_angle_alpha   66.29120018
_cell_angle_beta   66.29119928
_cell_angle_gamma   50.01819197
_symmetry_Int_Tables_number   1
_chemical_formula_structural   AcAg(Te3O8)2
_chemical_formula_sum   'Ac1 Ag1 Te6 O16'
_cell_volume   346.62171430
_cell_formula_units_Z   1
loop_
 _symmetry_equiv_pos_site_id
 _symmetry_equiv_pos_as_xyz
  1  'x, y, z'
loop_
 _atom_site_type_symbol
 _atom_site_label
 _atom_site_symmetry_multiplicity
 _atom_site_fract_x
 _atom_site_fract_y
 _atom_site_fract_z
 _atom_site_occupancy
  Ac  Ac0  1  0.560245  0.439755  0.250000  1
  Ag  Ag1  1  0.430882  0.569118  0.750000  1
  Te  Te2  1  0.696609  0.883534  0.849394  1
  Te  Te3  1  0.863873  0.681105  0.370358  1
  Te  Te4  1  0.006722  0.989628  0.502997  1
  Te  Te5  1  0.010372  0.993278  0.997003  1
  Te  Te6  1  0.116466  0.303391  0.650606  1
  Te  Te7  1  0.318895  0.136127  0.129642  1
  O  O8  1  0.979138  0.820794  0.903148  1
  O  O9  1  0.815273  0.973307  0.405295  1
  O  O10  1  0.343985  0.874903  0.880511  1
  O  O11  1  0.788806  0.570551  0.591484  1
  O  O12  1  0.870161  0.306171  0.844052  1
  O  O13  1  0.862310  0.332555  0.384693  1
  O  O14  1  0.581682  0.799044  0.091906  1
  O  O15  1  0.301750  0.869848  0.342954  1
  O  O16  1  0.693829  0.129839  0.655948  1
  O  O17  1  0.429449  0.211194  0.908516  1
  O  O18  1  0.125097  0.656015  0.619489  1
  O  O19  1  0.130152  0.698250  0.157046  1
  O  O20  1  0.200956  0.418318  0.408094  1
  O  O21  1  0.667445  0.137690  0.115307  1
  O  O22  1  0.179206  0.020862  0.596852  1
  O  O23  1  0.026693  0.184727  0.094705  1
