# generated using pymatgen
data_Ba4Si8Os7Ru
_symmetry_space_group_name_H-M   'P 1'
_cell_length_a   6.52124641
_cell_length_b   8.05448672
_cell_length_c   8.05383665
_cell_angle_alpha   80.47879592
_cell_angle_beta   89.94193329
_cell_angle_gamma   90.05680301
_symmetry_Int_Tables_number   1
_chemical_formula_structural   Ba4Si8Os7Ru
_chemical_formula_sum   'Ba4 Si8 Os7 Ru1'
_cell_volume   417.20215296
_cell_formula_units_Z   1
loop_
 _symmetry_equiv_pos_site_id
 _symmetry_equiv_pos_as_xyz
  1  'x, y, z'
loop_
 _atom_site_type_symbol
 _atom_site_label
 _atom_site_symmetry_multiplicity
 _atom_site_fract_x
 _atom_site_fract_y
 _atom_site_fract_z
 _atom_site_occupancy
  Ba  Ba0  1  0.375846  0.003096  0.251473  1
  Ba  Ba1  1  0.874187  0.500939  0.752595  1
  Ba  Ba2  1  0.624955  0.999252  0.749363  1
  Ba  Ba3  1  0.125024  0.498180  0.248076  1
  Si  Si4  1  0.377136  0.324127  0.925038  1
  Si  Si5  1  0.873438  0.175127  0.074312  1
  Si  Si6  1  0.620897  0.677217  0.074205  1
  Si  Si7  1  0.125675  0.823914  0.927058  1
  Si  Si8  1  0.628938  0.324381  0.427009  1
  Si  Si9  1  0.124180  0.176946  0.574204  1
  Si  Si10  1  0.372954  0.676057  0.571962  1
  Si  Si11  1  0.876731  0.822049  0.426070  1
  Os  Os12  1  0.124857  0.874490  0.624627  1
  Os  Os13  1  0.624847  0.625643  0.375447  1
  Os  Os14  1  0.875532  0.124750  0.375657  1
  Os  Os15  1  0.376057  0.374169  0.623450  1
  Os  Os16  1  0.873904  0.873546  0.124206  1
  Os  Os17  1  0.374387  0.625490  0.874635  1
  Os  Os18  1  0.125216  0.125975  0.876221  1
  Ru  Ru19  1  0.625238  0.374654  0.124392  1
