# generated using pymatgen
data_Cs2RbRh2Br9
_symmetry_space_group_name_H-M   'P 1'
_cell_length_a   7.61790708
_cell_length_b   7.61800311
_cell_length_c   19.58820000
_cell_angle_alpha   90.00000000
_cell_angle_beta   90.00000000
_cell_angle_gamma   119.96332239
_symmetry_Int_Tables_number   1
_chemical_formula_structural   Cs2RbRh2Br9
_chemical_formula_sum   'Cs4 Rb2 Rh4 Br18'
_cell_volume   984.83249452
_cell_formula_units_Z   2
loop_
 _symmetry_equiv_pos_site_id
 _symmetry_equiv_pos_as_xyz
  1  'x, y, z'
loop_
 _atom_site_type_symbol
 _atom_site_label
 _atom_site_symmetry_multiplicity
 _atom_site_fract_x
 _atom_site_fract_y
 _atom_site_fract_z
 _atom_site_occupancy
  Cs  Cs0  1  0.666704  0.333308  0.570273  1
  Cs  Cs1  1  0.333296  0.666692  0.070273  1
  Cs  Cs2  1  0.333296  0.666692  0.429727  1
  Cs  Cs3  1  0.666704  0.333308  0.929727  1
  Rb  Rb4  1  0.000008  0.999993  0.250000  1
  Rb  Rb5  1  0.999992  0.000007  0.750000  1
  Rh  Rh6  1  0.333293  0.666688  0.666442  1
  Rh  Rh7  1  0.666707  0.333312  0.333558  1
  Rh  Rh8  1  0.333293  0.666688  0.833558  1
  Rh  Rh9  1  0.666707  0.333312  0.166442  1
  Br  Br10  1  0.822314  0.644804  0.405203  1
  Br  Br11  1  0.177496  0.822539  0.594779  1
  Br  Br12  1  0.644822  0.822318  0.594802  1
  Br  Br13  1  0.822504  0.177461  0.405221  1
  Br  Br14  1  0.355178  0.177682  0.405198  1
  Br  Br15  1  0.177686  0.355196  0.905203  1
  Br  Br16  1  0.034498  0.517501  0.750000  1
  Br  Br17  1  0.644822  0.822318  0.905198  1
  Br  Br18  1  0.822314  0.644804  0.094797  1
  Br  Br19  1  0.177686  0.355196  0.594797  1
  Br  Br20  1  0.482476  0.965445  0.750000  1
  Br  Br21  1  0.517259  0.482823  0.250000  1
  Br  Br22  1  0.482741  0.517177  0.750000  1
  Br  Br23  1  0.177496  0.822539  0.905221  1
  Br  Br24  1  0.355178  0.177682  0.094802  1
  Br  Br25  1  0.965502  0.482499  0.250000  1
  Br  Br26  1  0.517524  0.034555  0.250000  1
  Br  Br27  1  0.822504  0.177461  0.094779  1
