# generated using pymatgen
data_Ce3Pa(B4Mo)4
_symmetry_space_group_name_H-M   'P 1'
_cell_length_a   3.70947500
_cell_length_b   6.03510767
_cell_length_c   11.68351956
_cell_angle_alpha   90.02363706
_cell_angle_beta   90.00000000
_cell_angle_gamma   90.00000000
_symmetry_Int_Tables_number   1
_chemical_formula_structural   Ce3Pa(B4Mo)4
_chemical_formula_sum   'Ce3 Pa1 B16 Mo4'
_cell_volume   261.55987661
_cell_formula_units_Z   1
loop_
 _symmetry_equiv_pos_site_id
 _symmetry_equiv_pos_as_xyz
  1  'x, y, z'
loop_
 _atom_site_type_symbol
 _atom_site_label
 _atom_site_symmetry_multiplicity
 _atom_site_fract_x
 _atom_site_fract_y
 _atom_site_fract_z
 _atom_site_occupancy
  Ce  Ce0  1  0.000000  0.374413  0.650614  1
  Ce  Ce1  1  0.000000  0.125061  0.150821  1
  Ce  Ce2  1  0.000000  0.874859  0.849090  1
  Pa  Pa3  1  0.000000  0.625420  0.349402  1
  B  B4  1  0.500000  0.785112  0.186650  1
  B  B5  1  0.500000  0.213998  0.814816  1
  B  B6  1  0.500000  0.289219  0.314739  1
  B  B7  1  0.500000  0.714795  0.685432  1
  B  B8  1  0.500000  0.863783  0.032486  1
  B  B9  1  0.500000  0.135645  0.968124  1
  B  B10  1  0.500000  0.365578  0.467065  1
  B  B11  1  0.500000  0.635514  0.530740  1
  B  B12  1  0.500000  0.885840  0.452987  1
  B  B13  1  0.500000  0.113421  0.545915  1
  B  B14  1  0.500000  0.386729  0.046587  1
  B  B15  1  0.500000  0.613678  0.953780  1
  B  B16  1  0.500000  0.971064  0.308295  1
  B  B17  1  0.500000  0.025395  0.691554  1
  B  B18  1  0.500000  0.475951  0.193015  1
  B  B19  1  0.500000  0.525179  0.808263  1
  Mo  Mo20  1  0.000000  0.629779  0.087480  1
  Mo  Mo21  1  0.000000  0.369775  0.914191  1
  Mo  Mo22  1  0.000000  0.132303  0.411683  1
  Mo  Mo23  1  0.000000  0.867490  0.586270  1
