# generated using pymatgen
data_Hf6Fe16Si6W
_symmetry_space_group_name_H-M   'P 1'
_cell_length_a   8.11012724
_cell_length_b   8.11012646
_cell_length_c   8.11012600
_cell_angle_alpha   59.99999372
_cell_angle_beta   59.99999691
_cell_angle_gamma   59.99999475
_symmetry_Int_Tables_number   1
_chemical_formula_structural   Hf6Fe16Si6W
_chemical_formula_sum   'Hf6 Fe16 Si6 W1'
_cell_volume   377.19666985
_cell_formula_units_Z   1
loop_
 _symmetry_equiv_pos_site_id
 _symmetry_equiv_pos_as_xyz
  1  'x, y, z'
loop_
 _atom_site_type_symbol
 _atom_site_label
 _atom_site_symmetry_multiplicity
 _atom_site_fract_x
 _atom_site_fract_y
 _atom_site_fract_z
 _atom_site_occupancy
  Hf  Hf0  1  0.290259  0.709741  0.709741  1
  Hf  Hf1  1  0.709741  0.709741  0.290259  1
  Hf  Hf2  1  0.290259  0.290259  0.709741  1
  Hf  Hf3  1  0.709741  0.290259  0.290259  1
  Hf  Hf4  1  0.709741  0.290259  0.709741  1
  Hf  Hf5  1  0.290259  0.709741  0.290259  1
  Fe  Fe6  1  0.876229  0.876229  0.876229  1
  Fe  Fe7  1  0.028464  0.323845  0.323845  1
  Fe  Fe8  1  0.123771  0.123771  0.628687  1
  Fe  Fe9  1  0.323845  0.028464  0.323845  1
  Fe  Fe10  1  0.323845  0.323845  0.323845  1
  Fe  Fe11  1  0.676155  0.676155  0.971536  1
  Fe  Fe12  1  0.876229  0.876229  0.371313  1
  Fe  Fe13  1  0.676155  0.676155  0.676155  1
  Fe  Fe14  1  0.676155  0.971536  0.676155  1
  Fe  Fe15  1  0.323845  0.323845  0.028464  1
  Fe  Fe16  1  0.876229  0.371313  0.876229  1
  Fe  Fe17  1  0.628687  0.123771  0.123771  1
  Fe  Fe18  1  0.123771  0.628687  0.123771  1
  Fe  Fe19  1  0.123771  0.123771  0.123771  1
  Fe  Fe20  1  0.971536  0.676155  0.676155  1
  Fe  Fe21  1  0.371313  0.876229  0.876229  1
  Si  Si22  1  0.000000  0.000000  0.500000  1
  Si  Si23  1  0.000000  0.500000  0.000000  1
  Si  Si24  1  0.500000  0.000000  0.500000  1
  Si  Si25  1  0.000000  0.500000  0.500000  1
  Si  Si26  1  0.500000  0.000000  0.000000  1
  Si  Si27  1  0.500000  0.500000  0.000000  1
  W  W28  1  0.000000  0.000000  0.000000  1
