# generated using pymatgen
data_Y4LuPt9
_symmetry_space_group_name_H-M   'P 1'
_cell_length_a   9.76905300
_cell_length_b   9.76905300
_cell_length_c   5.77197600
_cell_angle_alpha   90.00000000
_cell_angle_beta   90.00000000
_cell_angle_gamma   90.00000000
_symmetry_Int_Tables_number   1
_chemical_formula_structural   Y4LuPt9
_chemical_formula_sum   'Y8 Lu2 Pt18'
_cell_volume   550.84504627
_cell_formula_units_Z   2
loop_
 _symmetry_equiv_pos_site_id
 _symmetry_equiv_pos_as_xyz
  1  'x, y, z'
loop_
 _atom_site_type_symbol
 _atom_site_label
 _atom_site_symmetry_multiplicity
 _atom_site_fract_x
 _atom_site_fract_y
 _atom_site_fract_z
 _atom_site_occupancy
  Y  Y0  1  0.452506  0.809530  0.000000  1
  Y  Y1  1  0.547494  0.190470  0.000000  1
  Y  Y2  1  0.190470  0.547494  0.000000  1
  Y  Y3  1  0.809530  0.452506  0.000000  1
  Y  Y4  1  0.309530  0.047494  0.500000  1
  Y  Y5  1  0.690470  0.952506  0.500000  1
  Y  Y6  1  0.952506  0.690470  0.500000  1
  Y  Y7  1  0.047494  0.309530  0.500000  1
  Lu  Lu8  1  0.500000  0.500000  0.500000  1
  Lu  Lu9  1  0.000000  0.000000  0.000000  1
  Pt  Pt10  1  0.190371  0.809629  0.250367  1
  Pt  Pt11  1  0.809629  0.190371  0.749633  1
  Pt  Pt12  1  0.809629  0.190371  0.250367  1
  Pt  Pt13  1  0.190371  0.809629  0.749633  1
  Pt  Pt14  1  0.439645  0.778566  0.500000  1
  Pt  Pt15  1  0.560355  0.221434  0.500000  1
  Pt  Pt16  1  0.221434  0.560355  0.500000  1
  Pt  Pt17  1  0.778566  0.439645  0.500000  1
  Pt  Pt18  1  0.309629  0.309629  0.249633  1
  Pt  Pt19  1  0.690371  0.690371  0.750367  1
  Pt  Pt20  1  0.690371  0.690371  0.249633  1
  Pt  Pt21  1  0.309629  0.309629  0.750367  1
  Pt  Pt22  1  0.278566  0.060355  0.000000  1
  Pt  Pt23  1  0.721434  0.939645  0.000000  1
  Pt  Pt24  1  0.939645  0.721434  0.000000  1
  Pt  Pt25  1  0.060355  0.278566  0.000000  1
  Pt  Pt26  1  0.000000  0.000000  0.500000  1
  Pt  Pt27  1  0.500000  0.500000  0.000000  1
