# generated using pymatgen
data_Pr10Al4Os5Rh
_symmetry_space_group_name_H-M   'P 1'
_cell_length_a   8.64667512
_cell_length_b   8.64619095
_cell_length_c   8.64619091
_cell_angle_alpha   109.45496347
_cell_angle_beta   109.40078810
_cell_angle_gamma   109.55568391
_symmetry_Int_Tables_number   1
_chemical_formula_structural   Pr10Al4Os5Rh
_chemical_formula_sum   'Pr10 Al4 Os5 Rh1'
_cell_volume   497.60898515
_cell_formula_units_Z   1
loop_
 _symmetry_equiv_pos_site_id
 _symmetry_equiv_pos_as_xyz
  1  'x, y, z'
loop_
 _atom_site_type_symbol
 _atom_site_label
 _atom_site_symmetry_multiplicity
 _atom_site_fract_x
 _atom_site_fract_y
 _atom_site_fract_z
 _atom_site_occupancy
  Pr  Pr0  1  0.250000  0.679560  0.429560  1
  Pr  Pr1  1  0.750000  0.817829  0.067829  1
  Pr  Pr2  1  0.431121  0.250780  0.680126  1
  Pr  Pr3  1  0.683904  0.432482  0.253226  1
  Pr  Pr4  1  0.068879  0.749005  0.819658  1
  Pr  Pr5  1  0.816096  0.069322  0.748579  1
  Pr  Pr6  1  0.210630  0.212824  0.213985  1
  Pr  Pr7  1  0.501445  0.001756  0.289340  1
  Pr  Pr8  1  0.289370  0.503355  0.002193  1
  Pr  Pr9  1  0.998555  0.287896  0.500312  1
  Al  Al10  1  0.590150  0.589847  0.590110  1
  Al  Al11  1  0.502407  0.998431  0.910212  1
  Al  Al12  1  0.909850  0.499960  0.999698  1
  Al  Al13  1  0.997593  0.907805  0.496024  1
  Os  Os14  1  0.750000  0.384307  0.634307  1
  Os  Os15  1  0.865667  0.249600  0.116455  1
  Os  Os16  1  0.117860  0.868594  0.249986  1
  Os  Os17  1  0.634332  0.750786  0.383932  1
  Os  Os18  1  0.382140  0.632125  0.750735  1
  Rh  Rh19  1  0.250000  0.113735  0.863735  1
