# generated using pymatgen
data_BaNaY(H6Ir)2
_symmetry_space_group_name_H-M   'P 1'
_cell_length_a   5.04367900
_cell_length_b   5.04368086
_cell_length_c   8.44638000
_cell_angle_alpha   90.00000000
_cell_angle_beta   90.00000000
_cell_angle_gamma   119.99999437
_symmetry_Int_Tables_number   1
_chemical_formula_structural   BaNaY(H6Ir)2
_chemical_formula_sum   'Ba1 Na1 Y1 H12 Ir2'
_cell_volume   186.07854852
_cell_formula_units_Z   1
loop_
 _symmetry_equiv_pos_site_id
 _symmetry_equiv_pos_as_xyz
  1  'x, y, z'
loop_
 _atom_site_type_symbol
 _atom_site_label
 _atom_site_symmetry_multiplicity
 _atom_site_fract_x
 _atom_site_fract_y
 _atom_site_fract_z
 _atom_site_occupancy
  Ba  Ba0  1  0.000000  0.000000  0.035475  1
  Na  Na1  1  0.666667  0.333333  0.359420  1
  Y  Y2  1  0.333333  0.666667  0.615524  1
  H  H3  1  0.173377  0.826623  0.383427  1
  H  H4  1  0.653246  0.826623  0.383427  1
  H  H5  1  0.173377  0.346754  0.383427  1
  H  H6  1  0.827195  0.172805  0.616764  1
  H  H7  1  0.345610  0.172805  0.616764  1
  H  H8  1  0.827195  0.654390  0.616764  1
  H  H9  1  0.509706  0.019411  0.843504  1
  H  H10  1  0.509706  0.490294  0.843504  1
  H  H11  1  0.980589  0.490294  0.843504  1
  H  H12  1  0.486725  0.973452  0.152992  1
  H  H13  1  0.486725  0.513275  0.152992  1
  H  H14  1  0.026548  0.513275  0.152992  1
  Ir  Ir15  1  0.666667  0.333333  0.727089  1
  Ir  Ir16  1  0.333333  0.666667  0.272428  1
