# generated using pymatgen
data_TbDy3ErIr3
_symmetry_space_group_name_H-M   'P 1'
_cell_length_a   10.87883500
_cell_length_b   10.87668200
_cell_length_c   6.36116200
_cell_angle_alpha   90.00000000
_cell_angle_beta   90.00000000
_cell_angle_gamma   90.00000000
_symmetry_Int_Tables_number   1
_chemical_formula_structural   TbDy3ErIr3
_chemical_formula_sum   'Tb4 Dy12 Er4 Ir12'
_cell_volume   752.68849371
_cell_formula_units_Z   4
loop_
 _symmetry_equiv_pos_site_id
 _symmetry_equiv_pos_as_xyz
  1  'x, y, z'
loop_
 _atom_site_type_symbol
 _atom_site_label
 _atom_site_symmetry_multiplicity
 _atom_site_fract_x
 _atom_site_fract_y
 _atom_site_fract_z
 _atom_site_occupancy
  Tb  Tb0  1  0.290664  0.087904  0.377653  1
  Tb  Tb1  1  0.290664  0.912096  0.877653  1
  Tb  Tb2  1  0.709336  0.087904  0.877653  1
  Tb  Tb3  1  0.709336  0.912096  0.377653  1
  Dy  Dy4  1  0.587746  0.790635  0.877816  1
  Dy  Dy5  1  0.587746  0.209365  0.377816  1
  Dy  Dy6  1  0.412254  0.790635  0.377816  1
  Dy  Dy7  1  0.412254  0.209365  0.877816  1
  Dy  Dy8  1  0.209144  0.412339  0.622151  1
  Dy  Dy9  1  0.209144  0.587661  0.122151  1
  Dy  Dy10  1  0.790856  0.412339  0.122151  1
  Dy  Dy11  1  0.790856  0.587661  0.622151  1
  Dy  Dy12  1  0.912380  0.709082  0.122013  1
  Dy  Dy13  1  0.912380  0.290918  0.622013  1
  Dy  Dy14  1  0.087620  0.709082  0.622013  1
  Dy  Dy15  1  0.087620  0.290918  0.122013  1
  Er  Er16  1  0.000000  0.000000  0.500129  1
  Er  Er17  1  0.000000  0.000000  0.000129  1
  Er  Er18  1  0.500000  0.500000  0.000116  1
  Er  Er19  1  0.500000  0.500000  0.500116  1
  Ir  Ir20  1  0.847440  0.152998  0.250288  1
  Ir  Ir21  1  0.847440  0.847002  0.750288  1
  Ir  Ir22  1  0.152560  0.152998  0.750288  1
  Ir  Ir23  1  0.152560  0.847002  0.250288  1
  Ir  Ir24  1  0.652681  0.347455  0.749880  1
  Ir  Ir25  1  0.652681  0.652545  0.249880  1
  Ir  Ir26  1  0.347319  0.347455  0.249880  1
  Ir  Ir27  1  0.347319  0.652545  0.749880  1
  Ir  Ir28  1  0.500000  0.000000  0.121202  1
  Ir  Ir29  1  0.500000  0.000000  0.621202  1
  Ir  Ir30  1  0.000000  0.500000  0.878949  1
  Ir  Ir31  1  0.000000  0.500000  0.378949  1
