# generated using pymatgen
data_Be(Sb5Pd2)2
_symmetry_space_group_name_H-M   'P 1'
_cell_length_a   20.36683499
_cell_length_b   20.36683462
_cell_length_c   6.53373400
_cell_angle_alpha   68.31309161
_cell_angle_beta   68.31309202
_cell_angle_gamma   8.35941929
_symmetry_Int_Tables_number   1
_chemical_formula_structural   Be(Sb5Pd2)2
_chemical_formula_sum   'Be1 Sb10 Pd4'
_cell_volume   365.97701551
_cell_formula_units_Z   1
loop_
 _symmetry_equiv_pos_site_id
 _symmetry_equiv_pos_as_xyz
  1  'x, y, z'
loop_
 _atom_site_type_symbol
 _atom_site_label
 _atom_site_symmetry_multiplicity
 _atom_site_fract_x
 _atom_site_fract_y
 _atom_site_fract_z
 _atom_site_occupancy
  Be  Be0  1  0.005716  0.005716  0.005325  1
  Sb  Sb1  1  0.677403  0.677403  0.732719  1
  Sb  Sb2  1  0.278423  0.278423  0.732799  1
  Sb  Sb3  1  0.879677  0.879677  0.738181  1
  Sb  Sb4  1  0.532319  0.532319  0.255151  1
  Sb  Sb5  1  0.131922  0.131922  0.262593  1
  Sb  Sb6  1  0.732822  0.732822  0.260930  1
  Sb  Sb7  1  0.333709  0.333709  0.262380  1
  Sb  Sb8  1  0.935403  0.935403  0.269750  1
  Sb  Sb9  1  0.075933  0.075933  0.733353  1
  Sb  Sb10  1  0.479530  0.479530  0.751640  1
  Pd  Pd11  1  0.603695  0.603695  0.997996  1
  Pd  Pd12  1  0.205874  0.205874  0.993918  1
  Pd  Pd13  1  0.805437  0.805437  0.999715  1
  Pd  Pd14  1  0.407858  0.407858  0.003545  1
