# generated using pymatgen
data_Y12Er4CdNi4Ag3
_symmetry_space_group_name_H-M   'P 1'
_cell_length_a   9.48826841
_cell_length_b   9.50429832
_cell_length_c   9.50429900
_cell_angle_alpha   59.99999416
_cell_angle_beta   59.94409200
_cell_angle_gamma   59.94409212
_symmetry_Int_Tables_number   1
_chemical_formula_structural   Y12Er4CdNi4Ag3
_chemical_formula_sum   'Y12 Er4 Cd1 Ni4 Ag3'
_cell_volume   605.54242801
_cell_formula_units_Z   1
loop_
 _symmetry_equiv_pos_site_id
 _symmetry_equiv_pos_as_xyz
  1  'x, y, z'
loop_
 _atom_site_type_symbol
 _atom_site_label
 _atom_site_symmetry_multiplicity
 _atom_site_fract_x
 _atom_site_fract_y
 _atom_site_fract_z
 _atom_site_occupancy
  Y  Y0  1  0.059815  0.439829  0.439829  1
  Y  Y1  1  0.438895  0.060824  0.060824  1
  Y  Y2  1  0.438895  0.060824  0.439457  1
  Y  Y3  1  0.059815  0.439829  0.060527  1
  Y  Y4  1  0.438895  0.439457  0.060824  1
  Y  Y5  1  0.059815  0.060527  0.439829  1
  Y  Y6  1  0.184548  0.813862  0.813862  1
  Y  Y7  1  0.815010  0.185754  0.185754  1
  Y  Y8  1  0.815010  0.185754  0.813483  1
  Y  Y9  1  0.184548  0.813862  0.187729  1
  Y  Y10  1  0.815010  0.813483  0.185754  1
  Y  Y11  1  0.184548  0.187729  0.813862  1
  Er  Er12  1  0.599034  0.597628  0.597628  1
  Er  Er13  1  0.599034  0.597628  0.205709  1
  Er  Er14  1  0.599034  0.205709  0.597628  1
  Er  Er15  1  0.199539  0.600153  0.600153  1
  Cd  Cd16  1  0.515894  0.828035  0.828035  1
  Ni  Ni17  1  0.392032  0.394756  0.394756  1
  Ni  Ni18  1  0.392032  0.394756  0.818459  1
  Ni  Ni19  1  0.392032  0.818459  0.394756  1
  Ni  Ni20  1  0.820776  0.393075  0.393075  1
  Ag  Ag21  1  0.831931  0.832325  0.832325  1
  Ag  Ag22  1  0.831931  0.832325  0.503419  1
  Ag  Ag23  1  0.831931  0.503419  0.832325  1
