# generated using pymatgen
data_Sc4Re3B8Ru7
_symmetry_space_group_name_H-M   'P 1'
_cell_length_a   3.03535600
_cell_length_b   8.53644725
_cell_length_c   10.05085048
_cell_angle_alpha   90.14702932
_cell_angle_beta   90.00000000
_cell_angle_gamma   90.00000000
_symmetry_Int_Tables_number   1
_chemical_formula_structural   Sc4Re3B8Ru7
_chemical_formula_sum   'Sc4 Re3 B8 Ru7'
_cell_volume   260.42830084
_cell_formula_units_Z   1
loop_
 _symmetry_equiv_pos_site_id
 _symmetry_equiv_pos_as_xyz
  1  'x, y, z'
loop_
 _atom_site_type_symbol
 _atom_site_label
 _atom_site_symmetry_multiplicity
 _atom_site_fract_x
 _atom_site_fract_y
 _atom_site_fract_z
 _atom_site_occupancy
  Sc  Sc0  1  0.500000  0.841661  0.180737  1
  Sc  Sc1  1  0.500000  0.158075  0.820303  1
  Sc  Sc2  1  0.500000  0.657967  0.681781  1
  Sc  Sc3  1  0.500000  0.342231  0.316532  1
  Re  Re4  1  0.000000  0.660512  0.952849  1
  Re  Re5  1  0.000000  0.339397  0.046801  1
  Re  Re6  1  0.000000  0.841501  0.453847  1
  B  B7  1  0.500000  0.962494  0.588853  1
  B  B8  1  0.500000  0.032370  0.409902  1
  B  B9  1  0.500000  0.849387  0.901815  1
  B  B10  1  0.500000  0.152401  0.099026  1
  B  B11  1  0.500000  0.651178  0.400002  1
  B  B12  1  0.500000  0.350830  0.599983  1
  B  B13  1  0.500000  0.464182  0.911506  1
  B  B14  1  0.500000  0.535634  0.088258  1
  Ru  Ru15  1  0.000000  0.161285  0.547839  1
  Ru  Ru16  1  0.000000  0.000156  0.000400  1
  Ru  Ru17  1  0.000000  0.403710  0.759540  1
  Ru  Ru18  1  0.000000  0.596146  0.239719  1
  Ru  Ru19  1  0.000000  0.499552  0.499986  1
  Ru  Ru20  1  0.000000  0.904464  0.738971  1
  Ru  Ru21  1  0.000000  0.094865  0.261354  1
