# generated using pymatgen
data_Dy4YMo2C7
_symmetry_space_group_name_H-M   'P 1'
_cell_length_a   8.40177600
_cell_length_b   8.40177519
_cell_length_c   3.43298500
_cell_angle_alpha   90.00000000
_cell_angle_beta   90.00000000
_cell_angle_gamma   122.67805972
_symmetry_Int_Tables_number   1
_chemical_formula_structural   Dy4YMo2C7
_chemical_formula_sum   'Dy4 Y1 Mo2 C7'
_cell_volume   203.97665541
_cell_formula_units_Z   1
loop_
 _symmetry_equiv_pos_site_id
 _symmetry_equiv_pos_as_xyz
  1  'x, y, z'
loop_
 _atom_site_type_symbol
 _atom_site_label
 _atom_site_symmetry_multiplicity
 _atom_site_fract_x
 _atom_site_fract_y
 _atom_site_fract_z
 _atom_site_occupancy
  Dy  Dy0  1  0.074065  0.332059  0.500000  1
  Dy  Dy1  1  0.925935  0.667941  0.500000  1
  Dy  Dy2  1  0.667941  0.925935  0.500000  1
  Dy  Dy3  1  0.332059  0.074065  0.500000  1
  Y  Y4  1  0.500000  0.500000  0.000000  1
  Mo  Mo5  1  0.712132  0.287868  0.000000  1
  Mo  Mo6  1  0.287868  0.712132  0.000000  1
  C  C7  1  0.624706  0.375294  0.500000  1
  C  C8  1  0.375294  0.624706  0.500000  1
  C  C9  1  0.000000  0.000000  0.000000  1
  C  C10  1  0.168041  0.168041  0.000000  1
  C  C11  1  0.831959  0.831959  0.000000  1
  C  C12  1  0.000000  0.500000  0.000000  1
  C  C13  1  0.500000  0.000000  0.000000  1
