# generated using pymatgen
data_PrThCdPd2
_symmetry_space_group_name_H-M   'P 1'
_cell_length_a   7.94986100
_cell_length_b   7.95463800
_cell_length_c   3.86713800
_cell_angle_alpha   90.00000000
_cell_angle_beta   90.00000000
_cell_angle_gamma   90.00000000
_symmetry_Int_Tables_number   1
_chemical_formula_structural   PrThCdPd2
_chemical_formula_sum   'Pr2 Th2 Cd2 Pd4'
_cell_volume   244.55110307
_cell_formula_units_Z   2
loop_
 _symmetry_equiv_pos_site_id
 _symmetry_equiv_pos_as_xyz
  1  'x, y, z'
loop_
 _atom_site_type_symbol
 _atom_site_label
 _atom_site_symmetry_multiplicity
 _atom_site_fract_x
 _atom_site_fract_y
 _atom_site_fract_z
 _atom_site_occupancy
  Pr  Pr0  1  0.174483  0.326016  0.500000  1
  Pr  Pr1  1  0.674483  0.173984  0.500000  1
  Th  Th2  1  0.327394  0.829100  0.500000  1
  Th  Th3  1  0.827394  0.670900  0.500000  1
  Cd  Cd4  1  0.998245  0.002652  0.000000  1
  Cd  Cd5  1  0.498245  0.497348  0.000000  1
  Pd  Pd6  1  0.371729  0.112942  0.000000  1
  Pd  Pd7  1  0.871729  0.387058  0.000000  1
  Pd  Pd8  1  0.128149  0.639961  0.000000  1
  Pd  Pd9  1  0.628149  0.860039  0.000000  1
