# generated using pymatgen
data_Tl3Bi8PbO24
_symmetry_space_group_name_H-M   'P 1'
_cell_length_a   7.21621366
_cell_length_b   7.18148182
_cell_length_c   11.52576900
_cell_angle_alpha   108.17549898
_cell_angle_beta   71.74397154
_cell_angle_gamma   90.02310006
_symmetry_Int_Tables_number   1
_chemical_formula_structural   Tl3Bi8PbO24
_chemical_formula_sum   'Tl3 Bi8 Pb1 O24'
_cell_volume   535.79112190
_cell_formula_units_Z   1
loop_
 _symmetry_equiv_pos_site_id
 _symmetry_equiv_pos_as_xyz
  1  'x, y, z'
loop_
 _atom_site_type_symbol
 _atom_site_label
 _atom_site_symmetry_multiplicity
 _atom_site_fract_x
 _atom_site_fract_y
 _atom_site_fract_z
 _atom_site_occupancy
  Tl  Tl0  1  0.083141  0.416812  0.833777  1
  Tl  Tl1  1  0.833357  0.166630  0.333331  1
  Tl  Tl2  1  0.583460  0.916571  0.832873  1
  Bi  Bi3  1  0.999313  0.000589  0.001181  1
  Bi  Bi4  1  0.501038  0.499036  0.997989  1
  Bi  Bi5  1  0.667318  0.332736  0.665488  1
  Bi  Bi6  1  0.165579  0.834305  0.668646  1
  Bi  Bi7  1  0.417775  0.082090  0.164235  1
  Bi  Bi8  1  0.916895  0.583234  0.166276  1
  Bi  Bi9  1  0.248873  0.251275  0.502475  1
  Bi  Bi10  1  0.749811  0.750065  0.500440  1
  Pb  Pb11  1  0.333461  0.666669  0.333290  1
  O  O12  1  0.395711  0.416236  0.832349  1
  O  O13  1  0.894669  0.917081  0.834251  1
  O  O14  1  0.333367  0.359335  0.333062  1
  O  O15  1  0.833335  0.853981  0.333117  1
  O  O16  1  0.333428  0.973907  0.333377  1
  O  O17  1  0.833447  0.479083  0.333118  1
  O  O18  1  0.771943  0.416249  0.832501  1
  O  O19  1  0.270831  0.917094  0.834376  1
  O  O20  1  0.724771  0.080529  0.160068  1
  O  O21  1  0.226060  0.582789  0.164664  1
  O  O22  1  0.552020  0.253479  0.506365  1
  O  O23  1  0.057759  0.751067  0.501673  1
  O  O24  1  0.498518  0.201158  0.003277  1
  O  O25  1  0.997552  0.699886  0.004820  1
  O  O26  1  0.168018  0.531319  0.663361  1
  O  O27  1  0.669023  0.028522  0.661710  1
  O  O28  1  0.498569  0.802228  0.003412  1
  O  O29  1  0.997661  0.305140  0.005130  1
  O  O30  1  0.168034  0.132132  0.663525  1
  O  O31  1  0.669059  0.633282  0.662049  1
  O  O32  1  0.114858  0.079809  0.160263  1
  O  O33  1  0.609222  0.582252  0.164910  1
  O  O34  1  0.941705  0.252798  0.506574  1
  O  O35  1  0.440422  0.750631  0.502038  1
