# generated using pymatgen
data_Cs3Ru2(O2F3)2
_symmetry_space_group_name_H-M   'P 1'
_cell_length_a   8.79143522
_cell_length_b   8.79143578
_cell_length_c   8.99791600
_cell_angle_alpha   72.37652253
_cell_angle_beta   72.37652136
_cell_angle_gamma   90.38088736
_symmetry_Int_Tables_number   1
_chemical_formula_structural   Cs3Ru2(O2F3)2
_chemical_formula_sum   'Cs6 Ru4 O8 F12'
_cell_volume   627.98512603
_cell_formula_units_Z   2
loop_
 _symmetry_equiv_pos_site_id
 _symmetry_equiv_pos_as_xyz
  1  'x, y, z'
loop_
 _atom_site_type_symbol
 _atom_site_label
 _atom_site_symmetry_multiplicity
 _atom_site_fract_x
 _atom_site_fract_y
 _atom_site_fract_z
 _atom_site_occupancy
  Cs  Cs0  1  0.959904  0.750020  0.989031  1
  Cs  Cs1  1  0.249980  0.040096  0.510969  1
  Cs  Cs2  1  0.040096  0.249980  0.010969  1
  Cs  Cs3  1  0.750020  0.959904  0.489031  1
  Cs  Cs4  1  0.500000  0.500000  0.000000  1
  Cs  Cs5  1  0.500000  0.500000  0.500000  1
  Ru  Ru6  1  0.019847  0.429778  0.364388  1
  Ru  Ru7  1  0.570222  0.980153  0.135612  1
  Ru  Ru8  1  0.980153  0.570222  0.635612  1
  Ru  Ru9  1  0.429778  0.019847  0.864388  1
  O  O10  1  0.952365  0.372946  0.596896  1
  O  O11  1  0.627054  0.047635  0.903104  1
  O  O12  1  0.047635  0.627054  0.403104  1
  O  O13  1  0.372946  0.952365  0.096896  1
  O  O14  1  0.846833  0.435987  0.309958  1
  O  O15  1  0.564013  0.153167  0.190042  1
  O  O16  1  0.153167  0.564013  0.690042  1
  O  O17  1  0.435987  0.846833  0.809958  1
  F  F18  1  0.150150  0.511887  0.122581  1
  F  F19  1  0.488113  0.849850  0.377419  1
  F  F20  1  0.849850  0.488113  0.877419  1
  F  F21  1  0.511887  0.150150  0.622581  1
  F  F22  1  0.026819  0.200974  0.357946  1
  F  F23  1  0.799026  0.973181  0.142054  1
  F  F24  1  0.973181  0.799026  0.642054  1
  F  F25  1  0.200974  0.026819  0.857946  1
  F  F26  1  0.754747  0.605637  0.621928  1
  F  F27  1  0.394363  0.245253  0.878072  1
  F  F28  1  0.245253  0.394363  0.378072  1
  F  F29  1  0.605637  0.754747  0.121928  1
