# generated using pymatgen
data_La20Co4BiSb7
_symmetry_space_group_name_H-M   'P 1'
_cell_length_a   8.41861027
_cell_length_b   9.19351426
_cell_length_c   12.82425544
_cell_angle_alpha   89.98506772
_cell_angle_beta   90.39225725
_cell_angle_gamma   90.05815322
_symmetry_Int_Tables_number   1
_chemical_formula_structural   La20Co4BiSb7
_chemical_formula_sum   'La20 Co4 Bi1 Sb7'
_cell_volume   992.53013935
_cell_formula_units_Z   1
loop_
 _symmetry_equiv_pos_site_id
 _symmetry_equiv_pos_as_xyz
  1  'x, y, z'
loop_
 _atom_site_type_symbol
 _atom_site_label
 _atom_site_symmetry_multiplicity
 _atom_site_fract_x
 _atom_site_fract_y
 _atom_site_fract_z
 _atom_site_occupancy
  La  La0  1  0.356358  0.747511  0.701091  1
  La  La1  1  0.646037  0.249821  0.298553  1
  La  La2  1  0.851852  0.252333  0.801139  1
  La  La3  1  0.146824  0.750021  0.200480  1
  La  La4  1  0.877615  0.747594  0.808480  1
  La  La5  1  0.120385  0.250134  0.192889  1
  La  La6  1  0.381834  0.252179  0.693706  1
  La  La7  1  0.621392  0.749829  0.305766  1
  La  La8  1  0.683935  0.535721  0.562946  1
  La  La9  1  0.316951  0.464643  0.436402  1
  La  La10  1  0.184148  0.464980  0.937747  1
  La  La11  1  0.316547  0.035187  0.435279  1
  La  La12  1  0.815969  0.535038  0.063114  1
  La  La13  1  0.681461  0.964512  0.562300  1
  La  La14  1  0.815673  0.965303  0.063051  1
  La  La15  1  0.185064  0.035203  0.939520  1
  La  La16  1  0.053540  0.747792  0.493156  1
  La  La17  1  0.945592  0.252098  0.503743  1
  La  La18  1  0.552197  0.249593  0.005212  1
  La  La19  1  0.447540  0.750360  0.995069  1
  Co  Co20  1  0.073695  0.749816  0.991349  1
  Co  Co21  1  0.926133  0.249967  0.009675  1
  Co  Co22  1  0.574627  0.250531  0.508936  1
  Co  Co23  1  0.425377  0.749850  0.489748  1
  Bi  Bi24  1  0.076046  0.005027  0.674371  1
  Sb  Sb25  1  0.575647  0.505170  0.827722  1
  Sb  Sb26  1  0.424082  0.495074  0.172977  1
  Sb  Sb27  1  0.075808  0.495008  0.673438  1
  Sb  Sb28  1  0.424042  0.004816  0.173220  1
  Sb  Sb29  1  0.923772  0.504821  0.325618  1
  Sb  Sb30  1  0.575838  0.995016  0.826605  1
  Sb  Sb31  1  0.924020  0.995052  0.326700  1
