# generated using pymatgen
data_EuEr3(Si5Pt3)2
_symmetry_space_group_name_H-M   'P 1'
_cell_length_a   8.18595797
_cell_length_b   8.18535918
_cell_length_c   8.18535932
_cell_angle_alpha   136.66001313
_cell_angle_beta   104.13739361
_cell_angle_gamma   91.62960548
_symmetry_Int_Tables_number   1
_chemical_formula_structural   EuEr3(Si5Pt3)2
_chemical_formula_sum   'Eu1 Er3 Si10 Pt6'
_cell_volume   347.08215477
_cell_formula_units_Z   1
loop_
 _symmetry_equiv_pos_site_id
 _symmetry_equiv_pos_as_xyz
  1  'x, y, z'
loop_
 _atom_site_type_symbol
 _atom_site_label
 _atom_site_symmetry_multiplicity
 _atom_site_fract_x
 _atom_site_fract_y
 _atom_site_fract_z
 _atom_site_occupancy
  Eu  Eu0  1  0.361523  0.629095  0.732427  1
  Er  Er1  1  0.099302  0.870821  0.228482  1
  Er  Er2  1  0.899790  0.128912  0.770878  1
  Er  Er3  1  0.641579  0.371479  0.270100  1
  Si  Si4  1  0.001147  0.745716  0.746316  1
  Si  Si5  1  0.001147  0.254831  0.255431  1
  Si  Si6  1  0.271099  0.019676  0.748481  1
  Si  Si7  1  0.727789  0.479903  0.749562  1
  Si  Si8  1  0.727789  0.978227  0.247886  1
  Si  Si9  1  0.271099  0.522618  0.251423  1
  Si  Si10  1  0.761119  0.611357  0.149762  1
  Si  Si11  1  0.236078  0.386428  0.849650  1
  Si  Si12  1  0.458915  0.111510  0.347405  1
  Si  Si13  1  0.541913  0.889437  0.652475  1
  Pt  Pt14  1  0.500499  0.750757  0.253038  1
  Pt  Pt15  1  0.500499  0.247461  0.749741  1
  Pt  Pt16  1  0.021092  0.638104  0.382987  1
  Pt  Pt17  1  0.973967  0.359254  0.614713  1
  Pt  Pt18  1  0.249173  0.137390  0.111783  1
  Pt  Pt19  1  0.754482  0.867022  0.887460  1
