# generated using pymatgen
data_TaNb2Ga2RuC
_symmetry_space_group_name_H-M   'P 1'
_cell_length_a   8.34430502
_cell_length_b   8.34104571
_cell_length_c   8.34430400
_cell_angle_alpha   59.95484874
_cell_angle_beta   59.97382002
_cell_angle_gamma   59.95484390
_symmetry_Int_Tables_number   1
_chemical_formula_structural   TaNb2Ga2RuC
_chemical_formula_sum   'Ta4 Nb8 Ga8 Ru4 C4'
_cell_volume   410.30155833
_cell_formula_units_Z   4
loop_
 _symmetry_equiv_pos_site_id
 _symmetry_equiv_pos_as_xyz
  1  'x, y, z'
loop_
 _atom_site_type_symbol
 _atom_site_label
 _atom_site_symmetry_multiplicity
 _atom_site_fract_x
 _atom_site_fract_y
 _atom_site_fract_z
 _atom_site_occupancy
  Ta  Ta0  1  0.557225  0.942432  0.943023  1
  Ta  Ta1  1  0.943023  0.942432  0.557225  1
  Ta  Ta2  1  0.693453  0.307118  0.693453  1
  Ta  Ta3  1  0.942525  0.557526  0.942525  1
  Nb  Nb4  1  0.557887  0.942277  0.557887  1
  Nb  Nb5  1  0.307605  0.693000  0.693113  1
  Nb  Nb6  1  0.692295  0.307522  0.307664  1
  Nb  Nb7  1  0.307235  0.692632  0.307235  1
  Nb  Nb8  1  0.693113  0.693000  0.307605  1
  Nb  Nb9  1  0.307664  0.307522  0.692295  1
  Nb  Nb10  1  0.556980  0.557251  0.943365  1
  Nb  Nb11  1  0.943365  0.557251  0.556980  1
  Ga  Ga12  1  0.914564  0.913050  0.914564  1
  Ga  Ga13  1  0.992155  0.336482  0.334959  1
  Ga  Ga14  1  0.336244  0.992500  0.336244  1
  Ga  Ga15  1  0.334959  0.336482  0.992155  1
  Ga  Ga16  1  0.914617  0.257328  0.914617  1
  Ga  Ga17  1  0.913420  0.914658  0.257106  1
  Ga  Ga18  1  0.257106  0.914658  0.913420  1
  Ga  Ga19  1  0.336076  0.334870  0.336076  1
  Ru  Ru20  1  0.125348  0.124745  0.125348  1
  Ru  Ru21  1  0.625089  0.125156  0.120641  1
  Ru  Ru22  1  0.123964  0.624858  0.123964  1
  Ru  Ru23  1  0.120641  0.125156  0.625089  1
  C  C24  1  0.625956  0.622927  0.625956  1
  C  C25  1  0.123145  0.626645  0.626874  1
  C  C26  1  0.627472  0.123871  0.627472  1
  C  C27  1  0.626874  0.626645  0.123145  1
