# generated using pymatgen
data_TbScNiAs2
_symmetry_space_group_name_H-M   'P 1'
_cell_length_a   4.10637300
_cell_length_b   4.10637209
_cell_length_c   13.28703200
_cell_angle_alpha   90.00000000
_cell_angle_beta   90.00000000
_cell_angle_gamma   120.00001536
_symmetry_Int_Tables_number   1
_chemical_formula_structural   TbScNiAs2
_chemical_formula_sum   'Tb2 Sc2 Ni2 As4'
_cell_volume   194.03284028
_cell_formula_units_Z   2
loop_
 _symmetry_equiv_pos_site_id
 _symmetry_equiv_pos_as_xyz
  1  'x, y, z'
loop_
 _atom_site_type_symbol
 _atom_site_label
 _atom_site_symmetry_multiplicity
 _atom_site_fract_x
 _atom_site_fract_y
 _atom_site_fract_z
 _atom_site_occupancy
  Tb  Tb0  1  0.666667  0.333333  0.349710  1
  Tb  Tb1  1  0.333333  0.666667  0.849710  1
  Sc  Sc2  1  0.666667  0.333333  0.616455  1
  Sc  Sc3  1  0.333333  0.666667  0.116455  1
  Ni  Ni4  1  0.000000  0.000000  0.021760  1
  Ni  Ni5  1  0.000000  0.000000  0.521760  1
  As  As6  1  0.666667  0.333333  0.980367  1
  As  As7  1  0.333333  0.666667  0.480367  1
  As  As8  1  0.000000  0.000000  0.716038  1
  As  As9  1  0.000000  0.000000  0.216038  1
