# generated using pymatgen
data_ErTm3(FeB4)4
_symmetry_space_group_name_H-M   'P 1'
_cell_length_a   3.34806000
_cell_length_b   5.86319204
_cell_length_c   11.34077107
_cell_angle_alpha   89.98743160
_cell_angle_beta   90.00000000
_cell_angle_gamma   90.00000000
_symmetry_Int_Tables_number   1
_chemical_formula_structural   ErTm3(FeB4)4
_chemical_formula_sum   'Er1 Tm3 Fe4 B16'
_cell_volume   222.62294531
_cell_formula_units_Z   1
loop_
 _symmetry_equiv_pos_site_id
 _symmetry_equiv_pos_as_xyz
  1  'x, y, z'
loop_
 _atom_site_type_symbol
 _atom_site_label
 _atom_site_symmetry_multiplicity
 _atom_site_fract_x
 _atom_site_fract_y
 _atom_site_fract_z
 _atom_site_occupancy
  Er  Er0  1  0.500000  0.373280  0.150304  1
  Tm  Tm1  1  0.500000  0.626897  0.849627  1
  Tm  Tm2  1  0.500000  0.126801  0.650268  1
  Tm  Tm3  1  0.500000  0.873179  0.349822  1
  Fe  Fe4  1  0.500000  0.366356  0.411718  1
  Fe  Fe5  1  0.500000  0.633643  0.588817  1
  Fe  Fe6  1  0.500000  0.133340  0.910965  1
  Fe  Fe7  1  0.500000  0.866563  0.088526  1
  B  B8  1  0.000000  0.111317  0.046159  1
  B  B9  1  0.000000  0.888075  0.953277  1
  B  B10  1  0.000000  0.388216  0.546494  1
  B  B11  1  0.000000  0.611987  0.453794  1
  B  B12  1  0.000000  0.138137  0.468692  1
  B  B13  1  0.000000  0.861731  0.531518  1
  B  B14  1  0.000000  0.361555  0.968185  1
  B  B15  1  0.000000  0.638511  0.031239  1
  B  B16  1  0.000000  0.023847  0.191054  1
  B  B17  1  0.000000  0.975674  0.808871  1
  B  B18  1  0.000000  0.475705  0.691011  1
  B  B19  1  0.000000  0.524634  0.309359  1
  B  B20  1  0.000000  0.216482  0.316260  1
  B  B21  1  0.000000  0.783321  0.684081  1
  B  B22  1  0.000000  0.283372  0.815755  1
  B  B23  1  0.000000  0.717377  0.184201  1
