# generated using pymatgen
data_La2B2Pt3Rh4Au
_symmetry_space_group_name_H-M   'P 1'
_cell_length_a   5.51531296
_cell_length_b   5.51531148
_cell_length_c   7.58402900
_cell_angle_alpha   90.00000000
_cell_angle_beta   90.00000000
_cell_angle_gamma   119.54771801
_symmetry_Int_Tables_number   1
_chemical_formula_structural   La2B2Pt3Rh4Au
_chemical_formula_sum   'La2 B2 Pt3 Rh4 Au1'
_cell_volume   200.69295569
_cell_formula_units_Z   1
loop_
 _symmetry_equiv_pos_site_id
 _symmetry_equiv_pos_as_xyz
  1  'x, y, z'
loop_
 _atom_site_type_symbol
 _atom_site_label
 _atom_site_symmetry_multiplicity
 _atom_site_fract_x
 _atom_site_fract_y
 _atom_site_fract_z
 _atom_site_occupancy
  La  La0  1  0.999077  0.000923  0.500000  1
  La  La1  1  0.000145  0.999855  0.000000  1
  B  B2  1  0.329215  0.670785  0.000000  1
  B  B3  1  0.670587  0.329413  0.000000  1
  Pt  Pt4  1  0.673123  0.326877  0.500000  1
  Pt  Pt5  1  0.500779  0.499221  0.199015  1
  Pt  Pt6  1  0.500779  0.499221  0.800985  1
  Rh  Rh7  1  0.501732  0.002387  0.192731  1
  Rh  Rh8  1  0.501732  0.002387  0.807269  1
  Rh  Rh9  1  0.997613  0.498268  0.192731  1
  Rh  Rh10  1  0.997613  0.498268  0.807269  1
  Au  Au11  1  0.327606  0.672394  0.500000  1
