# generated using pymatgen
data_Tb5Dy11(TmBi3)4
_symmetry_space_group_name_H-M   'P 1'
_cell_length_a   8.24387540
_cell_length_b   9.51202669
_cell_length_c   12.04770718
_cell_angle_alpha   89.98007194
_cell_angle_beta   90.01787909
_cell_angle_gamma   90.01719091
_symmetry_Int_Tables_number   1
_chemical_formula_structural   Tb5Dy11(TmBi3)4
_chemical_formula_sum   'Tb5 Dy11 Tm4 Bi12'
_cell_volume   944.73241245
_cell_formula_units_Z   1
loop_
 _symmetry_equiv_pos_site_id
 _symmetry_equiv_pos_as_xyz
  1  'x, y, z'
loop_
 _atom_site_type_symbol
 _atom_site_label
 _atom_site_symmetry_multiplicity
 _atom_site_fract_x
 _atom_site_fract_y
 _atom_site_fract_z
 _atom_site_occupancy
  Tb  Tb0  1  0.192423  0.563220  0.440847  1
  Tb  Tb1  1  0.312797  0.250035  0.218611  1
  Tb  Tb2  1  0.813038  0.250007  0.281316  1
  Tb  Tb3  1  0.687206  0.750117  0.781559  1
  Tb  Tb4  1  0.187147  0.750330  0.718831  1
  Dy  Dy5  1  0.353535  0.750427  0.216400  1
  Dy  Dy6  1  0.852790  0.750311  0.283362  1
  Dy  Dy7  1  0.647034  0.250162  0.783513  1
  Dy  Dy8  1  0.147110  0.250368  0.716594  1
  Dy  Dy9  1  0.692749  0.564570  0.059037  1
  Dy  Dy10  1  0.192827  0.934839  0.440718  1
  Dy  Dy11  1  0.307167  0.064573  0.941016  1
  Dy  Dy12  1  0.807657  0.435358  0.558983  1
  Dy  Dy13  1  0.307327  0.435433  0.940909  1
  Dy  Dy14  1  0.806611  0.064463  0.559417  1
  Dy  Dy15  1  0.692777  0.935496  0.058968  1
  Tm  Tm16  1  0.475712  0.250183  0.488265  1
  Tm  Tm17  1  0.975575  0.250172  0.011554  1
  Tm  Tm18  1  0.524561  0.750082  0.511770  1
  Tm  Tm19  1  0.024430  0.750067  0.988234  1
  Bi  Bi20  1  0.405615  0.749928  0.958172  1
  Bi  Bi21  1  0.905518  0.750374  0.541963  1
  Bi  Bi22  1  0.594424  0.250032  0.041774  1
  Bi  Bi23  1  0.093800  0.248172  0.458528  1
  Bi  Bi24  1  0.565384  0.995391  0.326495  1
  Bi  Bi25  1  0.065215  0.505054  0.173129  1
  Bi  Bi26  1  0.434658  0.495303  0.673610  1
  Bi  Bi27  1  0.934594  0.005162  0.826623  1
  Bi  Bi28  1  0.434688  0.005039  0.673493  1
  Bi  Bi29  1  0.934454  0.495178  0.826644  1
  Bi  Bi30  1  0.565841  0.505004  0.326415  1
  Bi  Bi31  1  0.065332  0.995151  0.173247  1
