# generated using pymatgen
data_TbCl23
_symmetry_space_group_name_H-M   'P 1'
_cell_length_a   8.36467105
_cell_length_b   8.36464493
_cell_length_c   19.04159741
_cell_angle_alpha   97.31254666
_cell_angle_beta   97.31066169
_cell_angle_gamma   129.68936132
_symmetry_Int_Tables_number   1
_chemical_formula_structural   TbCl23
_chemical_formula_sum   'Tb1 Cl23'
_cell_volume   978.19543780
_cell_formula_units_Z   1
loop_
 _symmetry_equiv_pos_site_id
 _symmetry_equiv_pos_as_xyz
  1  'x, y, z'
loop_
 _atom_site_type_symbol
 _atom_site_label
 _atom_site_symmetry_multiplicity
 _atom_site_fract_x
 _atom_site_fract_y
 _atom_site_fract_z
 _atom_site_occupancy
  Tb  Tb0  1  0.212916  0.787084  0.666664  1
  Cl  Cl1  1  0.218379  0.068367  0.996623  1
  Cl  Cl2  1  0.497448  0.746200  0.990849  1
  Cl  Cl3  1  0.253799  0.502555  0.342483  1
  Cl  Cl4  1  0.931625  0.781617  0.336711  1
  Cl  Cl5  1  0.816348  0.183661  0.666668  1
  Cl  Cl6  1  0.629936  0.467064  0.122660  1
  Cl  Cl7  1  0.919637  0.147004  0.119391  1
  Cl  Cl8  1  0.201625  0.732088  0.111995  1
  Cl  Cl9  1  0.267911  0.798373  0.221338  1
  Cl  Cl10  1  0.852992  0.080363  0.213942  1
  Cl  Cl11  1  0.532932  0.370066  0.210674  1
  Cl  Cl12  1  0.858362  0.512468  0.456666  1
  Cl  Cl13  1  0.201451  0.061030  0.405723  1
  Cl  Cl14  1  0.494700  0.761655  0.426031  1
  Cl  Cl15  1  0.536098  0.773006  0.663472  1
  Cl  Cl16  1  0.263973  0.029285  0.592777  1
  Cl  Cl17  1  0.845632  0.398312  0.546862  1
  Cl  Cl18  1  0.601693  0.154372  0.786471  1
  Cl  Cl19  1  0.970716  0.736033  0.740555  1
  Cl  Cl20  1  0.226991  0.463913  0.669864  1
  Cl  Cl21  1  0.238345  0.505303  0.907302  1
  Cl  Cl22  1  0.938964  0.798551  0.927609  1
  Cl  Cl23  1  0.487527  0.141633  0.876668  1
