# generated using pymatgen
data_LaAl2SiAu
_symmetry_space_group_name_H-M   'P 1'
_cell_length_a   6.16755240
_cell_length_b   6.16755218
_cell_length_c   6.16755215
_cell_angle_alpha   138.72590305
_cell_angle_beta   138.72590324
_cell_angle_gamma   59.79304531
_symmetry_Int_Tables_number   1
_chemical_formula_structural   LaAl2SiAu
_chemical_formula_sum   'La1 Al2 Si1 Au1'
_cell_volume   101.05743968
_cell_formula_units_Z   1
loop_
 _symmetry_equiv_pos_site_id
 _symmetry_equiv_pos_as_xyz
  1  'x, y, z'
loop_
 _atom_site_type_symbol
 _atom_site_label
 _atom_site_symmetry_multiplicity
 _atom_site_fract_x
 _atom_site_fract_y
 _atom_site_fract_z
 _atom_site_occupancy
  La  La0  1  0.987559  0.987559  0.000000  1
  Al  Al1  1  0.252798  0.752798  0.500000  1
  Al  Al2  1  0.752798  0.252798  0.500000  1
  Si  Si3  1  0.395277  0.395277  0.000000  1
  Au  Au4  1  0.627568  0.627568  0.000000  1
