# generated using pymatgen
data_Lu12TlNi4Os
_symmetry_space_group_name_H-M   'P 1'
_cell_length_a   8.11469068
_cell_length_b   8.11469109
_cell_length_c   8.11469100
_cell_angle_alpha   111.48134612
_cell_angle_beta   110.47787291
_cell_angle_gamma   106.49645773
_symmetry_Int_Tables_number   1
_chemical_formula_structural   Lu12TlNi4Os
_chemical_formula_sum   'Lu12 Tl1 Ni4 Os1'
_cell_volume   410.47407291
_cell_formula_units_Z   1
loop_
 _symmetry_equiv_pos_site_id
 _symmetry_equiv_pos_as_xyz
  1  'x, y, z'
loop_
 _atom_site_type_symbol
 _atom_site_label
 _atom_site_symmetry_multiplicity
 _atom_site_fract_x
 _atom_site_fract_y
 _atom_site_fract_z
 _atom_site_occupancy
  Lu  Lu0  1  0.678236  0.872911  0.194675  1
  Lu  Lu1  1  0.321764  0.516439  0.194675  1
  Lu  Lu2  1  0.820398  0.777250  0.597648  1
  Lu  Lu3  1  0.179602  0.777250  0.956851  1
  Lu  Lu4  1  0.820398  0.222750  0.043149  1
  Lu  Lu5  1  0.179602  0.222750  0.402352  1
  Lu  Lu6  1  0.678236  0.483561  0.805325  1
  Lu  Lu7  1  0.321764  0.127089  0.805325  1
  Lu  Lu8  1  0.583368  0.275003  0.308365  1
  Lu  Lu9  1  0.416632  0.724997  0.691635  1
  Lu  Lu10  1  0.033362  0.724997  0.308365  1
  Lu  Lu11  1  0.966638  0.275003  0.691635  1
  Tl  Tl12  1  0.500000  0.000000  0.500000  1
  Ni  Ni13  1  0.356228  0.500000  0.856228  1
  Ni  Ni14  1  0.643772  0.500000  0.143772  1
  Ni  Ni15  1  0.879500  0.879500  0.000000  1
  Ni  Ni16  1  0.120500  0.120500  0.000000  1
  Os  Os17  1  0.000000  0.500000  0.500000  1
