# generated using pymatgen
data_Dy3Y5(CdPt)2
_symmetry_space_group_name_H-M   'P 1'
_cell_length_a   9.70235969
_cell_length_b   9.71454939
_cell_length_c   9.71454975
_cell_angle_alpha   59.91700638
_cell_angle_beta   60.04150103
_cell_angle_gamma   60.04150297
_symmetry_Int_Tables_number   1
_chemical_formula_structural   Dy3Y5(CdPt)2
_chemical_formula_sum   'Dy6 Y10 Cd4 Pt4'
_cell_volume   647.45021406
_cell_formula_units_Z   2
loop_
 _symmetry_equiv_pos_site_id
 _symmetry_equiv_pos_as_xyz
  1  'x, y, z'
loop_
 _atom_site_type_symbol
 _atom_site_label
 _atom_site_symmetry_multiplicity
 _atom_site_fract_x
 _atom_site_fract_y
 _atom_site_fract_z
 _atom_site_occupancy
  Dy  Dy0  1  0.352132  0.352436  0.352436  1
  Dy  Dy1  1  0.352436  0.352132  0.942996  1
  Dy  Dy2  1  0.352436  0.942996  0.352132  1
  Dy  Dy3  1  0.942996  0.352436  0.352436  1
  Dy  Dy4  1  0.810516  0.189484  0.189484  1
  Dy  Dy5  1  0.189484  0.810516  0.810516  1
  Y  Y6  1  0.190000  0.810000  0.190000  1
  Y  Y7  1  0.810000  0.190000  0.810000  1
  Y  Y8  1  0.190000  0.190000  0.810000  1
  Y  Y9  1  0.810000  0.810000  0.190000  1
  Y  Y10  1  0.935542  0.564458  0.564458  1
  Y  Y11  1  0.564458  0.935542  0.935542  1
  Y  Y12  1  0.564262  0.935738  0.564262  1
  Y  Y13  1  0.935738  0.564262  0.935738  1
  Y  Y14  1  0.564262  0.564262  0.935738  1
  Y  Y15  1  0.935738  0.935738  0.564262  1
  Cd  Cd16  1  0.582262  0.581824  0.581824  1
  Cd  Cd17  1  0.581824  0.582262  0.254091  1
  Cd  Cd18  1  0.581824  0.254091  0.582262  1
  Cd  Cd19  1  0.254091  0.581824  0.581824  1
  Pt  Pt20  1  0.143113  0.144052  0.144052  1
  Pt  Pt21  1  0.144052  0.143113  0.568782  1
  Pt  Pt22  1  0.144052  0.568782  0.143113  1
  Pt  Pt23  1  0.568782  0.144052  0.144052  1
