# generated using pymatgen
data_Tb3Lu2Pa(Al3Os)8
_symmetry_space_group_name_H-M   'P 1'
_cell_length_a   8.78515500
_cell_length_b   8.82771682
_cell_length_c   9.54939900
_cell_angle_alpha   90.00000000
_cell_angle_beta   90.00000000
_cell_angle_gamma   119.84062638
_symmetry_Int_Tables_number   1
_chemical_formula_structural   Tb3Lu2Pa(Al3Os)8
_chemical_formula_sum   'Tb3 Lu2 Pa1 Al24 Os8'
_cell_volume   642.39139156
_cell_formula_units_Z   1
loop_
 _symmetry_equiv_pos_site_id
 _symmetry_equiv_pos_as_xyz
  1  'x, y, z'
loop_
 _atom_site_type_symbol
 _atom_site_label
 _atom_site_symmetry_multiplicity
 _atom_site_fract_x
 _atom_site_fract_y
 _atom_site_fract_z
 _atom_site_occupancy
  Tb  Tb0  1  0.808456  0.616912  0.750000  1
  Tb  Tb1  1  0.387085  0.191322  0.750000  1
  Tb  Tb2  1  0.804237  0.191322  0.750000  1
  Lu  Lu3  1  0.606067  0.800221  0.250000  1
  Lu  Lu4  1  0.194153  0.800221  0.250000  1
  Pa  Pa5  1  0.197213  0.394424  0.250000  1
  Al  Al6  1  0.336873  0.673746  0.019759  1
  Al  Al7  1  0.667860  0.335719  0.982035  1
  Al  Al8  1  0.667860  0.335719  0.517965  1
  Al  Al9  1  0.336873  0.673746  0.480241  1
  Al  Al10  1  0.163490  0.326979  0.576533  1
  Al  Al11  1  0.837104  0.674209  0.423243  1
  Al  Al12  1  0.672033  0.835205  0.573599  1
  Al  Al13  1  0.837104  0.674209  0.076757  1
  Al  Al14  1  0.326109  0.161776  0.422013  1
  Al  Al15  1  0.163490  0.326979  0.923467  1
  Al  Al16  1  0.163172  0.835205  0.573599  1
  Al  Al17  1  0.326109  0.161776  0.077987  1
  Al  Al18  1  0.835666  0.161776  0.422013  1
  Al  Al19  1  0.672033  0.835205  0.926401  1
  Al  Al20  1  0.835666  0.161776  0.077987  1
  Al  Al21  1  0.163172  0.835205  0.926401  1
  Al  Al22  1  0.558957  0.117913  0.250000  1
  Al  Al23  1  0.437186  0.874371  0.750000  1
  Al  Al24  1  0.872958  0.438098  0.250000  1
  Al  Al25  1  0.121034  0.559857  0.750000  1
  Al  Al26  1  0.565140  0.438098  0.250000  1
  Al  Al27  1  0.438824  0.559857  0.750000  1
  Al  Al28  1  0.000557  0.001113  0.250000  1
  Al  Al29  1  0.000536  0.001073  0.750000  1
  Os  Os30  1  0.501355  0.002710  0.999313  1
  Os  Os31  1  0.004352  0.500549  0.006020  1
  Os  Os32  1  0.501355  0.002710  0.500687  1
  Os  Os33  1  0.496197  0.500549  0.006020  1
  Os  Os34  1  0.004352  0.500549  0.493980  1
  Os  Os35  1  0.496197  0.500549  0.493980  1
  Os  Os36  1  0.999588  0.999176  0.999396  1
  Os  Os37  1  0.999588  0.999176  0.500604  1
