# generated using pymatgen
data_Sc8Al14ZnRh7
_symmetry_space_group_name_H-M   'P 1'
_cell_length_a   8.89754217
_cell_length_b   8.89754202
_cell_length_c   8.89754103
_cell_angle_alpha   120.32992515
_cell_angle_beta   119.99588724
_cell_angle_gamma   89.71831085
_symmetry_Int_Tables_number   1
_chemical_formula_structural   Sc8Al14ZnRh7
_chemical_formula_sum   'Sc8 Al14 Zn1 Rh7'
_cell_volume   496.83718552
_cell_formula_units_Z   1
loop_
 _symmetry_equiv_pos_site_id
 _symmetry_equiv_pos_as_xyz
  1  'x, y, z'
loop_
 _atom_site_type_symbol
 _atom_site_label
 _atom_site_symmetry_multiplicity
 _atom_site_fract_x
 _atom_site_fract_y
 _atom_site_fract_z
 _atom_site_occupancy
  Sc  Sc0  1  0.793201  0.286270  0.069050  1
  Sc  Sc1  1  0.217220  0.286270  0.493069  1
  Sc  Sc2  1  0.205401  0.705401  0.500000  1
  Sc  Sc3  1  0.217220  0.724150  0.930950  1
  Sc  Sc4  1  0.793201  0.724150  0.506931  1
  Sc  Sc5  1  0.775314  0.275314  0.500000  1
  Sc  Sc6  1  0.379409  0.118848  0.739440  1
  Sc  Sc7  1  0.379409  0.639968  0.260560  1
  Al  Al8  1  0.161455  0.334676  0.173220  1
  Al  Al9  1  0.161455  0.988235  0.826780  1
  Al  Al10  1  0.155727  0.340849  0.814878  1
  Al  Al11  1  0.525971  0.340849  0.185122  1
  Al  Al12  1  0.840471  0.657637  0.817166  1
  Al  Al13  1  0.840471  0.023305  0.182834  1
  Al  Al14  1  0.837547  0.659905  0.177643  1
  Al  Al15  1  0.482261  0.659905  0.822357  1
  Al  Al16  1  0.379194  0.122588  0.256607  1
  Al  Al17  1  0.865983  0.122588  0.743393  1
  Al  Al18  1  0.621438  0.874191  0.252753  1
  Al  Al19  1  0.621438  0.368685  0.747247  1
  Al  Al20  1  0.621427  0.876924  0.744502  1
  Al  Al21  1  0.132421  0.876924  0.255498  1
  Zn  Zn22  1  0.990944  0.490944  0.500000  1
  Rh  Rh23  1  0.994631  0.999112  0.497534  1
  Rh  Rh24  1  0.501579  0.999112  0.004482  1
  Rh  Rh25  1  0.501408  0.501408  0.000000  1
  Rh  Rh26  1  0.501579  0.497097  0.502466  1
  Rh  Rh27  1  0.994631  0.497097  0.995518  1
  Rh  Rh28  1  0.999901  0.999901  0.000000  1
  Rh  Rh29  1  0.507694  0.007694  0.500000  1
