# generated using pymatgen
data_Dy6YHo(OsC2)4
_symmetry_space_group_name_H-M   'P 1'
_cell_length_a   5.13929900
_cell_length_b   6.43992536
_cell_length_c   9.81317466
_cell_angle_alpha   90.04020659
_cell_angle_beta   90.00000000
_cell_angle_gamma   90.00000000
_symmetry_Int_Tables_number   1
_chemical_formula_structural   Dy6YHo(OsC2)4
_chemical_formula_sum   'Dy6 Y1 Ho1 Os4 C8'
_cell_volume   324.78363713
_cell_formula_units_Z   1
loop_
 _symmetry_equiv_pos_site_id
 _symmetry_equiv_pos_as_xyz
  1  'x, y, z'
loop_
 _atom_site_type_symbol
 _atom_site_label
 _atom_site_symmetry_multiplicity
 _atom_site_fract_x
 _atom_site_fract_y
 _atom_site_fract_z
 _atom_site_occupancy
  Dy  Dy0  1  0.750000  0.814231  0.051912  1
  Dy  Dy1  1  0.250000  0.185783  0.948206  1
  Dy  Dy2  1  0.250000  0.524143  0.220070  1
  Dy  Dy3  1  0.750000  0.475832  0.779374  1
  Dy  Dy4  1  0.750000  0.976157  0.719883  1
  Dy  Dy5  1  0.250000  0.024128  0.279874  1
  Y  Y6  1  0.250000  0.686118  0.551689  1
  Ho  Ho7  1  0.750000  0.315364  0.447576  1
  Os  Os8  1  0.250000  0.726850  0.864845  1
  Os  Os9  1  0.750000  0.273095  0.135266  1
  Os  Os10  1  0.750000  0.773241  0.364871  1
  Os  Os11  1  0.250000  0.226800  0.634869  1
  C  C12  1  0.250000  0.462742  0.758260  1
  C  C13  1  0.750000  0.536443  0.242593  1
  C  C14  1  0.750000  0.037093  0.258247  1
  C  C15  1  0.250000  0.963611  0.742628  1
  C  C16  1  0.250000  0.823404  0.052603  1
  C  C17  1  0.750000  0.176489  0.947551  1
  C  C18  1  0.750000  0.675670  0.552403  1
  C  C19  1  0.250000  0.322807  0.447284  1
