# generated using pymatgen
data_Tb3Dy9Co4SnIr
_symmetry_space_group_name_H-M   'P 1'
_cell_length_a   8.31173952
_cell_length_b   8.31171583
_cell_length_c   8.31171328
_cell_angle_alpha   106.94542103
_cell_angle_beta   110.36034514
_cell_angle_gamma   111.13791532
_symmetry_Int_Tables_number   1
_chemical_formula_structural   Tb3Dy9Co4SnIr
_chemical_formula_sum   'Tb3 Dy9 Co4 Sn1 Ir1'
_cell_volume   441.36819921
_cell_formula_units_Z   1
loop_
 _symmetry_equiv_pos_site_id
 _symmetry_equiv_pos_as_xyz
  1  'x, y, z'
loop_
 _atom_site_type_symbol
 _atom_site_label
 _atom_site_symmetry_multiplicity
 _atom_site_fract_x
 _atom_site_fract_y
 _atom_site_fract_z
 _atom_site_occupancy
  Tb  Tb0  1  0.472646  0.288635  0.184010  1
  Tb  Tb1  1  0.104785  0.288724  0.816060  1
  Tb  Tb2  1  0.895143  0.711312  0.183830  1
  Dy  Dy3  1  0.527517  0.711404  0.816112  1
  Dy  Dy4  1  0.305366  0.619968  0.314762  1
  Dy  Dy5  1  0.305367  0.990607  0.685399  1
  Dy  Dy6  1  0.694639  0.380107  0.685356  1
  Dy  Dy7  1  0.694640  0.009284  0.314533  1
  Dy  Dy8  1  0.196168  0.212901  0.408977  1
  Dy  Dy9  1  0.803818  0.787166  0.591143  1
  Dy  Dy10  1  0.196168  0.787191  0.983266  1
  Dy  Dy11  1  0.803818  0.212675  0.016652  1
  Co  Co12  1  0.500037  0.611816  0.111668  1
  Co  Co13  1  0.500037  0.388369  0.888221  1
  Co  Co14  1  0.378449  0.999981  0.378467  1
  Co  Co15  1  0.621524  0.999952  0.621572  1
  Sn  Sn16  1  0.000032  0.500011  0.500020  1
  Ir  Ir17  1  0.999846  0.999896  0.999950  1
