# generated using pymatgen
data_Yb3LuOsRu7
_symmetry_space_group_name_H-M   'P 1'
_cell_length_a   5.21310534
_cell_length_b   5.29940481
_cell_length_c   8.83991479
_cell_angle_alpha   90.00000067
_cell_angle_beta   90.10336715
_cell_angle_gamma   120.54914715
_symmetry_Int_Tables_number   1
_chemical_formula_structural   Yb3LuOsRu7
_chemical_formula_sum   'Yb3 Lu1 Os1 Ru7'
_cell_volume   210.31558615
_cell_formula_units_Z   1
loop_
 _symmetry_equiv_pos_site_id
 _symmetry_equiv_pos_as_xyz
  1  'x, y, z'
loop_
 _atom_site_type_symbol
 _atom_site_label
 _atom_site_symmetry_multiplicity
 _atom_site_fract_x
 _atom_site_fract_y
 _atom_site_fract_z
 _atom_site_occupancy
  Yb  Yb0  1  0.663760  0.331880  0.568083  1
  Yb  Yb1  1  0.662940  0.331470  0.935628  1
  Yb  Yb2  1  0.327654  0.663827  0.062206  1
  Lu  Lu3  1  0.329989  0.664995  0.431875  1
  Os  Os4  1  0.671000  0.835500  0.749950  1
  Ru  Ru5  1  0.979281  0.989640  0.499857  1
  Ru  Ru6  1  0.977709  0.988855  0.001008  1
  Ru  Ru7  1  0.832678  0.170113  0.251220  1
  Ru  Ru8  1  0.832678  0.662565  0.251220  1
  Ru  Ru9  1  0.356436  0.178218  0.252739  1
  Ru  Ru10  1  0.182937  0.832713  0.748108  1
  Ru  Ru11  1  0.182937  0.350225  0.748108  1
