# generated using pymatgen
data_Re17Tc7Mo5
_symmetry_space_group_name_H-M   'P 1'
_cell_length_a   8.34695810
_cell_length_b   8.34695779
_cell_length_c   8.33198492
_cell_angle_alpha   109.50956800
_cell_angle_beta   109.50956958
_cell_angle_gamma   109.56295441
_symmetry_Int_Tables_number   1
_chemical_formula_structural   Re17Tc7Mo5
_chemical_formula_sum   'Re17 Tc7 Mo5'
_cell_volume   445.94048110
_cell_formula_units_Z   1
loop_
 _symmetry_equiv_pos_site_id
 _symmetry_equiv_pos_as_xyz
  1  'x, y, z'
loop_
 _atom_site_type_symbol
 _atom_site_label
 _atom_site_symmetry_multiplicity
 _atom_site_fract_x
 _atom_site_fract_y
 _atom_site_fract_z
 _atom_site_occupancy
  Re  Re0  1  0.003002  0.686274  0.402823  1
  Re  Re1  1  0.686274  0.003002  0.402823  1
  Re  Re2  1  0.596251  0.596251  0.278972  1
  Re  Re3  1  0.281705  0.599629  0.598163  1
  Re  Re4  1  0.599629  0.281705  0.598163  1
  Re  Re5  1  0.376852  0.194248  0.000682  1
  Re  Re6  1  0.179117  0.806365  0.805243  1
  Re  Re7  1  0.375035  0.001672  0.194654  1
  Re  Re8  1  0.194248  0.376852  0.000682  1
  Re  Re9  1  0.001672  0.375035  0.194654  1
  Re  Re10  1  0.806365  0.179117  0.805243  1
  Re  Re11  1  0.805368  0.805368  0.180702  1
  Re  Re12  1  0.001636  0.193811  0.378463  1
  Re  Re13  1  0.193811  0.001636  0.378463  1
  Re  Re14  1  0.620806  0.620806  0.814869  1
  Re  Re15  1  0.814128  0.621329  0.620674  1
  Re  Re16  1  0.621329  0.814128  0.620674  1
  Tc  Tc17  1  0.401445  0.687224  0.001529  1
  Tc  Tc18  1  0.719066  0.314878  0.313596  1
  Tc  Tc19  1  0.404764  0.003528  0.687881  1
  Tc  Tc20  1  0.687224  0.401445  0.001529  1
  Tc  Tc21  1  0.003528  0.404764  0.687881  1
  Tc  Tc22  1  0.314878  0.719066  0.313596  1
  Tc  Tc23  1  0.316242  0.316242  0.720451  1
  Mo  Mo24  1  0.001083  0.001083  0.000532  1
  Mo  Mo25  1  0.640820  0.997578  0.998560  1
  Mo  Mo26  1  0.997578  0.640820  0.998560  1
  Mo  Mo27  1  0.997666  0.997666  0.639912  1
  Mo  Mo28  1  0.358477  0.358477  0.360031  1
