# generated using pymatgen
data_Sm4Y2RuBr10
_symmetry_space_group_name_H-M   'P 1'
_cell_length_a   7.47731566
_cell_length_b   9.35870415
_cell_length_c   9.41894106
_cell_angle_alpha   107.73553757
_cell_angle_beta   95.64974295
_cell_angle_gamma   104.97444519
_symmetry_Int_Tables_number   1
_chemical_formula_structural   Sm4Y2RuBr10
_chemical_formula_sum   'Sm4 Y2 Ru1 Br10'
_cell_volume   595.12609199
_cell_formula_units_Z   1
loop_
 _symmetry_equiv_pos_site_id
 _symmetry_equiv_pos_as_xyz
  1  'x, y, z'
loop_
 _atom_site_type_symbol
 _atom_site_label
 _atom_site_symmetry_multiplicity
 _atom_site_fract_x
 _atom_site_fract_y
 _atom_site_fract_z
 _atom_site_occupancy
  Sm  Sm0  1  0.467407  0.793070  0.591698  1
  Sm  Sm1  1  0.532593  0.206930  0.408302  1
  Sm  Sm2  1  0.372049  0.450980  0.744667  1
  Sm  Sm3  1  0.627951  0.549020  0.255333  1
  Y  Y4  1  0.859729  0.632869  0.677260  1
  Y  Y5  1  0.140271  0.367131  0.322740  1
  Ru  Ru6  1  0.500000  0.500000  0.500000  1
  Br  Br7  1  0.412269  0.130289  0.672790  1
  Br  Br8  1  0.587731  0.869711  0.327210  1
  Br  Br9  1  0.047398  0.677202  0.416427  1
  Br  Br10  1  0.952602  0.322798  0.583573  1
  Br  Br11  1  0.269998  0.750069  0.842223  1
  Br  Br12  1  0.730002  0.249931  0.157777  1
  Br  Br13  1  0.252639  0.417769  0.050575  1
  Br  Br14  1  0.747361  0.582231  0.949425  1
  Br  Br15  1  0.847214  0.944198  0.768967  1
  Br  Br16  1  0.152786  0.055802  0.231033  1
