# generated using pymatgen
data_Tm12Fe4BiPd
_symmetry_space_group_name_H-M   'P 1'
_cell_length_a   8.22473411
_cell_length_b   8.22473312
_cell_length_c   8.22473400
_cell_angle_alpha   110.91858498
_cell_angle_beta   111.14161872
_cell_angle_gamma   106.39660004
_symmetry_Int_Tables_number   1
_chemical_formula_structural   Tm12Fe4BiPd
_chemical_formula_sum   'Tm12 Fe4 Bi1 Pd1'
_cell_volume   427.37526214
_cell_formula_units_Z   1
loop_
 _symmetry_equiv_pos_site_id
 _symmetry_equiv_pos_as_xyz
  1  'x, y, z'
loop_
 _atom_site_type_symbol
 _atom_site_label
 _atom_site_symmetry_multiplicity
 _atom_site_fract_x
 _atom_site_fract_y
 _atom_site_fract_z
 _atom_site_occupancy
  Tm  Tm0  1  0.288570  0.186126  0.474697  1
  Tm  Tm1  1  0.711430  0.813874  0.525303  1
  Tm  Tm2  1  0.288570  0.813874  0.102442  1
  Tm  Tm3  1  0.711430  0.186126  0.897558  1
  Tm  Tm4  1  0.614072  0.310025  0.304047  1
  Tm  Tm5  1  0.385928  0.689975  0.695953  1
  Tm  Tm6  1  0.005978  0.310025  0.695953  1
  Tm  Tm7  1  0.994022  0.689975  0.304047  1
  Tm  Tm8  1  0.213171  0.418677  0.205508  1
  Tm  Tm9  1  0.786829  0.581323  0.794492  1
  Tm  Tm10  1  0.213171  0.007664  0.794492  1
  Tm  Tm11  1  0.786829  0.992336  0.205508  1
  Fe  Fe12  1  0.000000  0.384797  0.384797  1
  Fe  Fe13  1  0.000000  0.615203  0.615203  1
  Fe  Fe14  1  0.391782  0.891782  0.500000  1
  Fe  Fe15  1  0.608218  0.108218  0.500000  1
  Bi  Bi16  1  0.500000  0.500000  0.000000  1
  Pd  Pd17  1  0.000000  0.000000  0.000000  1
