# generated using pymatgen
data_Ta8FeTc3Os4
_symmetry_space_group_name_H-M   'P 1'
_cell_length_a   6.35507000
_cell_length_b   4.49313100
_cell_length_c   8.99094200
_cell_angle_alpha   90.00000000
_cell_angle_beta   89.99963035
_cell_angle_gamma   90.00000000
_symmetry_Int_Tables_number   1
_chemical_formula_structural   Ta8FeTc3Os4
_chemical_formula_sum   'Ta8 Fe1 Tc3 Os4'
_cell_volume   256.72881462
_cell_formula_units_Z   1
loop_
 _symmetry_equiv_pos_site_id
 _symmetry_equiv_pos_as_xyz
  1  'x, y, z'
loop_
 _atom_site_type_symbol
 _atom_site_label
 _atom_site_symmetry_multiplicity
 _atom_site_fract_x
 _atom_site_fract_y
 _atom_site_fract_z
 _atom_site_occupancy
  Ta  Ta0  1  0.498108  0.749999  0.121180  1
  Ta  Ta1  1  0.001865  0.749999  0.121187  1
  Ta  Ta2  1  0.500473  0.250000  0.375001  1
  Ta  Ta3  1  0.999517  0.250000  0.375004  1
  Ta  Ta4  1  0.001892  0.749999  0.628811  1
  Ta  Ta5  1  0.498125  0.749999  0.628817  1
  Ta  Ta6  1  0.005795  0.250000  0.875006  1
  Ta  Ta7  1  0.494228  0.250000  0.875009  1
  Fe  Fe8  1  0.250006  0.749999  0.874993  1
  Tc  Tc9  1  0.749992  0.250000  0.125114  1
  Tc  Tc10  1  0.249994  0.749999  0.375005  1
  Tc  Tc11  1  0.750008  0.250000  0.624873  1
  Os  Os12  1  0.249990  0.250000  0.124900  1
  Os  Os13  1  0.749990  0.749999  0.375000  1
  Os  Os14  1  0.250009  0.250000  0.625103  1
  Os  Os15  1  0.750008  0.749999  0.874998  1
