# generated using pymatgen
data_LuTiAlPd5
_symmetry_space_group_name_H-M   'P 1'
_cell_length_a   8.03302726
_cell_length_b   8.03302710
_cell_length_c   8.03302693
_cell_angle_alpha   149.86392808
_cell_angle_beta   149.86392531
_cell_angle_gamma   43.14117943
_symmetry_Int_Tables_number   1
_chemical_formula_structural   LuTiAlPd5
_chemical_formula_sum   'Lu1 Ti1 Al1 Pd5'
_cell_volume   130.31580521
_cell_formula_units_Z   1
loop_
 _symmetry_equiv_pos_site_id
 _symmetry_equiv_pos_as_xyz
  1  'x, y, z'
loop_
 _atom_site_type_symbol
 _atom_site_label
 _atom_site_symmetry_multiplicity
 _atom_site_fract_x
 _atom_site_fract_y
 _atom_site_fract_z
 _atom_site_occupancy
  Lu  Lu0  1  0.998670  0.998670  0.000000  1
  Ti  Ti1  1  0.251795  0.251795  0.000000  1
  Al  Al2  1  0.747817  0.747817  0.000000  1
  Pd  Pd3  1  0.640694  0.140694  0.500000  1
  Pd  Pd4  1  0.359349  0.859349  0.500000  1
  Pd  Pd5  1  0.140694  0.640694  0.500000  1
  Pd  Pd6  1  0.859349  0.359349  0.500000  1
  Pd  Pd7  1  0.501633  0.501633  0.000000  1
