# generated using pymatgen
data_Y3TmNiAu3O14
_symmetry_space_group_name_H-M   'P 1'
_cell_length_a   7.33490773
_cell_length_b   7.32348820
_cell_length_c   7.32348900
_cell_angle_alpha   59.99999187
_cell_angle_beta   60.05147954
_cell_angle_gamma   60.05148314
_symmetry_Int_Tables_number   1
_chemical_formula_structural   Y3TmNiAu3O14
_chemical_formula_sum   'Y3 Tm1 Ni1 Au3 O14'
_cell_volume   278.38969450
_cell_formula_units_Z   1
loop_
 _symmetry_equiv_pos_site_id
 _symmetry_equiv_pos_as_xyz
  1  'x, y, z'
loop_
 _atom_site_type_symbol
 _atom_site_label
 _atom_site_symmetry_multiplicity
 _atom_site_fract_x
 _atom_site_fract_y
 _atom_site_fract_z
 _atom_site_occupancy
  Y  Y0  1  0.125000  0.125000  0.125000  1
  Y  Y1  1  0.125000  0.125000  0.625000  1
  Y  Y2  1  0.125000  0.625000  0.125000  1
  Tm  Tm3  1  0.625000  0.125000  0.125000  1
  Ni  Ni4  1  0.125000  0.625000  0.625000  1
  Au  Au5  1  0.625000  0.625000  0.625000  1
  Au  Au6  1  0.625000  0.625000  0.125000  1
  Au  Au7  1  0.625000  0.125000  0.625000  1
  O  O8  1  0.989219  0.003594  0.003594  1
  O  O9  1  0.260781  0.246406  0.246406  1
  O  O10  1  0.284551  0.277176  0.719137  1
  O  O11  1  0.540868  0.524579  0.967277  1
  O  O12  1  0.709132  0.282723  0.725421  1
  O  O13  1  0.709132  0.282723  0.282723  1
  O  O14  1  0.284551  0.719137  0.719137  1
  O  O15  1  0.284551  0.719137  0.277176  1
  O  O16  1  0.709132  0.725421  0.282723  1
  O  O17  1  0.965449  0.530863  0.530863  1
  O  O18  1  0.540868  0.967277  0.967277  1
  O  O19  1  0.965449  0.972824  0.530863  1
  O  O20  1  0.965449  0.530863  0.972824  1
  O  O21  1  0.540868  0.967277  0.524579  1
