# generated using pymatgen
data_YbErTm2(B6Os)2
_symmetry_space_group_name_H-M   'P 1'
_cell_length_a   3.61970700
_cell_length_b   9.10212620
_cell_length_c   11.48998110
_cell_angle_alpha   89.84723450
_cell_angle_beta   90.00000000
_cell_angle_gamma   90.00000000
_symmetry_Int_Tables_number   1
_chemical_formula_structural   YbErTm2(B6Os)2
_chemical_formula_sum   'Yb2 Er2 Tm4 B24 Os4'
_cell_volume   378.55940551
_cell_formula_units_Z   2
loop_
 _symmetry_equiv_pos_site_id
 _symmetry_equiv_pos_as_xyz
  1  'x, y, z'
loop_
 _atom_site_type_symbol
 _atom_site_label
 _atom_site_symmetry_multiplicity
 _atom_site_fract_x
 _atom_site_fract_y
 _atom_site_fract_z
 _atom_site_occupancy
  Yb  Yb0  1  0.000000  0.324325  0.414500  1
  Yb  Yb1  1  0.000000  0.675675  0.585500  1
  Er  Er2  1  0.000000  0.821802  0.086376  1
  Er  Er3  1  0.000000  0.178198  0.913624  1
  Tm  Tm4  1  0.000000  0.942432  0.370578  1
  Tm  Tm5  1  0.000000  0.057568  0.629423  1
  Tm  Tm6  1  0.000000  0.443010  0.129859  1
  Tm  Tm7  1  0.000000  0.556990  0.870140  1
  B  B8  1  0.500000  0.554109  0.432348  1
  B  B9  1  0.500000  0.445891  0.567652  1
  B  B10  1  0.500000  0.053552  0.066355  1
  B  B11  1  0.500000  0.946448  0.933645  1
  B  B12  1  0.500000  0.748639  0.417979  1
  B  B13  1  0.500000  0.251361  0.582021  1
  B  B14  1  0.500000  0.248722  0.080784  1
  B  B15  1  0.500000  0.751278  0.919216  1
  B  B16  1  0.500000  0.791692  0.264531  1
  B  B17  1  0.500000  0.208308  0.735469  1
  B  B18  1  0.500000  0.290448  0.234141  1
  B  B19  1  0.500000  0.709551  0.765859  1
  B  B20  1  0.500000  0.631197  0.184750  1
  B  B21  1  0.500000  0.368803  0.815250  1
  B  B22  1  0.500000  0.130583  0.314043  1
  B  B23  1  0.500000  0.869417  0.685957  1
  B  B24  1  0.500000  0.982473  0.211752  1
  B  B25  1  0.500000  0.017527  0.788248  1
  B  B26  1  0.500000  0.483318  0.287564  1
  B  B27  1  0.500000  0.516682  0.712436  1
  B  B28  1  0.500000  0.602962  0.028337  1
  B  B29  1  0.500000  0.397038  0.971663  1
  B  B30  1  0.500000  0.099306  0.472521  1
  B  B31  1  0.500000  0.900694  0.527479  1
  Os  Os32  1  0.000000  0.640010  0.318561  1
  Os  Os33  1  0.000000  0.359990  0.681439  1
  Os  Os34  1  0.000000  0.136723  0.177724  1
  Os  Os35  1  0.000000  0.863277  0.822276  1
