# generated using pymatgen
data_CdSb2S3Cl2
_symmetry_space_group_name_H-M   'P 1'
_cell_length_a   10.48073165
_cell_length_b   10.48073206
_cell_length_c   12.11784379
_cell_angle_alpha   60.25010089
_cell_angle_beta   60.25010025
_cell_angle_gamma   21.73751633
_symmetry_Int_Tables_number   1
_chemical_formula_structural   CdSb2S3Cl2
_chemical_formula_sum   'Cd2 Sb4 S6 Cl4'
_cell_volume   425.41771766
_cell_formula_units_Z   2
loop_
 _symmetry_equiv_pos_site_id
 _symmetry_equiv_pos_as_xyz
  1  'x, y, z'
loop_
 _atom_site_type_symbol
 _atom_site_label
 _atom_site_symmetry_multiplicity
 _atom_site_fract_x
 _atom_site_fract_y
 _atom_site_fract_z
 _atom_site_occupancy
  Cd  Cd0  1  0.651173  0.651173  0.548870  1
  Cd  Cd1  1  0.348827  0.348827  0.451130  1
  Sb  Sb2  1  0.953311  0.953311  0.782454  1
  Sb  Sb3  1  0.046689  0.046689  0.217546  1
  Sb  Sb4  1  0.294676  0.294676  0.089617  1
  Sb  Sb5  1  0.705324  0.705324  0.910383  1
  S  S6  1  0.534695  0.534695  0.781990  1
  S  S7  1  0.103612  0.103612  0.979011  1
  S  S8  1  0.465305  0.465305  0.218010  1
  S  S9  1  0.319338  0.319338  0.868135  1
  S  S10  1  0.896388  0.896388  0.020989  1
  S  S11  1  0.680662  0.680662  0.131865  1
  Cl  Cl12  1  0.895854  0.895854  0.536149  1
  Cl  Cl13  1  0.104146  0.104146  0.463851  1
  Cl  Cl14  1  0.788939  0.788939  0.355906  1
  Cl  Cl15  1  0.211061  0.211061  0.644094  1
