# generated using pymatgen
data_Tm4Mn3Fe12P12Ir5
_symmetry_space_group_name_H-M   'P 1'
_cell_length_a   3.71044300
_cell_length_b   10.30340110
_cell_length_c   12.16355775
_cell_angle_alpha   90.08945582
_cell_angle_beta   90.00000000
_cell_angle_gamma   90.00000000
_symmetry_Int_Tables_number   1
_chemical_formula_structural   Tm4Mn3Fe12P12Ir5
_chemical_formula_sum   'Tm4 Mn3 Fe12 P12 Ir5'
_cell_volume   465.01446583
_cell_formula_units_Z   1
loop_
 _symmetry_equiv_pos_site_id
 _symmetry_equiv_pos_as_xyz
  1  'x, y, z'
loop_
 _atom_site_type_symbol
 _atom_site_label
 _atom_site_symmetry_multiplicity
 _atom_site_fract_x
 _atom_site_fract_y
 _atom_site_fract_z
 _atom_site_occupancy
  Tm  Tm0  1  0.250000  0.580918  0.713152  1
  Tm  Tm1  1  0.250000  0.919409  0.212843  1
  Tm  Tm2  1  0.750000  0.420210  0.287295  1
  Tm  Tm3  1  0.750000  0.081355  0.787598  1
  Mn  Mn4  1  0.250000  0.701727  0.988283  1
  Mn  Mn5  1  0.250000  0.796811  0.489501  1
  Mn  Mn6  1  0.750000  0.298182  0.010358  1
  Fe  Fe7  1  0.250000  0.221116  0.170013  1
  Fe  Fe8  1  0.250000  0.276822  0.670858  1
  Fe  Fe9  1  0.750000  0.778958  0.829697  1
  Fe  Fe10  1  0.750000  0.722120  0.328829  1
  Fe  Fe11  1  0.250000  0.877636  0.695823  1
  Fe  Fe12  1  0.250000  0.622191  0.194847  1
  Fe  Fe13  1  0.750000  0.121545  0.304307  1
  Fe  Fe14  1  0.750000  0.378214  0.804946  1
  Fe  Fe15  1  0.250000  0.462348  0.936097  1
  Fe  Fe16  1  0.250000  0.039259  0.436801  1
  Fe  Fe17  1  0.750000  0.537882  0.063657  1
  Fe  Fe18  1  0.750000  0.959663  0.563755  1
  P  P19  1  0.250000  0.425451  0.113164  1
  P  P20  1  0.250000  0.071722  0.614344  1
  P  P21  1  0.750000  0.574832  0.886356  1
  P  P22  1  0.750000  0.924751  0.386444  1
  P  P23  1  0.250000  0.273627  0.854651  1
  P  P24  1  0.250000  0.226424  0.352453  1
  P  P25  1  0.750000  0.726637  0.145160  1
  P  P26  1  0.750000  0.772331  0.644942  1
  P  P27  1  0.250000  0.604877  0.376942  1
  P  P28  1  0.250000  0.895480  0.877112  1
  P  P29  1  0.750000  0.396612  0.624064  1
  P  P30  1  0.750000  0.104980  0.122734  1
  Ir  Ir31  1  0.750000  0.206326  0.515885  1
  Ir  Ir32  1  0.250000  0.403051  0.475145  1
  Ir  Ir33  1  0.250000  0.098180  0.977264  1
  Ir  Ir34  1  0.750000  0.596222  0.521847  1
  Ir  Ir35  1  0.750000  0.902134  0.022834  1
