# generated using pymatgen
data_LiSc3Be2(B2Ir5)2
_symmetry_space_group_name_H-M   'P 1'
_cell_length_a   9.28702907
_cell_length_b   2.93342000
_cell_length_c   9.28702907
_cell_angle_alpha   90.00000000
_cell_angle_beta   88.77220836
_cell_angle_gamma   90.00000000
_symmetry_Int_Tables_number   1
_chemical_formula_structural   LiSc3Be2(B2Ir5)2
_chemical_formula_sum   'Li1 Sc3 Be2 B4 Ir10'
_cell_volume   252.94618680
_cell_formula_units_Z   1
loop_
 _symmetry_equiv_pos_site_id
 _symmetry_equiv_pos_as_xyz
  1  'x, y, z'
loop_
 _atom_site_type_symbol
 _atom_site_label
 _atom_site_symmetry_multiplicity
 _atom_site_fract_x
 _atom_site_fract_y
 _atom_site_fract_z
 _atom_site_occupancy
  Li  Li0  1  0.322463  0.000000  0.177535  1
  Sc  Sc1  1  0.825390  0.000000  0.320642  1
  Sc  Sc2  1  0.179356  0.000000  0.674610  1
  Sc  Sc3  1  0.671539  0.000000  0.828461  1
  Be  Be4  1  0.995129  0.000000  0.997660  1
  Be  Be5  1  0.502341  0.000000  0.504872  1
  B  B6  1  0.622309  0.000000  0.130269  1
  B  B7  1  0.138057  0.000000  0.361944  1
  B  B8  1  0.873959  0.000000  0.626041  1
  B  B9  1  0.369732  0.000000  0.877691  1
  Ir  Ir10  1  0.492885  0.499999  0.007116  1
  Ir  Ir11  1  0.789465  0.499999  0.066053  1
  Ir  Ir12  1  0.070599  0.499999  0.202921  1
  Ir  Ir13  1  0.568351  0.499999  0.295795  1
  Ir  Ir14  1  0.297080  0.499999  0.429399  1
  Ir  Ir15  1  0.003221  0.499999  0.496780  1
  Ir  Ir16  1  0.709203  0.499999  0.569229  1
  Ir  Ir17  1  0.433945  0.499999  0.710534  1
  Ir  Ir18  1  0.930773  0.499999  0.790796  1
  Ir  Ir19  1  0.204206  0.499999  0.931651  1
