# generated using pymatgen
data_Er3Al3Ga2Rh
_symmetry_space_group_name_H-M   'P 1'
_cell_length_a   6.87048400
_cell_length_b   6.87048428
_cell_length_c   4.33053800
_cell_angle_alpha   90.00000000
_cell_angle_beta   90.00000000
_cell_angle_gamma   119.99999867
_symmetry_Int_Tables_number   1
_chemical_formula_structural   Er3Al3Ga2Rh
_chemical_formula_sum   'Er3 Al3 Ga2 Rh1'
_cell_volume   177.03012418
_cell_formula_units_Z   1
loop_
 _symmetry_equiv_pos_site_id
 _symmetry_equiv_pos_as_xyz
  1  'x, y, z'
loop_
 _atom_site_type_symbol
 _atom_site_label
 _atom_site_symmetry_multiplicity
 _atom_site_fract_x
 _atom_site_fract_y
 _atom_site_fract_z
 _atom_site_occupancy
  Er  Er0  1  0.414414  0.000000  0.000000  1
  Er  Er1  1  0.000000  0.414413  0.000000  1
  Er  Er2  1  0.585586  0.585586  0.000000  1
  Al  Al3  1  0.768048  0.000000  0.500001  1
  Al  Al4  1  0.231952  0.231951  0.500001  1
  Al  Al5  1  0.000000  0.768049  0.500001  1
  Ga  Ga6  1  0.666667  0.333334  0.500001  1
  Ga  Ga7  1  0.333334  0.666667  0.500001  1
  Rh  Rh8  1  0.000000  0.000000  0.000000  1
