# generated using pymatgen
data_Lu3Al5Pt
_symmetry_space_group_name_H-M   'P 1'
_cell_length_a   6.93123300
_cell_length_b   6.93123337
_cell_length_c   4.26971600
_cell_angle_alpha   90.00000000
_cell_angle_beta   90.00000000
_cell_angle_gamma   120.00000299
_symmetry_Int_Tables_number   1
_chemical_formula_structural   Lu3Al5Pt
_chemical_formula_sum   'Lu3 Al5 Pt1'
_cell_volume   177.64403434
_cell_formula_units_Z   1
loop_
 _symmetry_equiv_pos_site_id
 _symmetry_equiv_pos_as_xyz
  1  'x, y, z'
loop_
 _atom_site_type_symbol
 _atom_site_label
 _atom_site_symmetry_multiplicity
 _atom_site_fract_x
 _atom_site_fract_y
 _atom_site_fract_z
 _atom_site_occupancy
  Lu  Lu0  1  0.586411  0.000000  0.500000  1
  Lu  Lu1  1  0.413589  0.413589  0.500000  1
  Lu  Lu2  1  0.000000  0.586411  0.500000  1
  Al  Al3  1  0.235868  0.000000  0.000000  1
  Al  Al4  1  0.000000  0.235868  0.000000  1
  Al  Al5  1  0.666667  0.333333  0.000000  1
  Al  Al6  1  0.333333  0.666667  0.000000  1
  Al  Al7  1  0.764132  0.764132  0.000000  1
  Pt  Pt8  1  0.000000  0.000000  0.500000  1
