# generated using pymatgen
data_Er3TmPd4F28
_symmetry_space_group_name_H-M   'P 1'
_cell_length_a   5.48188703
_cell_length_b   8.76607972
_cell_length_c   11.86154921
_cell_angle_alpha   62.66864394
_cell_angle_beta   90.00821647
_cell_angle_gamma   89.99727839
_symmetry_Int_Tables_number   1
_chemical_formula_structural   Er3TmPd4F28
_chemical_formula_sum   'Er3 Tm1 Pd4 F28'
_cell_volume   506.37106268
_cell_formula_units_Z   1
loop_
 _symmetry_equiv_pos_site_id
 _symmetry_equiv_pos_as_xyz
  1  'x, y, z'
loop_
 _atom_site_type_symbol
 _atom_site_label
 _atom_site_symmetry_multiplicity
 _atom_site_fract_x
 _atom_site_fract_y
 _atom_site_fract_z
 _atom_site_occupancy
  Er  Er0  1  0.262486  0.185354  0.735727  1
  Er  Er1  1  0.237260  0.186131  0.235672  1
  Er  Er2  1  0.737294  0.813756  0.264259  1
  Tm  Tm3  1  0.762875  0.813710  0.764203  1
  Pd  Pd4  1  0.759179  0.272784  0.956695  1
  Pd  Pd5  1  0.259507  0.728292  0.543485  1
  Pd  Pd6  1  0.240691  0.727853  0.042521  1
  Pd  Pd7  1  0.740988  0.271529  0.457293  1
  F  F8  1  0.434935  0.701711  0.915423  1
  F  F9  1  0.934333  0.297880  0.584595  1
  F  F10  1  0.565862  0.298559  0.084248  1
  F  F11  1  0.065616  0.702091  0.416248  1
  F  F12  1  0.437612  0.276295  0.541947  1
  F  F13  1  0.937317  0.723772  0.957208  1
  F  F14  1  0.562296  0.723511  0.458371  1
  F  F15  1  0.062652  0.277154  0.041490  1
  F  F16  1  0.777477  0.522658  0.858153  1
  F  F17  1  0.277972  0.478622  0.641833  1
  F  F18  1  0.221638  0.478351  0.141264  1
  F  F19  1  0.722318  0.521232  0.358725  1
  F  F20  1  0.752544  0.023964  0.049102  1
  F  F21  1  0.252752  0.977071  0.450910  1
  F  F22  1  0.247645  0.976609  0.950329  1
  F  F23  1  0.747711  0.022667  0.549947  1
  F  F24  1  0.964559  0.724299  0.636451  1
  F  F25  1  0.463800  0.276335  0.864389  1
  F  F26  1  0.036457  0.276162  0.364782  1
  F  F27  1  0.535876  0.723584  0.135255  1
  F  F28  1  0.052881  0.746563  0.175839  1
  F  F29  1  0.553865  0.253105  0.323750  1
  F  F30  1  0.946390  0.253942  0.823391  1
  F  F31  1  0.448347  0.747293  0.676527  1
  F  F32  1  0.413025  0.969612  0.232119  1
  F  F33  1  0.913057  0.030298  0.267742  1
  F  F34  1  0.586438  0.028234  0.767586  1
  F  F35  1  0.084345  0.969020  0.732523  1
