# generated using pymatgen
data_Nd15HoIn2(AgRh2)2
_symmetry_space_group_name_H-M   'P 1'
_cell_length_a   9.88745181
_cell_length_b   9.88745237
_cell_length_c   9.91597991
_cell_angle_alpha   59.82315042
_cell_angle_beta   59.82315354
_cell_angle_gamma   59.61522897
_symmetry_Int_Tables_number   1
_chemical_formula_structural   Nd15HoIn2(AgRh2)2
_chemical_formula_sum   'Nd15 Ho1 In2 Ag2 Rh4'
_cell_volume   681.63404124
_cell_formula_units_Z   1
loop_
 _symmetry_equiv_pos_site_id
 _symmetry_equiv_pos_as_xyz
  1  'x, y, z'
loop_
 _atom_site_type_symbol
 _atom_site_label
 _atom_site_symmetry_multiplicity
 _atom_site_fract_x
 _atom_site_fract_y
 _atom_site_fract_z
 _atom_site_occupancy
  Nd  Nd0  1  0.186581  0.186581  0.811021  1
  Nd  Nd1  1  0.599684  0.599684  0.202658  1
  Nd  Nd2  1  0.441934  0.059694  0.439920  1
  Nd  Nd3  1  0.443316  0.443316  0.056180  1
  Nd  Nd4  1  0.812309  0.182542  0.812470  1
  Nd  Nd5  1  0.180145  0.811868  0.192526  1
  Nd  Nd6  1  0.440207  0.060978  0.057420  1
  Nd  Nd7  1  0.182542  0.812309  0.812470  1
  Nd  Nd8  1  0.060978  0.440207  0.057420  1
  Nd  Nd9  1  0.810835  0.810835  0.189587  1
  Nd  Nd10  1  0.202904  0.601107  0.599360  1
  Nd  Nd11  1  0.059694  0.441934  0.439920  1
  Nd  Nd12  1  0.064119  0.064119  0.434196  1
  Nd  Nd13  1  0.811868  0.180145  0.192526  1
  Nd  Nd14  1  0.601107  0.202904  0.599360  1
  Ho  Ho15  1  0.598165  0.598165  0.600158  1
  In  In16  1  0.510018  0.830690  0.828238  1
  In  In17  1  0.830690  0.510018  0.828238  1
  Ag  Ag18  1  0.827464  0.827464  0.829881  1
  Ag  Ag19  1  0.825869  0.825869  0.513980  1
  Rh  Rh20  1  0.397163  0.822637  0.395099  1
  Rh  Rh21  1  0.392997  0.392997  0.392176  1
  Rh  Rh22  1  0.822637  0.397163  0.395099  1
  Rh  Rh23  1  0.396775  0.396775  0.820101  1
