# generated using pymatgen
data_Mn7Tc6
_symmetry_space_group_name_H-M   'P 1'
_cell_length_a   9.06233900
_cell_length_b   9.06233911
_cell_length_c   9.06233825
_cell_angle_alpha   29.85590588
_cell_angle_beta   29.85590552
_cell_angle_gamma   29.85590072
_symmetry_Int_Tables_number   1
_chemical_formula_structural   Mn7Tc6
_chemical_formula_sum   'Mn7 Tc6'
_cell_volume   163.34300957
_cell_formula_units_Z   1
loop_
 _symmetry_equiv_pos_site_id
 _symmetry_equiv_pos_as_xyz
  1  'x, y, z'
loop_
 _atom_site_type_symbol
 _atom_site_label
 _atom_site_symmetry_multiplicity
 _atom_site_fract_x
 _atom_site_fract_y
 _atom_site_fract_z
 _atom_site_occupancy
  Mn  Mn0  1  0.585371  0.094312  0.094312  1
  Mn  Mn1  1  0.094312  0.094312  0.585371  1
  Mn  Mn2  1  0.905688  0.905688  0.414629  1
  Mn  Mn3  1  0.905688  0.414629  0.905688  1
  Mn  Mn4  1  0.000000  0.000000  0.000000  1
  Mn  Mn5  1  0.094312  0.585371  0.094312  1
  Mn  Mn6  1  0.414629  0.905688  0.905688  1
  Tc  Tc7  1  0.347842  0.347842  0.347842  1
  Tc  Tc8  1  0.165965  0.165965  0.165965  1
  Tc  Tc9  1  0.547473  0.547473  0.547473  1
  Tc  Tc10  1  0.652158  0.652158  0.652158  1
  Tc  Tc11  1  0.452527  0.452527  0.452527  1
  Tc  Tc12  1  0.834035  0.834035  0.834035  1
