# generated using pymatgen
data_Dy4Ta4TiNbSi8
_symmetry_space_group_name_H-M   'P 1'
_cell_length_a   7.05443054
_cell_length_b   7.05157487
_cell_length_c   12.99737762
_cell_angle_alpha   89.90857834
_cell_angle_beta   90.05692186
_cell_angle_gamma   89.99585982
_symmetry_Int_Tables_number   1
_chemical_formula_structural   Dy4Ta4TiNbSi8
_chemical_formula_sum   'Dy8 Ta8 Ti2 Nb2 Si16'
_cell_volume   646.55139322
_cell_formula_units_Z   2
loop_
 _symmetry_equiv_pos_site_id
 _symmetry_equiv_pos_as_xyz
  1  'x, y, z'
loop_
 _atom_site_type_symbol
 _atom_site_label
 _atom_site_symmetry_multiplicity
 _atom_site_fract_x
 _atom_site_fract_y
 _atom_site_fract_z
 _atom_site_occupancy
  Dy  Dy0  1  0.998492  0.658065  0.032599  1
  Dy  Dy1  1  0.002109  0.341256  0.532070  1
  Dy  Dy2  1  0.657955  0.998368  0.967401  1
  Dy  Dy3  1  0.159441  0.503048  0.782351  1
  Dy  Dy4  1  0.841572  0.498277  0.281951  1
  Dy  Dy5  1  0.503073  0.159471  0.217632  1
  Dy  Dy6  1  0.497829  0.841392  0.717964  1
  Dy  Dy7  1  0.341341  0.001646  0.467978  1
  Ta  Ta8  1  0.008526  0.152739  0.126155  1
  Ta  Ta9  1  0.992273  0.846942  0.625668  1
  Ta  Ta10  1  0.508930  0.346438  0.624106  1
  Ta  Ta11  1  0.153277  0.008217  0.873670  1
  Ta  Ta12  1  0.672340  0.671756  0.500498  1
  Ta  Ta13  1  0.829200  0.170529  0.750204  1
  Ta  Ta14  1  0.170539  0.829755  0.249398  1
  Ta  Ta15  1  0.326233  0.326267  0.999891  1
  Ti  Ti16  1  0.492611  0.653196  0.123878  1
  Ti  Ti17  1  0.653210  0.492596  0.876052  1
  Nb  Nb18  1  0.346352  0.508168  0.376060  1
  Nb  Nb19  1  0.847336  0.992691  0.374527  1
  Si  Si20  1  0.045291  0.705980  0.436285  1
  Si  Si21  1  0.952669  0.294912  0.935784  1
  Si  Si22  1  0.705638  0.045743  0.564041  1
  Si  Si23  1  0.208031  0.455126  0.185319  1
  Si  Si24  1  0.793573  0.545274  0.687284  1
  Si  Si25  1  0.455339  0.208083  0.814626  1
  Si  Si26  1  0.545027  0.793383  0.312424  1
  Si  Si27  1  0.294808  0.952588  0.064181  1
  Si  Si28  1  0.794834  0.865298  0.181608  1
  Si  Si29  1  0.296542  0.633518  0.568521  1
  Si  Si30  1  0.701023  0.368524  0.066319  1
  Si  Si31  1  0.633253  0.296958  0.432157  1
  Si  Si32  1  0.368411  0.701286  0.933780  1
  Si  Si33  1  0.133522  0.203956  0.317258  1
  Si  Si34  1  0.204035  0.133629  0.682190  1
  Si  Si35  1  0.865369  0.794925  0.818172  1
