# generated using pymatgen
data_Tb3HoMg2(B2Rh5)2
_symmetry_space_group_name_H-M   'P 1'
_cell_length_a   9.65829145
_cell_length_b   9.65859045
_cell_length_c   3.18811400
_cell_angle_alpha   90.00000000
_cell_angle_beta   90.00000000
_cell_angle_gamma   89.96511275
_symmetry_Int_Tables_number   1
_chemical_formula_structural   Tb3HoMg2(B2Rh5)2
_chemical_formula_sum   'Tb3 Ho1 Mg2 B4 Rh10'
_cell_volume   297.40469449
_cell_formula_units_Z   1
loop_
 _symmetry_equiv_pos_site_id
 _symmetry_equiv_pos_as_xyz
  1  'x, y, z'
loop_
 _atom_site_type_symbol
 _atom_site_label
 _atom_site_symmetry_multiplicity
 _atom_site_fract_x
 _atom_site_fract_y
 _atom_site_fract_z
 _atom_site_occupancy
  Tb  Tb0  1  0.676859  0.176215  0.000000  1
  Tb  Tb1  1  0.323763  0.823207  0.000000  1
  Tb  Tb2  1  0.176380  0.323725  0.000000  1
  Ho  Ho3  1  0.823544  0.676460  0.000000  1
  Mg  Mg4  1  0.999894  0.000771  0.000000  1
  Mg  Mg5  1  0.499566  0.499464  0.000000  1
  B  B6  1  0.120725  0.622420  0.000000  1
  B  B7  1  0.877649  0.379308  0.000000  1
  B  B8  1  0.622415  0.877505  0.000000  1
  B  B9  1  0.378783  0.121178  0.000000  1
  Rh  Rh10  1  0.500517  0.999469  0.500000  1
  Rh  Rh11  1  0.999146  0.500882  0.500000  1
  Rh  Rh12  1  0.225204  0.069777  0.500000  1
  Rh  Rh13  1  0.775939  0.928690  0.500000  1
  Rh  Rh14  1  0.068743  0.775156  0.500000  1
  Rh  Rh15  1  0.724895  0.431248  0.500000  1
  Rh  Rh16  1  0.930151  0.225775  0.500000  1
  Rh  Rh17  1  0.274355  0.569912  0.500000  1
  Rh  Rh18  1  0.571234  0.724102  0.500000  1
  Rh  Rh19  1  0.430238  0.274737  0.500000  1
