# generated using pymatgen
data_HoTh3(Co7B3)2
_symmetry_space_group_name_H-M   'P 1'
_cell_length_a   5.01997762
_cell_length_b   5.02218202
_cell_length_c   13.06085501
_cell_angle_alpha   90.00125739
_cell_angle_beta   90.00241865
_cell_angle_gamma   119.83186212
_symmetry_Int_Tables_number   1
_chemical_formula_structural   HoTh3(Co7B3)2
_chemical_formula_sum   'Ho1 Th3 Co14 B6'
_cell_volume   285.64708027
_cell_formula_units_Z   1
loop_
 _symmetry_equiv_pos_site_id
 _symmetry_equiv_pos_as_xyz
  1  'x, y, z'
loop_
 _atom_site_type_symbol
 _atom_site_label
 _atom_site_symmetry_multiplicity
 _atom_site_fract_x
 _atom_site_fract_y
 _atom_site_fract_z
 _atom_site_occupancy
  Ho  Ho0  1  0.999997  0.000009  0.499994  1
  Th  Th1  1  0.999998  0.999995  0.259570  1
  Th  Th2  1  0.999991  0.000006  0.740487  1
  Th  Th3  1  0.000001  0.999984  0.999949  1
  Co  Co4  1  0.333306  0.666744  0.999987  1
  Co  Co5  1  0.666674  0.333248  0.999993  1
  Co  Co6  1  0.500008  0.000028  0.385184  1
  Co  Co7  1  0.999967  0.499986  0.385162  1
  Co  Co8  1  0.500010  0.499987  0.385183  1
  Co  Co9  1  0.500012  0.000034  0.614910  1
  Co  Co10  1  0.500013  0.499994  0.614804  1
  Co  Co11  1  0.999969  0.499994  0.614887  1
  Co  Co12  1  0.499919  0.999851  0.154520  1
  Co  Co13  1  0.000135  0.500067  0.154498  1
  Co  Co14  1  0.499924  0.500060  0.154484  1
  Co  Co15  1  0.499927  0.999866  0.845390  1
  Co  Co16  1  0.499932  0.500074  0.845515  1
  Co  Co17  1  0.000133  0.500073  0.845386  1
  B  B18  1  0.333412  0.666665  0.269010  1
  B  B19  1  0.666583  0.333322  0.268914  1
  B  B20  1  0.666615  0.333510  0.731125  1
  B  B21  1  0.333379  0.666499  0.731029  1
  B  B22  1  0.333339  0.666635  0.500009  1
  B  B23  1  0.666655  0.333372  0.500009  1
