# generated using pymatgen
data_YLu5Fe2(Co4P3)4
_symmetry_space_group_name_H-M   'P 1'
_cell_length_a   3.66510100
_cell_length_b   10.47597800
_cell_length_c   12.10378400
_cell_angle_alpha   90.00000000
_cell_angle_beta   90.00000000
_cell_angle_gamma   90.00000000
_symmetry_Int_Tables_number   1
_chemical_formula_structural   YLu5Fe2(Co4P3)4
_chemical_formula_sum   'Y1 Lu5 Fe2 Co16 P12'
_cell_volume   464.73104971
_cell_formula_units_Z   1
loop_
 _symmetry_equiv_pos_site_id
 _symmetry_equiv_pos_as_xyz
  1  'x, y, z'
loop_
 _atom_site_type_symbol
 _atom_site_label
 _atom_site_symmetry_multiplicity
 _atom_site_fract_x
 _atom_site_fract_y
 _atom_site_fract_z
 _atom_site_occupancy
  Y  Y0  1  0.000000  0.500000  0.522616  1
  Lu  Lu1  1  0.500000  0.000000  0.477061  1
  Lu  Lu2  1  0.500000  0.818852  0.205292  1
  Lu  Lu3  1  0.500000  0.181148  0.205292  1
  Lu  Lu4  1  0.000000  0.681642  0.795195  1
  Lu  Lu5  1  0.000000  0.318358  0.795195  1
  Fe  Fe6  1  0.500000  0.500000  0.157451  1
  Fe  Fe7  1  0.000000  0.000000  0.841266  1
  Co  Co8  1  0.500000  0.500000  0.703757  1
  Co  Co9  1  0.000000  0.000000  0.298044  1
  Co  Co10  1  0.000000  0.500000  0.986563  1
  Co  Co11  1  0.500000  0.000000  0.013855  1
  Co  Co12  1  0.500000  0.332473  0.993674  1
  Co  Co13  1  0.500000  0.667527  0.993674  1
  Co  Co14  1  0.000000  0.166982  0.006292  1
  Co  Co15  1  0.000000  0.833018  0.006292  1
  Co  Co16  1  0.500000  0.295207  0.430610  1
  Co  Co17  1  0.500000  0.704793  0.430610  1
  Co  Co18  1  0.000000  0.201651  0.569294  1
  Co  Co19  1  0.000000  0.798349  0.569294  1
  Co  Co20  1  0.500000  0.878279  0.708911  1
  Co  Co21  1  0.500000  0.121721  0.708911  1
  Co  Co22  1  0.000000  0.622606  0.290611  1
  Co  Co23  1  0.000000  0.377394  0.290611  1
  P  P24  1  0.500000  0.500000  0.881883  1
  P  P25  1  0.000000  0.000000  0.118914  1
  P  P26  1  0.500000  0.500000  0.342815  1
  P  P27  1  0.000000  0.000000  0.654841  1
  P  P28  1  0.500000  0.310601  0.617737  1
  P  P29  1  0.500000  0.689399  0.617737  1
  P  P30  1  0.000000  0.187592  0.383085  1
  P  P31  1  0.000000  0.812408  0.383085  1
  P  P32  1  0.500000  0.846901  0.891483  1
  P  P33  1  0.500000  0.153099  0.891483  1
  P  P34  1  0.000000  0.653839  0.108287  1
  P  P35  1  0.000000  0.346161  0.108287  1
