# generated using pymatgen
data_Li2DyY3(ScSi2)4
_symmetry_space_group_name_H-M   'P 1'
_cell_length_a   6.90206502
_cell_length_b   7.40899200
_cell_length_c   14.07971603
_cell_angle_alpha   89.99758083
_cell_angle_beta   90.00755756
_cell_angle_gamma   90.00325111
_symmetry_Int_Tables_number   1
_chemical_formula_structural   Li2DyY3(ScSi2)4
_chemical_formula_sum   'Li4 Dy2 Y6 Sc8 Si16'
_cell_volume   719.99928167
_cell_formula_units_Z   2
loop_
 _symmetry_equiv_pos_site_id
 _symmetry_equiv_pos_as_xyz
  1  'x, y, z'
loop_
 _atom_site_type_symbol
 _atom_site_label
 _atom_site_symmetry_multiplicity
 _atom_site_fract_x
 _atom_site_fract_y
 _atom_site_fract_z
 _atom_site_occupancy
  Li  Li0  1  0.159094  0.505234  0.750006  1
  Li  Li1  1  0.840906  0.494766  0.249994  1
  Li  Li2  1  0.340884  0.005251  0.250002  1
  Li  Li3  1  0.659116  0.994749  0.749998  1
  Dy  Dy4  1  0.513717  0.318141  0.400793  1
  Dy  Dy5  1  0.486283  0.681859  0.599207  1
  Y  Y6  1  0.013641  0.181700  0.099173  1
  Y  Y7  1  0.986359  0.818300  0.900827  1
  Y  Y8  1  0.486352  0.681699  0.900807  1
  Y  Y9  1  0.986354  0.818196  0.599162  1
  Y  Y10  1  0.513648  0.318301  0.099193  1
  Y  Y11  1  0.013646  0.181804  0.400838  1
  Sc  Sc12  1  0.330142  0.179313  0.626398  1
  Sc  Sc13  1  0.669858  0.820687  0.373602  1
  Sc  Sc14  1  0.169896  0.679282  0.373596  1
  Sc  Sc15  1  0.669862  0.820641  0.126490  1
  Sc  Sc16  1  0.830104  0.320718  0.626404  1
  Sc  Sc17  1  0.330138  0.179359  0.873510  1
  Sc  Sc18  1  0.830114  0.320658  0.873541  1
  Sc  Sc19  1  0.169886  0.679342  0.126459  1
  Si  Si20  1  0.031612  0.104726  0.750029  1
  Si  Si21  1  0.968388  0.895274  0.249971  1
  Si  Si22  1  0.468436  0.604537  0.250070  1
  Si  Si23  1  0.531564  0.395463  0.749930  1
  Si  Si24  1  0.282182  0.881882  0.749823  1
  Si  Si25  1  0.717818  0.118118  0.250177  1
  Si  Si26  1  0.218278  0.382096  0.250071  1
  Si  Si27  1  0.781722  0.617904  0.749929  1
  Si  Si28  1  0.158353  0.463049  0.535286  1
  Si  Si29  1  0.841647  0.536951  0.464714  1
  Si  Si30  1  0.342264  0.963011  0.464773  1
  Si  Si31  1  0.842053  0.537068  0.035271  1
  Si  Si32  1  0.657736  0.036989  0.535227  1
  Si  Si33  1  0.157947  0.462932  0.964729  1
  Si  Si34  1  0.657969  0.037104  0.964734  1
  Si  Si35  1  0.342031  0.962896  0.035266  1
