# generated using pymatgen
data_Ho2ZnCuRu
_symmetry_space_group_name_H-M   'P 1'
_cell_length_a   5.43284115
_cell_length_b   5.43284231
_cell_length_c   5.43284179
_cell_angle_alpha   134.58862570
_cell_angle_beta   118.05019972
_cell_angle_gamma   80.08094953
_symmetry_Int_Tables_number   1
_chemical_formula_structural   Ho2ZnCuRu
_chemical_formula_sum   'Ho2 Zn1 Cu1 Ru1'
_cell_volume   97.55390716
_cell_formula_units_Z   1
loop_
 _symmetry_equiv_pos_site_id
 _symmetry_equiv_pos_as_xyz
  1  'x, y, z'
loop_
 _atom_site_type_symbol
 _atom_site_label
 _atom_site_symmetry_multiplicity
 _atom_site_fract_x
 _atom_site_fract_y
 _atom_site_fract_z
 _atom_site_occupancy
  Ho  Ho0  1  0.690298  0.201015  0.489283  1
  Ho  Ho1  1  0.288269  0.798984  0.489283  1
  Zn  Zn2  1  0.001410  0.000000  0.001410  1
  Cu  Cu3  1  0.740230  0.500000  0.240230  1
  Ru  Ru4  1  0.279791  0.499999  0.779790  1
