# generated using pymatgen
data_La7Tc2Os2C9
_symmetry_space_group_name_H-M   'P 1'
_cell_length_a   6.61247062
_cell_length_b   6.61247086
_cell_length_c   12.06929758
_cell_angle_alpha   71.27183289
_cell_angle_beta   71.27183060
_cell_angle_gamma   48.33239008
_symmetry_Int_Tables_number   1
_chemical_formula_structural   La7Tc2Os2C9
_chemical_formula_sum   'La7 Tc2 Os2 C9'
_cell_volume   369.00146785
_cell_formula_units_Z   1
loop_
 _symmetry_equiv_pos_site_id
 _symmetry_equiv_pos_as_xyz
  1  'x, y, z'
loop_
 _atom_site_type_symbol
 _atom_site_label
 _atom_site_symmetry_multiplicity
 _atom_site_fract_x
 _atom_site_fract_y
 _atom_site_fract_z
 _atom_site_occupancy
  La  La0  1  0.374194  0.374194  0.843123  1
  La  La1  1  0.144339  0.144339  0.682811  1
  La  La2  1  0.855427  0.855427  0.318081  1
  La  La3  1  0.137931  0.137931  0.380072  1
  La  La4  1  0.862249  0.862249  0.619446  1
  La  La5  1  0.001170  0.001170  0.999849  1
  La  La6  1  0.626904  0.626904  0.156702  1
  Tc  Tc7  1  0.358236  0.358236  0.140797  1
  Tc  Tc8  1  0.565302  0.565302  0.570493  1
  Os  Os9  1  0.434394  0.434394  0.429580  1
  Os  Os10  1  0.643096  0.643096  0.859002  1
  C  C11  1  0.384114  0.384114  0.291025  1
  C  C12  1  0.921599  0.921599  0.819399  1
  C  C13  1  0.391910  0.391910  0.610827  1
  C  C14  1  0.194681  0.194681  0.143177  1
  C  C15  1  0.804123  0.804123  0.855298  1
  C  C16  1  0.499897  0.499897  0.999308  1
  C  C17  1  0.076871  0.076871  0.182512  1
  C  C18  1  0.615458  0.615458  0.710009  1
  C  C19  1  0.608105  0.608105  0.388488  1
