# generated using pymatgen
data_Ce8Si13Os3
_symmetry_space_group_name_H-M   'P 1'
_cell_length_a   8.22195301
_cell_length_b   8.22282563
_cell_length_c   8.13837702
_cell_angle_alpha   89.99090531
_cell_angle_beta   90.00380248
_cell_angle_gamma   119.98116563
_symmetry_Int_Tables_number   1
_chemical_formula_structural   Ce8Si13Os3
_chemical_formula_sum   'Ce8 Si13 Os3'
_cell_volume   476.59216108
_cell_formula_units_Z   1
loop_
 _symmetry_equiv_pos_site_id
 _symmetry_equiv_pos_as_xyz
  1  'x, y, z'
loop_
 _atom_site_type_symbol
 _atom_site_label
 _atom_site_symmetry_multiplicity
 _atom_site_fract_x
 _atom_site_fract_y
 _atom_site_fract_z
 _atom_site_occupancy
  Ce  Ce0  1  0.999988  0.000002  0.246587  1
  Ce  Ce1  1  0.999994  0.999998  0.752529  1
  Ce  Ce2  1  0.502714  0.497302  0.251430  1
  Ce  Ce3  1  0.502706  0.005401  0.251429  1
  Ce  Ce4  1  0.994595  0.497293  0.251417  1
  Ce  Ce5  1  0.500976  0.499013  0.748925  1
  Ce  Ce6  1  0.500974  0.001962  0.748939  1
  Ce  Ce7  1  0.998075  0.499034  0.748955  1
  Si  Si8  1  0.166069  0.833906  0.498456  1
  Si  Si9  1  0.166090  0.332182  0.498494  1
  Si  Si10  1  0.667810  0.833895  0.498454  1
  Si  Si11  1  0.834900  0.165121  0.500678  1
  Si  Si12  1  0.834880  0.669763  0.500701  1
  Si  Si13  1  0.330235  0.165129  0.500647  1
  Si  Si14  1  0.834335  0.165679  0.001738  1
  Si  Si15  1  0.834308  0.668634  0.001708  1
  Si  Si16  1  0.331361  0.165699  0.001752  1
  Si  Si17  1  0.166432  0.833538  0.999221  1
  Si  Si18  1  0.166459  0.332919  0.999180  1
  Si  Si19  1  0.667092  0.833533  0.999207  1
  Si  Si20  1  0.333362  0.666648  0.004059  1
  Os  Os21  1  0.333338  0.666625  0.502451  1
  Os  Os22  1  0.666659  0.333366  0.501936  1
  Os  Os23  1  0.666649  0.333357  0.991105  1
