# generated using pymatgen
data_Pa3Co4Ni5
_symmetry_space_group_name_H-M   'P 1'
_cell_length_a   7.33863391
_cell_length_b   7.35741144
_cell_length_c   7.33863443
_cell_angle_alpha   43.04378159
_cell_angle_beta   42.74873486
_cell_angle_gamma   43.04377748
_symmetry_Int_Tables_number   1
_chemical_formula_structural   Pa3Co4Ni5
_chemical_formula_sum   'Pa3 Co4 Ni5'
_cell_volume   166.68333654
_cell_formula_units_Z   1
loop_
 _symmetry_equiv_pos_site_id
 _symmetry_equiv_pos_as_xyz
  1  'x, y, z'
loop_
 _atom_site_type_symbol
 _atom_site_label
 _atom_site_symmetry_multiplicity
 _atom_site_fract_x
 _atom_site_fract_y
 _atom_site_fract_z
 _atom_site_occupancy
  Pa  Pa0  1  0.000742  0.009175  0.000742  1
  Pa  Pa1  1  0.216532  0.214620  0.216532  1
  Pa  Pa2  1  0.778479  0.783892  0.778479  1
  Co  Co3  1  0.720937  0.231810  0.720937  1
  Co  Co4  1  0.282692  0.763308  0.282692  1
  Co  Co5  1  0.759219  0.288229  0.283685  1
  Co  Co6  1  0.283685  0.288229  0.759219  1
  Ni  Ni7  1  0.496110  0.499074  0.001118  1
  Ni  Ni8  1  0.497137  0.002625  0.497137  1
  Ni  Ni9  1  0.001118  0.499074  0.496110  1
  Ni  Ni10  1  0.249450  0.709983  0.713899  1
  Ni  Ni11  1  0.713899  0.709983  0.249450  1
