# generated using pymatgen
data_Ta8Co7Si14Pd
_symmetry_space_group_name_H-M   'P 1'
_cell_length_a   9.28512572
_cell_length_b   9.30178377
_cell_length_c   9.25017935
_cell_angle_alpha   94.26763726
_cell_angle_beta   94.17174528
_cell_angle_gamma   148.59698512
_symmetry_Int_Tables_number   1
_chemical_formula_structural   Ta8Co7Si14Pd
_chemical_formula_sum   'Ta8 Co7 Si14 Pd1'
_cell_volume   400.59935097
_cell_formula_units_Z   1
loop_
 _symmetry_equiv_pos_site_id
 _symmetry_equiv_pos_as_xyz
  1  'x, y, z'
loop_
 _atom_site_type_symbol
 _atom_site_label
 _atom_site_symmetry_multiplicity
 _atom_site_fract_x
 _atom_site_fract_y
 _atom_site_fract_z
 _atom_site_occupancy
  Ta  Ta0  1  0.133590  0.133590  0.267180  1
  Ta  Ta1  1  0.867063  0.867063  0.734126  1
  Ta  Ta2  1  0.868316  0.132268  0.002306  1
  Ta  Ta3  1  0.133990  0.870037  0.002306  1
  Ta  Ta4  1  0.498316  0.311673  0.810706  1
  Ta  Ta5  1  0.500365  0.687961  0.190635  1
  Ta  Ta6  1  0.690270  0.502674  0.190635  1
  Ta  Ta7  1  0.312390  0.499033  0.810706  1
  Co  Co8  1  0.104626  0.604626  0.209251  1
  Co  Co9  1  0.104605  0.899754  0.503350  1
  Co  Co10  1  0.398745  0.603596  0.503350  1
  Co  Co11  1  0.596599  0.398979  0.494560  1
  Co  Co12  1  0.897962  0.095581  0.494560  1
  Co  Co13  1  0.897874  0.397874  0.795748  1
  Co  Co14  1  0.598517  0.098517  0.197035  1
  Si  Si15  1  0.520685  0.119248  0.585874  1
  Si  Si16  1  0.502836  0.907632  0.406692  1
  Si  Si17  1  0.903855  0.499060  0.406692  1
  Si  Si18  1  0.065188  0.466625  0.585874  1
  Si  Si19  1  0.751857  0.752187  0.000810  1
  Si  Si20  1  0.248953  0.248624  0.000810  1
  Si  Si21  1  0.291148  0.291148  0.582297  1
  Si  Si22  1  0.708341  0.708341  0.416682  1
  Si  Si23  1  0.727791  0.315726  0.005978  1
  Si  Si24  1  0.278187  0.690251  0.005978  1
  Si  Si25  1  0.997729  0.294492  0.296676  1
  Si  Si26  1  0.980265  0.691552  0.702186  1
  Si  Si27  1  0.721921  0.010634  0.702186  1
  Si  Si28  1  0.298946  0.002184  0.296676  1
  Pd  Pd29  1  0.399069  0.899069  0.798137  1
