# generated using pymatgen
data_TbTm15Cd4TcNi3
_symmetry_space_group_name_H-M   'P 1'
_cell_length_a   9.49578779
_cell_length_b   9.49578755
_cell_length_c   9.50982339
_cell_angle_alpha   59.46386042
_cell_angle_beta   59.46386273
_cell_angle_gamma   59.34129789
_symmetry_Int_Tables_number   1
_chemical_formula_structural   TbTm15Cd4TcNi3
_chemical_formula_sum   'Tb1 Tm15 Cd4 Tc1 Ni3'
_cell_volume   598.38226295
_cell_formula_units_Z   1
loop_
 _symmetry_equiv_pos_site_id
 _symmetry_equiv_pos_as_xyz
  1  'x, y, z'
loop_
 _atom_site_type_symbol
 _atom_site_label
 _atom_site_symmetry_multiplicity
 _atom_site_fract_x
 _atom_site_fract_y
 _atom_site_fract_z
 _atom_site_occupancy
  Tb  Tb0  1  0.938853  0.938853  0.556919  1
  Tm  Tm1  1  0.346889  0.346889  0.346596  1
  Tm  Tm2  1  0.353059  0.353059  0.954222  1
  Tm  Tm3  1  0.352461  0.954973  0.351842  1
  Tm  Tm4  1  0.954973  0.352461  0.351842  1
  Tm  Tm5  1  0.810752  0.187625  0.186258  1
  Tm  Tm6  1  0.186365  0.811017  0.811719  1
  Tm  Tm7  1  0.187625  0.810752  0.186258  1
  Tm  Tm8  1  0.811017  0.186365  0.811719  1
  Tm  Tm9  1  0.187192  0.187192  0.811024  1
  Tm  Tm10  1  0.811523  0.811523  0.185699  1
  Tm  Tm11  1  0.935256  0.564233  0.565577  1
  Tm  Tm12  1  0.553826  0.940298  0.940707  1
  Tm  Tm13  1  0.564233  0.935256  0.565577  1
  Tm  Tm14  1  0.940298  0.553826  0.940707  1
  Tm  Tm15  1  0.565779  0.565779  0.935625  1
  Cd  Cd16  1  0.579679  0.579679  0.580144  1
  Cd  Cd17  1  0.579578  0.579578  0.255440  1
  Cd  Cd18  1  0.578363  0.256055  0.579837  1
  Cd  Cd19  1  0.256055  0.578363  0.579837  1
  Tc  Tc20  1  0.145358  0.145358  0.142538  1
  Ni  Ni21  1  0.142344  0.142344  0.576678  1
  Ni  Ni22  1  0.142634  0.575889  0.141618  1
  Ni  Ni23  1  0.575889  0.142634  0.141618  1
