# generated using pymatgen
data_Nd6WO12
_symmetry_space_group_name_H-M   'P 1'
_cell_length_a   6.74095705
_cell_length_b   6.74095660
_cell_length_c   6.74095634
_cell_angle_alpha   98.51767201
_cell_angle_beta   98.51766564
_cell_angle_gamma   98.51766783
_symmetry_Int_Tables_number   1
_chemical_formula_structural   Nd6WO12
_chemical_formula_sum   'Nd6 W1 O12'
_cell_volume   295.02954997
_cell_formula_units_Z   1
loop_
 _symmetry_equiv_pos_site_id
 _symmetry_equiv_pos_as_xyz
  1  'x, y, z'
loop_
 _atom_site_type_symbol
 _atom_site_label
 _atom_site_symmetry_multiplicity
 _atom_site_fract_x
 _atom_site_fract_y
 _atom_site_fract_z
 _atom_site_occupancy
  Nd  Nd0  1  0.144483  0.310271  0.610896  1
  Nd  Nd1  1  0.389104  0.855517  0.689729  1
  Nd  Nd2  1  0.689729  0.389104  0.855517  1
  Nd  Nd3  1  0.310271  0.610896  0.144483  1
  Nd  Nd4  1  0.610896  0.144483  0.310271  1
  Nd  Nd5  1  0.855517  0.689729  0.389104  1
  W  W6  1  0.000000  0.000000  0.000000  1
  O  O7  1  0.070222  0.288456  0.968582  1
  O  O8  1  0.031418  0.929778  0.711544  1
  O  O9  1  0.407524  0.560864  0.822607  1
  O  O10  1  0.177393  0.592476  0.439136  1
  O  O11  1  0.711544  0.031418  0.929778  1
  O  O12  1  0.439136  0.177393  0.592476  1
  O  O13  1  0.560864  0.822607  0.407524  1
  O  O14  1  0.288456  0.968582  0.070222  1
  O  O15  1  0.822607  0.407524  0.560864  1
  O  O16  1  0.592476  0.439136  0.177393  1
  O  O17  1  0.968582  0.070222  0.288456  1
  O  O18  1  0.929778  0.711544  0.031418  1
