# generated using pymatgen
data_Lu2OsC2
_symmetry_space_group_name_H-M   'P 1'
_cell_length_a   4.98569400
_cell_length_b   6.37790100
_cell_length_c   9.58639000
_cell_angle_alpha   90.00000000
_cell_angle_beta   90.00000000
_cell_angle_gamma   90.00000000
_symmetry_Int_Tables_number   1
_chemical_formula_structural   Lu2OsC2
_chemical_formula_sum   'Lu8 Os4 C8'
_cell_volume   304.83054803
_cell_formula_units_Z   4
loop_
 _symmetry_equiv_pos_site_id
 _symmetry_equiv_pos_as_xyz
  1  'x, y, z'
loop_
 _atom_site_type_symbol
 _atom_site_label
 _atom_site_symmetry_multiplicity
 _atom_site_fract_x
 _atom_site_fract_y
 _atom_site_fract_z
 _atom_site_occupancy
  Lu  Lu0  1  0.250000  0.823261  0.945673  1
  Lu  Lu1  1  0.250000  0.323261  0.554327  1
  Lu  Lu2  1  0.750000  0.176739  0.054327  1
  Lu  Lu3  1  0.750000  0.676739  0.445673  1
  Lu  Lu4  1  0.250000  0.469285  0.218506  1
  Lu  Lu5  1  0.250000  0.969285  0.281494  1
  Lu  Lu6  1  0.750000  0.530715  0.781494  1
  Lu  Lu7  1  0.750000  0.030715  0.718506  1
  Os  Os8  1  0.250000  0.281084  0.868476  1
  Os  Os9  1  0.250000  0.781084  0.631524  1
  Os  Os10  1  0.750000  0.718916  0.131524  1
  Os  Os11  1  0.750000  0.218916  0.368476  1
  C  C12  1  0.250000  0.046052  0.741282  1
  C  C13  1  0.250000  0.546052  0.758718  1
  C  C14  1  0.750000  0.953948  0.258718  1
  C  C15  1  0.750000  0.453948  0.241282  1
  C  C16  1  0.250000  0.669933  0.440591  1
  C  C17  1  0.250000  0.169933  0.059409  1
  C  C18  1  0.750000  0.330067  0.559409  1
  C  C19  1  0.750000  0.830067  0.940591  1
