# generated using pymatgen
data_TiSn2F8
_symmetry_space_group_name_H-M   'P 1'
_cell_length_a   5.38286900
_cell_length_b   5.36115631
_cell_length_c   13.40921660
_cell_angle_alpha   66.73187618
_cell_angle_beta   90.00000000
_cell_angle_gamma   90.00000000
_symmetry_Int_Tables_number   1
_chemical_formula_structural   TiSn2F8
_chemical_formula_sum   'Ti2 Sn4 F16'
_cell_volume   355.49497919
_cell_formula_units_Z   2
loop_
 _symmetry_equiv_pos_site_id
 _symmetry_equiv_pos_as_xyz
  1  'x, y, z'
loop_
 _atom_site_type_symbol
 _atom_site_label
 _atom_site_symmetry_multiplicity
 _atom_site_fract_x
 _atom_site_fract_y
 _atom_site_fract_z
 _atom_site_occupancy
  Ti  Ti0  1  0.500000  0.000000  0.500000  1
  Ti  Ti1  1  0.000000  0.000000  0.000000  1
  Sn  Sn2  1  0.443511  0.368870  0.166628  1
  Sn  Sn3  1  0.943511  0.631130  0.333372  1
  Sn  Sn4  1  0.556489  0.631130  0.833372  1
  Sn  Sn5  1  0.056489  0.368870  0.666628  1
  F  F6  1  0.097063  0.403190  0.247244  1
  F  F7  1  0.597063  0.596810  0.252756  1
  F  F8  1  0.902937  0.596810  0.752756  1
  F  F9  1  0.402937  0.403190  0.747244  1
  F  F10  1  0.302375  0.311903  0.463574  1
  F  F11  1  0.802375  0.688097  0.036426  1
  F  F12  1  0.028184  0.010413  0.856960  1
  F  F13  1  0.528184  0.989587  0.643040  1
  F  F14  1  0.971816  0.989587  0.143040  1
  F  F15  1  0.471816  0.010413  0.356960  1
  F  F16  1  0.209278  0.776246  0.545482  1
  F  F17  1  0.709278  0.223754  0.954518  1
  F  F18  1  0.790722  0.223754  0.454518  1
  F  F19  1  0.290722  0.776246  0.045482  1
  F  F20  1  0.197625  0.311903  0.963574  1
  F  F21  1  0.697625  0.688097  0.536426  1
