# generated using pymatgen
data_La3Tb3Ho2(CdIr)2
_symmetry_space_group_name_H-M   'P 1'
_cell_length_a   9.83634778
_cell_length_b   9.83724893
_cell_length_c   9.83724804
_cell_angle_alpha   59.99393763
_cell_angle_beta   60.00302804
_cell_angle_gamma   60.00302863
_symmetry_Int_Tables_number   1
_chemical_formula_structural   La3Tb3Ho2(CdIr)2
_chemical_formula_sum   'La6 Tb6 Ho4 Cd4 Ir4'
_cell_volume   673.07914641
_cell_formula_units_Z   2
loop_
 _symmetry_equiv_pos_site_id
 _symmetry_equiv_pos_as_xyz
  1  'x, y, z'
loop_
 _atom_site_type_symbol
 _atom_site_label
 _atom_site_symmetry_multiplicity
 _atom_site_fract_x
 _atom_site_fract_y
 _atom_site_fract_z
 _atom_site_occupancy
  La  La0  1  0.193220  0.806780  0.806780  1
  La  La1  1  0.806780  0.193220  0.193220  1
  La  La2  1  0.806720  0.193280  0.806720  1
  La  La3  1  0.193280  0.806720  0.193280  1
  La  La4  1  0.806720  0.806720  0.193280  1
  La  La5  1  0.193280  0.193280  0.806720  1
  Tb  Tb6  1  0.596554  0.597020  0.597020  1
  Tb  Tb7  1  0.597020  0.596554  0.209407  1
  Tb  Tb8  1  0.597020  0.209407  0.596554  1
  Tb  Tb9  1  0.209407  0.597020  0.597020  1
  Tb  Tb10  1  0.063591  0.436409  0.436409  1
  Tb  Tb11  1  0.436409  0.063591  0.063591  1
  Ho  Ho12  1  0.436607  0.063393  0.436607  1
  Ho  Ho13  1  0.063393  0.436607  0.063393  1
  Ho  Ho14  1  0.436607  0.436607  0.063393  1
  Ho  Ho15  1  0.063393  0.063393  0.436607  1
  Cd  Cd16  1  0.828810  0.828663  0.828663  1
  Cd  Cd17  1  0.828663  0.828810  0.513863  1
  Cd  Cd18  1  0.828663  0.513863  0.828810  1
  Cd  Cd19  1  0.513863  0.828663  0.828663  1
  Ir  Ir20  1  0.391291  0.390666  0.390666  1
  Ir  Ir21  1  0.390666  0.391291  0.827377  1
  Ir  Ir22  1  0.390666  0.827377  0.391291  1
  Ir  Ir23  1  0.827377  0.390666  0.390666  1
