# generated using pymatgen
data_Cs4Zr8AlGa3(PO4)16
_symmetry_space_group_name_H-M   'P 1'
_cell_length_a   8.86450100
_cell_length_b   9.55197000
_cell_length_c   18.27578300
_cell_angle_alpha   90.00000000
_cell_angle_beta   90.00000000
_cell_angle_gamma   90.00000000
_symmetry_Int_Tables_number   1
_chemical_formula_structural   Cs4Zr8AlGa3(PO4)16
_chemical_formula_sum   'Cs4 Zr8 Al1 Ga3 P16 O64'
_cell_volume   1547.47355451
_cell_formula_units_Z   1
loop_
 _symmetry_equiv_pos_site_id
 _symmetry_equiv_pos_as_xyz
  1  'x, y, z'
loop_
 _atom_site_type_symbol
 _atom_site_label
 _atom_site_symmetry_multiplicity
 _atom_site_fract_x
 _atom_site_fract_y
 _atom_site_fract_z
 _atom_site_occupancy
  Cs  Cs0  1  0.344247  0.751179  0.250000  1
  Cs  Cs1  1  0.654885  0.250070  0.750000  1
  Cs  Cs2  1  0.345044  0.749996  0.750000  1
  Cs  Cs3  1  0.652599  0.249328  0.250000  1
  Zr  Zr4  1  0.247594  0.030862  0.428385  1
  Zr  Zr5  1  0.752889  0.969010  0.928528  1
  Zr  Zr6  1  0.246861  0.469022  0.571123  1
  Zr  Zr7  1  0.751477  0.530904  0.071890  1
  Zr  Zr8  1  0.752889  0.969010  0.571472  1
  Zr  Zr9  1  0.247594  0.030862  0.071615  1
  Zr  Zr10  1  0.751477  0.530904  0.428110  1
  Zr  Zr11  1  0.246861  0.469022  0.928877  1
  Al  Al12  1  0.205304  0.396551  0.250000  1
  Ga  Ga13  1  0.799980  0.895517  0.250000  1
  Ga  Ga14  1  0.206388  0.106476  0.750000  1
  Ga  Ga15  1  0.793438  0.606265  0.750000  1
  P  P16  1  0.099495  0.076727  0.250000  1
  P  P17  1  0.903821  0.925798  0.750000  1
  P  P18  1  0.096519  0.425946  0.750000  1
  P  P19  1  0.905174  0.574824  0.250000  1
  P  P20  1  0.034284  0.749801  0.499714  1
  P  P21  1  0.964874  0.249975  0.000322  1
  P  P22  1  0.964874  0.249975  0.499678  1
  P  P23  1  0.034284  0.749801  0.000286  1
  P  P24  1  0.605748  0.873172  0.398751  1
  P  P25  1  0.395402  0.127127  0.899440  1
  P  P26  1  0.604306  0.627029  0.600617  1
  P  P27  1  0.392831  0.372591  0.101693  1
  P  P28  1  0.395402  0.127127  0.600560  1
  P  P29  1  0.605748  0.873172  0.101249  1
  P  P30  1  0.392831  0.372591  0.398307  1
  P  P31  1  0.604306  0.627029  0.899383  1
  O  O32  1  0.112245  0.237580  0.250000  1
  O  O33  1  0.904434  0.763675  0.750000  1
  O  O34  1  0.095401  0.263851  0.750000  1
  O  O35  1  0.912208  0.737365  0.250000  1
  O  O36  1  0.927359  0.047769  0.250000  1
  O  O37  1  0.074359  0.959105  0.750000  1
  O  O38  1  0.926047  0.459455  0.750000  1
  O  O39  1  0.072984  0.531903  0.250000  1
  O  O40  1  0.175416  0.013717  0.317928  1
  O  O41  1  0.824552  0.985265  0.817827  1
  O  O42  1  0.175881  0.485140  0.682101  1
  O  O43  1  0.823989  0.517612  0.182279  1
  O  O44  1  0.824552  0.985265  0.682173  1
  O  O45  1  0.175416  0.013717  0.182072  1
  O  O46  1  0.823989  0.517612  0.317721  1
  O  O47  1  0.175881  0.485140  0.817899  1
  O  O48  1  0.063979  0.160861  0.448168  1
  O  O49  1  0.935902  0.839308  0.948639  1
  O  O50  1  0.063412  0.339751  0.551161  1
  O  O51  1  0.935221  0.660338  0.051650  1
  O  O52  1  0.935902  0.839308  0.551361  1
  O  O53  1  0.063979  0.160861  0.051832  1
  O  O54  1  0.935221  0.660338  0.448350  1
  O  O55  1  0.063412  0.339751  0.948839  1
  O  O56  1  0.133748  0.847591  0.452897  1
  O  O57  1  0.866133  0.151966  0.953294  1
  O  O58  1  0.133670  0.651957  0.546534  1
  O  O59  1  0.864536  0.347442  0.047001  1
  O  O60  1  0.866133  0.151966  0.546706  1
  O  O61  1  0.133748  0.847591  0.047103  1
  O  O62  1  0.864536  0.347442  0.452999  1
  O  O63  1  0.133670  0.651957  0.953466  1
  O  O64  1  0.436136  0.908794  0.398572  1
  O  O65  1  0.565057  0.092354  0.900041  1
  O  O66  1  0.434649  0.592299  0.599914  1
  O  O67  1  0.561639  0.411520  0.103224  1
  O  O68  1  0.565057  0.092354  0.599959  1
  O  O69  1  0.436136  0.908794  0.101428  1
  O  O70  1  0.561639  0.411520  0.396776  1
  O  O71  1  0.434649  0.592299  0.900086  1
  O  O72  1  0.684234  0.944477  0.463639  1
  O  O73  1  0.315796  0.054878  0.963696  1
  O  O74  1  0.683187  0.555330  0.535918  1
  O  O75  1  0.314480  0.445346  0.037162  1
  O  O76  1  0.315796  0.054878  0.536304  1
  O  O77  1  0.684234  0.944477  0.036361  1
  O  O78  1  0.314480  0.445346  0.462838  1
  O  O79  1  0.683187  0.555330  0.964082  1
  O  O80  1  0.626448  0.713495  0.398797  1
  O  O81  1  0.373055  0.286683  0.899407  1
  O  O82  1  0.626893  0.786479  0.601117  1
  O  O83  1  0.375688  0.212429  0.099509  1
  O  O84  1  0.373055  0.286683  0.600593  1
  O  O85  1  0.626448  0.713495  0.101203  1
  O  O86  1  0.375688  0.212429  0.400491  1
  O  O87  1  0.626893  0.786479  0.898883  1
  O  O88  1  0.670881  0.934580  0.326004  1
  O  O89  1  0.333021  0.064924  0.826314  1
  O  O90  1  0.667135  0.564142  0.673522  1
  O  O91  1  0.323029  0.427137  0.174709  1
  O  O92  1  0.333021  0.064924  0.673686  1
  O  O93  1  0.670881  0.934580  0.173996  1
  O  O94  1  0.323029  0.427137  0.325291  1
  O  O95  1  0.667135  0.564142  0.826478  1
