# generated using pymatgen
data_Yb2LuHf(Al8Pt3)3
_symmetry_space_group_name_H-M   'P 1'
_cell_length_a   7.50269533
_cell_length_b   7.52170429
_cell_length_c   13.15181364
_cell_angle_alpha   84.61187425
_cell_angle_beta   79.12054962
_cell_angle_gamma   59.92789042
_symmetry_Int_Tables_number   1
_chemical_formula_structural   Yb2LuHf(Al8Pt3)3
_chemical_formula_sum   'Yb2 Lu1 Hf1 Al24 Pt9'
_cell_volume   630.74944066
_cell_formula_units_Z   1
loop_
 _symmetry_equiv_pos_site_id
 _symmetry_equiv_pos_as_xyz
  1  'x, y, z'
loop_
 _atom_site_type_symbol
 _atom_site_label
 _atom_site_symmetry_multiplicity
 _atom_site_fract_x
 _atom_site_fract_y
 _atom_site_fract_z
 _atom_site_occupancy
  Yb  Yb0  1  0.606619  0.830881  0.191495  1
  Yb  Yb1  1  0.733796  0.499082  0.807875  1
  Lu  Lu2  1  0.266345  0.501539  0.192287  1
  Hf  Hf3  1  0.394558  0.168014  0.808315  1
  Al  Al4  1  0.681430  0.836541  0.942103  1
  Al  Al5  1  0.316391  0.167089  0.053648  1
  Al  Al6  1  0.146540  0.832210  0.562675  1
  Al  Al7  1  0.852579  0.167634  0.439029  1
  Al  Al8  1  0.479746  0.166164  0.560384  1
  Al  Al9  1  0.519968  0.833416  0.441187  1
  Al  Al10  1  0.217435  0.164883  0.329147  1
  Al  Al11  1  0.779196  0.835582  0.674866  1
  Al  Al12  1  0.436679  0.504771  0.675172  1
  Al  Al13  1  0.562847  0.494376  0.328452  1
  Al  Al14  1  0.109460  0.160883  0.673774  1
  Al  Al15  1  0.890146  0.839439  0.329918  1
  Al  Al16  1  0.355118  0.495396  0.941245  1
  Al  Al17  1  0.647744  0.499912  0.053947  1
  Al  Al18  1  0.019811  0.169257  0.948938  1
  Al  Al19  1  0.985452  0.831888  0.045467  1
  Al  Al20  1  0.186323  0.499808  0.441696  1
  Al  Al21  1  0.813045  0.500570  0.560105  1
  Al  Al22  1  0.731715  0.167793  0.182948  1
  Al  Al23  1  0.265453  0.843128  0.816817  1
  Al  Al24  1  0.068264  0.624768  0.815563  1
  Al  Al25  1  0.942214  0.367309  0.183614  1
  Al  Al26  1  0.847754  0.041339  0.815933  1
  Al  Al27  1  0.143428  0.956642  0.183160  1
  Pt  Pt28  1  0.121158  0.490397  0.639616  1
  Pt  Pt29  1  0.880685  0.507522  0.361617  1
  Pt  Pt30  1  0.657963  0.171311  0.998804  1
  Pt  Pt31  1  0.343156  0.828215  0.999307  1
  Pt  Pt32  1  0.536960  0.167746  0.361593  1
  Pt  Pt33  1  0.462088  0.834104  0.639320  1
  Pt  Pt34  1  0.777606  0.175133  0.638001  1
  Pt  Pt35  1  0.220176  0.824851  0.363154  1
  Pt  Pt36  1  0.000156  0.500404  0.998828  1
