# generated using pymatgen
data_Tb16MgAg3Ir4
_symmetry_space_group_name_H-M   'P 1'
_cell_length_a   9.63422473
_cell_length_b   9.62332702
_cell_length_c   9.62332700
_cell_angle_alpha   60.00000351
_cell_angle_beta   60.03741445
_cell_angle_gamma   60.03741679
_symmetry_Int_Tables_number   1
_chemical_formula_structural   Tb16MgAg3Ir4
_chemical_formula_sum   'Tb16 Mg1 Ag3 Ir4'
_cell_volume   631.24456538
_cell_formula_units_Z   1
loop_
 _symmetry_equiv_pos_site_id
 _symmetry_equiv_pos_as_xyz
  1  'x, y, z'
loop_
 _atom_site_type_symbol
 _atom_site_label
 _atom_site_symmetry_multiplicity
 _atom_site_fract_x
 _atom_site_fract_y
 _atom_site_fract_z
 _atom_site_occupancy
  Tb  Tb0  1  0.189338  0.811261  0.811261  1
  Tb  Tb1  1  0.813366  0.187003  0.187003  1
  Tb  Tb2  1  0.065476  0.436377  0.061769  1
  Tb  Tb3  1  0.060615  0.646462  0.646462  1
  Tb  Tb4  1  0.649326  0.649990  0.649990  1
  Tb  Tb5  1  0.065476  0.061769  0.436377  1
  Tb  Tb6  1  0.189338  0.811261  0.188139  1
  Tb  Tb7  1  0.813366  0.812629  0.187003  1
  Tb  Tb8  1  0.813366  0.187003  0.812629  1
  Tb  Tb9  1  0.437719  0.063488  0.435305  1
  Tb  Tb10  1  0.437719  0.435305  0.063488  1
  Tb  Tb11  1  0.437719  0.063488  0.063488  1
  Tb  Tb12  1  0.065476  0.436377  0.436377  1
  Tb  Tb13  1  0.189338  0.188139  0.811261  1
  Tb  Tb14  1  0.649326  0.649990  0.050696  1
  Tb  Tb15  1  0.649326  0.050696  0.649990  1
  Mg  Mg16  1  0.714973  0.428343  0.428343  1
  Ag  Ag17  1  0.417716  0.415862  0.750561  1
  Ag  Ag18  1  0.417716  0.750561  0.415862  1
  Ag  Ag19  1  0.417716  0.415862  0.415862  1
  Ir  Ir20  1  0.859164  0.856504  0.427830  1
  Ir  Ir21  1  0.859164  0.427830  0.856504  1
  Ir  Ir22  1  0.859164  0.856504  0.856504  1
  Ir  Ir23  1  0.428102  0.857300  0.857300  1
