# generated using pymatgen
data_Er8Ta3Ti8Si16Hg
_symmetry_space_group_name_H-M   'P 1'
_cell_length_a   7.04465619
_cell_length_b   7.04465736
_cell_length_c   12.89073218
_cell_angle_alpha   90.17366041
_cell_angle_beta   89.82633656
_cell_angle_gamma   89.61284378
_symmetry_Int_Tables_number   1
_chemical_formula_structural   Er8Ta3Ti8Si16Hg
_chemical_formula_sum   'Er8 Ta3 Ti8 Si16 Hg1'
_cell_volume   639.71028215
_cell_formula_units_Z   1
loop_
 _symmetry_equiv_pos_site_id
 _symmetry_equiv_pos_as_xyz
  1  'x, y, z'
loop_
 _atom_site_type_symbol
 _atom_site_label
 _atom_site_symmetry_multiplicity
 _atom_site_fract_x
 _atom_site_fract_y
 _atom_site_fract_z
 _atom_site_occupancy
  Er  Er0  1  0.342145  0.000871  0.467252  1
  Er  Er1  1  0.498049  0.840815  0.716314  1
  Er  Er2  1  0.501040  0.156223  0.215587  1
  Er  Er3  1  0.840815  0.498049  0.283686  1
  Er  Er4  1  0.156223  0.501040  0.784413  1
  Er  Er5  1  0.656863  0.001379  0.968550  1
  Er  Er6  1  0.000871  0.342145  0.532748  1
  Er  Er7  1  0.001379  0.656863  0.031450  1
  Ta  Ta8  1  0.173454  0.826325  0.250759  1
  Ta  Ta9  1  0.826325  0.173454  0.749241  1
  Ta  Ta10  1  0.672779  0.672779  0.500000  1
  Ti  Ti11  1  0.146619  0.008947  0.876448  1
  Ti  Ti12  1  0.496540  0.650136  0.123200  1
  Ti  Ti13  1  0.507109  0.351504  0.623737  1
  Ti  Ti14  1  0.650136  0.496540  0.876800  1
  Ti  Ti15  1  0.351504  0.507109  0.376263  1
  Ti  Ti16  1  0.848640  0.990565  0.373871  1
  Ti  Ti17  1  0.008947  0.146619  0.123552  1
  Ti  Ti18  1  0.990565  0.848640  0.626129  1
  Si  Si19  1  0.201777  0.133005  0.683489  1
  Si  Si20  1  0.373612  0.725796  0.926160  1
  Si  Si21  1  0.632330  0.293385  0.432318  1
  Si  Si22  1  0.725796  0.373612  0.073840  1
  Si  Si23  1  0.293385  0.632330  0.567682  1
  Si  Si24  1  0.798147  0.866230  0.182622  1
  Si  Si25  1  0.133005  0.201777  0.316511  1
  Si  Si26  1  0.866230  0.798147  0.817378  1
  Si  Si27  1  0.287847  0.933518  0.066401  1
  Si  Si28  1  0.546737  0.791947  0.313828  1
  Si  Si29  1  0.457212  0.206107  0.805495  1
  Si  Si30  1  0.791947  0.546737  0.686172  1
  Si  Si31  1  0.206107  0.457212  0.194505  1
  Si  Si32  1  0.707701  0.046885  0.563229  1
  Si  Si33  1  0.933518  0.287847  0.933599  1
  Si  Si34  1  0.046885  0.707701  0.436771  1
  Hg  Hg35  1  0.327762  0.327762  0.000000  1
