# generated using pymatgen
data_Dy4ThSn3N
_symmetry_space_group_name_H-M   'P 1'
_cell_length_a   9.00347667
_cell_length_b   9.04794766
_cell_length_c   6.44482300
_cell_angle_alpha   90.00000000
_cell_angle_beta   90.00000000
_cell_angle_gamma   120.16352318
_symmetry_Int_Tables_number   1
_chemical_formula_structural   Dy4ThSn3N
_chemical_formula_sum   'Dy8 Th2 Sn6 N2'
_cell_volume   453.92486355
_cell_formula_units_Z   2
loop_
 _symmetry_equiv_pos_site_id
 _symmetry_equiv_pos_as_xyz
  1  'x, y, z'
loop_
 _atom_site_type_symbol
 _atom_site_label
 _atom_site_symmetry_multiplicity
 _atom_site_fract_x
 _atom_site_fract_y
 _atom_site_fract_z
 _atom_site_occupancy
  Dy  Dy0  1  0.666372  0.333112  0.000305  1
  Dy  Dy1  1  0.333628  0.666741  0.000305  1
  Dy  Dy2  1  0.333628  0.666741  0.499695  1
  Dy  Dy3  1  0.666372  0.333112  0.499695  1
  Dy  Dy4  1  0.000000  0.221271  0.750000  1
  Dy  Dy5  1  0.214773  0.215948  0.250000  1
  Dy  Dy6  1  0.785227  0.001174  0.250000  1
  Dy  Dy7  1  0.000000  0.783155  0.250000  1
  Th  Th8  1  0.780755  0.782108  0.750000  1
  Th  Th9  1  0.219245  0.001353  0.750000  1
  Sn  Sn10  1  0.402712  0.405679  0.750000  1
  Sn  Sn11  1  0.597288  0.002967  0.750000  1
  Sn  Sn12  1  0.000000  0.590925  0.750000  1
  Sn  Sn13  1  0.598339  0.598202  0.250000  1
  Sn  Sn14  1  0.401661  0.999863  0.250000  1
  Sn  Sn15  1  0.000000  0.400794  0.250000  1
  N  N16  1  0.000000  0.998428  0.998186  1
  N  N17  1  0.000000  0.998428  0.501814  1
