# generated using pymatgen
data_Tb3Dy2(FeTe)2
_symmetry_space_group_name_H-M   'P 1'
_cell_length_a   7.84285762
_cell_length_b   7.84285788
_cell_length_c   15.20820063
_cell_angle_alpha   89.95635894
_cell_angle_beta   90.04364138
_cell_angle_gamma   150.70524495
_symmetry_Int_Tables_number   1
_chemical_formula_structural   Tb3Dy2(FeTe)2
_chemical_formula_sum   'Tb6 Dy4 Fe4 Te4'
_cell_volume   457.72424294
_cell_formula_units_Z   2
loop_
 _symmetry_equiv_pos_site_id
 _symmetry_equiv_pos_as_xyz
  1  'x, y, z'
loop_
 _atom_site_type_symbol
 _atom_site_label
 _atom_site_symmetry_multiplicity
 _atom_site_fract_x
 _atom_site_fract_y
 _atom_site_fract_z
 _atom_site_occupancy
  Tb  Tb0  1  0.961185  0.038815  0.380608  1
  Tb  Tb1  1  0.038815  0.961185  0.619392  1
  Tb  Tb2  1  0.039128  0.960872  0.880501  1
  Tb  Tb3  1  0.960872  0.039128  0.119499  1
  Tb  Tb4  1  0.742581  0.257419  0.629181  1
  Tb  Tb5  1  0.257419  0.742581  0.370819  1
  Dy  Dy6  1  0.257394  0.742606  0.128948  1
  Dy  Dy7  1  0.742606  0.257394  0.871052  1
  Dy  Dy8  1  0.397158  0.602842  0.750099  1
  Dy  Dy9  1  0.602842  0.397158  0.249901  1
  Fe  Fe10  1  0.829559  0.170441  0.249596  1
  Fe  Fe11  1  0.170441  0.829559  0.750404  1
  Fe  Fe12  1  0.406895  0.593105  0.249863  1
  Fe  Fe13  1  0.593105  0.406895  0.750137  1
  Te  Te14  1  0.618257  0.381743  0.039757  1
  Te  Te15  1  0.381743  0.618257  0.960243  1
  Te  Te16  1  0.382120  0.617880  0.539847  1
  Te  Te17  1  0.617880  0.382120  0.460153  1
