# generated using pymatgen
data_Pr(Co3Si2)2
_symmetry_space_group_name_H-M   'P 1'
_cell_length_a   6.64481600
_cell_length_b   6.64481733
_cell_length_c   3.66612400
_cell_angle_alpha   90.00000000
_cell_angle_beta   90.00000000
_cell_angle_gamma   119.99999336
_symmetry_Int_Tables_number   1
_chemical_formula_structural   Pr(Co3Si2)2
_chemical_formula_sum   'Pr1 Co6 Si4'
_cell_volume   140.18573308
_cell_formula_units_Z   1
loop_
 _symmetry_equiv_pos_site_id
 _symmetry_equiv_pos_as_xyz
  1  'x, y, z'
loop_
 _atom_site_type_symbol
 _atom_site_label
 _atom_site_symmetry_multiplicity
 _atom_site_fract_x
 _atom_site_fract_y
 _atom_site_fract_z
 _atom_site_occupancy
  Pr  Pr0  1  0.000000  0.000000  0.000000  1
  Co  Co1  1  0.534094  0.465906  0.000000  1
  Co  Co2  1  0.534094  0.068188  0.000000  1
  Co  Co3  1  0.931812  0.465906  0.000000  1
  Co  Co4  1  0.206755  0.793245  0.500000  1
  Co  Co5  1  0.206755  0.413511  0.500000  1
  Co  Co6  1  0.586489  0.793245  0.500000  1
  Si  Si7  1  0.333333  0.666667  0.000000  1
  Si  Si8  1  0.797962  0.202038  0.500000  1
  Si  Si9  1  0.797962  0.595924  0.500000  1
  Si  Si10  1  0.404076  0.202038  0.500000  1
