# generated using pymatgen
data_Zr2Pa4FeCl15
_symmetry_space_group_name_H-M   'P 1'
_cell_length_a   9.39335769
_cell_length_b   9.39335846
_cell_length_c   9.40488220
_cell_angle_alpha   109.77198808
_cell_angle_beta   109.77198523
_cell_angle_gamma   108.82109054
_symmetry_Int_Tables_number   1
_chemical_formula_structural   Zr2Pa4FeCl15
_chemical_formula_sum   'Zr2 Pa4 Fe1 Cl15'
_cell_volume   639.15117615
_cell_formula_units_Z   1
loop_
 _symmetry_equiv_pos_site_id
 _symmetry_equiv_pos_as_xyz
  1  'x, y, z'
loop_
 _atom_site_type_symbol
 _atom_site_label
 _atom_site_symmetry_multiplicity
 _atom_site_fract_x
 _atom_site_fract_y
 _atom_site_fract_z
 _atom_site_occupancy
  Zr  Zr0  1  0.771699  0.996867  0.768566  1
  Zr  Zr1  1  0.996867  0.771699  0.768566  1
  Pa  Pa2  1  0.760744  0.760744  0.994830  1
  Pa  Pa3  1  0.252033  0.996368  0.248401  1
  Pa  Pa4  1  0.996368  0.252033  0.248401  1
  Pa  Pa5  1  0.234086  0.234086  0.994830  1
  Fe  Fe6  1  0.002389  0.002389  0.004779  1
  Cl  Cl7  1  0.249580  0.249580  0.499161  1
  Cl  Cl8  1  0.751126  0.001245  0.249665  1
  Cl  Cl9  1  0.001245  0.751126  0.249665  1
  Cl  Cl10  1  0.746160  0.235416  0.981577  1
  Cl  Cl11  1  0.248419  0.498540  0.249665  1
  Cl  Cl12  1  0.981777  0.233454  0.746435  1
  Cl  Cl13  1  0.235416  0.746160  0.981577  1
  Cl  Cl14  1  0.233454  0.981777  0.746435  1
  Cl  Cl15  1  0.498540  0.248419  0.249665  1
  Cl  Cl16  1  0.759795  0.759795  0.519589  1
  Cl  Cl17  1  0.764657  0.512980  0.746435  1
  Cl  Cl18  1  0.512980  0.764657  0.746435  1
  Cl  Cl19  1  0.499863  0.499863  0.999726  1
  Cl  Cl20  1  0.503880  0.998921  0.502800  1
  Cl  Cl21  1  0.998921  0.503880  0.502800  1
