# generated using pymatgen
data_Er8V(B8Rh)3
_symmetry_space_group_name_H-M   'P 1'
_cell_length_a   3.62153300
_cell_length_b   9.13950897
_cell_length_c   11.50203062
_cell_angle_alpha   90.21801237
_cell_angle_beta   90.00000000
_cell_angle_gamma   90.00000000
_symmetry_Int_Tables_number   1
_chemical_formula_structural   Er8V(B8Rh)3
_chemical_formula_sum   'Er8 V1 B24 Rh3'
_cell_volume   380.70333873
_cell_formula_units_Z   1
loop_
 _symmetry_equiv_pos_site_id
 _symmetry_equiv_pos_as_xyz
  1  'x, y, z'
loop_
 _atom_site_type_symbol
 _atom_site_label
 _atom_site_symmetry_multiplicity
 _atom_site_fract_x
 _atom_site_fract_y
 _atom_site_fract_z
 _atom_site_occupancy
  Er  Er0  1  0.500000  0.318329  0.410380  1
  Er  Er1  1  0.500000  0.676741  0.584753  1
  Er  Er2  1  0.500000  0.177921  0.917707  1
  Er  Er3  1  0.500000  0.825052  0.087460  1
  Er  Er4  1  0.500000  0.443448  0.125787  1
  Er  Er5  1  0.500000  0.557397  0.872322  1
  Er  Er6  1  0.500000  0.055932  0.628752  1
  Er  Er7  1  0.500000  0.945975  0.372882  1
  V  V8  1  0.500000  0.138419  0.179014  1
  B  B9  1  0.000000  0.108292  0.471765  1
  B  B10  1  0.000000  0.890934  0.530495  1
  B  B11  1  0.000000  0.394375  0.969305  1
  B  B12  1  0.000000  0.608888  0.029013  1
  B  B13  1  0.000000  0.132206  0.315881  1
  B  B14  1  0.000000  0.866939  0.683958  1
  B  B15  1  0.000000  0.367945  0.816351  1
  B  B16  1  0.000000  0.632889  0.184113  1
  B  B17  1  0.000000  0.051771  0.065790  1
  B  B18  1  0.000000  0.947728  0.933841  1
  B  B19  1  0.000000  0.445895  0.565202  1
  B  B20  1  0.000000  0.552186  0.433424  1
  B  B21  1  0.000000  0.481738  0.287198  1
  B  B22  1  0.000000  0.517961  0.711455  1
  B  B23  1  0.000000  0.017982  0.788110  1
  B  B24  1  0.000000  0.981238  0.213151  1
  B  B25  1  0.000000  0.249396  0.079564  1
  B  B26  1  0.000000  0.751721  0.920019  1
  B  B27  1  0.000000  0.250350  0.579215  1
  B  B28  1  0.000000  0.748917  0.420598  1
  B  B29  1  0.000000  0.294119  0.235565  1
  B  B30  1  0.000000  0.706316  0.763841  1
  B  B31  1  0.000000  0.207734  0.736208  1
  B  B32  1  0.000000  0.792710  0.265795  1
  Rh  Rh33  1  0.500000  0.860836  0.820566  1
  Rh  Rh34  1  0.500000  0.361076  0.678930  1
  Rh  Rh35  1  0.500000  0.638648  0.321591  1
