# generated using pymatgen
data_Tc2Ni3P3W
_symmetry_space_group_name_H-M   'P 1'
_cell_length_a   5.82822813
_cell_length_b   5.82822758
_cell_length_c   3.72194800
_cell_angle_alpha   90.00000000
_cell_angle_beta   90.00000000
_cell_angle_gamma   119.70639637
_symmetry_Int_Tables_number   1
_chemical_formula_structural   Tc2Ni3P3W
_chemical_formula_sum   'Tc2 Ni3 P3 W1'
_cell_volume   109.81237116
_cell_formula_units_Z   1
loop_
 _symmetry_equiv_pos_site_id
 _symmetry_equiv_pos_as_xyz
  1  'x, y, z'
loop_
 _atom_site_type_symbol
 _atom_site_label
 _atom_site_symmetry_multiplicity
 _atom_site_fract_x
 _atom_site_fract_y
 _atom_site_fract_z
 _atom_site_occupancy
  Tc  Tc0  1  0.411277  0.000457  0.500000  1
  Tc  Tc1  1  0.000457  0.411277  0.500000  1
  Ni  Ni2  1  0.747692  0.998337  0.000000  1
  Ni  Ni3  1  0.998337  0.747692  0.000000  1
  Ni  Ni4  1  0.254535  0.254535  0.000000  1
  P  P5  1  0.331230  0.669603  0.000000  1
  P  P6  1  0.669603  0.331230  0.000000  1
  P  P7  1  0.001277  0.001277  0.500000  1
  W  W8  1  0.585592  0.585592  0.500000  1
