# generated using pymatgen
data_LiTbCdPt3
_symmetry_space_group_name_H-M   'P 1'
_cell_length_a   5.15269634
_cell_length_b   5.15269649
_cell_length_c   5.15269614
_cell_angle_alpha   64.08519364
_cell_angle_beta   64.08518658
_cell_angle_gamma   64.08518959
_symmetry_Int_Tables_number   1
_chemical_formula_structural   LiTbCdPt3
_chemical_formula_sum   'Li1 Tb1 Cd1 Pt3'
_cell_volume   105.43342711
_cell_formula_units_Z   1
loop_
 _symmetry_equiv_pos_site_id
 _symmetry_equiv_pos_as_xyz
  1  'x, y, z'
loop_
 _atom_site_type_symbol
 _atom_site_label
 _atom_site_symmetry_multiplicity
 _atom_site_fract_x
 _atom_site_fract_y
 _atom_site_fract_z
 _atom_site_occupancy
  Li  Li0  1  0.626315  0.626315  0.626315  1
  Tb  Tb1  1  0.247415  0.247415  0.247415  1
  Cd  Cd2  1  0.998304  0.998304  0.998304  1
  Pt  Pt3  1  0.626662  0.626662  0.124643  1
  Pt  Pt4  1  0.626662  0.124643  0.626662  1
  Pt  Pt5  1  0.124643  0.626662  0.626662  1
