# generated using pymatgen
data_Pr2Fe3PtO10
_symmetry_space_group_name_H-M   'P 1'
_cell_length_a   5.98729800
_cell_length_b   7.65965300
_cell_length_c   8.85008400
_cell_angle_alpha   90.00000000
_cell_angle_beta   90.00000000
_cell_angle_gamma   90.00000000
_symmetry_Int_Tables_number   1
_chemical_formula_structural   Pr2Fe3PtO10
_chemical_formula_sum   'Pr4 Fe6 Pt2 O20'
_cell_volume   405.87038432
_cell_formula_units_Z   2
loop_
 _symmetry_equiv_pos_site_id
 _symmetry_equiv_pos_as_xyz
  1  'x, y, z'
loop_
 _atom_site_type_symbol
 _atom_site_label
 _atom_site_symmetry_multiplicity
 _atom_site_fract_x
 _atom_site_fract_y
 _atom_site_fract_z
 _atom_site_occupancy
  Pr  Pr0  1  0.996024  0.363143  0.670119  1
  Pr  Pr1  1  0.996024  0.636857  0.329881  1
  Pr  Pr2  1  0.003976  0.863143  0.829881  1
  Pr  Pr3  1  0.003976  0.136857  0.170119  1
  Fe  Fe4  1  0.505642  0.106172  0.857025  1
  Fe  Fe5  1  0.505642  0.893828  0.142975  1
  Fe  Fe6  1  0.494358  0.606172  0.642975  1
  Fe  Fe7  1  0.494358  0.393828  0.357025  1
  Fe  Fe8  1  0.253920  0.500000  0.000000  1
  Fe  Fe9  1  0.746080  0.000000  0.500000  1
  Pt  Pt10  1  0.745370  0.500000  0.000000  1
  Pt  Pt11  1  0.254630  0.000000  0.500000  1
  O  O12  1  0.246492  0.899241  0.286966  1
  O  O13  1  0.246492  0.100759  0.713034  1
  O  O14  1  0.753508  0.399241  0.213034  1
  O  O15  1  0.753508  0.600759  0.786966  1
  O  O16  1  0.751917  0.097314  0.708179  1
  O  O17  1  0.751917  0.902686  0.291821  1
  O  O18  1  0.248083  0.597314  0.791821  1
  O  O19  1  0.248083  0.402686  0.208179  1
  O  O20  1  0.499083  0.340646  0.930864  1
  O  O21  1  0.499083  0.659354  0.069136  1
  O  O22  1  0.500917  0.840646  0.569136  1
  O  O23  1  0.500917  0.159354  0.430864  1
  O  O24  1  0.283097  0.000000  0.000000  1
  O  O25  1  0.716903  0.500000  0.500000  1
  O  O26  1  0.727002  0.000000  0.000000  1
  O  O27  1  0.272998  0.500000  0.500000  1
  O  O28  1  0.001227  0.163614  0.444724  1
  O  O29  1  0.001227  0.836386  0.555276  1
  O  O30  1  0.998773  0.663614  0.055276  1
  O  O31  1  0.998773  0.336386  0.944724  1
