# generated using pymatgen
data_Er3ZrN4
_symmetry_space_group_name_H-M   'P 1'
_cell_length_a   5.84524843
_cell_length_b   5.84524841
_cell_length_c   5.84524832
_cell_angle_alpha   131.76935378
_cell_angle_beta   131.76935229
_cell_angle_gamma   70.59355255
_symmetry_Int_Tables_number   1
_chemical_formula_structural   Er3ZrN4
_chemical_formula_sum   'Er3 Zr1 N4'
_cell_volume   108.84093617
_cell_formula_units_Z   1
loop_
 _symmetry_equiv_pos_site_id
 _symmetry_equiv_pos_as_xyz
  1  'x, y, z'
loop_
 _atom_site_type_symbol
 _atom_site_label
 _atom_site_symmetry_multiplicity
 _atom_site_fract_x
 _atom_site_fract_y
 _atom_site_fract_z
 _atom_site_occupancy
  Er  Er0  1  0.250000  0.750000  0.500000  1
  Er  Er1  1  0.500000  0.500000  0.000000  1
  Er  Er2  1  0.750000  0.250000  0.500000  1
  Zr  Zr3  1  0.000000  0.000000  0.000000  1
  N  N4  1  0.000000  0.500000  0.500000  1
  N  N5  1  0.243312  0.243312  0.000000  1
  N  N6  1  0.500000  0.000000  0.500000  1
  N  N7  1  0.756688  0.756688  0.000000  1
