# generated using pymatgen
data_Y18Sc2Cd6TcRu
_symmetry_space_group_name_H-M   'P 1'
_cell_length_a   9.52507400
_cell_length_b   9.52507395
_cell_length_c   9.86623800
_cell_angle_alpha   90.00000000
_cell_angle_beta   90.00000000
_cell_angle_gamma   120.00000017
_symmetry_Int_Tables_number   1
_chemical_formula_structural   Y18Sc2Cd6TcRu
_chemical_formula_sum   'Y18 Sc2 Cd6 Tc1 Ru1'
_cell_volume   775.20922656
_cell_formula_units_Z   1
loop_
 _symmetry_equiv_pos_site_id
 _symmetry_equiv_pos_as_xyz
  1  'x, y, z'
loop_
 _atom_site_type_symbol
 _atom_site_label
 _atom_site_symmetry_multiplicity
 _atom_site_fract_x
 _atom_site_fract_y
 _atom_site_fract_z
 _atom_site_occupancy
  Y  Y0  1  0.208481  0.791519  0.442002  1
  Y  Y1  1  0.208481  0.416963  0.442002  1
  Y  Y2  1  0.583037  0.791519  0.442002  1
  Y  Y3  1  0.791426  0.208574  0.558461  1
  Y  Y4  1  0.791426  0.582851  0.558461  1
  Y  Y5  1  0.417149  0.208574  0.558461  1
  Y  Y6  1  0.791426  0.208574  0.941539  1
  Y  Y7  1  0.791426  0.582851  0.941539  1
  Y  Y8  1  0.417149  0.208574  0.941539  1
  Y  Y9  1  0.208481  0.791519  0.057998  1
  Y  Y10  1  0.208481  0.416963  0.057998  1
  Y  Y11  1  0.583037  0.791519  0.057998  1
  Y  Y12  1  0.539814  0.460186  0.250000  1
  Y  Y13  1  0.539814  0.079628  0.250000  1
  Y  Y14  1  0.920372  0.460186  0.250000  1
  Y  Y15  1  0.459083  0.540917  0.750000  1
  Y  Y16  1  0.459083  0.918167  0.750000  1
  Y  Y17  1  0.081833  0.540917  0.750000  1
  Sc  Sc18  1  0.000000  0.000000  0.500279  1
  Sc  Sc19  1  0.000000  0.000000  0.999721  1
  Cd  Cd20  1  0.889163  0.110837  0.250000  1
  Cd  Cd21  1  0.889163  0.778327  0.250000  1
  Cd  Cd22  1  0.221673  0.110837  0.250000  1
  Cd  Cd23  1  0.110668  0.889332  0.750000  1
  Cd  Cd24  1  0.110668  0.221336  0.750000  1
  Cd  Cd25  1  0.778664  0.889332  0.750000  1
  Tc  Tc26  1  0.333333  0.666667  0.250000  1
  Ru  Ru27  1  0.666667  0.333333  0.750000  1
