# generated using pymatgen
data_ThSc4Si12Ir19
_symmetry_space_group_name_H-M   'P 1'
_cell_length_a   12.77719100
_cell_length_b   12.77719125
_cell_length_c   3.95839300
_cell_angle_alpha   90.00000000
_cell_angle_beta   90.00000000
_cell_angle_gamma   120.00000193
_symmetry_Int_Tables_number   1
_chemical_formula_structural   ThSc4Si12Ir19
_chemical_formula_sum   'Th1 Sc4 Si12 Ir19'
_cell_volume   559.65490657
_cell_formula_units_Z   1
loop_
 _symmetry_equiv_pos_site_id
 _symmetry_equiv_pos_as_xyz
  1  'x, y, z'
loop_
 _atom_site_type_symbol
 _atom_site_label
 _atom_site_symmetry_multiplicity
 _atom_site_fract_x
 _atom_site_fract_y
 _atom_site_fract_z
 _atom_site_occupancy
  Th  Th0  1  0.333333  0.666667  0.000000  1
  Sc  Sc1  1  0.666667  0.333333  0.000000  1
  Sc  Sc2  1  0.814917  0.999398  0.500000  1
  Sc  Sc3  1  0.000602  0.815519  0.500000  1
  Sc  Sc4  1  0.184481  0.185083  0.500000  1
  Si  Si5  1  0.179488  0.002749  0.000000  1
  Si  Si6  1  0.997251  0.176739  0.000000  1
  Si  Si7  1  0.823261  0.820512  0.000000  1
  Si  Si8  1  0.161884  0.474749  0.500000  1
  Si  Si9  1  0.525251  0.687134  0.500000  1
  Si  Si10  1  0.312866  0.838116  0.500000  1
  Si  Si11  1  0.688107  0.516847  0.500000  1
  Si  Si12  1  0.828739  0.311893  0.500000  1
  Si  Si13  1  0.483153  0.171261  0.500000  1
  Si  Si14  1  0.635336  0.001099  0.000000  1
  Si  Si15  1  0.998901  0.634237  0.000000  1
  Si  Si16  1  0.365763  0.364664  0.000000  1
  Ir  Ir17  1  0.446880  0.998342  0.000000  1
  Ir  Ir18  1  0.001658  0.448538  0.000000  1
  Ir  Ir19  1  0.551462  0.553120  0.000000  1
  Ir  Ir20  1  0.359935  0.486536  0.500000  1
  Ir  Ir21  1  0.513464  0.873399  0.500000  1
  Ir  Ir22  1  0.126601  0.640065  0.500000  1
  Ir  Ir23  1  0.872803  0.511195  0.500000  1
  Ir  Ir24  1  0.638392  0.127197  0.500000  1
  Ir  Ir25  1  0.488805  0.361608  0.500000  1
  Ir  Ir26  1  0.180716  0.371348  0.000000  1
  Ir  Ir27  1  0.628652  0.809368  0.000000  1
  Ir  Ir28  1  0.190632  0.819284  0.000000  1
  Ir  Ir29  1  0.806639  0.623565  0.000000  1
  Ir  Ir30  1  0.816926  0.193361  0.000000  1
  Ir  Ir31  1  0.376435  0.183074  0.000000  1
  Ir  Ir32  1  0.280305  0.003158  0.500000  1
  Ir  Ir33  1  0.996842  0.277147  0.500000  1
  Ir  Ir34  1  0.722853  0.719695  0.500000  1
  Ir  Ir35  1  0.000000  0.000000  0.000000  1
