# generated using pymatgen
data_La4C4SeCl
_symmetry_space_group_name_H-M   'P 1'
_cell_length_a   7.67147672
_cell_length_b   7.67147643
_cell_length_c   7.00711733
_cell_angle_alpha   78.90568170
_cell_angle_beta   78.90568325
_cell_angle_gamma   32.19441584
_symmetry_Int_Tables_number   1
_chemical_formula_structural   La4C4SeCl
_chemical_formula_sum   'La4 C4 Se1 Cl1'
_cell_volume   215.26182521
_cell_formula_units_Z   1
loop_
 _symmetry_equiv_pos_site_id
 _symmetry_equiv_pos_as_xyz
  1  'x, y, z'
loop_
 _atom_site_type_symbol
 _atom_site_label
 _atom_site_symmetry_multiplicity
 _atom_site_fract_x
 _atom_site_fract_y
 _atom_site_fract_z
 _atom_site_occupancy
  La  La0  1  0.551026  0.156833  0.142517  1
  La  La1  1  0.156009  0.556241  0.650115  1
  La  La2  1  0.443759  0.843991  0.849885  1
  La  La3  1  0.843167  0.448974  0.357483  1
  C  C4  1  0.360543  0.090367  0.469702  1
  C  C5  1  0.909633  0.639457  0.030298  1
  C  C6  1  0.640703  0.910417  0.526591  1
  C  C7  1  0.089583  0.359297  0.973409  1
  Se  Se8  1  0.789942  0.210058  0.750000  1
  Cl  Cl9  1  0.215637  0.784363  0.250000  1
