# generated using pymatgen
data_Sm8Sb(Pd11Pt)2
_symmetry_space_group_name_H-M   'P 1'
_cell_length_a   8.50158800
_cell_length_b   8.47726000
_cell_length_c   8.49029200
_cell_angle_alpha   90.00000000
_cell_angle_beta   90.00000000
_cell_angle_gamma   90.00000000
_symmetry_Int_Tables_number   1
_chemical_formula_structural   Sm8Sb(Pd11Pt)2
_chemical_formula_sum   'Sm8 Sb1 Pd22 Pt2'
_cell_volume   611.89680383
_cell_formula_units_Z   1
loop_
 _symmetry_equiv_pos_site_id
 _symmetry_equiv_pos_as_xyz
  1  'x, y, z'
loop_
 _atom_site_type_symbol
 _atom_site_label
 _atom_site_symmetry_multiplicity
 _atom_site_fract_x
 _atom_site_fract_y
 _atom_site_fract_z
 _atom_site_occupancy
  Sm  Sm0  1  0.747484  0.748155  0.253313  1
  Sm  Sm1  1  0.747484  0.251845  0.746687  1
  Sm  Sm2  1  0.252522  0.746550  0.746676  1
  Sm  Sm3  1  0.747484  0.748155  0.746687  1
  Sm  Sm4  1  0.747484  0.251845  0.253313  1
  Sm  Sm5  1  0.252522  0.253450  0.746676  1
  Sm  Sm6  1  0.252522  0.746550  0.253324  1
  Sm  Sm7  1  0.252522  0.253450  0.253324  1
  Sb  Sb8  1  0.999954  0.000000  0.000000  1
  Pd  Pd9  1  0.000307  0.000000  0.309111  1
  Pd  Pd10  1  0.734073  0.500000  0.000000  1
  Pd  Pd11  1  0.500110  0.000000  0.734628  1
  Pd  Pd12  1  0.000018  0.734115  0.500000  1
  Pd  Pd13  1  0.500110  0.000000  0.265372  1
  Pd  Pd14  1  0.000018  0.265885  0.500000  1
  Pd  Pd15  1  0.499966  0.734360  0.000000  1
  Pd  Pd16  1  0.499780  0.500000  0.745341  1
  Pd  Pd17  1  0.499780  0.500000  0.254659  1
  Pd  Pd18  1  0.500016  0.254609  0.500000  1
  Pd  Pd19  1  0.500016  0.745391  0.500000  1
  Pd  Pd20  1  0.745557  0.500000  0.500000  1
  Pd  Pd21  1  0.309576  0.000000  0.000000  1
  Pd  Pd22  1  0.000307  0.000000  0.690889  1
  Pd  Pd23  1  0.000256  0.500000  0.265589  1
  Pd  Pd24  1  0.999753  0.309266  0.000000  1
  Pd  Pd25  1  0.999753  0.690734  0.000000  1
  Pd  Pd26  1  0.690765  0.000000  0.000000  1
  Pd  Pd27  1  0.265612  0.500000  0.000000  1
  Pd  Pd28  1  0.265193  0.000000  0.500000  1
  Pd  Pd29  1  0.000256  0.500000  0.734411  1
  Pd  Pd30  1  0.499966  0.265640  0.000000  1
  Pt  Pt31  1  0.734476  0.000000  0.500000  1
  Pt  Pt32  1  0.254357  0.500000  0.500000  1
