# generated using pymatgen
data_Nd17Sm3Si15Rh
_symmetry_space_group_name_H-M   'P 1'
_cell_length_a   7.91316180
_cell_length_b   7.91319223
_cell_length_c   15.24976100
_cell_angle_alpha   90.11185916
_cell_angle_beta   89.82764528
_cell_angle_gamma   90.18286273
_symmetry_Int_Tables_number   1
_chemical_formula_structural   Nd17Sm3Si15Rh
_chemical_formula_sum   'Nd17 Sm3 Si15 Rh1'
_cell_volume   954.90419896
_cell_formula_units_Z   1
loop_
 _symmetry_equiv_pos_site_id
 _symmetry_equiv_pos_as_xyz
  1  'x, y, z'
loop_
 _atom_site_type_symbol
 _atom_site_label
 _atom_site_symmetry_multiplicity
 _atom_site_fract_x
 _atom_site_fract_y
 _atom_site_fract_z
 _atom_site_occupancy
  Nd  Nd0  1  0.693015  0.688017  0.500506  1
  Nd  Nd1  1  0.374013  0.009978  0.448509  1
  Nd  Nd2  1  0.491228  0.875631  0.698079  1
  Nd  Nd3  1  0.509706  0.123492  0.197282  1
  Nd  Nd4  1  0.875623  0.488408  0.300264  1
  Nd  Nd5  1  0.124020  0.508076  0.800036  1
  Nd  Nd6  1  0.625787  0.989147  0.948339  1
  Nd  Nd7  1  0.003972  0.376513  0.552378  1
  Nd  Nd8  1  0.988853  0.625041  0.051691  1
  Nd  Nd9  1  0.134983  0.986380  0.873544  1
  Nd  Nd10  1  0.516554  0.631210  0.125774  1
  Nd  Nd11  1  0.473755  0.361104  0.628806  1
  Nd  Nd12  1  0.628429  0.515821  0.873869  1
  Nd  Nd13  1  0.372486  0.483138  0.373289  1
  Nd  Nd14  1  0.872486  0.020218  0.376733  1
  Nd  Nd15  1  0.982523  0.127154  0.124183  1
  Nd  Nd16  1  0.025264  0.880457  0.625227  1
  Sm  Sm17  1  0.305993  0.307278  0.998292  1
  Sm  Sm18  1  0.189594  0.808780  0.250066  1
  Sm  Sm19  1  0.819067  0.188088  0.750094  1
  Si  Si20  1  0.332239  0.693324  0.951234  1
  Si  Si21  1  0.664701  0.304334  0.452222  1
  Si  Si22  1  0.695544  0.334083  0.049413  1
  Si  Si23  1  0.305731  0.668861  0.548094  1
  Si  Si24  1  0.807216  0.831839  0.202979  1
  Si  Si25  1  0.168497  0.194974  0.297530  1
  Si  Si26  1  0.833460  0.804729  0.798887  1
  Si  Si27  1  0.288104  0.923534  0.059926  1
  Si  Si28  1  0.576894  0.787293  0.309828  1
  Si  Si29  1  0.429078  0.207237  0.813007  1
  Si  Si30  1  0.783487  0.579525  0.690341  1
  Si  Si31  1  0.213061  0.423460  0.188929  1
  Si  Si32  1  0.705962  0.073989  0.559935  1
  Si  Si33  1  0.921068  0.287254  0.940735  1
  Si  Si34  1  0.079881  0.716006  0.439926  1
  Rh  Rh35  1  0.187722  0.175627  0.700057  1
