# generated using pymatgen
data_Sm4YLu(Si3Ru)8
_symmetry_space_group_name_H-M   'P 1'
_cell_length_a   10.12713473
_cell_length_b   10.12713494
_cell_length_c   8.18150414
_cell_angle_alpha   90.02574788
_cell_angle_beta   90.02574127
_cell_angle_gamma   132.39048704
_symmetry_Int_Tables_number   1
_chemical_formula_structural   Sm4YLu(Si3Ru)8
_chemical_formula_sum   'Sm4 Y1 Lu1 Si24 Ru8'
_cell_volume   619.72089243
_cell_formula_units_Z   1
loop_
 _symmetry_equiv_pos_site_id
 _symmetry_equiv_pos_as_xyz
  1  'x, y, z'
loop_
 _atom_site_type_symbol
 _atom_site_label
 _atom_site_symmetry_multiplicity
 _atom_site_fract_x
 _atom_site_fract_y
 _atom_site_fract_z
 _atom_site_occupancy
  Sm  Sm0  1  0.002791  0.502599  0.249578  1
  Sm  Sm1  1  0.497401  0.997209  0.750422  1
  Sm  Sm2  1  0.997209  0.497401  0.750422  1
  Sm  Sm3  1  0.502599  0.002791  0.249578  1
  Y  Y4  1  0.500000  0.500000  0.500000  1
  Lu  Lu5  1  0.000000  0.000000  0.000000  1
  Si  Si6  1  0.294600  0.705400  0.000000  1
  Si  Si7  1  0.795140  0.204860  0.500000  1
  Si  Si8  1  0.705400  0.294600  0.000000  1
  Si  Si9  1  0.204860  0.795140  0.500000  1
  Si  Si10  1  0.832196  0.832196  0.333062  1
  Si  Si11  1  0.167804  0.167804  0.666938  1
  Si  Si12  1  0.667281  0.667281  0.833027  1
  Si  Si13  1  0.332719  0.332719  0.166973  1
  Si  Si14  1  0.621003  0.387535  0.228206  1
  Si  Si15  1  0.612465  0.378997  0.771794  1
  Si  Si16  1  0.110489  0.877860  0.729191  1
  Si  Si17  1  0.122140  0.889511  0.270809  1
  Si  Si18  1  0.378997  0.612465  0.771794  1
  Si  Si19  1  0.387535  0.621003  0.228206  1
  Si  Si20  1  0.889511  0.122140  0.270809  1
  Si  Si21  1  0.877860  0.110489  0.729191  1
  Si  Si22  1  0.844861  0.612463  0.005165  1
  Si  Si23  1  0.387537  0.155139  0.994835  1
  Si  Si24  1  0.887210  0.654863  0.505136  1
  Si  Si25  1  0.345137  0.112790  0.494864  1
  Si  Si26  1  0.155139  0.387537  0.994835  1
  Si  Si27  1  0.612463  0.844861  0.005165  1
  Si  Si28  1  0.112790  0.345137  0.494864  1
  Si  Si29  1  0.654863  0.887210  0.505136  1
  Ru  Ru30  1  0.166878  0.833122  0.000000  1
  Ru  Ru31  1  0.668299  0.331701  0.500000  1
  Ru  Ru32  1  0.833122  0.166878  0.000000  1
  Ru  Ru33  1  0.331701  0.668299  0.500000  1
  Ru  Ru34  1  0.626942  0.626942  0.124925  1
  Ru  Ru35  1  0.373058  0.373058  0.875075  1
  Ru  Ru36  1  0.875250  0.875250  0.628212  1
  Ru  Ru37  1  0.124750  0.124750  0.371788  1
