# generated using pymatgen
data_Ca2Yb5ThBi6
_symmetry_space_group_name_H-M   'P 1'
_cell_length_a   8.32330096
_cell_length_b   8.41944651
_cell_length_c   8.42047206
_cell_angle_alpha   109.71331628
_cell_angle_beta   109.24803247
_cell_angle_gamma   109.23560120
_symmetry_Int_Tables_number   1
_chemical_formula_structural   Ca2Yb5ThBi6
_chemical_formula_sum   'Ca2 Yb5 Th1 Bi6'
_cell_volume   455.45180876
_cell_formula_units_Z   1
loop_
 _symmetry_equiv_pos_site_id
 _symmetry_equiv_pos_as_xyz
  1  'x, y, z'
loop_
 _atom_site_type_symbol
 _atom_site_label
 _atom_site_symmetry_multiplicity
 _atom_site_fract_x
 _atom_site_fract_y
 _atom_site_fract_z
 _atom_site_occupancy
  Ca  Ca0  1  0.646108  0.500150  0.000113  1
  Ca  Ca1  1  0.500240  0.000078  0.648964  1
  Yb  Yb2  1  0.358387  0.354153  0.360061  1
  Yb  Yb3  1  0.504182  0.005868  0.145853  1
  Yb  Yb4  1  0.999978  0.648869  0.499921  1
  Yb  Yb5  1  0.851284  0.850922  0.851067  1
  Yb  Yb6  1  0.998268  0.139925  0.494103  1
  Th  Th7  1  0.145487  0.500075  0.000035  1
  Bi  Bi8  1  0.371145  0.623966  0.753965  1
  Bi  Bi9  1  0.879329  0.251320  0.125940  1
  Bi  Bi10  1  0.617347  0.745915  0.370062  1
  Bi  Bi11  1  0.127710  0.874384  0.248513  1
  Bi  Bi12  1  0.246934  0.129836  0.875917  1
  Bi  Bi13  1  0.753600  0.374535  0.625490  1
