# generated using pymatgen
data_Pr8DyErIr6
_symmetry_space_group_name_H-M   'P 1'
_cell_length_a   11.26599300
_cell_length_b   11.26599300
_cell_length_c   6.57185600
_cell_angle_alpha   90.00000000
_cell_angle_beta   90.00000000
_cell_angle_gamma   90.00000000
_symmetry_Int_Tables_number   1
_chemical_formula_structural   Pr8DyErIr6
_chemical_formula_sum   'Pr16 Dy2 Er2 Ir12'
_cell_volume   834.11703902
_cell_formula_units_Z   2
loop_
 _symmetry_equiv_pos_site_id
 _symmetry_equiv_pos_as_xyz
  1  'x, y, z'
loop_
 _atom_site_type_symbol
 _atom_site_label
 _atom_site_symmetry_multiplicity
 _atom_site_fract_x
 _atom_site_fract_y
 _atom_site_fract_z
 _atom_site_occupancy
  Pr  Pr0  1  0.288766  0.087849  0.383170  1
  Pr  Pr1  1  0.288766  0.912151  0.883170  1
  Pr  Pr2  1  0.711234  0.087849  0.883170  1
  Pr  Pr3  1  0.711234  0.912151  0.383170  1
  Pr  Pr4  1  0.587914  0.789157  0.883344  1
  Pr  Pr5  1  0.587914  0.210843  0.383344  1
  Pr  Pr6  1  0.412086  0.789157  0.383344  1
  Pr  Pr7  1  0.412086  0.210843  0.883344  1
  Pr  Pr8  1  0.210843  0.412086  0.616656  1
  Pr  Pr9  1  0.210843  0.587914  0.116656  1
  Pr  Pr10  1  0.789157  0.412086  0.116656  1
  Pr  Pr11  1  0.789157  0.587914  0.616656  1
  Pr  Pr12  1  0.912151  0.711234  0.116830  1
  Pr  Pr13  1  0.912151  0.288766  0.616830  1
  Pr  Pr14  1  0.087849  0.711234  0.616830  1
  Pr  Pr15  1  0.087849  0.288766  0.116830  1
  Dy  Dy16  1  0.500000  0.500000  0.000000  1
  Dy  Dy17  1  0.500000  0.500000  0.500000  1
  Er  Er18  1  0.000000  0.000000  0.500000  1
  Er  Er19  1  0.000000  0.000000  0.000000  1
  Ir  Ir20  1  0.853173  0.146827  0.250000  1
  Ir  Ir21  1  0.853173  0.853173  0.750000  1
  Ir  Ir22  1  0.146827  0.146827  0.750000  1
  Ir  Ir23  1  0.146827  0.853173  0.250000  1
  Ir  Ir24  1  0.648232  0.351768  0.750000  1
  Ir  Ir25  1  0.648232  0.648232  0.250000  1
  Ir  Ir26  1  0.351768  0.351768  0.250000  1
  Ir  Ir27  1  0.351768  0.648232  0.750000  1
  Ir  Ir28  1  0.500000  0.000000  0.119019  1
  Ir  Ir29  1  0.500000  0.000000  0.619019  1
  Ir  Ir30  1  0.000000  0.500000  0.880981  1
  Ir  Ir31  1  0.000000  0.500000  0.380981  1
