# generated using pymatgen
data_ErLu(ScIr)2
_symmetry_space_group_name_H-M   'P 1'
_cell_length_a   4.25850900
_cell_length_b   7.13841500
_cell_length_c   8.52752600
_cell_angle_alpha   90.00000000
_cell_angle_beta   90.00000000
_cell_angle_gamma   90.00000000
_symmetry_Int_Tables_number   1
_chemical_formula_structural   ErLu(ScIr)2
_chemical_formula_sum   'Er2 Lu2 Sc4 Ir4'
_cell_volume   259.22830145
_cell_formula_units_Z   2
loop_
 _symmetry_equiv_pos_site_id
 _symmetry_equiv_pos_as_xyz
  1  'x, y, z'
loop_
 _atom_site_type_symbol
 _atom_site_label
 _atom_site_symmetry_multiplicity
 _atom_site_fract_x
 _atom_site_fract_y
 _atom_site_fract_z
 _atom_site_occupancy
  Er  Er0  1  0.750000  0.017736  0.670768  1
  Er  Er1  1  0.750000  0.517736  0.829232  1
  Lu  Lu2  1  0.250000  0.981364  0.328419  1
  Lu  Lu3  1  0.250000  0.481364  0.171581  1
  Sc  Sc4  1  0.250000  0.360175  0.567373  1
  Sc  Sc5  1  0.250000  0.860175  0.932627  1
  Sc  Sc6  1  0.750000  0.641152  0.429136  1
  Sc  Sc7  1  0.750000  0.141152  0.070864  1
  Ir  Ir8  1  0.250000  0.243709  0.898120  1
  Ir  Ir9  1  0.250000  0.743709  0.601880  1
  Ir  Ir10  1  0.750000  0.755864  0.104895  1
  Ir  Ir11  1  0.750000  0.255864  0.395105  1
