# generated using pymatgen
data_Eu6RhO12
_symmetry_space_group_name_H-M   'P 1'
_cell_length_a   6.60408736
_cell_length_b   6.60408716
_cell_length_c   6.60408674
_cell_angle_alpha   98.40669691
_cell_angle_beta   98.40667871
_cell_angle_gamma   98.40668309
_symmetry_Int_Tables_number   1
_chemical_formula_structural   Eu6RhO12
_chemical_formula_sum   'Eu6 Rh1 O12'
_cell_volume   277.71097918
_cell_formula_units_Z   1
loop_
 _symmetry_equiv_pos_site_id
 _symmetry_equiv_pos_as_xyz
  1  'x, y, z'
loop_
 _atom_site_type_symbol
 _atom_site_label
 _atom_site_symmetry_multiplicity
 _atom_site_fract_x
 _atom_site_fract_y
 _atom_site_fract_z
 _atom_site_occupancy
  Eu  Eu0  1  0.137497  0.297588  0.603994  1
  Eu  Eu1  1  0.396006  0.862503  0.702412  1
  Eu  Eu2  1  0.702412  0.396006  0.862503  1
  Eu  Eu3  1  0.297588  0.603994  0.137497  1
  Eu  Eu4  1  0.603994  0.137497  0.297588  1
  Eu  Eu5  1  0.862503  0.702412  0.396006  1
  Rh  Rh6  1  0.000000  0.000000  0.000000  1
  O  O7  1  0.062591  0.297171  0.962775  1
  O  O8  1  0.037225  0.937409  0.702829  1
  O  O9  1  0.407437  0.563491  0.823608  1
  O  O10  1  0.176392  0.592563  0.436509  1
  O  O11  1  0.702829  0.037225  0.937409  1
  O  O12  1  0.436509  0.176392  0.592563  1
  O  O13  1  0.563491  0.823608  0.407437  1
  O  O14  1  0.297171  0.962775  0.062591  1
  O  O15  1  0.823608  0.407437  0.563491  1
  O  O16  1  0.592563  0.436509  0.176392  1
  O  O17  1  0.962775  0.062591  0.297171  1
  O  O18  1  0.937409  0.702829  0.037225  1
