# generated using pymatgen
data_Tb9Sm8Er3Sn16
_symmetry_space_group_name_H-M   'P 1'
_cell_length_a   8.07957629
_cell_length_b   8.25693534
_cell_length_c   15.59998300
_cell_angle_alpha   90.00000000
_cell_angle_beta   90.00000000
_cell_angle_gamma   89.93493715
_symmetry_Int_Tables_number   1
_chemical_formula_structural   Tb9Sm8Er3Sn16
_chemical_formula_sum   'Tb9 Sm8 Er3 Sn16'
_cell_volume   1040.71380375
_cell_formula_units_Z   1
loop_
 _symmetry_equiv_pos_site_id
 _symmetry_equiv_pos_as_xyz
  1  'x, y, z'
loop_
 _atom_site_type_symbol
 _atom_site_label
 _atom_site_symmetry_multiplicity
 _atom_site_fract_x
 _atom_site_fract_y
 _atom_site_fract_z
 _atom_site_occupancy
  Tb  Tb0  1  0.362440  0.836389  0.877763  1
  Tb  Tb1  1  0.862198  0.663628  0.622452  1
  Tb  Tb2  1  0.637730  0.163820  0.377456  1
  Tb  Tb3  1  0.137674  0.336442  0.123057  1
  Tb  Tb4  1  0.637730  0.163820  0.122544  1
  Tb  Tb5  1  0.137674  0.336442  0.376943  1
  Tb  Tb6  1  0.362440  0.836389  0.622237  1
  Tb  Tb7  1  0.862198  0.663628  0.877548  1
  Tb  Tb8  1  0.195050  0.501831  0.750000  1
  Sm  Sm9  1  0.515371  0.320236  0.903358  1
  Sm  Sm10  1  0.015006  0.179134  0.596589  1
  Sm  Sm11  1  0.484425  0.679505  0.402851  1
  Sm  Sm12  1  0.984549  0.820795  0.096904  1
  Sm  Sm13  1  0.484425  0.679505  0.097149  1
  Sm  Sm14  1  0.984549  0.820795  0.403096  1
  Sm  Sm15  1  0.515371  0.320236  0.596642  1
  Sm  Sm16  1  0.015006  0.179134  0.903411  1
  Er  Er17  1  0.695230  0.997086  0.750000  1
  Er  Er18  1  0.804910  0.497856  0.250000  1
  Er  Er19  1  0.305199  0.002565  0.250000  1
  Sn  Sn20  1  0.298671  0.038411  0.042370  1
  Sn  Sn21  1  0.798915  0.462295  0.457500  1
  Sn  Sn22  1  0.701220  0.961398  0.542144  1
  Sn  Sn23  1  0.201316  0.538569  0.958541  1
  Sn  Sn24  1  0.701220  0.961398  0.957856  1
  Sn  Sn25  1  0.201316  0.538569  0.541459  1
  Sn  Sn26  1  0.298671  0.038411  0.457630  1
  Sn  Sn27  1  0.798915  0.462295  0.042500  1
  Sn  Sn28  1  0.561654  0.619686  0.750000  1
  Sn  Sn29  1  0.060528  0.880767  0.750000  1
  Sn  Sn30  1  0.440169  0.381093  0.250000  1
  Sn  Sn31  1  0.939569  0.119351  0.250000  1
  Sn  Sn32  1  0.324751  0.144323  0.750000  1
  Sn  Sn33  1  0.823510  0.353429  0.750000  1
  Sn  Sn34  1  0.675205  0.854311  0.250000  1
  Sn  Sn35  1  0.175197  0.646459  0.250000  1
