# generated using pymatgen
data_TbTa2(Nb2Cl9)2
_symmetry_space_group_name_H-M   'P 1'
_cell_length_a   10.17531747
_cell_length_b   10.17500971
_cell_length_c   10.17777918
_cell_angle_alpha   55.98218212
_cell_angle_beta   55.97991320
_cell_angle_gamma   55.96684943
_symmetry_Int_Tables_number   1
_chemical_formula_structural   TbTa2(Nb2Cl9)2
_chemical_formula_sum   'Tb1 Ta2 Nb4 Cl18'
_cell_volume   675.64632430
_cell_formula_units_Z   1
loop_
 _symmetry_equiv_pos_site_id
 _symmetry_equiv_pos_as_xyz
  1  'x, y, z'
loop_
 _atom_site_type_symbol
 _atom_site_label
 _atom_site_symmetry_multiplicity
 _atom_site_fract_x
 _atom_site_fract_y
 _atom_site_fract_z
 _atom_site_occupancy
  Tb  Tb0  1  0.999329  0.000171  0.000492  1
  Ta  Ta1  1  0.408716  0.300754  0.649171  1
  Ta  Ta2  1  0.350720  0.591670  0.698914  1
  Nb  Nb3  1  0.700036  0.350269  0.591208  1
  Nb  Nb4  1  0.300633  0.649887  0.407985  1
  Nb  Nb5  1  0.650414  0.408209  0.299633  1
  Nb  Nb6  1  0.592200  0.700051  0.349527  1
  Cl  Cl7  1  0.566518  0.161010  0.444637  1
  Cl  Cl8  1  0.224408  0.371565  0.906475  1
  Cl  Cl9  1  0.908963  0.222981  0.370683  1
  Cl  Cl10  1  0.370556  0.908981  0.223453  1
  Cl  Cl11  1  0.776739  0.629297  0.091195  1
  Cl  Cl12  1  0.092669  0.775567  0.631303  1
  Cl  Cl13  1  0.702109  0.958219  0.160782  1
  Cl  Cl14  1  0.957184  0.160139  0.703172  1
  Cl  Cl15  1  0.163181  0.700708  0.954405  1
  Cl  Cl16  1  0.298646  0.045874  0.837599  1
  Cl  Cl17  1  0.042314  0.838776  0.297960  1
  Cl  Cl18  1  0.839511  0.297256  0.042143  1
  Cl  Cl19  1  0.555282  0.433434  0.838972  1
  Cl  Cl20  1  0.162659  0.439238  0.570361  1
  Cl  Cl21  1  0.441847  0.568397  0.160988  1
  Cl  Cl22  1  0.429777  0.837259  0.560718  1
  Cl  Cl23  1  0.839117  0.558257  0.431510  1
  Cl  Cl24  1  0.626470  0.092031  0.776715  1
