# generated using pymatgen
data_MgTa6TlS12
_symmetry_space_group_name_H-M   'P 1'
_cell_length_a   5.77311900
_cell_length_b   5.77311863
_cell_length_c   14.19619500
_cell_angle_alpha   90.00000000
_cell_angle_beta   90.00000000
_cell_angle_gamma   120.00000784
_symmetry_Int_Tables_number   1
_chemical_formula_structural   MgTa6TlS12
_chemical_formula_sum   'Mg1 Ta6 Tl1 S12'
_cell_volume   409.75432396
_cell_formula_units_Z   1
loop_
 _symmetry_equiv_pos_site_id
 _symmetry_equiv_pos_as_xyz
  1  'x, y, z'
loop_
 _atom_site_type_symbol
 _atom_site_label
 _atom_site_symmetry_multiplicity
 _atom_site_fract_x
 _atom_site_fract_y
 _atom_site_fract_z
 _atom_site_occupancy
  Mg  Mg0  1  0.000000  0.000000  0.000000  1
  Ta  Ta1  1  0.333333  0.666667  0.225179  1
  Ta  Ta2  1  0.666667  0.333333  0.774821  1
  Ta  Ta3  1  0.666667  0.333333  0.225179  1
  Ta  Ta4  1  0.333333  0.666667  0.774821  1
  Ta  Ta5  1  0.000000  0.000000  0.225619  1
  Ta  Ta6  1  0.000000  0.000000  0.774381  1
  Tl  Tl7  1  0.000000  0.000000  0.500000  1
  S  S8  1  0.337394  0.000000  0.114569  1
  S  S9  1  0.000000  0.337394  0.114569  1
  S  S10  1  0.662606  0.662606  0.114569  1
  S  S11  1  0.335139  0.335139  0.665737  1
  S  S12  1  0.664861  0.664861  0.334263  1
  S  S13  1  0.664861  0.000000  0.665737  1
  S  S14  1  0.000000  0.664861  0.665737  1
  S  S15  1  0.000000  0.662606  0.885431  1
  S  S16  1  0.337394  0.337394  0.885431  1
  S  S17  1  0.000000  0.335139  0.334263  1
  S  S18  1  0.335139  0.000000  0.334263  1
  S  S19  1  0.662606  0.000000  0.885431  1
