# generated using pymatgen
data_Nd8Zn3Si12Pd
_symmetry_space_group_name_H-M   'P 1'
_cell_length_a   8.19953300
_cell_length_b   8.19953372
_cell_length_c   8.55057700
_cell_angle_alpha   90.00000000
_cell_angle_beta   90.00000000
_cell_angle_gamma   119.99999305
_symmetry_Int_Tables_number   1
_chemical_formula_structural   Nd8Zn3Si12Pd
_chemical_formula_sum   'Nd8 Zn3 Si12 Pd1'
_cell_volume   497.85670308
_cell_formula_units_Z   1
loop_
 _symmetry_equiv_pos_site_id
 _symmetry_equiv_pos_as_xyz
  1  'x, y, z'
loop_
 _atom_site_type_symbol
 _atom_site_label
 _atom_site_symmetry_multiplicity
 _atom_site_fract_x
 _atom_site_fract_y
 _atom_site_fract_z
 _atom_site_occupancy
  Nd  Nd0  1  0.499299  0.500701  0.750374  1
  Nd  Nd1  1  0.500301  0.499699  0.249480  1
  Nd  Nd2  1  0.001402  0.500701  0.750374  1
  Nd  Nd3  1  0.999397  0.499699  0.249480  1
  Nd  Nd4  1  0.499299  0.998598  0.750374  1
  Nd  Nd5  1  0.500301  0.000603  0.249480  1
  Nd  Nd6  1  0.000000  0.000000  0.749107  1
  Nd  Nd7  1  0.000000  0.000000  0.251212  1
  Zn  Zn8  1  0.666667  0.333333  0.995273  1
  Zn  Zn9  1  0.333333  0.666667  0.003668  1
  Zn  Zn10  1  0.333333  0.666667  0.497300  1
  Si  Si11  1  0.833426  0.166574  0.000955  1
  Si  Si12  1  0.166318  0.833682  0.999402  1
  Si  Si13  1  0.333148  0.166574  0.000955  1
  Si  Si14  1  0.163894  0.836106  0.499934  1
  Si  Si15  1  0.667365  0.833682  0.999402  1
  Si  Si16  1  0.831911  0.168089  0.500346  1
  Si  Si17  1  0.833426  0.666852  0.000955  1
  Si  Si18  1  0.672211  0.836106  0.499934  1
  Si  Si19  1  0.166318  0.332635  0.999402  1
  Si  Si20  1  0.336178  0.168089  0.500346  1
  Si  Si21  1  0.163894  0.327789  0.499934  1
  Si  Si22  1  0.831911  0.663822  0.500346  1
  Pd  Pd23  1  0.666667  0.333333  0.501965  1
