# generated using pymatgen
data_TbTm3Fe3Ru5
_symmetry_space_group_name_H-M   'P 1'
_cell_length_a   5.20514349
_cell_length_b   5.38330315
_cell_length_c   9.05954804
_cell_angle_alpha   72.71609637
_cell_angle_beta   91.91796003
_cell_angle_gamma   121.13883201
_symmetry_Int_Tables_number   1
_chemical_formula_structural   TbTm3Fe3Ru5
_chemical_formula_sum   'Tb1 Tm3 Fe3 Ru5'
_cell_volume   205.21350285
_cell_formula_units_Z   1
loop_
 _symmetry_equiv_pos_site_id
 _symmetry_equiv_pos_as_xyz
  1  'x, y, z'
loop_
 _atom_site_type_symbol
 _atom_site_label
 _atom_site_symmetry_multiplicity
 _atom_site_fract_x
 _atom_site_fract_y
 _atom_site_fract_z
 _atom_site_occupancy
  Tb  Tb0  1  0.873817  0.749260  0.375296  1
  Tm  Tm1  1  0.375361  0.750615  0.874132  1
  Tm  Tm2  1  0.999867  0.999761  0.000346  1
  Tm  Tm3  1  0.501525  0.000599  0.500329  1
  Fe  Fe4  1  0.687542  0.375103  0.937336  1
  Fe  Fe5  1  0.939026  0.376869  0.185286  1
  Fe  Fe6  1  0.435586  0.372989  0.689606  1
  Ru  Ru7  1  0.442084  0.377477  0.181625  1
  Ru  Ru8  1  0.932941  0.372383  0.693320  1
  Ru  Ru9  1  0.442084  0.882983  0.181625  1
  Ru  Ru10  1  0.932941  0.867238  0.693320  1
  Ru  Ru11  1  0.187225  0.374722  0.437781  1
