# generated using pymatgen
data_Ho9LuCd3Ru
_symmetry_space_group_name_H-M   'P 1'
_cell_length_a   9.52822200
_cell_length_b   9.52822174
_cell_length_c   9.79206900
_cell_angle_alpha   90.00000000
_cell_angle_beta   90.00000000
_cell_angle_gamma   120.00000092
_symmetry_Int_Tables_number   1
_chemical_formula_structural   Ho9LuCd3Ru
_chemical_formula_sum   'Ho18 Lu2 Cd6 Ru2'
_cell_volume   769.89024228
_cell_formula_units_Z   2
loop_
 _symmetry_equiv_pos_site_id
 _symmetry_equiv_pos_as_xyz
  1  'x, y, z'
loop_
 _atom_site_type_symbol
 _atom_site_label
 _atom_site_symmetry_multiplicity
 _atom_site_fract_x
 _atom_site_fract_y
 _atom_site_fract_z
 _atom_site_occupancy
  Ho  Ho0  1  0.209658  0.790342  0.440489  1
  Ho  Ho1  1  0.209658  0.419316  0.440489  1
  Ho  Ho2  1  0.580684  0.790342  0.440489  1
  Ho  Ho3  1  0.790342  0.209658  0.559511  1
  Ho  Ho4  1  0.790342  0.580684  0.559511  1
  Ho  Ho5  1  0.419316  0.209658  0.559511  1
  Ho  Ho6  1  0.790342  0.209658  0.940489  1
  Ho  Ho7  1  0.790342  0.580684  0.940489  1
  Ho  Ho8  1  0.419316  0.209658  0.940489  1
  Ho  Ho9  1  0.209658  0.790342  0.059511  1
  Ho  Ho10  1  0.209658  0.419316  0.059511  1
  Ho  Ho11  1  0.580684  0.790342  0.059511  1
  Ho  Ho12  1  0.541096  0.458904  0.250000  1
  Ho  Ho13  1  0.541096  0.082192  0.250000  1
  Ho  Ho14  1  0.917808  0.458904  0.250000  1
  Ho  Ho15  1  0.458904  0.541096  0.750000  1
  Ho  Ho16  1  0.458904  0.917808  0.750000  1
  Ho  Ho17  1  0.082192  0.541096  0.750000  1
  Lu  Lu18  1  0.000000  0.000000  0.500000  1
  Lu  Lu19  1  0.000000  0.000000  0.000000  1
  Cd  Cd20  1  0.885793  0.114207  0.250000  1
  Cd  Cd21  1  0.885793  0.771588  0.250000  1
  Cd  Cd22  1  0.228412  0.114207  0.250000  1
  Cd  Cd23  1  0.114207  0.885793  0.750000  1
  Cd  Cd24  1  0.114207  0.228412  0.750000  1
  Cd  Cd25  1  0.771588  0.885793  0.750000  1
  Ru  Ru26  1  0.333333  0.666667  0.250000  1
  Ru  Ru27  1  0.666667  0.333333  0.750000  1
