# generated using pymatgen
data_Zr2Sc3AgBiPb2
_symmetry_space_group_name_H-M   'P 1'
_cell_length_a   8.90009202
_cell_length_b   8.90100263
_cell_length_c   6.03746200
_cell_angle_alpha   90.00000000
_cell_angle_beta   90.00000000
_cell_angle_gamma   120.00339131
_symmetry_Int_Tables_number   1
_chemical_formula_structural   Zr2Sc3AgBiPb2
_chemical_formula_sum   'Zr4 Sc6 Ag2 Bi2 Pb4'
_cell_volume   414.19383063
_cell_formula_units_Z   2
loop_
 _symmetry_equiv_pos_site_id
 _symmetry_equiv_pos_as_xyz
  1  'x, y, z'
loop_
 _atom_site_type_symbol
 _atom_site_label
 _atom_site_symmetry_multiplicity
 _atom_site_fract_x
 _atom_site_fract_y
 _atom_site_fract_z
 _atom_site_occupancy
  Zr  Zr0  1  0.666685  0.333430  0.998641  1
  Zr  Zr1  1  0.333315  0.666746  0.998641  1
  Zr  Zr2  1  0.333315  0.666746  0.501359  1
  Zr  Zr3  1  0.666685  0.333430  0.501359  1
  Sc  Sc4  1  0.719796  0.718922  0.750000  1
  Sc  Sc5  1  0.280204  0.999125  0.750000  1
  Sc  Sc6  1  0.000000  0.280915  0.750000  1
  Sc  Sc7  1  0.279386  0.279949  0.250000  1
  Sc  Sc8  1  0.720614  0.000563  0.250000  1
  Sc  Sc9  1  0.000000  0.720148  0.250000  1
  Ag  Ag10  1  0.000000  0.998874  0.000869  1
  Ag  Ag11  1  0.000000  0.998874  0.499131  1
  Bi  Bi12  1  0.376952  0.377030  0.750000  1
  Bi  Bi13  1  0.623048  0.000078  0.750000  1
  Pb  Pb14  1  0.000000  0.623923  0.750000  1
  Pb  Pb15  1  0.623938  0.624371  0.250000  1
  Pb  Pb16  1  0.376062  0.000433  0.250000  1
  Pb  Pb17  1  0.000000  0.376443  0.250000  1
