# generated using pymatgen
data_LiYTm4(P2Ru3)6
_symmetry_space_group_name_H-M   'P 1'
_cell_length_a   12.59943011
_cell_length_b   12.40308238
_cell_length_c   3.96220200
_cell_angle_alpha   90.00000000
_cell_angle_beta   90.00000000
_cell_angle_gamma   119.48379497
_symmetry_Int_Tables_number   1
_chemical_formula_structural   LiYTm4(P2Ru3)6
_chemical_formula_sum   'Li1 Y1 Tm4 P12 Ru18'
_cell_volume   538.99332996
_cell_formula_units_Z   1
loop_
 _symmetry_equiv_pos_site_id
 _symmetry_equiv_pos_as_xyz
  1  'x, y, z'
loop_
 _atom_site_type_symbol
 _atom_site_label
 _atom_site_symmetry_multiplicity
 _atom_site_fract_x
 _atom_site_fract_y
 _atom_site_fract_z
 _atom_site_occupancy
  Li  Li0  1  0.999881  0.561335  0.000000  1
  Y  Y1  1  0.182835  0.998643  0.500000  1
  Tm  Tm2  1  0.000006  0.181589  0.500000  1
  Tm  Tm3  1  0.817392  0.816461  0.500000  1
  Tm  Tm4  1  0.658437  0.328530  0.000000  1
  Tm  Tm5  1  0.341899  0.670179  0.000000  1
  P  P6  1  0.999495  0.807787  0.000000  1
  P  P7  1  0.180328  0.183028  0.000000  1
  P  P8  1  0.819040  0.002179  0.000000  1
  P  P9  1  0.691834  0.173541  0.500000  1
  P  P10  1  0.818591  0.517517  0.500000  1
  P  P11  1  0.473330  0.306775  0.500000  1
  P  P12  1  0.181156  0.698794  0.500000  1
  P  P13  1  0.526938  0.833451  0.500000  1
  P  P14  1  0.308405  0.482200  0.500000  1
  P  P15  1  0.999898  0.367242  0.000000  1
  P  P16  1  0.626519  0.625519  0.000000  1
  P  P17  1  0.373908  0.999061  0.000000  1
  Ru  Ru18  1  0.443818  0.445042  0.000000  1
  Ru  Ru19  1  0.556437  0.000922  0.000000  1
  Ru  Ru20  1  0.999477  0.711034  0.500000  1
  Ru  Ru21  1  0.279376  0.283198  0.500000  1
  Ru  Ru22  1  0.720901  0.003232  0.500000  1
  Ru  Ru23  1  0.806670  0.187210  0.000000  1
  Ru  Ru24  1  0.812312  0.618491  0.000000  1
  Ru  Ru25  1  0.372490  0.189314  0.000000  1
  Ru  Ru26  1  0.187166  0.804460  0.000000  1
  Ru  Ru27  1  0.628898  0.816506  0.000000  1
  Ru  Ru28  1  0.193152  0.380722  0.000000  1
  Ru  Ru29  1  0.875565  0.367239  0.500000  1
  Ru  Ru30  1  0.630519  0.508083  0.500000  1
  Ru  Ru31  1  0.492722  0.129026  0.500000  1
  Ru  Ru32  1  0.369708  0.877472  0.500000  1
  Ru  Ru33  1  0.507719  0.636769  0.500000  1
  Ru  Ru34  1  0.124515  0.491835  0.500000  1
  Ru  Ru35  1  0.998665  0.995616  0.000000  1
