# generated using pymatgen
data_TbNd3Pd4F28
_symmetry_space_group_name_H-M   'P 1'
_cell_length_a   5.61569381
_cell_length_b   9.07469943
_cell_length_c   12.17170485
_cell_angle_alpha   62.08607215
_cell_angle_beta   89.91073069
_cell_angle_gamma   89.97802058
_symmetry_Int_Tables_number   1
_chemical_formula_structural   TbNd3Pd4F28
_chemical_formula_sum   'Tb1 Nd3 Pd4 F28'
_cell_volume   548.10998747
_cell_formula_units_Z   1
loop_
 _symmetry_equiv_pos_site_id
 _symmetry_equiv_pos_as_xyz
  1  'x, y, z'
loop_
 _atom_site_type_symbol
 _atom_site_label
 _atom_site_symmetry_multiplicity
 _atom_site_fract_x
 _atom_site_fract_y
 _atom_site_fract_z
 _atom_site_occupancy
  Tb  Tb0  1  0.236951  0.810610  0.763747  1
  Nd  Nd1  1  0.261719  0.810102  0.264333  1
  Nd  Nd2  1  0.738210  0.185053  0.736085  1
  Nd  Nd3  1  0.761800  0.189249  0.235595  1
  Pd  Pd4  1  0.758287  0.727402  0.039623  1
  Pd  Pd5  1  0.241920  0.276924  0.955590  1
  Pd  Pd6  1  0.257214  0.271033  0.458985  1
  Pd  Pd7  1  0.740754  0.727163  0.545751  1
  F  F8  1  0.929279  0.706485  0.419382  1
  F  F9  1  0.070412  0.292777  0.585273  1
  F  F10  1  0.428173  0.295676  0.083116  1
  F  F11  1  0.566872  0.707340  0.913882  1
  F  F12  1  0.469436  0.726412  0.128415  1
  F  F13  1  0.532342  0.274575  0.869107  1
  F  F14  1  0.966810  0.272463  0.371688  1
  F  F15  1  0.030721  0.728683  0.633818  1
  F  F16  1  0.942302  0.740787  0.170684  1
  F  F17  1  0.059408  0.261270  0.825332  1
  F  F18  1  0.439452  0.257947  0.327556  1
  F  F19  1  0.551551  0.743442  0.674925  1
  F  F20  1  0.770198  0.485558  0.136581  1
  F  F21  1  0.231341  0.520580  0.859725  1
  F  F22  1  0.268631  0.513440  0.362241  1
  F  F23  1  0.730667  0.484507  0.640539  1
  F  F24  1  0.946025  0.283903  0.036914  1
  F  F25  1  0.054408  0.720830  0.956546  1
  F  F26  1  0.448202  0.718117  0.463111  1
  F  F27  1  0.553115  0.280190  0.539053  1
  F  F28  1  0.741265  0.969274  0.453691  1
  F  F29  1  0.258118  0.028304  0.550786  1
  F  F30  1  0.241789  0.034752  0.046370  1
  F  F31  1  0.757114  0.969594  0.950849  1
  F  F32  1  0.598988  0.964891  0.229623  1
  F  F33  1  0.402805  0.024470  0.769212  1
  F  F34  1  0.099330  0.034365  0.270322  1
  F  F35  1  0.914391  0.961831  0.731549  1
