# generated using pymatgen
data_EuGaGeIr2
_symmetry_space_group_name_H-M   'P 1'
_cell_length_a   6.04113910
_cell_length_b   6.04113877
_cell_length_c   6.04113947
_cell_angle_alpha   138.89930988
_cell_angle_beta   138.89930829
_cell_angle_gamma   59.52841766
_symmetry_Int_Tables_number   1
_chemical_formula_structural   EuGaGeIr2
_chemical_formula_sum   'Eu1 Ga1 Ge1 Ir2'
_cell_volume   94.33292727
_cell_formula_units_Z   1
loop_
 _symmetry_equiv_pos_site_id
 _symmetry_equiv_pos_as_xyz
  1  'x, y, z'
loop_
 _atom_site_type_symbol
 _atom_site_label
 _atom_site_symmetry_multiplicity
 _atom_site_fract_x
 _atom_site_fract_y
 _atom_site_fract_z
 _atom_site_occupancy
  Eu  Eu0  1  0.000624  0.000624  0.000000  1
  Ga  Ga1  1  0.374844  0.374844  0.000000  1
  Ge  Ge2  1  0.627892  0.627892  0.000000  1
  Ir  Ir3  1  0.748320  0.248320  0.500001  1
  Ir  Ir4  1  0.248320  0.748320  0.500001  1
