# generated using pymatgen
data_AuOF8
_symmetry_space_group_name_H-M   'P 1'
_cell_length_a   5.85591400
_cell_length_b   7.67031351
_cell_length_c   10.58918890
_cell_angle_alpha   44.55306088
_cell_angle_beta   90.00000000
_cell_angle_gamma   90.00000000
_symmetry_Int_Tables_number   1
_chemical_formula_structural   AuOF8
_chemical_formula_sum   'Au2 O2 F16'
_cell_volume   333.68846869
_cell_formula_units_Z   2
loop_
 _symmetry_equiv_pos_site_id
 _symmetry_equiv_pos_as_xyz
  1  'x, y, z'
loop_
 _atom_site_type_symbol
 _atom_site_label
 _atom_site_symmetry_multiplicity
 _atom_site_fract_x
 _atom_site_fract_y
 _atom_site_fract_z
 _atom_site_occupancy
  Au  Au0  1  0.001920  0.500000  0.750000  1
  Au  Au1  1  0.998080  0.500000  0.250000  1
  O  O2  1  0.363118  0.000000  0.750000  1
  O  O3  1  0.636882  0.000000  0.250000  1
  F  F4  1  0.492513  0.855402  0.399124  1
  F  F5  1  0.507487  0.855402  0.899124  1
  F  F6  1  0.492513  0.144598  0.100876  1
  F  F7  1  0.507487  0.144598  0.600876  1
  F  F8  1  0.758828  0.335773  0.239044  1
  F  F9  1  0.004470  0.228845  0.010867  1
  F  F10  1  0.241172  0.335773  0.739044  1
  F  F11  1  0.231339  0.332011  0.239670  1
  F  F12  1  0.758828  0.664227  0.260956  1
  F  F13  1  0.768661  0.667989  0.760330  1
  F  F14  1  0.995530  0.228845  0.510867  1
  F  F15  1  0.768661  0.332011  0.739670  1
  F  F16  1  0.241172  0.664227  0.760956  1
  F  F17  1  0.004470  0.771155  0.489133  1
  F  F18  1  0.995530  0.771155  0.989133  1
  F  F19  1  0.231339  0.667989  0.260330  1
