# generated using pymatgen
data_Dy4Al16CoSi2Ir5
_symmetry_space_group_name_H-M   'P 1'
_cell_length_a   7.51093319
_cell_length_b   7.51093253
_cell_length_c   9.33758676
_cell_angle_alpha   90.11561231
_cell_angle_beta   90.11561305
_cell_angle_gamma   119.62819883
_symmetry_Int_Tables_number   1
_chemical_formula_structural   Dy4Al16CoSi2Ir5
_chemical_formula_sum   'Dy4 Al16 Co1 Si2 Ir5'
_cell_volume   457.89349496
_cell_formula_units_Z   1
loop_
 _symmetry_equiv_pos_site_id
 _symmetry_equiv_pos_as_xyz
  1  'x, y, z'
loop_
 _atom_site_type_symbol
 _atom_site_label
 _atom_site_symmetry_multiplicity
 _atom_site_fract_x
 _atom_site_fract_y
 _atom_site_fract_z
 _atom_site_occupancy
  Dy  Dy0  1  0.994753  0.674194  0.749172  1
  Dy  Dy1  1  0.005247  0.325806  0.250828  1
  Dy  Dy2  1  0.674194  0.994753  0.749172  1
  Dy  Dy3  1  0.325806  0.005247  0.250828  1
  Al  Al4  1  0.001195  0.330809  0.574959  1
  Al  Al5  1  0.998805  0.669191  0.425041  1
  Al  Al6  1  0.998317  0.664133  0.076625  1
  Al  Al7  1  0.335867  0.001683  0.923375  1
  Al  Al8  1  0.001683  0.335867  0.923375  1
  Al  Al9  1  0.664133  0.998317  0.076625  1
  Al  Al10  1  0.669191  0.998805  0.425041  1
  Al  Al11  1  0.330809  0.001195  0.574959  1
  Al  Al12  1  0.335332  0.335332  0.056467  1
  Al  Al13  1  0.664668  0.664668  0.943533  1
  Al  Al14  1  0.669389  0.669389  0.554300  1
  Al  Al15  1  0.330611  0.330611  0.445700  1
  Al  Al16  1  0.335912  0.547953  0.749273  1
  Al  Al17  1  0.664088  0.452047  0.250727  1
  Al  Al18  1  0.547953  0.335912  0.749273  1
  Al  Al19  1  0.452047  0.664088  0.250727  1
  Co  Co20  1  0.000000  0.000000  0.500000  1
  Si  Si21  1  0.123718  0.123718  0.743367  1
  Si  Si22  1  0.876282  0.876282  0.256633  1
  Ir  Ir23  1  0.672181  0.327819  0.500000  1
  Ir  Ir24  1  0.327819  0.672181  0.500000  1
  Ir  Ir25  1  0.328203  0.671797  0.000000  1
  Ir  Ir26  1  0.671797  0.328203  0.000000  1
  Ir  Ir27  1  0.000000  0.000000  0.000000  1
