# generated using pymatgen
data_Th5Sn3Sb
_symmetry_space_group_name_H-M   'P 1'
_cell_length_a   9.68061900
_cell_length_b   9.68514670
_cell_length_c   6.57346700
_cell_angle_alpha   90.00000000
_cell_angle_beta   90.00000000
_cell_angle_gamma   119.98453337
_symmetry_Int_Tables_number   1
_chemical_formula_structural   Th5Sn3Sb
_chemical_formula_sum   'Th10 Sn6 Sb2'
_cell_volume   533.82894070
_cell_formula_units_Z   2
loop_
 _symmetry_equiv_pos_site_id
 _symmetry_equiv_pos_as_xyz
  1  'x, y, z'
loop_
 _atom_site_type_symbol
 _atom_site_label
 _atom_site_symmetry_multiplicity
 _atom_site_fract_x
 _atom_site_fract_y
 _atom_site_fract_z
 _atom_site_occupancy
  Th  Th0  1  0.999660  0.719680  0.750000  1
  Th  Th1  1  0.279980  0.280320  0.750000  1
  Th  Th2  1  0.333032  0.666418  0.499977  1
  Th  Th3  1  0.666616  0.333582  0.499977  1
  Th  Th4  1  0.719937  0.719668  0.250000  1
  Th  Th5  1  0.721191  0.000000  0.750000  1
  Th  Th6  1  0.000269  0.280332  0.250000  1
  Th  Th7  1  0.279987  0.000000  0.250000  1
  Th  Th8  1  0.333032  0.666418  0.000023  1
  Th  Th9  1  0.666616  0.333582  0.000023  1
  Sn  Sn10  1  0.380498  0.000000  0.750000  1
  Sn  Sn11  1  0.619175  0.000000  0.250000  1
  Sn  Sn12  1  0.380539  0.380263  0.250000  1
  Sn  Sn13  1  0.000176  0.000000  0.000350  1
  Sn  Sn14  1  0.000276  0.619737  0.250000  1
  Sn  Sn15  1  0.000176  0.000000  0.499650  1
  Sb  Sb16  1  0.618782  0.618724  0.750000  1
  Sb  Sb17  1  0.000058  0.381276  0.750000  1
