# generated using pymatgen
data_La3Tb13Cd4CoNi3
_symmetry_space_group_name_H-M   'P 1'
_cell_length_a   9.65240381
_cell_length_b   9.65821427
_cell_length_c   9.65821331
_cell_angle_alpha   59.71681328
_cell_angle_beta   59.96340262
_cell_angle_gamma   59.96339882
_symmetry_Int_Tables_number   1
_chemical_formula_structural   La3Tb13Cd4CoNi3
_chemical_formula_sum   'La3 Tb13 Cd4 Co1 Ni3'
_cell_volume   634.94567305
_cell_formula_units_Z   1
loop_
 _symmetry_equiv_pos_site_id
 _symmetry_equiv_pos_as_xyz
  1  'x, y, z'
loop_
 _atom_site_type_symbol
 _atom_site_label
 _atom_site_symmetry_multiplicity
 _atom_site_fract_x
 _atom_site_fract_y
 _atom_site_fract_z
 _atom_site_occupancy
  La  La0  1  0.344101  0.349216  0.349216  1
  La  La1  1  0.344608  0.346928  0.954801  1
  La  La2  1  0.344608  0.954801  0.346928  1
  Tb  Tb3  1  0.945801  0.351854  0.351854  1
  Tb  Tb4  1  0.818884  0.187657  0.187657  1
  Tb  Tb5  1  0.188075  0.813699  0.813699  1
  Tb  Tb6  1  0.188043  0.817061  0.185569  1
  Tb  Tb7  1  0.814321  0.186423  0.812709  1
  Tb  Tb8  1  0.188043  0.185569  0.817061  1
  Tb  Tb9  1  0.814321  0.812709  0.186423  1
  Tb  Tb10  1  0.937672  0.565875  0.565875  1
  Tb  Tb11  1  0.564321  0.934190  0.934190  1
  Tb  Tb12  1  0.566375  0.935262  0.564360  1
  Tb  Tb13  1  0.936534  0.562546  0.936272  1
  Tb  Tb14  1  0.566375  0.564360  0.935262  1
  Tb  Tb15  1  0.936534  0.936272  0.562546  1
  Cd  Cd16  1  0.583831  0.578815  0.578815  1
  Cd  Cd17  1  0.584467  0.579192  0.253584  1
  Cd  Cd18  1  0.584467  0.253584  0.579192  1
  Cd  Cd19  1  0.254690  0.580598  0.580598  1
  Co  Co20  1  0.142331  0.142816  0.142816  1
  Ni  Ni21  1  0.136213  0.142541  0.577287  1
  Ni  Ni22  1  0.136213  0.577287  0.142541  1
  Ni  Ni23  1  0.579173  0.140740  0.140740  1
