# generated using pymatgen
data_Ac3Yb(GaIr2)2
_symmetry_space_group_name_H-M   'P 1'
_cell_length_a   5.95378501
_cell_length_b   5.86909270
_cell_length_c   7.99978208
_cell_angle_alpha   101.19599988
_cell_angle_beta   101.59505633
_cell_angle_gamma   59.48631764
_symmetry_Int_Tables_number   1
_chemical_formula_structural   Ac3Yb(GaIr2)2
_chemical_formula_sum   'Ac3 Yb1 Ga2 Ir4'
_cell_volume   234.50094374
_cell_formula_units_Z   1
loop_
 _symmetry_equiv_pos_site_id
 _symmetry_equiv_pos_as_xyz
  1  'x, y, z'
loop_
 _atom_site_type_symbol
 _atom_site_label
 _atom_site_symmetry_multiplicity
 _atom_site_fract_x
 _atom_site_fract_y
 _atom_site_fract_z
 _atom_site_occupancy
  Ac  Ac0  1  0.783041  0.508442  0.132534  1
  Ac  Ac1  1  0.498861  0.211074  0.355510  1
  Ac  Ac2  1  0.505876  0.788255  0.658688  1
  Yb  Yb3  1  0.203477  0.499094  0.852616  1
  Ga  Ga4  1  0.111810  0.885935  0.249121  1
  Ga  Ga5  1  0.896877  0.101704  0.749653  1
  Ir  Ir6  1  0.269531  0.001378  0.009821  1
  Ir  Ir7  1  0.005027  0.717354  0.492142  1
  Ir  Ir8  1  0.998794  0.273890  0.508945  1
  Ir  Ir9  1  0.726705  0.012872  0.990970  1
