# generated using pymatgen
data_TbZrMn3Ni9P7
_symmetry_space_group_name_H-M   'P 1'
_cell_length_a   9.07966900
_cell_length_b   9.07966787
_cell_length_c   3.63724300
_cell_angle_alpha   90.00000000
_cell_angle_beta   90.00000000
_cell_angle_gamma   120.00000046
_symmetry_Int_Tables_number   1
_chemical_formula_structural   TbZrMn3Ni9P7
_chemical_formula_sum   'Tb1 Zr1 Mn3 Ni9 P7'
_cell_volume   259.68264480
_cell_formula_units_Z   1
loop_
 _symmetry_equiv_pos_site_id
 _symmetry_equiv_pos_as_xyz
  1  'x, y, z'
loop_
 _atom_site_type_symbol
 _atom_site_label
 _atom_site_symmetry_multiplicity
 _atom_site_fract_x
 _atom_site_fract_y
 _atom_site_fract_z
 _atom_site_occupancy
  Tb  Tb0  1  0.333333  0.666667  0.500000  1
  Zr  Zr1  1  0.666667  0.333333  0.000000  1
  Mn  Mn2  1  0.097550  0.876299  0.500000  1
  Mn  Mn3  1  0.778749  0.902450  0.500000  1
  Mn  Mn4  1  0.123701  0.221251  0.500000  1
  Ni  Ni5  1  0.059312  0.623353  0.000000  1
  Ni  Ni6  1  0.564041  0.940688  0.000000  1
  Ni  Ni7  1  0.376647  0.435959  0.000000  1
  Ni  Ni8  1  0.279870  0.126439  0.000000  1
  Ni  Ni9  1  0.846570  0.720130  0.000000  1
  Ni  Ni10  1  0.873561  0.153430  0.000000  1
  Ni  Ni11  1  0.437504  0.057546  0.500000  1
  Ni  Ni12  1  0.620042  0.562496  0.500000  1
  Ni  Ni13  1  0.942454  0.379958  0.500000  1
  P  P14  1  0.291369  0.886541  0.000000  1
  P  P15  1  0.595172  0.708631  0.000000  1
  P  P16  1  0.113459  0.404828  0.000000  1
  P  P17  1  0.411210  0.294844  0.500000  1
  P  P18  1  0.883634  0.588790  0.500000  1
  P  P19  1  0.705156  0.116366  0.500000  1
  P  P20  1  0.000000  0.000000  0.000000  1
