# generated using pymatgen
data_ErNpB6Mo
_symmetry_space_group_name_H-M   'P 1'
_cell_length_a   3.61148200
_cell_length_b   9.31050800
_cell_length_c   11.37276500
_cell_angle_alpha   90.00000000
_cell_angle_beta   90.00000000
_cell_angle_gamma   90.00000000
_symmetry_Int_Tables_number   1
_chemical_formula_structural   ErNpB6Mo
_chemical_formula_sum   'Er4 Np4 B24 Mo4'
_cell_volume   382.40617583
_cell_formula_units_Z   4
loop_
 _symmetry_equiv_pos_site_id
 _symmetry_equiv_pos_as_xyz
  1  'x, y, z'
loop_
 _atom_site_type_symbol
 _atom_site_label
 _atom_site_symmetry_multiplicity
 _atom_site_fract_x
 _atom_site_fract_y
 _atom_site_fract_z
 _atom_site_occupancy
  Er  Er0  1  0.000000  0.338435  0.407950  1
  Er  Er1  1  0.000000  0.661565  0.592050  1
  Er  Er2  1  0.000000  0.838435  0.092050  1
  Er  Er3  1  0.000000  0.161565  0.907950  1
  Np  Np4  1  0.000000  0.958961  0.400480  1
  Np  Np5  1  0.000000  0.041039  0.599520  1
  Np  Np6  1  0.000000  0.458961  0.099520  1
  Np  Np7  1  0.000000  0.541039  0.900480  1
  B  B8  1  0.500000  0.551645  0.432311  1
  B  B9  1  0.500000  0.448355  0.567689  1
  B  B10  1  0.500000  0.051645  0.067689  1
  B  B11  1  0.500000  0.948355  0.932311  1
  B  B12  1  0.500000  0.745877  0.424084  1
  B  B13  1  0.500000  0.254123  0.575916  1
  B  B14  1  0.500000  0.245877  0.075916  1
  B  B15  1  0.500000  0.754123  0.924084  1
  B  B16  1  0.500000  0.806364  0.275179  1
  B  B17  1  0.500000  0.193636  0.724821  1
  B  B18  1  0.500000  0.306364  0.224821  1
  B  B19  1  0.500000  0.693636  0.775179  1
  B  B20  1  0.500000  0.644435  0.186972  1
  B  B21  1  0.500000  0.355565  0.813028  1
  B  B22  1  0.500000  0.144435  0.313028  1
  B  B23  1  0.500000  0.855565  0.686972  1
  B  B24  1  0.500000  0.987787  0.221309  1
  B  B25  1  0.500000  0.012213  0.778691  1
  B  B26  1  0.500000  0.487787  0.278691  1
  B  B27  1  0.500000  0.512213  0.721309  1
  B  B28  1  0.500000  0.639127  0.038644  1
  B  B29  1  0.500000  0.360873  0.961356  1
  B  B30  1  0.500000  0.139127  0.461356  1
  B  B31  1  0.500000  0.860873  0.538644  1
  Mo  Mo32  1  0.000000  0.647341  0.317869  1
  Mo  Mo33  1  0.000000  0.352659  0.682131  1
  Mo  Mo34  1  0.000000  0.147341  0.182131  1
  Mo  Mo35  1  0.000000  0.852659  0.817869  1
