# generated using pymatgen
data_Ho6Tm4Si5P
_symmetry_space_group_name_H-M   'P 1'
_cell_length_a   8.34760800
_cell_length_b   8.35287348
_cell_length_c   6.22565300
_cell_angle_alpha   90.00000000
_cell_angle_beta   90.00000000
_cell_angle_gamma   119.97914941
_symmetry_Int_Tables_number   1
_chemical_formula_structural   Ho6Tm4Si5P
_chemical_formula_sum   'Ho6 Tm4 Si5 P1'
_cell_volume   376.01459373
_cell_formula_units_Z   1
loop_
 _symmetry_equiv_pos_site_id
 _symmetry_equiv_pos_as_xyz
  1  'x, y, z'
loop_
 _atom_site_type_symbol
 _atom_site_label
 _atom_site_symmetry_multiplicity
 _atom_site_fract_x
 _atom_site_fract_y
 _atom_site_fract_z
 _atom_site_occupancy
  Ho  Ho0  1  0.000772  0.756450  0.750000  1
  Ho  Ho1  1  0.001030  0.244575  0.250000  1
  Ho  Ho2  1  0.756455  0.755425  0.250000  1
  Ho  Ho3  1  0.754748  0.000000  0.750000  1
  Ho  Ho4  1  0.244322  0.243550  0.750000  1
  Ho  Ho5  1  0.244141  0.000000  0.250000  1
  Tm  Tm6  1  0.333778  0.667524  0.500186  1
  Tm  Tm7  1  0.666255  0.332476  0.999814  1
  Tm  Tm8  1  0.666255  0.332476  0.500186  1
  Tm  Tm9  1  0.333778  0.667524  0.999814  1
  Si  Si10  1  0.394875  0.394183  0.250000  1
  Si  Si11  1  0.000692  0.605817  0.250000  1
  Si  Si12  1  0.000082  0.394112  0.750000  1
  Si  Si13  1  0.605970  0.605888  0.750000  1
  Si  Si14  1  0.606653  0.000000  0.250000  1
  P  P15  1  0.390194  0.000000  0.750000  1
