# generated using pymatgen
data_MnFe2CoP4
_symmetry_space_group_name_H-M   'P 1'
_cell_length_a   3.06262700
_cell_length_b   5.16547676
_cell_length_c   5.77439764
_cell_angle_alpha   89.73439348
_cell_angle_beta   90.00000000
_cell_angle_gamma   90.00000000
_symmetry_Int_Tables_number   1
_chemical_formula_structural   MnFe2CoP4
_chemical_formula_sum   'Mn1 Fe2 Co1 P4'
_cell_volume   91.34957680
_cell_formula_units_Z   1
loop_
 _symmetry_equiv_pos_site_id
 _symmetry_equiv_pos_as_xyz
  1  'x, y, z'
loop_
 _atom_site_type_symbol
 _atom_site_label
 _atom_site_symmetry_multiplicity
 _atom_site_fract_x
 _atom_site_fract_y
 _atom_site_fract_z
 _atom_site_occupancy
  Mn  Mn0  1  0.000000  0.002127  0.549957  1
  Fe  Fe1  1  0.500000  0.497995  0.047086  1
  Fe  Fe2  1  0.500000  0.998757  0.950003  1
  Co  Co3  1  0.000000  0.500917  0.452769  1
  P  P4  1  0.500000  0.309311  0.681656  1
  P  P5  1  0.500000  0.808567  0.315010  1
  P  P6  1  0.000000  0.693848  0.820049  1
  P  P7  1  0.000000  0.188478  0.183470  1
