# generated using pymatgen
data_Lu4B16Mo3W
_symmetry_space_group_name_H-M   'P 1'
_cell_length_a   3.58759800
_cell_length_b   5.98988057
_cell_length_c   11.56187997
_cell_angle_alpha   90.01163921
_cell_angle_beta   90.00000000
_cell_angle_gamma   90.00000000
_symmetry_Int_Tables_number   1
_chemical_formula_structural   Lu4B16Mo3W
_chemical_formula_sum   'Lu4 B16 Mo3 W1'
_cell_volume   248.45651209
_cell_formula_units_Z   1
loop_
 _symmetry_equiv_pos_site_id
 _symmetry_equiv_pos_as_xyz
  1  'x, y, z'
loop_
 _atom_site_type_symbol
 _atom_site_label
 _atom_site_symmetry_multiplicity
 _atom_site_fract_x
 _atom_site_fract_y
 _atom_site_fract_z
 _atom_site_occupancy
  Lu  Lu0  1  0.000000  0.626875  0.350818  1
  Lu  Lu1  1  0.000000  0.372755  0.649063  1
  Lu  Lu2  1  0.000000  0.127677  0.149612  1
  Lu  Lu3  1  0.000000  0.872527  0.850500  1
  B  B4  1  0.500000  0.788461  0.187073  1
  B  B5  1  0.500000  0.211628  0.812950  1
  B  B6  1  0.500000  0.288553  0.313558  1
  B  B7  1  0.500000  0.710841  0.687089  1
  B  B8  1  0.500000  0.868444  0.031704  1
  B  B9  1  0.500000  0.131864  0.967804  1
  B  B10  1  0.500000  0.367735  0.468390  1
  B  B11  1  0.500000  0.631724  0.531774  1
  B  B12  1  0.500000  0.885012  0.451746  1
  B  B13  1  0.500000  0.115366  0.548230  1
  B  B14  1  0.500000  0.384704  0.048039  1
  B  B15  1  0.500000  0.615526  0.951568  1
  B  B16  1  0.500000  0.976918  0.305660  1
  B  B17  1  0.500000  0.023592  0.694659  1
  B  B18  1  0.500000  0.476500  0.194748  1
  B  B19  1  0.500000  0.522852  0.805173  1
  Mo  Mo20  1  0.000000  0.630823  0.084025  1
  Mo  Mo21  1  0.000000  0.369360  0.915587  1
  Mo  Mo22  1  0.000000  0.131435  0.415563  1
  W  W23  1  0.000000  0.868825  0.584667  1
