# generated using pymatgen
data_Dy7Th(Si3Pt)4
_symmetry_space_group_name_H-M   'P 1'
_cell_length_a   8.14138100
_cell_length_b   8.14138182
_cell_length_c   8.24019700
_cell_angle_alpha   90.00000000
_cell_angle_beta   90.00000000
_cell_angle_gamma   119.99999262
_symmetry_Int_Tables_number   1
_chemical_formula_structural   Dy7Th(Si3Pt)4
_chemical_formula_sum   'Dy7 Th1 Si12 Pt4'
_cell_volume   473.00361597
_cell_formula_units_Z   1
loop_
 _symmetry_equiv_pos_site_id
 _symmetry_equiv_pos_as_xyz
  1  'x, y, z'
loop_
 _atom_site_type_symbol
 _atom_site_label
 _atom_site_symmetry_multiplicity
 _atom_site_fract_x
 _atom_site_fract_y
 _atom_site_fract_z
 _atom_site_occupancy
  Dy  Dy0  1  0.000000  0.000000  0.750000  1
  Dy  Dy1  1  0.001987  0.500993  0.250000  1
  Dy  Dy2  1  0.499007  0.500993  0.250000  1
  Dy  Dy3  1  0.501052  0.002105  0.750000  1
  Dy  Dy4  1  0.499007  0.998013  0.250000  1
  Dy  Dy5  1  0.501052  0.498948  0.750000  1
  Dy  Dy6  1  0.997895  0.498948  0.750000  1
  Th  Th7  1  0.000000  0.000000  0.250000  1
  Si  Si8  1  0.166056  0.332112  0.997045  1
  Si  Si9  1  0.667888  0.833944  0.997045  1
  Si  Si10  1  0.166056  0.332112  0.502955  1
  Si  Si11  1  0.332097  0.166049  0.999081  1
  Si  Si12  1  0.166056  0.833944  0.997045  1
  Si  Si13  1  0.667888  0.833944  0.502955  1
  Si  Si14  1  0.833951  0.667903  0.999081  1
  Si  Si15  1  0.332097  0.166049  0.500919  1
  Si  Si16  1  0.166056  0.833944  0.502955  1
  Si  Si17  1  0.833951  0.667903  0.500919  1
  Si  Si18  1  0.833951  0.166049  0.999081  1
  Si  Si19  1  0.833951  0.166049  0.500919  1
  Pt  Pt20  1  0.333333  0.666667  0.996866  1
  Pt  Pt21  1  0.333333  0.666667  0.503134  1
  Pt  Pt22  1  0.666667  0.333333  0.001049  1
  Pt  Pt23  1  0.666667  0.333333  0.498951  1
