# generated using pymatgen
data_Cs2Np(SeF)2
_symmetry_space_group_name_H-M   'P 1'
_cell_length_a   7.97376907
_cell_length_b   7.97377071
_cell_length_c   9.14826300
_cell_angle_alpha   73.11895869
_cell_angle_beta   73.11895512
_cell_angle_gamma   62.47468526
_symmetry_Int_Tables_number   1
_chemical_formula_structural   Cs2Np(SeF)2
_chemical_formula_sum   'Cs4 Np2 Se4 F4'
_cell_volume   485.15721115
_cell_formula_units_Z   2
loop_
 _symmetry_equiv_pos_site_id
 _symmetry_equiv_pos_as_xyz
  1  'x, y, z'
loop_
 _atom_site_type_symbol
 _atom_site_label
 _atom_site_symmetry_multiplicity
 _atom_site_fract_x
 _atom_site_fract_y
 _atom_site_fract_z
 _atom_site_occupancy
  Cs  Cs0  1  0.682608  0.674227  0.662815  1
  Cs  Cs1  1  0.325773  0.317392  0.837185  1
  Cs  Cs2  1  0.317392  0.325773  0.337185  1
  Cs  Cs3  1  0.674227  0.682608  0.162815  1
  Np  Np4  1  0.999406  0.000594  0.750000  1
  Np  Np5  1  0.000594  0.999406  0.250000  1
  Se  Se6  1  0.220508  0.779042  0.998983  1
  Se  Se7  1  0.220958  0.779492  0.501017  1
  Se  Se8  1  0.779492  0.220958  0.001017  1
  Se  Se9  1  0.779042  0.220508  0.498983  1
  F  F10  1  0.166999  0.173235  0.664139  1
  F  F11  1  0.826765  0.833001  0.835861  1
  F  F12  1  0.833001  0.826765  0.335861  1
  F  F13  1  0.173235  0.166999  0.164139  1
