# generated using pymatgen
data_Er2AlSi4Ir2Rh
_symmetry_space_group_name_H-M   'P 1'
_cell_length_a   8.34876007
_cell_length_b   8.34875912
_cell_length_c   8.15472095
_cell_angle_alpha   139.72938859
_cell_angle_beta   106.08612403
_cell_angle_gamma   89.08845080
_symmetry_Int_Tables_number   1
_chemical_formula_structural   Er2AlSi4Ir2Rh
_chemical_formula_sum   'Er4 Al2 Si8 Ir4 Rh2'
_cell_volume   335.08061161
_cell_formula_units_Z   2
loop_
 _symmetry_equiv_pos_site_id
 _symmetry_equiv_pos_as_xyz
  1  'x, y, z'
loop_
 _atom_site_type_symbol
 _atom_site_label
 _atom_site_symmetry_multiplicity
 _atom_site_fract_x
 _atom_site_fract_y
 _atom_site_fract_z
 _atom_site_occupancy
  Er  Er0  1  0.633018  0.876005  0.777124  1
  Er  Er1  1  0.366982  0.123995  0.222876  1
  Er  Er2  1  0.098881  0.355896  0.722876  1
  Er  Er3  1  0.901119  0.644104  0.277124  1
  Al  Al4  1  0.273155  0.023155  0.750000  1
  Al  Al5  1  0.726845  0.976845  0.250000  1
  Si  Si6  1  0.710543  0.460543  0.750000  1
  Si  Si7  1  0.289457  0.539457  0.250000  1
  Si  Si8  1  0.439141  0.600777  0.835205  1
  Si  Si9  1  0.560859  0.399223  0.164795  1
  Si  Si10  1  0.765574  0.103936  0.664795  1
  Si  Si11  1  0.234426  0.896064  0.335205  1
  Si  Si12  1  0.018744  0.768744  0.750000  1
  Si  Si13  1  0.981256  0.231256  0.250000  1
  Ir  Ir14  1  0.240602  0.599346  0.565325  1
  Ir  Ir15  1  0.759398  0.400654  0.434675  1
  Ir  Ir16  1  0.034021  0.175277  0.934675  1
  Ir  Ir17  1  0.965979  0.824723  0.065325  1
  Rh  Rh18  1  0.494674  0.744674  0.250000  1
  Rh  Rh19  1  0.505326  0.255326  0.750000  1
