# generated using pymatgen
data_Ta12OsPt3
_symmetry_space_group_name_H-M   'P 1'
_cell_length_a   5.18964100
_cell_length_b   5.19144100
_cell_length_c   10.37864400
_cell_angle_alpha   90.00000000
_cell_angle_beta   90.00000000
_cell_angle_gamma   90.00000000
_symmetry_Int_Tables_number   1
_chemical_formula_structural   Ta12OsPt3
_chemical_formula_sum   'Ta12 Os1 Pt3'
_cell_volume   279.61846939
_cell_formula_units_Z   1
loop_
 _symmetry_equiv_pos_site_id
 _symmetry_equiv_pos_as_xyz
  1  'x, y, z'
loop_
 _atom_site_type_symbol
 _atom_site_label
 _atom_site_symmetry_multiplicity
 _atom_site_fract_x
 _atom_site_fract_y
 _atom_site_fract_z
 _atom_site_occupancy
  Ta  Ta0  1  0.000000  0.500000  0.375375  1
  Ta  Ta1  1  0.000000  0.500000  0.875193  1
  Ta  Ta2  1  0.500000  0.250642  0.000000  1
  Ta  Ta3  1  0.500000  0.248389  0.500000  1
  Ta  Ta4  1  0.750877  0.000000  0.253628  1
  Ta  Ta5  1  0.750877  0.000000  0.746372  1
  Ta  Ta6  1  0.000000  0.500000  0.124807  1
  Ta  Ta7  1  0.000000  0.500000  0.624625  1
  Ta  Ta8  1  0.500000  0.749358  0.000000  1
  Ta  Ta9  1  0.500000  0.751611  0.500000  1
  Ta  Ta10  1  0.249123  0.000000  0.253628  1
  Ta  Ta11  1  0.249123  0.000000  0.746372  1
  Os  Os12  1  0.000000  0.000000  0.500000  1
  Pt  Pt13  1  0.500000  0.500000  0.248543  1
  Pt  Pt14  1  0.500000  0.500000  0.751457  1
  Pt  Pt15  1  0.000000  0.000000  0.000000  1
