# generated using pymatgen
data_Ba6Lu2WO12
_symmetry_space_group_name_H-M   'P 1'
_cell_length_a   9.44927288
_cell_length_b   9.44927216
_cell_length_c   7.46249365
_cell_angle_alpha   67.78069032
_cell_angle_beta   67.78069373
_cell_angle_gamma   36.93263803
_symmetry_Int_Tables_number   1
_chemical_formula_structural   Ba6Lu2WO12
_chemical_formula_sum   'Ba6 Lu2 W1 O12'
_cell_volume   367.17843787
_cell_formula_units_Z   1
loop_
 _symmetry_equiv_pos_site_id
 _symmetry_equiv_pos_as_xyz
  1  'x, y, z'
loop_
 _atom_site_type_symbol
 _atom_site_label
 _atom_site_symmetry_multiplicity
 _atom_site_fract_x
 _atom_site_fract_y
 _atom_site_fract_z
 _atom_site_occupancy
  Ba  Ba0  1  0.875573  0.875573  0.711417  1
  Ba  Ba1  1  0.220576  0.220576  0.706078  1
  Ba  Ba2  1  0.548919  0.548919  0.701304  1
  Ba  Ba3  1  0.451081  0.451081  0.298696  1
  Ba  Ba4  1  0.779424  0.779424  0.293922  1
  Ba  Ba5  1  0.124427  0.124427  0.288583  1
  Lu  Lu6  1  0.665957  0.665957  0.998507  1
  Lu  Lu7  1  0.334043  0.334043  0.001493  1
  W  W8  1  0.000000  0.000000  0.000000  1
  O  O9  1  0.951816  0.951816  0.290629  1
  O  O10  1  0.282880  0.282880  0.326185  1
  O  O11  1  0.607252  0.607252  0.325661  1
  O  O12  1  0.392748  0.392748  0.674339  1
  O  O13  1  0.717120  0.717120  0.673815  1
  O  O14  1  0.048184  0.048184  0.709371  1
  O  O15  1  0.500000  0.000000  0.000000  1
  O  O16  1  0.845422  0.307980  0.001098  1
  O  O17  1  0.154578  0.692020  0.998902  1
  O  O18  1  0.000000  0.500000  0.000000  1
  O  O19  1  0.307980  0.845422  0.001098  1
  O  O20  1  0.692020  0.154578  0.998902  1
