# generated using pymatgen
data_Yb3Ce(Si5Pt3)2
_symmetry_space_group_name_H-M   'P 1'
_cell_length_a   8.21823846
_cell_length_b   8.23489014
_cell_length_c   8.23489062
_cell_angle_alpha   137.80305186
_cell_angle_beta   104.25516972
_cell_angle_gamma   90.77030907
_symmetry_Int_Tables_number   1
_chemical_formula_structural   Yb3Ce(Si5Pt3)2
_chemical_formula_sum   'Yb3 Ce1 Si10 Pt6'
_cell_volume   345.99521443
_cell_formula_units_Z   1
loop_
 _symmetry_equiv_pos_site_id
 _symmetry_equiv_pos_as_xyz
  1  'x, y, z'
loop_
 _atom_site_type_symbol
 _atom_site_label
 _atom_site_symmetry_multiplicity
 _atom_site_fract_x
 _atom_site_fract_y
 _atom_site_fract_z
 _atom_site_occupancy
  Yb  Yb0  1  0.637382  0.370041  0.267340  1
  Yb  Yb1  1  0.362916  0.629085  0.733831  1
  Yb  Yb2  1  0.105547  0.872166  0.233381  1
  Ce  Ce3  1  0.898238  0.129470  0.768767  1
  Si  Si4  1  0.271414  0.519924  0.249395  1
  Si  Si5  1  0.728032  0.477394  0.747448  1
  Si  Si6  1  0.728032  0.980584  0.250638  1
  Si  Si7  1  0.271414  0.022019  0.751489  1
  Si  Si8  1  0.460604  0.112119  0.348485  1
  Si  Si9  1  0.538223  0.887124  0.651099  1
  Si  Si10  1  0.760264  0.610711  0.149553  1
  Si  Si11  1  0.237808  0.388305  0.849503  1
  Si  Si12  1  0.000195  0.251495  0.251183  1
  Si  Si13  1  0.000195  0.749012  0.748701  1
  Pt  Pt14  1  0.250997  0.135986  0.115011  1
  Pt  Pt15  1  0.747640  0.862352  0.885288  1
  Pt  Pt16  1  0.021663  0.637963  0.383700  1
  Pt  Pt17  1  0.980479  0.365414  0.615065  1
  Pt  Pt18  1  0.499479  0.247599  0.748242  1
  Pt  Pt19  1  0.499479  0.751236  0.251880  1
