# generated using pymatgen
data_Pr4Pd3RuO14
_symmetry_space_group_name_H-M   'P 1'
_cell_length_a   7.47498272
_cell_length_b   7.43436253
_cell_length_c   7.43436300
_cell_angle_alpha   59.99999347
_cell_angle_beta   60.17959158
_cell_angle_gamma   60.17958487
_symmetry_Int_Tables_number   1
_chemical_formula_structural   Pr4Pd3RuO14
_chemical_formula_sum   'Pr4 Pd3 Ru1 O14'
_cell_volume   292.92486291
_cell_formula_units_Z   1
loop_
 _symmetry_equiv_pos_site_id
 _symmetry_equiv_pos_as_xyz
  1  'x, y, z'
loop_
 _atom_site_type_symbol
 _atom_site_label
 _atom_site_symmetry_multiplicity
 _atom_site_fract_x
 _atom_site_fract_y
 _atom_site_fract_z
 _atom_site_occupancy
  Pr  Pr0  1  0.625000  0.625000  0.125000  1
  Pr  Pr1  1  0.625000  0.125000  0.625000  1
  Pr  Pr2  1  0.125000  0.625000  0.625000  1
  Pr  Pr3  1  0.625000  0.625000  0.625000  1
  Pd  Pd4  1  0.125000  0.125000  0.625000  1
  Pd  Pd5  1  0.125000  0.625000  0.125000  1
  Pd  Pd6  1  0.125000  0.125000  0.125000  1
  Ru  Ru7  1  0.625000  0.125000  0.125000  1
  O  O8  1  0.749401  0.750200  0.750200  1
  O  O9  1  0.500599  0.499800  0.499800  1
  O  O10  1  0.038025  0.460224  0.041528  1
  O  O11  1  0.789845  0.205354  0.799446  1
  O  O12  1  0.038025  0.041528  0.460224  1
  O  O13  1  0.460155  0.044646  0.044646  1
  O  O14  1  0.038025  0.460224  0.460224  1
  O  O15  1  0.460155  0.450554  0.044646  1
  O  O16  1  0.460155  0.044646  0.450554  1
  O  O17  1  0.211975  0.789776  0.789776  1
  O  O18  1  0.789845  0.205354  0.205354  1
  O  O19  1  0.211975  0.789776  0.208472  1
  O  O20  1  0.789845  0.799446  0.205354  1
  O  O21  1  0.211975  0.208472  0.789776  1
