# generated using pymatgen
data_La3PrLu2(BiO7)2
_symmetry_space_group_name_H-M   'P 1'
_cell_length_a   7.78821994
_cell_length_b   7.78821951
_cell_length_c   7.77484423
_cell_angle_alpha   60.22247044
_cell_angle_beta   60.22247213
_cell_angle_gamma   60.66091984
_symmetry_Int_Tables_number   1
_chemical_formula_structural   La3PrLu2(BiO7)2
_chemical_formula_sum   'La3 Pr1 Lu2 Bi2 O14'
_cell_volume   336.23457326
_cell_formula_units_Z   1
loop_
 _symmetry_equiv_pos_site_id
 _symmetry_equiv_pos_as_xyz
  1  'x, y, z'
loop_
 _atom_site_type_symbol
 _atom_site_label
 _atom_site_symmetry_multiplicity
 _atom_site_fract_x
 _atom_site_fract_y
 _atom_site_fract_z
 _atom_site_occupancy
  La  La0  1  0.625000  0.125000  0.125000  1
  La  La1  1  0.125000  0.125000  0.125000  1
  La  La2  1  0.125000  0.625000  0.125000  1
  Pr  Pr3  1  0.125000  0.125000  0.625000  1
  Lu  Lu4  1  0.625000  0.625000  0.125000  1
  Lu  Lu5  1  0.625000  0.625000  0.625000  1
  Bi  Bi6  1  0.625000  0.125000  0.625000  1
  Bi  Bi7  1  0.125000  0.625000  0.625000  1
  O  O8  1  0.719398  0.282939  0.294009  1
  O  O9  1  0.721902  0.721902  0.278420  1
  O  O10  1  0.282939  0.719398  0.294009  1
  O  O11  1  0.003018  0.003018  0.996936  1
  O  O12  1  0.722006  0.282288  0.702891  1
  O  O13  1  0.967712  0.527994  0.547109  1
  O  O14  1  0.282288  0.722006  0.702891  1
  O  O15  1  0.527994  0.967712  0.547109  1
  O  O16  1  0.246982  0.246982  0.253064  1
  O  O17  1  0.967061  0.530602  0.955991  1
  O  O18  1  0.528098  0.528098  0.971580  1
  O  O19  1  0.957019  0.957019  0.544707  1
  O  O20  1  0.530602  0.967061  0.955991  1
  O  O21  1  0.292981  0.292981  0.705293  1
