# generated using pymatgen
data_CaYPt2O7
_symmetry_space_group_name_H-M   'P 1'
_cell_length_a   7.29951222
_cell_length_b   7.29951061
_cell_length_c   7.29951184
_cell_angle_alpha   120.03572713
_cell_angle_beta   120.03344155
_cell_angle_gamma   89.94010839
_symmetry_Int_Tables_number   1
_chemical_formula_structural   CaYPt2O7
_chemical_formula_sum   'Ca2 Y2 Pt4 O14'
_cell_volume   274.87741853
_cell_formula_units_Z   2
loop_
 _symmetry_equiv_pos_site_id
 _symmetry_equiv_pos_as_xyz
  1  'x, y, z'
loop_
 _atom_site_type_symbol
 _atom_site_label
 _atom_site_symmetry_multiplicity
 _atom_site_fract_x
 _atom_site_fract_y
 _atom_site_fract_z
 _atom_site_occupancy
  Ca  Ca0  1  0.500000  0.500000  0.500000  1
  Ca  Ca1  1  0.500000  0.000000  0.000000  1
  Y  Y2  1  0.500000  0.500000  0.000000  1
  Y  Y3  1  0.000000  0.500000  0.500000  1
  Pt  Pt4  1  0.000000  0.000000  0.500000  1
  Pt  Pt5  1  0.000000  0.500000  0.000000  1
  Pt  Pt6  1  0.000000  0.000000  0.000000  1
  Pt  Pt7  1  0.500000  0.000000  0.500000  1
  O  O8  1  0.369450  0.619450  0.750000  1
  O  O9  1  0.630550  0.380550  0.250000  1
  O  O10  1  0.330847  0.080847  0.250000  1
  O  O11  1  0.913638  0.663638  0.250000  1
  O  O12  1  0.332539  0.666006  0.240952  1
  O  O13  1  0.925054  0.091587  0.259048  1
  O  O14  1  0.332539  0.091587  0.666534  1
  O  O15  1  0.925054  0.666006  0.833466  1
  O  O16  1  0.669153  0.919153  0.750000  1
  O  O17  1  0.086362  0.336362  0.750000  1
  O  O18  1  0.667461  0.333994  0.759048  1
  O  O19  1  0.074946  0.908413  0.740952  1
  O  O20  1  0.667461  0.908413  0.333466  1
  O  O21  1  0.074946  0.333994  0.166534  1
