# generated using pymatgen
data_Ba(TbSe2)2
_symmetry_space_group_name_H-M   'P 1'
_cell_length_a   4.22419900
_cell_length_b   12.93572400
_cell_length_c   15.23931400
_cell_angle_alpha   90.00000000
_cell_angle_beta   90.00000000
_cell_angle_gamma   90.00000000
_symmetry_Int_Tables_number   1
_chemical_formula_structural   Ba(TbSe2)2
_chemical_formula_sum   'Ba4 Tb8 Se16'
_cell_volume   832.72293800
_cell_formula_units_Z   4
loop_
 _symmetry_equiv_pos_site_id
 _symmetry_equiv_pos_as_xyz
  1  'x, y, z'
loop_
 _atom_site_type_symbol
 _atom_site_label
 _atom_site_symmetry_multiplicity
 _atom_site_fract_x
 _atom_site_fract_y
 _atom_site_fract_z
 _atom_site_occupancy
  Ba  Ba0  1  0.250000  0.240829  0.335198  1
  Ba  Ba1  1  0.250000  0.740829  0.164802  1
  Ba  Ba2  1  0.750000  0.759171  0.664802  1
  Ba  Ba3  1  0.750000  0.259171  0.835198  1
  Tb  Tb4  1  0.250000  0.079325  0.599622  1
  Tb  Tb5  1  0.250000  0.579325  0.900378  1
  Tb  Tb6  1  0.750000  0.920675  0.400378  1
  Tb  Tb7  1  0.750000  0.420675  0.099622  1
  Tb  Tb8  1  0.250000  0.563915  0.391245  1
  Tb  Tb9  1  0.250000  0.063915  0.108755  1
  Tb  Tb10  1  0.750000  0.436085  0.608755  1
  Tb  Tb11  1  0.750000  0.936085  0.891245  1
  Se  Se12  1  0.250000  0.085459  0.922802  1
  Se  Se13  1  0.250000  0.585459  0.577198  1
  Se  Se14  1  0.750000  0.914541  0.077198  1
  Se  Se15  1  0.750000  0.414541  0.422802  1
  Se  Se16  1  0.250000  0.293866  0.663319  1
  Se  Se17  1  0.250000  0.793866  0.836681  1
  Se  Se18  1  0.750000  0.706134  0.336681  1
  Se  Se19  1  0.750000  0.206134  0.163319  1
  Se  Se20  1  0.250000  0.374271  0.974171  1
  Se  Se21  1  0.250000  0.874271  0.525829  1
  Se  Se22  1  0.750000  0.625729  0.025829  1
  Se  Se23  1  0.750000  0.125729  0.474171  1
  Se  Se24  1  0.250000  0.474937  0.216809  1
  Se  Se25  1  0.250000  0.974937  0.283191  1
  Se  Se26  1  0.750000  0.525063  0.783191  1
  Se  Se27  1  0.750000  0.025063  0.716809  1
