# generated using pymatgen
data_DyTm3Ga5Tc3
_symmetry_space_group_name_H-M   'P 1'
_cell_length_a   5.45099602
_cell_length_b   5.50075097
_cell_length_c   8.67234503
_cell_angle_alpha   90.00000271
_cell_angle_beta   89.99162805
_cell_angle_gamma   120.30238980
_symmetry_Int_Tables_number   1
_chemical_formula_structural   DyTm3Ga5Tc3
_chemical_formula_sum   'Dy1 Tm3 Ga5 Tc3'
_cell_volume   224.50892558
_cell_formula_units_Z   1
loop_
 _symmetry_equiv_pos_site_id
 _symmetry_equiv_pos_as_xyz
  1  'x, y, z'
loop_
 _atom_site_type_symbol
 _atom_site_label
 _atom_site_symmetry_multiplicity
 _atom_site_fract_x
 _atom_site_fract_y
 _atom_site_fract_z
 _atom_site_occupancy
  Dy  Dy0  1  0.335251  0.667625  0.443151  1
  Tm  Tm1  1  0.661960  0.330980  0.552628  1
  Tm  Tm2  1  0.662018  0.331009  0.947479  1
  Tm  Tm3  1  0.335607  0.667804  0.056418  1
  Ga  Ga4  1  0.836175  0.165394  0.249785  1
  Ga  Ga5  1  0.836175  0.670781  0.249785  1
  Ga  Ga6  1  0.328182  0.164090  0.249903  1
  Ga  Ga7  1  0.187479  0.839619  0.750264  1
  Ga  Ga8  1  0.187479  0.347860  0.750264  1
  Tc  Tc9  1  0.975871  0.987935  0.510168  1
  Tc  Tc10  1  0.975585  0.987792  0.990107  1
  Tc  Tc11  1  0.678221  0.839111  0.750048  1
