# generated using pymatgen
data_LaPr2AlC3
_symmetry_space_group_name_H-M   'P 1'
_cell_length_a   3.83449700
_cell_length_b   7.58483400
_cell_length_c   10.26943400
_cell_angle_alpha   90.00000000
_cell_angle_beta   90.00000000
_cell_angle_gamma   90.00000000
_symmetry_Int_Tables_number   1
_chemical_formula_structural   LaPr2AlC3
_chemical_formula_sum   'La2 Pr4 Al2 C6'
_cell_volume   298.67645690
_cell_formula_units_Z   2
loop_
 _symmetry_equiv_pos_site_id
 _symmetry_equiv_pos_as_xyz
  1  'x, y, z'
loop_
 _atom_site_type_symbol
 _atom_site_label
 _atom_site_symmetry_multiplicity
 _atom_site_fract_x
 _atom_site_fract_y
 _atom_site_fract_z
 _atom_site_occupancy
  La  La0  1  0.000000  0.750000  0.460857  1
  La  La1  1  0.000000  0.250000  0.539143  1
  Pr  Pr2  1  0.500000  0.512249  0.192469  1
  Pr  Pr3  1  0.500000  0.487751  0.807531  1
  Pr  Pr4  1  0.500000  0.987751  0.192469  1
  Pr  Pr5  1  0.500000  0.012249  0.807531  1
  Al  Al6  1  0.000000  0.750000  0.010926  1
  Al  Al7  1  0.000000  0.250000  0.989074  1
  C  C8  1  0.500000  0.506401  0.563773  1
  C  C9  1  0.500000  0.493599  0.436227  1
  C  C10  1  0.500000  0.993599  0.563773  1
  C  C11  1  0.500000  0.006401  0.436227  1
  C  C12  1  0.000000  0.750000  0.208327  1
  C  C13  1  0.000000  0.250000  0.791673  1
