# generated using pymatgen
data_Yb12PdRu2Pt
_symmetry_space_group_name_H-M   'P 1'
_cell_length_a   6.33087244
_cell_length_b   7.61746448
_cell_length_c   9.38697900
_cell_angle_alpha   90.00000000
_cell_angle_beta   90.00000000
_cell_angle_gamma   89.83798609
_symmetry_Int_Tables_number   1
_chemical_formula_structural   Yb12PdRu2Pt
_chemical_formula_sum   'Yb12 Pd1 Ru2 Pt1'
_cell_volume   452.68709171
_cell_formula_units_Z   1
loop_
 _symmetry_equiv_pos_site_id
 _symmetry_equiv_pos_as_xyz
  1  'x, y, z'
loop_
 _atom_site_type_symbol
 _atom_site_label
 _atom_site_symmetry_multiplicity
 _atom_site_fract_x
 _atom_site_fract_y
 _atom_site_fract_z
 _atom_site_occupancy
  Yb  Yb0  1  0.337105  0.668411  0.074584  1
  Yb  Yb1  1  0.162024  0.169537  0.426262  1
  Yb  Yb2  1  0.655953  0.328139  0.557205  1
  Yb  Yb3  1  0.847145  0.831732  0.942847  1
  Yb  Yb4  1  0.655953  0.328139  0.942795  1
  Yb  Yb5  1  0.847145  0.831732  0.557153  1
  Yb  Yb6  1  0.337105  0.668411  0.425416  1
  Yb  Yb7  1  0.162024  0.169537  0.073738  1
  Yb  Yb8  1  0.865772  0.539951  0.250000  1
  Yb  Yb9  1  0.632283  0.039025  0.250000  1
  Yb  Yb10  1  0.134740  0.459322  0.750000  1
  Yb  Yb11  1  0.361363  0.962084  0.750000  1
  Pd  Pd12  1  0.554762  0.621085  0.750000  1
  Ru  Ru13  1  0.042492  0.880760  0.250000  1
  Ru  Ru14  1  0.458949  0.380247  0.250000  1
  Pt  Pt15  1  0.945183  0.121891  0.750000  1
