# generated using pymatgen
data_Tm2LuFe8Co
_symmetry_space_group_name_H-M   'P 1'
_cell_length_a   5.04465155
_cell_length_b   5.04465141
_cell_length_c   8.56214266
_cell_angle_alpha   72.86702934
_cell_angle_beta   72.86702856
_cell_angle_gamma   60.00000281
_symmetry_Int_Tables_number   1
_chemical_formula_structural   Tm2LuFe8Co
_chemical_formula_sum   'Tm2 Lu1 Fe8 Co1'
_cell_volume   177.44856329
_cell_formula_units_Z   1
loop_
 _symmetry_equiv_pos_site_id
 _symmetry_equiv_pos_as_xyz
  1  'x, y, z'
loop_
 _atom_site_type_symbol
 _atom_site_label
 _atom_site_symmetry_multiplicity
 _atom_site_fract_x
 _atom_site_fract_y
 _atom_site_fract_z
 _atom_site_occupancy
  Tm  Tm0  1  0.857895  0.857895  0.426314  1
  Tm  Tm1  1  0.000029  0.000029  0.999912  1
  Lu  Lu2  1  0.142051  0.142051  0.573847  1
  Fe  Fe3  1  0.417214  0.417214  0.247182  1
  Fe  Fe4  1  0.918391  0.417214  0.247182  1
  Fe  Fe5  1  0.417214  0.918391  0.247182  1
  Fe  Fe6  1  0.582777  0.582777  0.752792  1
  Fe  Fe7  1  0.081654  0.582777  0.752792  1
  Fe  Fe8  1  0.582777  0.081654  0.752792  1
  Fe  Fe9  1  0.667185  0.667185  0.998444  1
  Fe  Fe10  1  0.332818  0.332818  0.001545  1
  Co  Co11  1  0.499994  0.499994  0.500018  1
