# generated using pymatgen
data_La4Pr9Nd3(MgIr)4
_symmetry_space_group_name_H-M   'P 1'
_cell_length_a   10.12128531
_cell_length_b   10.11114198
_cell_length_c   10.12061808
_cell_angle_alpha   60.03533624
_cell_angle_beta   60.05404118
_cell_angle_gamma   60.02877843
_symmetry_Int_Tables_number   1
_chemical_formula_structural   La4Pr9Nd3(MgIr)4
_chemical_formula_sum   'La4 Pr9 Nd3 Mg4 Ir4'
_cell_volume   733.01929838
_cell_formula_units_Z   1
loop_
 _symmetry_equiv_pos_site_id
 _symmetry_equiv_pos_as_xyz
  1  'x, y, z'
loop_
 _atom_site_type_symbol
 _atom_site_label
 _atom_site_symmetry_multiplicity
 _atom_site_fract_x
 _atom_site_fract_y
 _atom_site_fract_z
 _atom_site_occupancy
  La  La0  1  0.345735  0.345636  0.345449  1
  La  La1  1  0.345629  0.345891  0.962887  1
  La  La2  1  0.345449  0.963180  0.345735  1
  La  La3  1  0.962887  0.345593  0.345629  1
  Pr  Pr4  1  0.811908  0.188092  0.811908  1
  Pr  Pr5  1  0.187907  0.187900  0.812178  1
  Pr  Pr6  1  0.812178  0.812015  0.187907  1
  Pr  Pr7  1  0.937634  0.562751  0.562296  1
  Pr  Pr8  1  0.562296  0.937319  0.937634  1
  Pr  Pr9  1  0.562677  0.937323  0.562677  1
  Pr  Pr10  1  0.937564  0.562436  0.937564  1
  Pr  Pr11  1  0.562303  0.562815  0.937601  1
  Pr  Pr12  1  0.937601  0.937281  0.562303  1
  Nd  Nd13  1  0.812044  0.187998  0.188026  1
  Nd  Nd14  1  0.188026  0.811932  0.812044  1
  Nd  Nd15  1  0.187851  0.812149  0.187851  1
  Mg  Mg16  1  0.578778  0.579026  0.579007  1
  Mg  Mg17  1  0.578864  0.578934  0.263059  1
  Mg  Mg18  1  0.579007  0.263191  0.578778  1
  Mg  Mg19  1  0.263059  0.579144  0.578864  1
  Ir  Ir20  1  0.141760  0.141387  0.142213  1
  Ir  Ir21  1  0.142262  0.141446  0.574369  1
  Ir  Ir22  1  0.142213  0.574640  0.141760  1
  Ir  Ir23  1  0.574369  0.141923  0.142262  1
