# generated using pymatgen
data_Mn28Os
_symmetry_space_group_name_H-M   'P 1'
_cell_length_a   7.48592103
_cell_length_b   7.48603415
_cell_length_c   7.48582800
_cell_angle_alpha   109.47037776
_cell_angle_beta   109.46936919
_cell_angle_gamma   109.47207168
_symmetry_Int_Tables_number   1
_chemical_formula_structural   Mn28Os
_chemical_formula_sum   'Mn28 Os1'
_cell_volume   322.94225840
_cell_formula_units_Z   1
loop_
 _symmetry_equiv_pos_site_id
 _symmetry_equiv_pos_as_xyz
  1  'x, y, z'
loop_
 _atom_site_type_symbol
 _atom_site_label
 _atom_site_symmetry_multiplicity
 _atom_site_fract_x
 _atom_site_fract_y
 _atom_site_fract_z
 _atom_site_occupancy
  Mn  Mn0  1  0.639635  0.000071  0.000112  1
  Mn  Mn1  1  0.999991  0.639483  0.999933  1
  Mn  Mn2  1  0.000033  0.000159  0.639668  1
  Mn  Mn3  1  0.360356  0.360328  0.360361  1
  Mn  Mn4  1  0.390243  0.679455  0.000006  1
  Mn  Mn5  1  0.710802  0.320265  0.320521  1
  Mn  Mn6  1  0.390483  0.000336  0.679704  1
  Mn  Mn7  1  0.679499  0.390220  0.999920  1
  Mn  Mn8  1  0.999914  0.390134  0.679502  1
  Mn  Mn9  1  0.320522  0.710667  0.320215  1
  Mn  Mn10  1  0.320293  0.320463  0.710778  1
  Mn  Mn11  1  0.999821  0.679466  0.390202  1
  Mn  Mn12  1  0.679775  0.000317  0.390497  1
  Mn  Mn13  1  0.609543  0.609573  0.289079  1
  Mn  Mn14  1  0.289107  0.609407  0.609758  1
  Mn  Mn15  1  0.609792  0.289206  0.609606  1
  Mn  Mn16  1  0.374989  0.194827  0.000051  1
  Mn  Mn17  1  0.180364  0.805280  0.805430  1
  Mn  Mn18  1  0.375184  0.000124  0.194791  1
  Mn  Mn19  1  0.194591  0.374961  0.999799  1
  Mn  Mn20  1  0.999881  0.374796  0.194595  1
  Mn  Mn21  1  0.805553  0.180554  0.805327  1
  Mn  Mn22  1  0.805250  0.805435  0.180376  1
  Mn  Mn23  1  0.999941  0.194735  0.375099  1
  Mn  Mn24  1  0.194787  0.000256  0.375067  1
  Mn  Mn25  1  0.624862  0.624831  0.819678  1
  Mn  Mn26  1  0.819628  0.624805  0.624924  1
  Mn  Mn27  1  0.625165  0.819848  0.625004  1
  Os  Os28  1  0.999994  0.000000  0.999997  1
