# generated using pymatgen
data_Ca11PrPd12
_symmetry_space_group_name_H-M   'P 1'
_cell_length_a   5.77917159
_cell_length_b   4.52622800
_cell_length_c   21.97579304
_cell_angle_alpha   90.00000000
_cell_angle_beta   96.30429290
_cell_angle_gamma   90.00000000
_symmetry_Int_Tables_number   1
_chemical_formula_structural   Ca11PrPd12
_chemical_formula_sum   'Ca11 Pr1 Pd12'
_cell_volume   571.36325112
_cell_formula_units_Z   1
loop_
 _symmetry_equiv_pos_site_id
 _symmetry_equiv_pos_as_xyz
  1  'x, y, z'
loop_
 _atom_site_type_symbol
 _atom_site_label
 _atom_site_symmetry_multiplicity
 _atom_site_fract_x
 _atom_site_fract_y
 _atom_site_fract_z
 _atom_site_occupancy
  Ca  Ca0  1  0.176695  0.750000  0.108061  1
  Ca  Ca1  1  0.503938  0.250001  0.228214  1
  Ca  Ca2  1  0.026281  0.750000  0.274485  1
  Ca  Ca3  1  0.809606  0.250001  0.393917  1
  Ca  Ca4  1  0.331936  0.750000  0.439535  1
  Ca  Ca5  1  0.667501  0.250001  0.560436  1
  Ca  Ca6  1  0.190359  0.750000  0.606056  1
  Ca  Ca7  1  0.974097  0.250001  0.726546  1
  Ca  Ca8  1  0.496697  0.750000  0.773130  1
  Ca  Ca9  1  0.823372  0.250001  0.891482  1
  Ca  Ca10  1  0.334336  0.750000  0.937162  1
  Pr  Pr11  1  0.663598  0.250001  0.060742  1
  Pd  Pd12  1  0.150822  0.250001  0.013734  1
  Pd  Pd13  1  0.693082  0.750000  0.153610  1
  Pd  Pd14  1  0.985934  0.250001  0.180079  1
  Pd  Pd15  1  0.550562  0.750000  0.321455  1
  Pd  Pd16  1  0.282870  0.250001  0.345745  1
  Pd  Pd17  1  0.853454  0.750000  0.487939  1
  Pd  Pd18  1  0.146145  0.250001  0.512321  1
  Pd  Pd19  1  0.717105  0.750000  0.654296  1
  Pd  Pd20  1  0.449477  0.250001  0.678873  1
  Pd  Pd21  1  0.013936  0.750000  0.819260  1
  Pd  Pd22  1  0.304958  0.250001  0.845069  1
  Pd  Pd23  1  0.853239  0.750000  0.987854  1
