# generated using pymatgen
data_Pr3SmGa18(IrPt)3
_symmetry_space_group_name_H-M   'P 1'
_cell_length_a   7.71654690
_cell_length_b   7.71238700
_cell_length_c   9.60027873
_cell_angle_alpha   89.96891198
_cell_angle_beta   89.97118313
_cell_angle_gamma   119.89389566
_symmetry_Int_Tables_number   1
_chemical_formula_structural   Pr3SmGa18(IrPt)3
_chemical_formula_sum   'Pr3 Sm1 Ga18 Ir3 Pt3'
_cell_volume   495.32402913
_cell_formula_units_Z   1
loop_
 _symmetry_equiv_pos_site_id
 _symmetry_equiv_pos_as_xyz
  1  'x, y, z'
loop_
 _atom_site_type_symbol
 _atom_site_label
 _atom_site_symmetry_multiplicity
 _atom_site_fract_x
 _atom_site_fract_y
 _atom_site_fract_z
 _atom_site_occupancy
  Pr  Pr0  1  0.004632  0.333283  0.750778  1
  Pr  Pr1  1  0.666956  0.995579  0.249164  1
  Pr  Pr2  1  0.331401  0.002314  0.750547  1
  Sm  Sm3  1  0.997114  0.669088  0.249577  1
  Ga  Ga4  1  0.126637  0.127199  0.250279  1
  Ga  Ga5  1  0.871533  0.872606  0.749700  1
  Ga  Ga6  1  0.000817  0.332591  0.081155  1
  Ga  Ga7  1  0.998721  0.669081  0.921272  1
  Ga  Ga8  1  0.996801  0.665690  0.576640  1
  Ga  Ga9  1  0.332902  0.001728  0.420453  1
  Ga  Ga10  1  0.995913  0.332227  0.420992  1
  Ga  Ga11  1  0.669609  0.004330  0.577289  1
  Ga  Ga12  1  0.669182  0.999181  0.920456  1
  Ga  Ga13  1  0.329223  0.999390  0.081663  1
  Ga  Ga14  1  0.332072  0.328889  0.558797  1
  Ga  Ga15  1  0.672123  0.667906  0.439681  1
  Ga  Ga16  1  0.670328  0.668784  0.063967  1
  Ga  Ga17  1  0.331094  0.330787  0.937674  1
  Ga  Ga18  1  0.340944  0.541513  0.250692  1
  Ga  Ga19  1  0.657797  0.455323  0.746861  1
  Ga  Ga20  1  0.546968  0.344198  0.252979  1
  Ga  Ga21  1  0.458559  0.658104  0.749287  1
  Ir  Ir22  1  0.670681  0.329574  0.499356  1
  Ir  Ir23  1  0.999934  0.999478  0.000738  1
  Ir  Ir24  1  0.999698  0.999707  0.499315  1
  Pt  Pt25  1  0.670727  0.329281  0.000652  1
  Pt  Pt26  1  0.328957  0.670952  0.000679  1
  Pt  Pt27  1  0.328674  0.671217  0.499360  1
