# generated using pymatgen
data_Er13Th3(MgIr)4
_symmetry_space_group_name_H-M   'P 1'
_cell_length_a   9.72198307
_cell_length_b   9.72097710
_cell_length_c   9.72097800
_cell_angle_alpha   60.00000376
_cell_angle_beta   60.00342655
_cell_angle_gamma   60.00342387
_symmetry_Int_Tables_number   1
_chemical_formula_structural   Er13Th3(MgIr)4
_chemical_formula_sum   'Er13 Th3 Mg4 Ir4'
_cell_volume   649.65418074
_cell_formula_units_Z   1
loop_
 _symmetry_equiv_pos_site_id
 _symmetry_equiv_pos_as_xyz
  1  'x, y, z'
loop_
 _atom_site_type_symbol
 _atom_site_label
 _atom_site_symmetry_multiplicity
 _atom_site_fract_x
 _atom_site_fract_y
 _atom_site_fract_z
 _atom_site_occupancy
  Er  Er0  1  0.203694  0.598769  0.598769  1
  Er  Er1  1  0.063134  0.437674  0.437674  1
  Er  Er2  1  0.436396  0.063834  0.063834  1
  Er  Er3  1  0.436396  0.063834  0.435937  1
  Er  Er4  1  0.063134  0.437674  0.061519  1
  Er  Er5  1  0.436396  0.435937  0.063834  1
  Er  Er6  1  0.063134  0.061519  0.437674  1
  Er  Er7  1  0.185400  0.814504  0.814504  1
  Er  Er8  1  0.816000  0.183921  0.183921  1
  Er  Er9  1  0.816000  0.183921  0.816159  1
  Er  Er10  1  0.185400  0.814504  0.185593  1
  Er  Er11  1  0.816000  0.816159  0.183921  1
  Er  Er12  1  0.185400  0.185593  0.814504  1
  Th  Th13  1  0.596889  0.598913  0.598913  1
  Th  Th14  1  0.596889  0.598913  0.205285  1
  Th  Th15  1  0.596889  0.205285  0.598913  1
  Mg  Mg16  1  0.832473  0.830447  0.830447  1
  Mg  Mg17  1  0.832473  0.830447  0.506632  1
  Mg  Mg18  1  0.832473  0.506632  0.830447  1
  Mg  Mg19  1  0.504465  0.831845  0.831845  1
  Ir  Ir20  1  0.392788  0.392010  0.392010  1
  Ir  Ir21  1  0.392788  0.392010  0.823193  1
  Ir  Ir22  1  0.392788  0.823193  0.392010  1
  Ir  Ir23  1  0.822606  0.392465  0.392465  1
