# generated using pymatgen
data_Yb5V3O13
_symmetry_space_group_name_H-M   'P 1'
_cell_length_a   9.67972600
_cell_length_b   9.67972683
_cell_length_c   6.86538900
_cell_angle_alpha   90.00000000
_cell_angle_beta   90.00000000
_cell_angle_gamma   120.00000399
_symmetry_Int_Tables_number   1
_chemical_formula_structural   Yb5V3O13
_chemical_formula_sum   'Yb10 V6 O26'
_cell_volume   557.08559604
_cell_formula_units_Z   2
loop_
 _symmetry_equiv_pos_site_id
 _symmetry_equiv_pos_as_xyz
  1  'x, y, z'
loop_
 _atom_site_type_symbol
 _atom_site_label
 _atom_site_symmetry_multiplicity
 _atom_site_fract_x
 _atom_site_fract_y
 _atom_site_fract_z
 _atom_site_occupancy
  Yb  Yb0  1  0.333333  0.666667  0.499040  1
  Yb  Yb1  1  0.666667  0.333333  0.999040  1
  Yb  Yb2  1  0.666667  0.333333  0.500960  1
  Yb  Yb3  1  0.333333  0.666667  0.000960  1
  Yb  Yb4  1  0.758299  0.752271  0.250000  1
  Yb  Yb5  1  0.993972  0.241701  0.250000  1
  Yb  Yb6  1  0.247729  0.006028  0.250000  1
  Yb  Yb7  1  0.241701  0.247729  0.750000  1
  Yb  Yb8  1  0.006028  0.758299  0.750000  1
  Yb  Yb9  1  0.752271  0.993972  0.750000  1
  V  V10  1  0.970486  0.599391  0.250000  1
  V  V11  1  0.628905  0.029514  0.250000  1
  V  V12  1  0.400609  0.371095  0.250000  1
  V  V13  1  0.029514  0.400609  0.750000  1
  V  V14  1  0.371095  0.970486  0.750000  1
  V  V15  1  0.599391  0.628905  0.750000  1
  O  O16  1  0.174403  0.677493  0.250000  1
  O  O17  1  0.503091  0.825597  0.250000  1
  O  O18  1  0.322507  0.496909  0.250000  1
  O  O19  1  0.825597  0.322507  0.750000  1
  O  O20  1  0.496909  0.174403  0.750000  1
  O  O21  1  0.677493  0.503091  0.750000  1
  O  O22  1  0.863275  0.390500  0.250000  1
  O  O23  1  0.527224  0.136725  0.250000  1
  O  O24  1  0.609500  0.472776  0.250000  1
  O  O25  1  0.136725  0.609500  0.750000  1
  O  O26  1  0.472776  0.863275  0.750000  1
  O  O27  1  0.390500  0.527224  0.750000  1
  O  O28  1  0.906430  0.662819  0.447513  1
  O  O29  1  0.756389  0.093570  0.447513  1
  O  O30  1  0.337181  0.243611  0.447513  1
  O  O31  1  0.093570  0.337181  0.947513  1
  O  O32  1  0.243611  0.906430  0.947513  1
  O  O33  1  0.662819  0.756389  0.947513  1
  O  O34  1  0.093570  0.337181  0.552487  1
  O  O35  1  0.243611  0.906430  0.552487  1
  O  O36  1  0.662819  0.756389  0.552487  1
  O  O37  1  0.906430  0.662819  0.052487  1
  O  O38  1  0.756389  0.093570  0.052487  1
  O  O39  1  0.337181  0.243611  0.052487  1
  O  O40  1  0.000000  0.000000  0.250000  1
  O  O41  1  0.000000  0.000000  0.750000  1
