# generated using pymatgen
data_Ho12Fe2Ni2SnRu
_symmetry_space_group_name_H-M   'P 1'
_cell_length_a   8.27829185
_cell_length_b   8.27827695
_cell_length_c   8.27833409
_cell_angle_alpha   105.22562605
_cell_angle_beta   111.42455805
_cell_angle_gamma   111.84535454
_symmetry_Int_Tables_number   1
_chemical_formula_structural   Ho12Fe2Ni2SnRu
_chemical_formula_sum   'Ho12 Fe2 Ni2 Sn1 Ru1'
_cell_volume   434.93155266
_cell_formula_units_Z   1
loop_
 _symmetry_equiv_pos_site_id
 _symmetry_equiv_pos_as_xyz
  1  'x, y, z'
loop_
 _atom_site_type_symbol
 _atom_site_label
 _atom_site_symmetry_multiplicity
 _atom_site_fract_x
 _atom_site_fract_y
 _atom_site_fract_z
 _atom_site_occupancy
  Ho  Ho0  1  0.695177  0.282583  0.977773  1
  Ho  Ho1  1  0.304633  0.717221  0.021855  1
  Ho  Ho2  1  0.695180  0.717411  0.412607  1
  Ho  Ho3  1  0.304642  0.282800  0.587439  1
  Ho  Ho4  1  0.803945  0.120097  0.315980  1
  Ho  Ho5  1  0.803916  0.487931  0.683849  1
  Ho  Ho6  1  0.195919  0.879944  0.683843  1
  Ho  Ho7  1  0.195885  0.512038  0.315967  1
  Ho  Ho8  1  0.591249  0.777640  0.813605  1
  Ho  Ho9  1  0.963880  0.777755  0.186126  1
  Ho  Ho10  1  0.035950  0.222342  0.813603  1
  Ho  Ho11  1  0.408345  0.222225  0.186120  1
  Fe  Fe12  1  0.882970  0.500046  0.382964  1
  Fe  Fe13  1  0.118581  0.500023  0.618608  1
  Ni  Ni14  1  0.999858  0.114009  0.113893  1
  Ni  Ni15  1  0.999896  0.885958  0.885890  1
  Sn  Sn16  1  0.500005  0.000019  0.499869  1
  Ru  Ru17  1  0.499966  0.499957  0.000007  1
