# generated using pymatgen
data_TbTlBr4
_symmetry_space_group_name_H-M   'P 1'
_cell_length_a   7.81886700
_cell_length_b   7.24890900
_cell_length_c   18.71435100
_cell_angle_alpha   90.00000000
_cell_angle_beta   90.00000000
_cell_angle_gamma   90.00000000
_symmetry_Int_Tables_number   1
_chemical_formula_structural   TbTlBr4
_chemical_formula_sum   'Tb4 Tl4 Br16'
_cell_volume   1060.69676499
_cell_formula_units_Z   4
loop_
 _symmetry_equiv_pos_site_id
 _symmetry_equiv_pos_as_xyz
  1  'x, y, z'
loop_
 _atom_site_type_symbol
 _atom_site_label
 _atom_site_symmetry_multiplicity
 _atom_site_fract_x
 _atom_site_fract_y
 _atom_site_fract_z
 _atom_site_occupancy
  Tb  Tb0  1  0.000000  0.250000  0.067322  1
  Tb  Tb1  1  0.500000  0.250000  0.567322  1
  Tb  Tb2  1  0.000000  0.750000  0.932678  1
  Tb  Tb3  1  0.500000  0.750000  0.432678  1
  Tl  Tl4  1  0.000000  0.250000  0.316616  1
  Tl  Tl5  1  0.500000  0.750000  0.183384  1
  Tl  Tl6  1  0.000000  0.750000  0.683384  1
  Tl  Tl7  1  0.500000  0.250000  0.816616  1
  Br  Br8  1  0.283694  0.620077  0.327346  1
  Br  Br9  1  0.797486  0.429268  0.955462  1
  Br  Br10  1  0.297486  0.570732  0.544538  1
  Br  Br11  1  0.702514  0.929268  0.544538  1
  Br  Br12  1  0.783694  0.379923  0.172654  1
  Br  Br13  1  0.216306  0.620077  0.827346  1
  Br  Br14  1  0.716306  0.879923  0.327346  1
  Br  Br15  1  0.216306  0.120077  0.172654  1
  Br  Br16  1  0.283694  0.120077  0.672654  1
  Br  Br17  1  0.716306  0.379923  0.672654  1
  Br  Br18  1  0.202514  0.570732  0.044538  1
  Br  Br19  1  0.783694  0.879923  0.827346  1
  Br  Br20  1  0.797486  0.929268  0.044538  1
  Br  Br21  1  0.297486  0.070732  0.455462  1
  Br  Br22  1  0.702514  0.429268  0.455462  1
  Br  Br23  1  0.202514  0.070732  0.955462  1
