# generated using pymatgen
data_TbDyNb3P7Rh9
_symmetry_space_group_name_H-M   'P 1'
_cell_length_a   3.92882100
_cell_length_b   9.64693094
_cell_length_c   9.64699229
_cell_angle_alpha   119.99945329
_cell_angle_beta   89.99986899
_cell_angle_gamma   90.00052256
_symmetry_Int_Tables_number   1
_chemical_formula_structural   TbDyNb3P7Rh9
_chemical_formula_sum   'Tb1 Dy1 Nb3 P7 Rh9'
_cell_volume   316.64772174
_cell_formula_units_Z   1
loop_
 _symmetry_equiv_pos_site_id
 _symmetry_equiv_pos_as_xyz
  1  'x, y, z'
loop_
 _atom_site_type_symbol
 _atom_site_label
 _atom_site_symmetry_multiplicity
 _atom_site_fract_x
 _atom_site_fract_y
 _atom_site_fract_z
 _atom_site_occupancy
  Tb  Tb0  1  0.260867  0.666643  0.333433  1
  Dy  Dy1  1  0.762032  0.333343  0.666615  1
  Nb  Nb2  1  0.762196  0.095169  0.873864  1
  Nb  Nb3  1  0.762195  0.126066  0.221220  1
  Nb  Nb4  1  0.762216  0.778584  0.904716  1
  P  P5  1  0.262555  0.000036  0.999992  1
  P  P6  1  0.761535  0.876997  0.589984  1
  P  P7  1  0.761501  0.410152  0.287015  1
  P  P8  1  0.761520  0.713051  0.123285  1
  P  P9  1  0.262352  0.117087  0.416454  1
  P  P10  1  0.262369  0.583482  0.700634  1
  P  P11  1  0.262350  0.299348  0.882889  1
  Rh  Rh12  1  0.261882  0.883620  0.162633  1
  Rh  Rh13  1  0.261897  0.837303  0.721036  1
  Rh  Rh14  1  0.261885  0.279039  0.116372  1
  Rh  Rh15  1  0.761813  0.610217  0.556688  1
  Rh  Rh16  1  0.761809  0.443227  0.053429  1
  Rh  Rh17  1  0.761816  0.946594  0.389740  1
  Rh  Rh18  1  0.261740  0.367941  0.439157  1
  Rh  Rh19  1  0.261734  0.560820  0.928688  1
  Rh  Rh20  1  0.261737  0.071283  0.632152  1
