# generated using pymatgen
data_Cs3K9Al2(GaTe6)2
_symmetry_space_group_name_H-M   'P 1'
_cell_length_a   14.61305320
_cell_length_b   8.89548639
_cell_length_c   11.35888413
_cell_angle_alpha   53.02696409
_cell_angle_beta   89.58589987
_cell_angle_gamma   89.42056433
_symmetry_Int_Tables_number   1
_chemical_formula_structural   Cs3K9Al2(GaTe6)2
_chemical_formula_sum   'Cs3 K9 Al2 Ga2 Te12'
_cell_volume   1179.57683525
_cell_formula_units_Z   1
loop_
 _symmetry_equiv_pos_site_id
 _symmetry_equiv_pos_as_xyz
  1  'x, y, z'
loop_
 _atom_site_type_symbol
 _atom_site_label
 _atom_site_symmetry_multiplicity
 _atom_site_fract_x
 _atom_site_fract_y
 _atom_site_fract_z
 _atom_site_occupancy
  Cs  Cs0  1  0.312154  0.154823  0.065461  1
  Cs  Cs1  1  0.685952  0.847347  0.933914  1
  Cs  Cs2  1  0.814974  0.847222  0.435710  1
  K  K3  1  0.896056  0.315993  0.404127  1
  K  K4  1  0.610509  0.359786  0.475445  1
  K  K5  1  0.111232  0.640242  0.025051  1
  K  K6  1  0.387802  0.640551  0.525230  1
  K  K7  1  0.890514  0.360298  0.974553  1
  K  K8  1  0.606599  0.314419  0.904544  1
  K  K9  1  0.106944  0.684663  0.596054  1
  K  K10  1  0.392758  0.685620  0.094940  1
  K  K11  1  0.188428  0.148744  0.572786  1
  Al  Al12  1  0.432444  0.954101  0.655917  1
  Al  Al13  1  0.936193  0.051284  0.841205  1
  Ga  Ga14  1  0.067600  0.942910  0.159382  1
  Ga  Ga15  1  0.563737  0.051620  0.341899  1
  Te  Te16  1  0.403013  0.189014  0.363001  1
  Te  Te17  1  0.906615  0.816273  0.135637  1
  Te  Te18  1  0.591169  0.813173  0.639522  1
  Te  Te19  1  0.096616  0.179225  0.858762  1
  Te  Te20  1  0.688448  0.319952  0.200762  1
  Te  Te21  1  0.189622  0.663888  0.306419  1
  Te  Te22  1  0.304730  0.695876  0.792460  1
  Te  Te23  1  0.810890  0.318544  0.701892  1
  Te  Te24  1  0.551786  0.858514  0.237011  1
  Te  Te25  1  0.055929  0.140690  0.261334  1
  Te  Te26  1  0.446678  0.143085  0.762566  1
  Te  Te27  1  0.950606  0.862139  0.734414  1
