# generated using pymatgen
data_Rb4SmUTe6
_symmetry_space_group_name_H-M   'P 1'
_cell_length_a   8.24215655
_cell_length_b   8.24215658
_cell_length_c   8.96402508
_cell_angle_alpha   81.03262517
_cell_angle_beta   81.03262628
_cell_angle_gamma   120.02403047
_symmetry_Int_Tables_number   1
_chemical_formula_structural   Rb4SmUTe6
_chemical_formula_sum   'Rb4 Sm1 U1 Te6'
_cell_volume   500.94811699
_cell_formula_units_Z   1
loop_
 _symmetry_equiv_pos_site_id
 _symmetry_equiv_pos_as_xyz
  1  'x, y, z'
loop_
 _atom_site_type_symbol
 _atom_site_label
 _atom_site_symmetry_multiplicity
 _atom_site_fract_x
 _atom_site_fract_y
 _atom_site_fract_z
 _atom_site_occupancy
  Rb  Rb0  1  0.500019  0.499981  0.000000  1
  Rb  Rb1  1  0.655196  0.344804  0.500000  1
  Rb  Rb2  1  0.344999  0.655001  0.500000  1
  Rb  Rb3  1  0.999810  0.000190  0.500000  1
  Sm  Sm4  1  0.832276  0.167724  0.000000  1
  U  U5  1  0.167702  0.832298  0.000000  1
  Te  Te6  1  0.815063  0.801581  0.201773  1
  Te  Te7  1  0.198419  0.184937  0.798227  1
  Te  Te8  1  0.416765  0.045994  0.204377  1
  Te  Te9  1  0.555567  0.939823  0.795088  1
  Te  Te10  1  0.954006  0.583235  0.795623  1
  Te  Te11  1  0.060177  0.444433  0.204912  1
