# generated using pymatgen
data_Yb3Sc5Re2(B12Ir)2
_symmetry_space_group_name_H-M   'P 1'
_cell_length_a   3.53304100
_cell_length_b   8.97492752
_cell_length_c   11.34963046
_cell_angle_alpha   90.15998023
_cell_angle_beta   90.00000000
_cell_angle_gamma   90.00000000
_symmetry_Int_Tables_number   1
_chemical_formula_structural   Yb3Sc5Re2(B12Ir)2
_chemical_formula_sum   'Yb3 Sc5 Re2 B24 Ir2'
_cell_volume   359.88161111
_cell_formula_units_Z   1
loop_
 _symmetry_equiv_pos_site_id
 _symmetry_equiv_pos_as_xyz
  1  'x, y, z'
loop_
 _atom_site_type_symbol
 _atom_site_label
 _atom_site_symmetry_multiplicity
 _atom_site_fract_x
 _atom_site_fract_y
 _atom_site_fract_z
 _atom_site_occupancy
  Yb  Yb0  1  0.500000  0.320341  0.413722  1
  Yb  Yb1  1  0.500000  0.679360  0.586436  1
  Yb  Yb2  1  0.500000  0.177507  0.915487  1
  Sc  Sc3  1  0.500000  0.829208  0.079724  1
  Sc  Sc4  1  0.500000  0.441560  0.126998  1
  Sc  Sc5  1  0.500000  0.558902  0.873404  1
  Sc  Sc6  1  0.500000  0.052931  0.630023  1
  Sc  Sc7  1  0.500000  0.946577  0.370390  1
  Re  Re8  1  0.500000  0.137297  0.181457  1
  Re  Re9  1  0.500000  0.859441  0.820308  1
  B  B10  1  0.000000  0.095431  0.474521  1
  B  B11  1  0.000000  0.903519  0.526007  1
  B  B12  1  0.000000  0.403661  0.973858  1
  B  B13  1  0.000000  0.599253  0.027322  1
  B  B14  1  0.000000  0.128723  0.317602  1
  B  B15  1  0.000000  0.869583  0.683338  1
  B  B16  1  0.000000  0.370518  0.817481  1
  B  B17  1  0.000000  0.630821  0.181106  1
  B  B18  1  0.000000  0.051746  0.066814  1
  B  B19  1  0.000000  0.945719  0.934720  1
  B  B20  1  0.000000  0.445203  0.566949  1
  B  B21  1  0.000000  0.555345  0.432290  1
  B  B22  1  0.000000  0.481819  0.285920  1
  B  B23  1  0.000000  0.518158  0.713517  1
  B  B24  1  0.000000  0.019006  0.787256  1
  B  B25  1  0.000000  0.978640  0.212611  1
  B  B26  1  0.000000  0.252670  0.081225  1
  B  B27  1  0.000000  0.747000  0.921406  1
  B  B28  1  0.000000  0.246848  0.581802  1
  B  B29  1  0.000000  0.753128  0.418047  1
  B  B30  1  0.000000  0.294477  0.235448  1
  B  B31  1  0.000000  0.704389  0.765515  1
  B  B32  1  0.000000  0.205999  0.736081  1
  B  B33  1  0.000000  0.794366  0.262691  1
  Ir  Ir34  1  0.500000  0.359643  0.681501  1
  Ir  Ir35  1  0.500000  0.641212  0.317025  1
