# generated using pymatgen
data_Yb3CdAg5
_symmetry_space_group_name_H-M   'P 1'
_cell_length_a   7.73924200
_cell_length_b   7.75700004
_cell_length_c   4.01059800
_cell_angle_alpha   90.00000000
_cell_angle_beta   90.00000000
_cell_angle_gamma   119.92430821
_symmetry_Int_Tables_number   1
_chemical_formula_structural   Yb3CdAg5
_chemical_formula_sum   'Yb3 Cd1 Ag5'
_cell_volume   208.67130180
_cell_formula_units_Z   1
loop_
 _symmetry_equiv_pos_site_id
 _symmetry_equiv_pos_as_xyz
  1  'x, y, z'
loop_
 _atom_site_type_symbol
 _atom_site_label
 _atom_site_symmetry_multiplicity
 _atom_site_fract_x
 _atom_site_fract_y
 _atom_site_fract_z
 _atom_site_occupancy
  Yb  Yb0  1  0.991631  0.590320  0.000000  1
  Yb  Yb1  1  0.401311  0.409680  0.000000  1
  Yb  Yb2  1  0.613484  0.000000  0.000000  1
  Cd  Cd3  1  0.261676  0.000000  0.500000  1
  Ag  Ag4  1  0.736214  0.738795  0.500000  1
  Ag  Ag5  1  0.997419  0.261205  0.500000  1
  Ag  Ag6  1  0.004834  0.000000  0.000000  1
  Ag  Ag7  1  0.663089  0.332746  0.500000  1
  Ag  Ag8  1  0.330342  0.667254  0.500000  1
