# generated using pymatgen
data_Tb2Pr8CdSi4Ge
_symmetry_space_group_name_H-M   'P 1'
_cell_length_a   7.73558300
_cell_length_b   9.30235874
_cell_length_c   7.73558300
_cell_angle_alpha   114.56884113
_cell_angle_beta   90.00000000
_cell_angle_gamma   114.56884113
_symmetry_Int_Tables_number   1
_chemical_formula_structural   Tb2Pr8CdSi4Ge
_chemical_formula_sum   'Tb2 Pr8 Cd1 Si4 Ge1'
_cell_volume   450.24501542
_cell_formula_units_Z   1
loop_
 _symmetry_equiv_pos_site_id
 _symmetry_equiv_pos_as_xyz
  1  'x, y, z'
loop_
 _atom_site_type_symbol
 _atom_site_label
 _atom_site_symmetry_multiplicity
 _atom_site_fract_x
 _atom_site_fract_y
 _atom_site_fract_z
 _atom_site_occupancy
  Tb  Tb0  1  0.980578  0.961157  0.980578  1
  Tb  Tb1  1  0.519422  0.038843  0.519422  1
  Pr  Pr2  1  0.525975  0.721193  0.671976  1
  Pr  Pr3  1  0.195220  0.721193  0.049218  1
  Pr  Pr4  1  0.671976  0.721193  0.195220  1
  Pr  Pr5  1  0.049218  0.721193  0.525975  1
  Pr  Pr6  1  0.450782  0.278807  0.304780  1
  Pr  Pr7  1  0.828024  0.278807  0.974025  1
  Pr  Pr8  1  0.304780  0.278807  0.828024  1
  Pr  Pr9  1  0.974025  0.278807  0.450782  1
  Cd  Cd10  1  0.750000  0.500000  0.750000  1
  Si  Si11  1  0.882654  0.000000  0.617346  1
  Si  Si12  1  0.117346  0.000000  0.382654  1
  Si  Si13  1  0.617346  0.000000  0.117346  1
  Si  Si14  1  0.382654  0.000000  0.882654  1
  Ge  Ge15  1  0.250000  0.500000  0.250000  1
