# generated using pymatgen
data_Ti(PSe3)2
_symmetry_space_group_name_H-M   'P 1'
_cell_length_a   6.47811392
_cell_length_b   6.47811500
_cell_length_c   7.63221839
_cell_angle_alpha   82.16599117
_cell_angle_beta   82.16599501
_cell_angle_gamma   119.97939423
_symmetry_Int_Tables_number   1
_chemical_formula_structural   Ti(PSe3)2
_chemical_formula_sum   'Ti1 P2 Se6'
_cell_volume   266.93857400
_cell_formula_units_Z   1
loop_
 _symmetry_equiv_pos_site_id
 _symmetry_equiv_pos_as_xyz
  1  'x, y, z'
loop_
 _atom_site_type_symbol
 _atom_site_label
 _atom_site_symmetry_multiplicity
 _atom_site_fract_x
 _atom_site_fract_y
 _atom_site_fract_z
 _atom_site_occupancy
  Ti  Ti0  1  0.666741  0.333259  0.000000  1
  P  P1  1  0.951541  0.951668  0.150386  1
  P  P2  1  0.048332  0.048459  0.849614  1
  Se  Se3  1  0.866913  0.567995  0.234678  1
  Se  Se4  1  0.776642  0.718822  0.765331  1
  Se  Se5  1  0.432005  0.133087  0.765322  1
  Se  Se6  1  0.625818  0.982367  0.235356  1
  Se  Se7  1  0.017633  0.374182  0.764644  1
  Se  Se8  1  0.281178  0.223358  0.234669  1
