# generated using pymatgen
data_Ho10In2GaSi3
_symmetry_space_group_name_H-M   'P 1'
_cell_length_a   7.72621300
_cell_length_b   7.72403869
_cell_length_c   13.85734883
_cell_angle_alpha   90.09567362
_cell_angle_beta   90.00000000
_cell_angle_gamma   90.00000000
_symmetry_Int_Tables_number   1
_chemical_formula_structural   Ho10In2GaSi3
_chemical_formula_sum   'Ho20 In4 Ga2 Si6'
_cell_volume   826.97172632
_cell_formula_units_Z   2
loop_
 _symmetry_equiv_pos_site_id
 _symmetry_equiv_pos_as_xyz
  1  'x, y, z'
loop_
 _atom_site_type_symbol
 _atom_site_label
 _atom_site_symmetry_multiplicity
 _atom_site_fract_x
 _atom_site_fract_y
 _atom_site_fract_z
 _atom_site_occupancy
  Ho  Ho0  1  0.001887  0.501472  0.754894  1
  Ho  Ho1  1  0.998113  0.501472  0.254894  1
  Ho  Ho2  1  0.501384  0.998911  0.245161  1
  Ho  Ho3  1  0.498616  0.998911  0.745161  1
  Ho  Ho4  1  0.668260  0.665416  0.610119  1
  Ho  Ho5  1  0.669932  0.336561  0.108987  1
  Ho  Ho6  1  0.832708  0.837728  0.388831  1
  Ho  Ho7  1  0.167292  0.837728  0.888831  1
  Ho  Ho8  1  0.330068  0.336561  0.608987  1
  Ho  Ho9  1  0.331740  0.665416  0.110119  1
  Ho  Ho10  1  0.163626  0.159849  0.390119  1
  Ho  Ho11  1  0.836374  0.159849  0.890119  1
  Ho  Ho12  1  0.665043  0.331994  0.391037  1
  Ho  Ho13  1  0.334957  0.331994  0.891037  1
  Ho  Ho14  1  0.162877  0.833491  0.611150  1
  Ho  Ho15  1  0.837123  0.833491  0.111150  1
  Ho  Ho16  1  0.336381  0.670206  0.389847  1
  Ho  Ho17  1  0.663619  0.670206  0.889847  1
  Ho  Ho18  1  0.840776  0.164422  0.609876  1
  Ho  Ho19  1  0.159224  0.164422  0.109876  1
  In  In20  1  0.000239  0.500959  0.498741  1
  In  In21  1  0.999761  0.500959  0.998741  1
  In  In22  1  0.500124  0.999683  0.501292  1
  In  In23  1  0.499876  0.999683  0.001292  1
  Ga  Ga24  1  0.368390  0.368061  0.250008  1
  Ga  Ga25  1  0.631610  0.368061  0.750008  1
  Si  Si26  1  0.866184  0.866386  0.749905  1
  Si  Si27  1  0.865711  0.134575  0.250086  1
  Si  Si28  1  0.630324  0.630286  0.249947  1
  Si  Si29  1  0.369676  0.630286  0.749947  1
  Si  Si30  1  0.134289  0.134575  0.750086  1
  Si  Si31  1  0.133816  0.866386  0.249905  1
