# generated using pymatgen
data_CePRh2Au
_symmetry_space_group_name_H-M   'P 1'
_cell_length_a   3.95162500
_cell_length_b   3.95162500
_cell_length_c   11.36964800
_cell_angle_alpha   90.00000000
_cell_angle_beta   90.00000000
_cell_angle_gamma   90.00000000
_symmetry_Int_Tables_number   1
_chemical_formula_structural   CePRh2Au
_chemical_formula_sum   'Ce2 P2 Rh4 Au2'
_cell_volume   177.54092080
_cell_formula_units_Z   2
loop_
 _symmetry_equiv_pos_site_id
 _symmetry_equiv_pos_as_xyz
  1  'x, y, z'
loop_
 _atom_site_type_symbol
 _atom_site_label
 _atom_site_symmetry_multiplicity
 _atom_site_fract_x
 _atom_site_fract_y
 _atom_site_fract_z
 _atom_site_occupancy
  Ce  Ce0  1  0.500000  0.000000  0.750170  1
  Ce  Ce1  1  0.000000  0.500000  0.249830  1
  P  P2  1  0.500000  0.000000  0.117765  1
  P  P3  1  0.000000  0.500000  0.882235  1
  Rh  Rh4  1  0.000000  0.500000  0.683019  1
  Rh  Rh5  1  0.500000  0.000000  0.316981  1
  Rh  Rh6  1  0.000000  0.000000  0.000000  1
  Rh  Rh7  1  0.500000  0.500000  0.000000  1
  Au  Au8  1  0.500000  0.500000  0.500000  1
  Au  Au9  1  0.000000  0.000000  0.500000  1
