# generated using pymatgen
data_Nd12Si7Ni4P
_symmetry_space_group_name_H-M   'P 1'
_cell_length_a   4.21026700
_cell_length_b   11.72284275
_cell_length_c   11.64761446
_cell_angle_alpha   90.16137348
_cell_angle_beta   90.00000000
_cell_angle_gamma   90.00000000
_symmetry_Int_Tables_number   1
_chemical_formula_structural   Nd12Si7Ni4P
_chemical_formula_sum   'Nd12 Si7 Ni4 P1'
_cell_volume   574.88084981
_cell_formula_units_Z   1
loop_
 _symmetry_equiv_pos_site_id
 _symmetry_equiv_pos_as_xyz
  1  'x, y, z'
loop_
 _atom_site_type_symbol
 _atom_site_label
 _atom_site_symmetry_multiplicity
 _atom_site_fract_x
 _atom_site_fract_y
 _atom_site_fract_z
 _atom_site_occupancy
  Nd  Nd0  1  0.250000  0.377075  0.058750  1
  Nd  Nd1  1  0.750000  0.621819  0.936498  1
  Nd  Nd2  1  0.750000  0.876022  0.438928  1
  Nd  Nd3  1  0.250000  0.124219  0.561176  1
  Nd  Nd4  1  0.250000  0.696710  0.209864  1
  Nd  Nd5  1  0.750000  0.304740  0.791511  1
  Nd  Nd6  1  0.750000  0.196487  0.290243  1
  Nd  Nd7  1  0.250000  0.806514  0.708726  1
  Nd  Nd8  1  0.250000  0.440477  0.383119  1
  Nd  Nd9  1  0.750000  0.559637  0.617044  1
  Nd  Nd10  1  0.750000  0.940624  0.115049  1
  Nd  Nd11  1  0.250000  0.058436  0.885015  1
  Si  Si12  1  0.250000  0.684901  0.470824  1
  Si  Si13  1  0.750000  0.315239  0.532399  1
  Si  Si14  1  0.750000  0.187476  0.030406  1
  Si  Si15  1  0.250000  0.811746  0.968747  1
  Si  Si16  1  0.250000  0.008468  0.299863  1
  Si  Si17  1  0.750000  0.993033  0.700846  1
  Si  Si18  1  0.750000  0.510957  0.196888  1
  Ni  Ni19  1  0.250000  0.135860  0.130529  1
  Ni  Ni20  1  0.750000  0.862928  0.868809  1
  Ni  Ni21  1  0.750000  0.633437  0.371730  1
  Ni  Ni22  1  0.250000  0.365495  0.631703  1
  P  P23  1  0.250000  0.487700  0.801333  1
