# generated using pymatgen
data_Sr4HoTmNbMoO12
_symmetry_space_group_name_H-M   'P 1'
_cell_length_a   5.82869507
_cell_length_b   8.29992251
_cell_length_c   5.87697000
_cell_angle_alpha   89.91469749
_cell_angle_beta   90.08266991
_cell_angle_gamma   90.66170934
_symmetry_Int_Tables_number   1
_chemical_formula_structural   Sr4HoTmNbMoO12
_chemical_formula_sum   'Sr4 Ho1 Tm1 Nb1 Mo1 O12'
_cell_volume   284.29482904
_cell_formula_units_Z   1
loop_
 _symmetry_equiv_pos_site_id
 _symmetry_equiv_pos_as_xyz
  1  'x, y, z'
loop_
 _atom_site_type_symbol
 _atom_site_label
 _atom_site_symmetry_multiplicity
 _atom_site_fract_x
 _atom_site_fract_y
 _atom_site_fract_z
 _atom_site_occupancy
  Sr  Sr0  1  0.494300  0.249673  0.534416  1
  Sr  Sr1  1  0.007065  0.247318  0.034412  1
  Sr  Sr2  1  0.992933  0.752684  0.965583  1
  Sr  Sr3  1  0.505695  0.750326  0.465590  1
  Ho  Ho4  1  0.999998  0.500004  0.499982  1
  Tm  Tm5  1  0.499996  0.000000  0.000001  1
  Nb  Nb6  1  0.000000  0.999997  0.500001  1
  Mo  Mo7  1  0.500012  0.500000  0.000009  1
  O  O8  1  0.770674  0.536724  0.194172  1
  O  O9  1  0.229324  0.463275  0.805823  1
  O  O10  1  0.274737  0.038508  0.297869  1
  O  O11  1  0.725264  0.961494  0.702137  1
  O  O12  1  0.577491  0.261547  0.981405  1
  O  O13  1  0.923125  0.236830  0.479327  1
  O  O14  1  0.076874  0.763170  0.520677  1
  O  O15  1  0.422506  0.738452  0.018596  1
  O  O16  1  0.300430  0.456817  0.277867  1
  O  O17  1  0.799881  0.957126  0.223432  1
  O  O18  1  0.200119  0.042875  0.776569  1
  O  O19  1  0.699573  0.543182  0.722134  1
