# generated using pymatgen
data_Y12Tc2OsPd
_symmetry_space_group_name_H-M   'P 1'
_cell_length_a   6.37403911
_cell_length_b   7.43274005
_cell_length_c   9.23345200
_cell_angle_alpha   90.00000000
_cell_angle_beta   90.00000000
_cell_angle_gamma   90.29377630
_symmetry_Int_Tables_number   1
_chemical_formula_structural   Y12Tc2OsPd
_chemical_formula_sum   'Y12 Tc2 Os1 Pd1'
_cell_volume   437.44358827
_cell_formula_units_Z   1
loop_
 _symmetry_equiv_pos_site_id
 _symmetry_equiv_pos_as_xyz
  1  'x, y, z'
loop_
 _atom_site_type_symbol
 _atom_site_label
 _atom_site_symmetry_multiplicity
 _atom_site_fract_x
 _atom_site_fract_y
 _atom_site_fract_z
 _atom_site_occupancy
  Y  Y0  1  0.627352  0.044677  0.250000  1
  Y  Y1  1  0.368365  0.957574  0.750000  1
  Y  Y2  1  0.128360  0.461789  0.750000  1
  Y  Y3  1  0.868109  0.534597  0.250000  1
  Y  Y4  1  0.166357  0.183590  0.058400  1
  Y  Y5  1  0.827326  0.822692  0.930672  1
  Y  Y6  1  0.666858  0.322481  0.935678  1
  Y  Y7  1  0.827326  0.822692  0.569328  1
  Y  Y8  1  0.339907  0.671131  0.058816  1
  Y  Y9  1  0.166357  0.183590  0.441600  1
  Y  Y10  1  0.339907  0.671131  0.441184  1
  Y  Y11  1  0.666858  0.322481  0.564322  1
  Tc  Tc12  1  0.457196  0.385943  0.250000  1
  Tc  Tc13  1  0.963312  0.113318  0.750000  1
  Os  Os14  1  0.537879  0.615848  0.750000  1
  Pd  Pd15  1  0.048528  0.886466  0.250000  1
