# generated using pymatgen
data_Ho5Tl2Bi
_symmetry_space_group_name_H-M   'P 1'
_cell_length_a   8.99048138
_cell_length_b   8.98419316
_cell_length_c   6.64272500
_cell_angle_alpha   90.00000000
_cell_angle_beta   90.00000000
_cell_angle_gamma   119.97686117
_symmetry_Int_Tables_number   1
_chemical_formula_structural   Ho5Tl2Bi
_chemical_formula_sum   'Ho10 Tl4 Bi2'
_cell_volume   464.77220272
_cell_formula_units_Z   2
loop_
 _symmetry_equiv_pos_site_id
 _symmetry_equiv_pos_as_xyz
  1  'x, y, z'
loop_
 _atom_site_type_symbol
 _atom_site_label
 _atom_site_symmetry_multiplicity
 _atom_site_fract_x
 _atom_site_fract_y
 _atom_site_fract_z
 _atom_site_occupancy
  Ho  Ho0  1  0.670458  0.337932  0.006600  1
  Ho  Ho1  1  0.329542  0.667475  0.006600  1
  Ho  Ho2  1  0.329542  0.667475  0.493400  1
  Ho  Ho3  1  0.670458  0.337932  0.493400  1
  Ho  Ho4  1  0.769714  0.761098  0.750000  1
  Ho  Ho5  1  0.230286  0.991384  0.750000  1
  Ho  Ho6  1  0.000000  0.241032  0.750000  1
  Ho  Ho7  1  0.236333  0.236663  0.250000  1
  Ho  Ho8  1  0.763667  0.000330  0.250000  1
  Ho  Ho9  1  0.000000  0.762665  0.250000  1
  Tl  Tl10  1  0.000000  0.597426  0.750000  1
  Tl  Tl11  1  0.604295  0.606378  0.250000  1
  Tl  Tl12  1  0.395705  0.002083  0.250000  1
  Tl  Tl13  1  0.000000  0.396405  0.250000  1
  Bi  Bi14  1  0.394969  0.394347  0.750000  1
  Bi  Bi15  1  0.605031  0.999376  0.750000  1
