# generated using pymatgen
data_Er2Mg(Co3B2)3
_symmetry_space_group_name_H-M   'P 1'
_cell_length_a   5.75438689
_cell_length_b   5.75438797
_cell_length_c   5.75438727
_cell_angle_alpha   95.80873431
_cell_angle_beta   95.80873997
_cell_angle_gamma   95.80874374
_symmetry_Int_Tables_number   1
_chemical_formula_structural   Er2Mg(Co3B2)3
_chemical_formula_sum   'Er2 Mg1 Co9 B6'
_cell_volume   187.39364193
_cell_formula_units_Z   1
loop_
 _symmetry_equiv_pos_site_id
 _symmetry_equiv_pos_as_xyz
  1  'x, y, z'
loop_
 _atom_site_type_symbol
 _atom_site_label
 _atom_site_symmetry_multiplicity
 _atom_site_fract_x
 _atom_site_fract_y
 _atom_site_fract_z
 _atom_site_occupancy
  Er  Er0  1  0.675222  0.675222  0.675222  1
  Er  Er1  1  0.324778  0.324778  0.324778  1
  Mg  Mg2  1  0.000000  0.000000  0.000000  1
  Co  Co3  1  0.000000  0.000000  0.500000  1
  Co  Co4  1  0.500000  0.000000  0.000000  1
  Co  Co5  1  0.000000  0.500000  0.000000  1
  Co  Co6  1  0.701469  0.197642  0.701469  1
  Co  Co7  1  0.701469  0.701469  0.197642  1
  Co  Co8  1  0.197642  0.701469  0.701469  1
  Co  Co9  1  0.298531  0.802358  0.298531  1
  Co  Co10  1  0.298531  0.298531  0.802358  1
  Co  Co11  1  0.802358  0.298531  0.298531  1
  B  B12  1  0.619176  0.380824  0.000000  1
  B  B13  1  0.000000  0.619176  0.380824  1
  B  B14  1  0.380824  0.000000  0.619176  1
  B  B15  1  0.000000  0.380824  0.619176  1
  B  B16  1  0.619176  0.000000  0.380824  1
  B  B17  1  0.380824  0.619176  0.000000  1
