# generated using pymatgen
data_K2Bi3Pb
_symmetry_space_group_name_H-M   'P 1'
_cell_length_a   6.66951481
_cell_length_b   6.66951526
_cell_length_c   6.66951586
_cell_angle_alpha   62.17306261
_cell_angle_beta   62.17306098
_cell_angle_gamma   62.17306236
_symmetry_Int_Tables_number   1
_chemical_formula_structural   K2Bi3Pb
_chemical_formula_sum   'K2 Bi3 Pb1'
_cell_volume   219.96562521
_cell_formula_units_Z   1
loop_
 _symmetry_equiv_pos_site_id
 _symmetry_equiv_pos_as_xyz
  1  'x, y, z'
loop_
 _atom_site_type_symbol
 _atom_site_label
 _atom_site_symmetry_multiplicity
 _atom_site_fract_x
 _atom_site_fract_y
 _atom_site_fract_z
 _atom_site_occupancy
  K  K0  1  0.500447  0.500447  0.500447  1
  K  K1  1  0.749553  0.749553  0.749553  1
  Bi  Bi2  1  0.625000  0.125000  0.125000  1
  Bi  Bi3  1  0.125000  0.125000  0.625000  1
  Bi  Bi4  1  0.125000  0.625000  0.125000  1
  Pb  Pb5  1  0.125000  0.125000  0.125000  1
