# generated using pymatgen
data_TbSm3GaPd11Pt
_symmetry_space_group_name_H-M   'P 1'
_cell_length_a   7.39127945
_cell_length_b   7.36103633
_cell_length_c   7.45492700
_cell_angle_alpha   108.83232745
_cell_angle_beta   110.09428943
_cell_angle_gamma   109.58253645
_symmetry_Int_Tables_number   1
_chemical_formula_structural   TbSm3GaPd11Pt
_chemical_formula_sum   'Tb1 Sm3 Ga1 Pd11 Pt1'
_cell_volume   311.83675051
_cell_formula_units_Z   1
loop_
 _symmetry_equiv_pos_site_id
 _symmetry_equiv_pos_as_xyz
  1  'x, y, z'
loop_
 _atom_site_type_symbol
 _atom_site_label
 _atom_site_symmetry_multiplicity
 _atom_site_fract_x
 _atom_site_fract_y
 _atom_site_fract_z
 _atom_site_occupancy
  Tb  Tb0  1  0.000000  0.469794  0.976216  1
  Sm  Sm1  1  0.506141  0.975743  0.976140  1
  Sm  Sm2  1  0.000000  0.976497  0.469026  1
  Sm  Sm3  1  0.493859  0.469601  0.469998  1
  Ga  Ga4  1  0.000000  0.456193  0.456993  1
  Pd  Pd5  1  0.247641  0.964724  0.213498  1
  Pd  Pd6  1  0.000000  0.739990  0.744776  1
  Pd  Pd7  1  0.286152  0.764598  0.475107  1
  Pd  Pd8  1  0.713848  0.478447  0.188954  1
  Pd  Pd9  1  0.501965  0.227901  0.728744  1
  Pd  Pd10  1  0.713595  0.193332  0.482583  1
  Pd  Pd11  1  0.752359  0.717083  0.965856  1
  Pd  Pd12  1  0.752059  0.967405  0.718072  1
  Pd  Pd13  1  0.286405  0.479737  0.768987  1
  Pd  Pd14  1  0.498035  0.725936  0.226780  1
  Pd  Pd15  1  0.247941  0.215346  0.966013  1
  Pt  Pt16  1  0.000000  0.177670  0.172257  1
