# generated using pymatgen
data_LiY7Er9Cd3Pt4
_symmetry_space_group_name_H-M   'P 1'
_cell_length_a   9.64674449
_cell_length_b   9.64674473
_cell_length_c   9.64487903
_cell_angle_alpha   59.89823878
_cell_angle_beta   59.89824099
_cell_angle_gamma   60.02587254
_symmetry_Int_Tables_number   1
_chemical_formula_structural   LiY7Er9Cd3Pt4
_chemical_formula_sum   'Li1 Y7 Er9 Cd3 Pt4'
_cell_volume   633.80874661
_cell_formula_units_Z   1
loop_
 _symmetry_equiv_pos_site_id
 _symmetry_equiv_pos_as_xyz
  1  'x, y, z'
loop_
 _atom_site_type_symbol
 _atom_site_label
 _atom_site_symmetry_multiplicity
 _atom_site_fract_x
 _atom_site_fract_y
 _atom_site_fract_z
 _atom_site_occupancy
  Li  Li0  1  0.571965  0.571965  0.571976  1
  Y  Y1  1  0.812554  0.812554  0.187921  1
  Y  Y2  1  0.937043  0.563885  0.564856  1
  Y  Y3  1  0.562139  0.937210  0.936694  1
  Y  Y4  1  0.563885  0.937043  0.564856  1
  Y  Y5  1  0.937210  0.562139  0.936694  1
  Y  Y6  1  0.564201  0.564201  0.936920  1
  Y  Y7  1  0.936939  0.936939  0.562575  1
  Er  Er8  1  0.350802  0.350802  0.350983  1
  Er  Er9  1  0.352218  0.352218  0.944474  1
  Er  Er10  1  0.351650  0.944898  0.352388  1
  Er  Er11  1  0.944898  0.351650  0.352388  1
  Er  Er12  1  0.810081  0.191995  0.191432  1
  Er  Er13  1  0.188096  0.812763  0.812615  1
  Er  Er14  1  0.191995  0.810081  0.191432  1
  Er  Er15  1  0.812763  0.188096  0.812615  1
  Er  Er16  1  0.191505  0.191505  0.810200  1
  Cd  Cd17  1  0.581962  0.581962  0.254724  1
  Cd  Cd18  1  0.581991  0.254705  0.582000  1
  Cd  Cd19  1  0.254705  0.581991  0.582000  1
  Pt  Pt20  1  0.143858  0.143858  0.144061  1
  Pt  Pt21  1  0.142639  0.142639  0.571527  1
  Pt  Pt22  1  0.145011  0.569890  0.142335  1
  Pt  Pt23  1  0.569890  0.145011  0.142335  1
