# generated using pymatgen
data_Ca5Zr3Co15NiAs12
_symmetry_space_group_name_H-M   'P 1'
_cell_length_a   12.78806600
_cell_length_b   12.78806425
_cell_length_c   3.85874900
_cell_angle_alpha   90.00000000
_cell_angle_beta   90.00000000
_cell_angle_gamma   120.00000453
_symmetry_Int_Tables_number   1
_chemical_formula_structural   Ca5Zr3Co15NiAs12
_chemical_formula_sum   'Ca5 Zr3 Co15 Ni1 As12'
_cell_volume   546.49578971
_cell_formula_units_Z   1
loop_
 _symmetry_equiv_pos_site_id
 _symmetry_equiv_pos_as_xyz
  1  'x, y, z'
loop_
 _atom_site_type_symbol
 _atom_site_label
 _atom_site_symmetry_multiplicity
 _atom_site_fract_x
 _atom_site_fract_y
 _atom_site_fract_z
 _atom_site_occupancy
  Ca  Ca0  1  0.183027  0.183027  0.500000  1
  Ca  Ca1  1  0.816973  0.000000  0.500000  1
  Ca  Ca2  1  0.000000  0.816973  0.500000  1
  Ca  Ca3  1  0.333333  0.666667  0.000000  1
  Ca  Ca4  1  0.666667  0.333333  0.000000  1
  Zr  Zr5  1  0.560684  0.560684  0.000000  1
  Zr  Zr6  1  0.439316  0.000000  0.000000  1
  Zr  Zr7  1  0.000000  0.439316  0.000000  1
  Co  Co8  1  0.718982  0.718982  0.500000  1
  Co  Co9  1  0.281018  0.000000  0.500000  1
  Co  Co10  1  0.000000  0.281018  0.500000  1
  Co  Co11  1  0.178557  0.374584  0.000000  1
  Co  Co12  1  0.625416  0.803973  0.000000  1
  Co  Co13  1  0.196027  0.821443  0.000000  1
  Co  Co14  1  0.803973  0.625416  0.000000  1
  Co  Co15  1  0.821443  0.196027  0.000000  1
  Co  Co16  1  0.374584  0.178557  0.000000  1
  Co  Co17  1  0.358707  0.479414  0.500000  1
  Co  Co18  1  0.520586  0.879294  0.500000  1
  Co  Co19  1  0.120706  0.641293  0.500000  1
  Co  Co20  1  0.879294  0.520586  0.500000  1
  Co  Co21  1  0.641293  0.120706  0.500000  1
  Co  Co22  1  0.479414  0.358707  0.500000  1
  Ni  Ni23  1  0.000000  0.000000  0.000000  1
  As  As24  1  0.819807  0.819807  0.000000  1
  As  As25  1  0.180193  0.000000  0.000000  1
  As  As26  1  0.000000  0.180193  0.000000  1
  As  As27  1  0.173929  0.480836  0.500000  1
  As  As28  1  0.519164  0.693093  0.500000  1
  As  As29  1  0.306907  0.826071  0.500000  1
  As  As30  1  0.693093  0.519164  0.500000  1
  As  As31  1  0.826071  0.306907  0.500000  1
  As  As32  1  0.480836  0.173929  0.500000  1
  As  As33  1  0.352418  0.352418  0.000000  1
  As  As34  1  0.647582  0.000000  0.000000  1
  As  As35  1  0.000000  0.647582  0.000000  1
