# generated using pymatgen
data_Nd12NiOsPd2
_symmetry_space_group_name_H-M   'P 1'
_cell_length_a   6.54258800
_cell_length_b   7.39075586
_cell_length_c   9.94918400
_cell_angle_alpha   90.00000000
_cell_angle_beta   90.00000000
_cell_angle_gamma   90.15155876
_symmetry_Int_Tables_number   1
_chemical_formula_structural   Nd12NiOsPd2
_chemical_formula_sum   'Nd12 Ni1 Os1 Pd2'
_cell_volume   481.08783175
_cell_formula_units_Z   1
loop_
 _symmetry_equiv_pos_site_id
 _symmetry_equiv_pos_as_xyz
  1  'x, y, z'
loop_
 _atom_site_type_symbol
 _atom_site_label
 _atom_site_symmetry_multiplicity
 _atom_site_fract_x
 _atom_site_fract_y
 _atom_site_fract_z
 _atom_site_occupancy
  Nd  Nd0  1  0.329635  0.684166  0.060691  1
  Nd  Nd1  1  0.162327  0.168472  0.432811  1
  Nd  Nd2  1  0.664581  0.328042  0.564456  1
  Nd  Nd3  1  0.824927  0.817467  0.935990  1
  Nd  Nd4  1  0.664581  0.328042  0.935544  1
  Nd  Nd5  1  0.824927  0.817467  0.564010  1
  Nd  Nd6  1  0.329635  0.684166  0.439309  1
  Nd  Nd7  1  0.162327  0.168472  0.067189  1
  Nd  Nd8  1  0.870308  0.538178  0.250000  1
  Nd  Nd9  1  0.646715  0.028202  0.250000  1
  Nd  Nd10  1  0.141936  0.473408  0.750000  1
  Nd  Nd11  1  0.370215  0.960235  0.750000  1
  Ni  Ni12  1  0.072213  0.882514  0.250000  1
  Os  Os13  1  0.565881  0.617392  0.750000  1
  Pd  Pd14  1  0.431569  0.388549  0.250000  1
  Pd  Pd15  1  0.938224  0.115226  0.750000  1
