# generated using pymatgen
data_Li2TbP2Pd
_symmetry_space_group_name_H-M   'P 1'
_cell_length_a   4.08733800
_cell_length_b   4.08733840
_cell_length_c   6.63220300
_cell_angle_alpha   90.00000000
_cell_angle_beta   90.00000000
_cell_angle_gamma   119.99999679
_symmetry_Int_Tables_number   1
_chemical_formula_structural   Li2TbP2Pd
_chemical_formula_sum   'Li2 Tb1 P2 Pd1'
_cell_volume   95.95544072
_cell_formula_units_Z   1
loop_
 _symmetry_equiv_pos_site_id
 _symmetry_equiv_pos_as_xyz
  1  'x, y, z'
loop_
 _atom_site_type_symbol
 _atom_site_label
 _atom_site_symmetry_multiplicity
 _atom_site_fract_x
 _atom_site_fract_y
 _atom_site_fract_z
 _atom_site_occupancy
  Li  Li0  1  0.000000  0.000000  0.490032  1
  Li  Li1  1  0.333333  0.666667  0.353058  1
  Tb  Tb2  1  0.000000  0.000000  0.996706  1
  P  P3  1  0.666667  0.333333  0.259750  1
  P  P4  1  0.333333  0.666667  0.747292  1
  Pd  Pd5  1  0.666667  0.333333  0.653160  1
