# generated using pymatgen
data_Ni6AsIO12
_symmetry_space_group_name_H-M   'P 1'
_cell_length_a   5.12374550
_cell_length_b   5.45958672
_cell_length_c   8.87606230
_cell_angle_alpha   105.49349543
_cell_angle_beta   90.06310913
_cell_angle_gamma   117.99789656
_symmetry_Int_Tables_number   1
_chemical_formula_structural   Ni6AsIO12
_chemical_formula_sum   'Ni6 As1 I1 O12'
_cell_volume   208.92080617
_cell_formula_units_Z   1
loop_
 _symmetry_equiv_pos_site_id
 _symmetry_equiv_pos_as_xyz
  1  'x, y, z'
loop_
 _atom_site_type_symbol
 _atom_site_label
 _atom_site_symmetry_multiplicity
 _atom_site_fract_x
 _atom_site_fract_y
 _atom_site_fract_z
 _atom_site_occupancy
  Ni  Ni0  1  0.261189  0.532853  0.760823  1
  Ni  Ni1  1  0.756565  0.502102  0.243638  1
  Ni  Ni2  1  0.837521  0.666853  0.624272  1
  Ni  Ni3  1  0.317837  0.645260  0.096138  1
  Ni  Ni4  1  0.020415  0.041519  0.995885  1
  Ni  Ni5  1  0.523322  0.043254  0.518136  1
  As  As6  1  0.562530  0.128686  0.854982  1
  I  I7  1  0.058773  0.114197  0.352308  1
  O  O8  1  0.710687  0.858854  0.806297  1
  O  O9  1  0.222248  0.850289  0.306759  1
  O  O10  1  0.278272  0.859419  0.668853  1
  O  O11  1  0.777626  0.847889  0.162517  1
  O  O12  1  0.290633  0.865116  0.956721  1
  O  O13  1  0.782309  0.844623  0.454754  1
  O  O14  1  0.355218  0.335670  0.905008  1
  O  O15  1  0.845558  0.325730  0.401700  1
  O  O16  1  0.343223  0.330298  0.538811  1
  O  O17  1  0.850383  0.331601  0.036801  1
  O  O18  1  0.798250  0.333318  0.723914  1
  O  O19  1  0.302118  0.331830  0.223243  1
