# generated using pymatgen
data_Yb2Pr8Si7Ge
_symmetry_space_group_name_H-M   'P 1'
_cell_length_a   7.91950068
_cell_length_b   7.91992257
_cell_length_c   15.16635329
_cell_angle_alpha   89.93802986
_cell_angle_beta   89.93515304
_cell_angle_gamma   90.00601076
_symmetry_Int_Tables_number   1
_chemical_formula_structural   Yb2Pr8Si7Ge
_chemical_formula_sum   'Yb4 Pr16 Si14 Ge2'
_cell_volume   951.26029398
_cell_formula_units_Z   2
loop_
 _symmetry_equiv_pos_site_id
 _symmetry_equiv_pos_as_xyz
  1  'x, y, z'
loop_
 _atom_site_type_symbol
 _atom_site_label
 _atom_site_symmetry_multiplicity
 _atom_site_fract_x
 _atom_site_fract_y
 _atom_site_fract_z
 _atom_site_occupancy
  Yb  Yb0  1  0.309457  0.308310  0.000560  1
  Yb  Yb1  1  0.190728  0.809386  0.250262  1
  Yb  Yb2  1  0.808190  0.189995  0.749795  1
  Yb  Yb3  1  0.690060  0.690907  0.499518  1
  Pr  Pr4  1  0.377950  0.009758  0.447780  1
  Pr  Pr5  1  0.491486  0.876589  0.698040  1
  Pr  Pr6  1  0.510013  0.122317  0.198172  1
  Pr  Pr7  1  0.877944  0.490175  0.302238  1
  Pr  Pr8  1  0.120845  0.509649  0.801646  1
  Pr  Pr9  1  0.623699  0.991173  0.948430  1
  Pr  Pr10  1  0.008404  0.379216  0.550821  1
  Pr  Pr11  1  0.988933  0.622061  0.053071  1
  Pr  Pr12  1  0.124219  0.985626  0.876904  1
  Pr  Pr13  1  0.515816  0.625575  0.126763  1
  Pr  Pr14  1  0.485663  0.376120  0.626449  1
  Pr  Pr15  1  0.627550  0.514673  0.873533  1
  Pr  Pr16  1  0.375127  0.484436  0.373777  1
  Pr  Pr17  1  0.875124  0.015750  0.376321  1
  Pr  Pr18  1  0.983842  0.125110  0.124281  1
  Pr  Pr19  1  0.014023  0.873117  0.623028  1
  Si  Si20  1  0.667706  0.300730  0.451145  1
  Si  Si21  1  0.699335  0.332748  0.049134  1
  Si  Si22  1  0.300727  0.667980  0.548956  1
  Si  Si23  1  0.800942  0.831654  0.201519  1
  Si  Si24  1  0.168067  0.199472  0.299120  1
  Si  Si25  1  0.832955  0.800827  0.798831  1
  Si  Si26  1  0.288180  0.922621  0.061196  1
  Si  Si27  1  0.580212  0.788206  0.310064  1
  Si  Si28  1  0.422420  0.211322  0.811170  1
  Si  Si29  1  0.788150  0.580544  0.689951  1
  Si  Si30  1  0.211771  0.419914  0.190246  1
  Si  Si31  1  0.711492  0.080534  0.559989  1
  Si  Si32  1  0.920093  0.288411  0.940309  1
  Si  Si33  1  0.080819  0.712144  0.439918  1
  Ge  Ge34  1  0.196013  0.167276  0.698401  1
  Ge  Ge35  1  0.332043  0.695674  0.948664  1
