# generated using pymatgen
data_Sm8Si12AgRh3
_symmetry_space_group_name_H-M   'P 1'
_cell_length_a   8.24706700
_cell_length_b   8.24706629
_cell_length_c   8.29858300
_cell_angle_alpha   90.00000000
_cell_angle_beta   90.00000000
_cell_angle_gamma   119.99999883
_symmetry_Int_Tables_number   1
_chemical_formula_structural   Sm8Si12AgRh3
_chemical_formula_sum   'Sm8 Si12 Ag1 Rh3'
_cell_volume   488.80268997
_cell_formula_units_Z   1
loop_
 _symmetry_equiv_pos_site_id
 _symmetry_equiv_pos_as_xyz
  1  'x, y, z'
loop_
 _atom_site_type_symbol
 _atom_site_label
 _atom_site_symmetry_multiplicity
 _atom_site_fract_x
 _atom_site_fract_y
 _atom_site_fract_z
 _atom_site_occupancy
  Sm  Sm0  1  0.000000  0.000000  0.749207  1
  Sm  Sm1  1  0.000000  0.000000  0.251609  1
  Sm  Sm2  1  0.495328  0.504672  0.745124  1
  Sm  Sm3  1  0.495328  0.990659  0.745124  1
  Sm  Sm4  1  0.009341  0.504672  0.745124  1
  Sm  Sm5  1  0.498640  0.501360  0.254695  1
  Sm  Sm6  1  0.002723  0.501360  0.254695  1
  Sm  Sm7  1  0.498640  0.997277  0.254695  1
  Si  Si8  1  0.839418  0.160582  0.001184  1
  Si  Si9  1  0.839418  0.678836  0.001184  1
  Si  Si10  1  0.321164  0.160582  0.001184  1
  Si  Si11  1  0.832358  0.167642  0.499385  1
  Si  Si12  1  0.832358  0.664718  0.499385  1
  Si  Si13  1  0.335282  0.167642  0.499385  1
  Si  Si14  1  0.166006  0.833994  0.500818  1
  Si  Si15  1  0.667990  0.833994  0.500818  1
  Si  Si16  1  0.166006  0.332010  0.500818  1
  Si  Si17  1  0.168307  0.831693  0.999116  1
  Si  Si18  1  0.663385  0.831693  0.999116  1
  Si  Si19  1  0.168307  0.336615  0.999116  1
  Ag  Ag20  1  0.666667  0.333333  0.992683  1
  Rh  Rh21  1  0.666667  0.333333  0.506161  1
  Rh  Rh22  1  0.333333  0.666667  0.493490  1
  Rh  Rh23  1  0.333333  0.666667  0.005882  1
