# generated using pymatgen
data_YEr2Al12Os3Pd
_symmetry_space_group_name_H-M   'P 1'
_cell_length_a   8.79134700
_cell_length_b   8.83779611
_cell_length_c   9.56088220
_cell_angle_alpha   89.81377596
_cell_angle_beta   90.00000000
_cell_angle_gamma   119.82628974
_symmetry_Int_Tables_number   1
_chemical_formula_structural   YEr2Al12Os3Pd
_chemical_formula_sum   'Y2 Er4 Al24 Os6 Pd2'
_cell_volume   644.44000203
_cell_formula_units_Z   2
loop_
 _symmetry_equiv_pos_site_id
 _symmetry_equiv_pos_as_xyz
  1  'x, y, z'
loop_
 _atom_site_type_symbol
 _atom_site_label
 _atom_site_symmetry_multiplicity
 _atom_site_fract_x
 _atom_site_fract_y
 _atom_site_fract_z
 _atom_site_occupancy
  Y  Y0  1  0.192420  0.384840  0.253003  1
  Y  Y1  1  0.807580  0.615160  0.746997  1
  Er  Er2  1  0.611663  0.809667  0.254032  1
  Er  Er3  1  0.388337  0.190333  0.745968  1
  Er  Er4  1  0.198003  0.809667  0.254032  1
  Er  Er5  1  0.801997  0.190333  0.745968  1
  Al  Al6  1  0.335770  0.671542  0.026671  1
  Al  Al7  1  0.664230  0.328458  0.973329  1
  Al  Al8  1  0.666687  0.333372  0.521660  1
  Al  Al9  1  0.333313  0.666628  0.478340  1
  Al  Al10  1  0.163341  0.326682  0.575614  1
  Al  Al11  1  0.836659  0.673318  0.424386  1
  Al  Al12  1  0.672186  0.835284  0.576032  1
  Al  Al13  1  0.838677  0.677354  0.081086  1
  Al  Al14  1  0.327814  0.164716  0.423968  1
  Al  Al15  1  0.161323  0.322646  0.918914  1
  Al  Al16  1  0.163098  0.835284  0.576032  1
  Al  Al17  1  0.325615  0.157619  0.078696  1
  Al  Al18  1  0.836902  0.164716  0.423968  1
  Al  Al19  1  0.674385  0.842381  0.921304  1
  Al  Al20  1  0.832005  0.157619  0.078696  1
  Al  Al21  1  0.167995  0.842381  0.921304  1
  Al  Al22  1  0.561849  0.123699  0.248925  1
  Al  Al23  1  0.438151  0.876301  0.751075  1
  Al  Al24  1  0.875956  0.438753  0.251586  1
  Al  Al25  1  0.124044  0.561247  0.748414  1
  Al  Al26  1  0.562798  0.438753  0.251586  1
  Al  Al27  1  0.437202  0.561247  0.748414  1
  Al  Al28  1  0.000652  0.001304  0.250445  1
  Al  Al29  1  0.999348  0.998696  0.749555  1
  Os  Os30  1  0.500000  0.000000  0.000000  1
  Os  Os31  1  0.500000  0.000000  0.500000  1
  Os  Os32  1  0.000000  0.500000  0.500000  1
  Os  Os33  1  0.500000  0.500000  0.500000  1
  Os  Os34  1  0.000000  0.000000  0.000000  1
  Os  Os35  1  0.000000  0.000000  0.500000  1
  Pd  Pd36  1  0.000000  0.500000  0.000000  1
  Pd  Pd37  1  0.500000  0.500000  0.000000  1
