# generated using pymatgen
data_Dy9Tm(Bi3C)2
_symmetry_space_group_name_H-M   'P 1'
_cell_length_a   9.14763217
_cell_length_b   9.14763020
_cell_length_c   6.48834800
_cell_angle_alpha   90.00000000
_cell_angle_beta   90.00000000
_cell_angle_gamma   119.86690520
_symmetry_Int_Tables_number   1
_chemical_formula_structural   Dy9Tm(Bi3C)2
_chemical_formula_sum   'Dy9 Tm1 Bi6 C2'
_cell_volume   470.82872723
_cell_formula_units_Z   1
loop_
 _symmetry_equiv_pos_site_id
 _symmetry_equiv_pos_as_xyz
  1  'x, y, z'
loop_
 _atom_site_type_symbol
 _atom_site_label
 _atom_site_symmetry_multiplicity
 _atom_site_fract_x
 _atom_site_fract_y
 _atom_site_fract_z
 _atom_site_occupancy
  Dy  Dy0  1  0.666567  0.333144  0.000206  1
  Dy  Dy1  1  0.333144  0.666567  0.000206  1
  Dy  Dy2  1  0.333144  0.666567  0.499794  1
  Dy  Dy3  1  0.666567  0.333144  0.499794  1
  Dy  Dy4  1  0.208338  0.000032  0.750000  1
  Dy  Dy5  1  0.000032  0.208338  0.750000  1
  Dy  Dy6  1  0.207479  0.207479  0.250000  1
  Dy  Dy7  1  0.791417  0.999462  0.250000  1
  Dy  Dy8  1  0.999462  0.791417  0.250000  1
  Tm  Tm9  1  0.797979  0.797979  0.750000  1
  Bi  Bi10  1  0.401814  0.401814  0.750000  1
  Bi  Bi11  1  0.598701  0.998731  0.750000  1
  Bi  Bi12  1  0.998731  0.598701  0.750000  1
  Bi  Bi13  1  0.598214  0.598214  0.250000  1
  Bi  Bi14  1  0.401064  0.000161  0.250000  1
  Bi  Bi15  1  0.000161  0.401064  0.250000  1
  C  C16  1  0.998593  0.998593  0.998823  1
  C  C17  1  0.998593  0.998593  0.501177  1
