# generated using pymatgen
data_La15Tb5(TcSb2)4
_symmetry_space_group_name_H-M   'P 1'
_cell_length_a   8.31511160
_cell_length_b   9.29781550
_cell_length_c   12.65954437
_cell_angle_alpha   89.86149187
_cell_angle_beta   89.93061531
_cell_angle_gamma   89.83786738
_symmetry_Int_Tables_number   1
_chemical_formula_structural   La15Tb5(TcSb2)4
_chemical_formula_sum   'La15 Tb5 Tc4 Sb8'
_cell_volume   978.73193470
_cell_formula_units_Z   1
loop_
 _symmetry_equiv_pos_site_id
 _symmetry_equiv_pos_as_xyz
  1  'x, y, z'
loop_
 _atom_site_type_symbol
 _atom_site_label
 _atom_site_symmetry_multiplicity
 _atom_site_fract_x
 _atom_site_fract_y
 _atom_site_fract_z
 _atom_site_occupancy
  La  La0  1  0.147238  0.748948  0.202270  1
  La  La1  1  0.647750  0.251595  0.295912  1
  La  La2  1  0.851434  0.249046  0.795610  1
  La  La3  1  0.352871  0.749383  0.701968  1
  La  La4  1  0.449524  0.751832  0.995881  1
  La  La5  1  0.937910  0.251455  0.504910  1
  La  La6  1  0.552180  0.252341  0.002281  1
  La  La7  1  0.052980  0.748776  0.495065  1
  La  La8  1  0.621783  0.750572  0.309804  1
  La  La9  1  0.120019  0.248253  0.193808  1
  La  La10  1  0.383193  0.254795  0.689397  1
  La  La11  1  0.879841  0.749058  0.806880  1
  La  La12  1  0.820088  0.967259  0.066199  1
  La  La13  1  0.318703  0.034235  0.433866  1
  La  La14  1  0.179709  0.468097  0.933278  1
  Tb  Tb15  1  0.676567  0.539967  0.570621  1
  Tb  Tb16  1  0.179821  0.035482  0.930833  1
  Tb  Tb17  1  0.681929  0.961263  0.570792  1
  Tb  Tb18  1  0.820797  0.534218  0.070334  1
  Tb  Tb19  1  0.325180  0.463306  0.432526  1
  Tc  Tc20  1  0.426997  0.753449  0.489409  1
  Tc  Tc21  1  0.917538  0.238538  0.016440  1
  Tc  Tc22  1  0.576932  0.253353  0.514476  1
  Tc  Tc23  1  0.082811  0.738270  0.982673  1
  Sb  Sb24  1  0.923515  0.994052  0.329594  1
  Sb  Sb25  1  0.425380  0.006084  0.171667  1
  Sb  Sb26  1  0.069806  0.495393  0.669753  1
  Sb  Sb27  1  0.576969  0.507525  0.825634  1
  Sb  Sb28  1  0.072967  0.005072  0.672891  1
  Sb  Sb29  1  0.570382  0.996415  0.824762  1
  Sb  Sb30  1  0.927855  0.505268  0.326442  1
  Sb  Sb31  1  0.429332  0.496699  0.174024  1
