# generated using pymatgen
data_Ca3Sm5(IO6)4
_symmetry_space_group_name_H-M   'P 1'
_cell_length_a   5.54804204
_cell_length_b   7.84498654
_cell_length_c   11.67272837
_cell_angle_alpha   76.71879745
_cell_angle_beta   90.11601847
_cell_angle_gamma   90.05763749
_symmetry_Int_Tables_number   1
_chemical_formula_structural   Ca3Sm5(IO6)4
_chemical_formula_sum   'Ca3 Sm5 I4 O24'
_cell_volume   494.45832868
_cell_formula_units_Z   1
loop_
 _symmetry_equiv_pos_site_id
 _symmetry_equiv_pos_as_xyz
  1  'x, y, z'
loop_
 _atom_site_type_symbol
 _atom_site_label
 _atom_site_symmetry_multiplicity
 _atom_site_fract_x
 _atom_site_fract_y
 _atom_site_fract_z
 _atom_site_occupancy
  Ca  Ca0  1  0.192940  0.787754  0.579118  1
  Ca  Ca1  1  0.808880  0.782038  0.076583  1
  Ca  Ca2  1  0.195180  0.219598  0.918714  1
  Sm  Sm3  1  0.749305  0.005133  0.751994  1
  Sm  Sm4  1  0.255618  0.997418  0.247390  1
  Sm  Sm5  1  0.684417  0.498574  0.752330  1
  Sm  Sm6  1  0.311299  0.500896  0.247331  1
  Sm  Sm7  1  0.813948  0.213331  0.426608  1
  I  I8  1  0.260430  0.732923  0.884949  1
  I  I9  1  0.741983  0.731238  0.382415  1
  I  I10  1  0.260911  0.273247  0.616844  1
  I  I11  1  0.740353  0.266796  0.115187  1
  O  O12  1  0.079650  0.942682  0.888573  1
  O  O13  1  0.535668  0.838135  0.933944  1
  O  O14  1  0.925064  0.944236  0.382538  1
  O  O15  1  0.436641  0.799040  0.734429  1
  O  O16  1  0.469496  0.841360  0.430226  1
  O  O17  1  0.982277  0.699505  0.787402  1
  O  O18  1  0.556511  0.789714  0.232240  1
  O  O19  1  0.852441  0.646763  0.536393  1
  O  O20  1  0.372673  0.506758  0.886800  1
  O  O21  1  0.016804  0.703042  0.282120  1
  O  O22  1  0.374547  0.502686  0.611395  1
  O  O23  1  0.846014  0.350869  0.961277  1
  O  O24  1  0.156940  0.648359  0.043107  1
  O  O25  1  0.632506  0.502416  0.383492  1
  O  O26  1  0.969260  0.291407  0.729719  1
  O  O27  1  0.628536  0.491466  0.116079  1
  O  O28  1  0.166181  0.353395  0.447069  1
  O  O29  1  0.465454  0.217385  0.771027  1
  O  O30  1  0.013179  0.295473  0.221094  1
  O  O31  1  0.533107  0.149123  0.569214  1
  O  O32  1  0.554030  0.205218  0.269269  1
  O  O33  1  0.030446  0.055589  0.598762  1
  O  O34  1  0.463030  0.159077  0.070492  1
  O  O35  1  0.924278  0.057357  0.113877  1
