# generated using pymatgen
data_CaTbY2(Ga2Ag)4
_symmetry_space_group_name_H-M   'P 1'
_cell_length_a   4.37555800
_cell_length_b   7.03184228
_cell_length_c   10.31083758
_cell_angle_alpha   89.51152141
_cell_angle_beta   90.00000000
_cell_angle_gamma   90.00000000
_symmetry_Int_Tables_number   1
_chemical_formula_structural   CaTbY2(Ga2Ag)4
_chemical_formula_sum   'Ca1 Tb1 Y2 Ga8 Ag4'
_cell_volume   317.23473119
_cell_formula_units_Z   1
loop_
 _symmetry_equiv_pos_site_id
 _symmetry_equiv_pos_as_xyz
  1  'x, y, z'
loop_
 _atom_site_type_symbol
 _atom_site_label
 _atom_site_symmetry_multiplicity
 _atom_site_fract_x
 _atom_site_fract_y
 _atom_site_fract_z
 _atom_site_occupancy
  Ca  Ca0  1  0.250000  0.776763  0.825403  1
  Tb  Tb1  1  0.250000  0.280286  0.674404  1
  Y  Y2  1  0.750000  0.220673  0.173285  1
  Y  Y3  1  0.750000  0.721649  0.326626  1
  Ga  Ga4  1  0.250000  0.927858  0.156973  1
  Ga  Ga5  1  0.750000  0.074603  0.848768  1
  Ga  Ga6  1  0.750000  0.570748  0.649485  1
  Ga  Ga7  1  0.250000  0.425594  0.344514  1
  Ga  Ga8  1  0.250000  0.700263  0.533540  1
  Ga  Ga9  1  0.750000  0.294708  0.463291  1
  Ga  Ga10  1  0.750000  0.799517  0.036437  1
  Ga  Ga11  1  0.250000  0.203129  0.965792  1
  Ag  Ag12  1  0.250000  0.546056  0.097077  1
  Ag  Ag13  1  0.750000  0.457531  0.903263  1
  Ag  Ag14  1  0.750000  0.955845  0.596942  1
  Ag  Ag15  1  0.250000  0.044778  0.404200  1
