# generated using pymatgen
data_YEr12Lu7Bi12
_symmetry_space_group_name_H-M   'P 1'
_cell_length_a   8.16834262
_cell_length_b   9.43303651
_cell_length_c   11.91191741
_cell_angle_alpha   89.98745702
_cell_angle_beta   89.96712690
_cell_angle_gamma   89.99344634
_symmetry_Int_Tables_number   1
_chemical_formula_structural   YEr12Lu7Bi12
_chemical_formula_sum   'Y1 Er12 Lu7 Bi12'
_cell_volume   917.84014770
_cell_formula_units_Z   1
loop_
 _symmetry_equiv_pos_site_id
 _symmetry_equiv_pos_as_xyz
  1  'x, y, z'
loop_
 _atom_site_type_symbol
 _atom_site_label
 _atom_site_symmetry_multiplicity
 _atom_site_fract_x
 _atom_site_fract_y
 _atom_site_fract_z
 _atom_site_occupancy
  Y  Y0  1  0.145664  0.250254  0.716681  1
  Er  Er1  1  0.186234  0.750356  0.718606  1
  Er  Er2  1  0.687035  0.750451  0.782397  1
  Er  Er3  1  0.813314  0.250022  0.281793  1
  Er  Er4  1  0.313495  0.250140  0.218109  1
  Er  Er5  1  0.192210  0.566258  0.440029  1
  Er  Er6  1  0.693221  0.563637  0.059657  1
  Er  Er7  1  0.193420  0.935374  0.439685  1
  Er  Er8  1  0.306779  0.063157  0.940905  1
  Er  Er9  1  0.807002  0.436130  0.559653  1
  Er  Er10  1  0.356326  0.751751  0.216776  1
  Er  Er11  1  0.853833  0.750520  0.282712  1
  Er  Er12  1  0.645372  0.250838  0.783072  1
  Lu  Lu13  1  0.023611  0.749925  0.988956  1
  Lu  Lu14  1  0.524739  0.750413  0.510998  1
  Lu  Lu15  1  0.975749  0.250319  0.011646  1
  Lu  Lu16  1  0.476222  0.250596  0.488657  1
  Lu  Lu17  1  0.307967  0.431198  0.941067  1
  Lu  Lu18  1  0.806615  0.068334  0.560029  1
  Lu  Lu19  1  0.692099  0.931036  0.059122  1
  Bi  Bi20  1  0.434426  0.003407  0.673205  1
  Bi  Bi21  1  0.932818  0.497370  0.827229  1
  Bi  Bi22  1  0.566605  0.503884  0.326579  1
  Bi  Bi23  1  0.066333  0.996691  0.173042  1
  Bi  Bi24  1  0.567198  0.996826  0.327145  1
  Bi  Bi25  1  0.066922  0.504054  0.172885  1
  Bi  Bi26  1  0.433412  0.497121  0.672703  1
  Bi  Bi27  1  0.932458  0.003604  0.827485  1
  Bi  Bi28  1  0.404783  0.746308  0.957129  1
  Bi  Bi29  1  0.905491  0.753303  0.542708  1
  Bi  Bi30  1  0.595050  0.246640  0.042588  1
  Bi  Bi31  1  0.093600  0.250083  0.456754  1
