# generated using pymatgen
data_Lu7Th(InRh)2
_symmetry_space_group_name_H-M   'P 1'
_cell_length_a   9.53387666
_cell_length_b   9.53387650
_cell_length_c   9.54029800
_cell_angle_alpha   59.97771681
_cell_angle_beta   59.97771735
_cell_angle_gamma   60.17972970
_symmetry_Int_Tables_number   1
_chemical_formula_structural   Lu7Th(InRh)2
_chemical_formula_sum   'Lu14 Th2 In4 Rh4'
_cell_volume   613.79829030
_cell_formula_units_Z   2
loop_
 _symmetry_equiv_pos_site_id
 _symmetry_equiv_pos_as_xyz
  1  'x, y, z'
loop_
 _atom_site_type_symbol
 _atom_site_label
 _atom_site_symmetry_multiplicity
 _atom_site_fract_x
 _atom_site_fract_y
 _atom_site_fract_z
 _atom_site_occupancy
  Lu  Lu0  1  0.602968  0.193785  0.601624  1
  Lu  Lu1  1  0.193785  0.602968  0.601624  1
  Lu  Lu2  1  0.062788  0.439729  0.437942  1
  Lu  Lu3  1  0.439729  0.062788  0.059541  1
  Lu  Lu4  1  0.439729  0.062788  0.437942  1
  Lu  Lu5  1  0.062788  0.439729  0.059541  1
  Lu  Lu6  1  0.436593  0.436593  0.063407  1
  Lu  Lu7  1  0.059465  0.059465  0.440535  1
  Lu  Lu8  1  0.185540  0.815791  0.812980  1
  Lu  Lu9  1  0.815791  0.185540  0.185689  1
  Lu  Lu10  1  0.815791  0.185540  0.812980  1
  Lu  Lu11  1  0.185540  0.815791  0.185689  1
  Lu  Lu12  1  0.815358  0.815358  0.184642  1
  Lu  Lu13  1  0.190763  0.190763  0.809237  1
  Th  Th14  1  0.596245  0.596245  0.600096  1
  Th  Th15  1  0.596245  0.596245  0.207415  1
  In  In16  1  0.835679  0.835679  0.832319  1
  In  In17  1  0.835679  0.835679  0.496322  1
  In  In18  1  0.835129  0.497278  0.833796  1
  In  In19  1  0.497278  0.835129  0.833796  1
  Rh  Rh20  1  0.390132  0.390132  0.396656  1
  Rh  Rh21  1  0.390132  0.390132  0.823079  1
  Rh  Rh22  1  0.392298  0.824551  0.391575  1
  Rh  Rh23  1  0.824551  0.392298  0.391575  1
