# generated using pymatgen
data_CaErLu4(Si3Ru)8
_symmetry_space_group_name_H-M   'P 1'
_cell_length_a   10.10590692
_cell_length_b   10.10500705
_cell_length_c   8.10048644
_cell_angle_alpha   89.97887614
_cell_angle_beta   90.04228911
_cell_angle_gamma   132.70283189
_symmetry_Int_Tables_number   1
_chemical_formula_structural   CaErLu4(Si3Ru)8
_chemical_formula_sum   'Ca1 Er1 Lu4 Si24 Ru8'
_cell_volume   607.91093059
_cell_formula_units_Z   1
loop_
 _symmetry_equiv_pos_site_id
 _symmetry_equiv_pos_as_xyz
  1  'x, y, z'
loop_
 _atom_site_type_symbol
 _atom_site_label
 _atom_site_symmetry_multiplicity
 _atom_site_fract_x
 _atom_site_fract_y
 _atom_site_fract_z
 _atom_site_occupancy
  Ca  Ca0  1  0.498296  0.998392  0.250117  1
  Er  Er1  1  0.999880  0.999929  0.000322  1
  Lu  Lu2  1  0.001268  0.501324  0.749977  1
  Lu  Lu3  1  0.502385  0.002410  0.749940  1
  Lu  Lu4  1  0.997468  0.497384  0.250007  1
  Lu  Lu5  1  0.499868  0.499775  0.499809  1
  Si  Si6  1  0.387848  0.154486  0.002477  1
  Si  Si7  1  0.654676  0.888162  0.497217  1
  Si  Si8  1  0.111276  0.344492  0.505194  1
  Si  Si9  1  0.844585  0.611550  0.994922  1
  Si  Si10  1  0.612431  0.846389  0.993206  1
  Si  Si11  1  0.346222  0.112072  0.507024  1
  Si  Si12  1  0.888473  0.655494  0.494427  1
  Si  Si13  1  0.155371  0.388137  0.005432  1
  Si  Si14  1  0.613673  0.379402  0.228673  1
  Si  Si15  1  0.880024  0.114474  0.271517  1
  Si  Si16  1  0.887644  0.121370  0.727612  1
  Si  Si17  1  0.621821  0.388313  0.772182  1
  Si  Si18  1  0.389186  0.622651  0.771698  1
  Si  Si19  1  0.121988  0.888429  0.728174  1
  Si  Si20  1  0.705295  0.295253  0.999910  1
  Si  Si21  1  0.795014  0.205540  0.500124  1
  Si  Si22  1  0.294772  0.704640  0.999237  1
  Si  Si23  1  0.204818  0.794448  0.500761  1
  Si  Si24  1  0.166252  0.167186  0.332820  1
  Si  Si25  1  0.667771  0.666887  0.166722  1
  Si  Si26  1  0.332331  0.331541  0.833418  1
  Si  Si27  1  0.832300  0.832938  0.667028  1
  Si  Si28  1  0.375816  0.609997  0.228889  1
  Si  Si29  1  0.110717  0.876367  0.271307  1
  Ru  Ru30  1  0.625756  0.626274  0.871354  1
  Ru  Ru31  1  0.127909  0.127526  0.626521  1
  Ru  Ru32  1  0.871833  0.872001  0.372910  1
  Ru  Ru33  1  0.373808  0.373561  0.129143  1
  Ru  Ru34  1  0.328361  0.667787  0.501880  1
  Ru  Ru35  1  0.168236  0.827697  0.998149  1
  Ru  Ru36  1  0.672084  0.333013  0.502231  1
  Ru  Ru37  1  0.832541  0.172709  0.997671  1
