# generated using pymatgen
data_Er3Sc4(RhSe)2
_symmetry_space_group_name_H-M   'P 1'
_cell_length_a   8.71878965
_cell_length_b   8.71878846
_cell_length_c   8.71878969
_cell_angle_alpha   154.87519285
_cell_angle_beta   119.62807069
_cell_angle_gamma   66.43726361
_symmetry_Int_Tables_number   1
_chemical_formula_structural   Er3Sc4(RhSe)2
_chemical_formula_sum   'Er3 Sc4 Rh2 Se2'
_cell_volume   242.55290743
_cell_formula_units_Z   1
loop_
 _symmetry_equiv_pos_site_id
 _symmetry_equiv_pos_as_xyz
  1  'x, y, z'
loop_
 _atom_site_type_symbol
 _atom_site_label
 _atom_site_symmetry_multiplicity
 _atom_site_fract_x
 _atom_site_fract_y
 _atom_site_fract_z
 _atom_site_occupancy
  Er  Er0  1  0.103880  0.355604  0.748275  1
  Er  Er1  1  0.392671  0.644396  0.748275  1
  Er  Er2  1  0.991929  0.000000  0.991929  1
  Sc  Sc3  1  0.716013  0.124381  0.591633  1
  Sc  Sc4  1  0.467252  0.875619  0.591633  1
  Sc  Sc5  1  0.691516  0.320895  0.370619  1
  Sc  Sc6  1  0.049724  0.679105  0.370619  1
  Rh  Rh7  1  0.302520  0.244217  0.058302  1
  Rh  Rh8  1  0.814085  0.755783  0.058302  1
  Se  Se9  1  0.733205  0.500000  0.233205  1
  Se  Se10  1  0.346346  0.000000  0.346346  1
