# generated using pymatgen
data_La15YbCd4CoOs3
_symmetry_space_group_name_H-M   'P 1'
_cell_length_a   10.02432068
_cell_length_b   10.02431965
_cell_length_c   9.97879403
_cell_angle_alpha   60.73080410
_cell_angle_beta   60.73081013
_cell_angle_gamma   60.61144472
_symmetry_Int_Tables_number   1
_chemical_formula_structural   La15YbCd4CoOs3
_chemical_formula_sum   'La15 Yb1 Cd4 Co1 Os3'
_cell_volume   720.10073335
_cell_formula_units_Z   1
loop_
 _symmetry_equiv_pos_site_id
 _symmetry_equiv_pos_as_xyz
  1  'x, y, z'
loop_
 _atom_site_type_symbol
 _atom_site_label
 _atom_site_symmetry_multiplicity
 _atom_site_fract_x
 _atom_site_fract_y
 _atom_site_fract_z
 _atom_site_occupancy
  La  La0  1  0.559509  0.935647  0.557839  1
  La  La1  1  0.560626  0.939936  0.940619  1
  La  La2  1  0.687948  0.687948  0.309048  1
  La  La3  1  0.155765  0.155765  0.539110  1
  La  La4  1  0.305392  0.689977  0.688571  1
  La  La5  1  0.155407  0.155407  0.158049  1
  La  La6  1  0.538712  0.157387  0.156070  1
  La  La7  1  0.306661  0.685416  0.313165  1
  La  La8  1  0.310259  0.310259  0.686260  1
  La  La9  1  0.689977  0.305392  0.688571  1
  La  La10  1  0.935647  0.559509  0.557839  1
  La  La11  1  0.557822  0.557822  0.935947  1
  La  La12  1  0.157387  0.538712  0.156070  1
  La  La13  1  0.685416  0.306661  0.313165  1
  La  La14  1  0.939936  0.560626  0.940619  1
  Yb  Yb15  1  0.940304  0.940304  0.559062  1
  Cd  Cd16  1  0.236158  0.921133  0.922273  1
  Cd  Cd17  1  0.921655  0.921655  0.919740  1
  Cd  Cd18  1  0.921879  0.921879  0.235661  1
  Cd  Cd19  1  0.921133  0.236158  0.922273  1
  Co  Co20  1  0.363713  0.363713  0.362474  1
  Os  Os21  1  0.915274  0.368934  0.361720  1
  Os  Os22  1  0.364483  0.364483  0.914131  1
  Os  Os23  1  0.368934  0.915274  0.361720  1
