# generated using pymatgen
data_Pr2Nd3P12Ru18Rh
_symmetry_space_group_name_H-M   'P 1'
_cell_length_a   12.66605779
_cell_length_b   12.62325813
_cell_length_c   4.02663000
_cell_angle_alpha   90.00000000
_cell_angle_beta   90.00000000
_cell_angle_gamma   119.89429552
_symmetry_Int_Tables_number   1
_chemical_formula_structural   Pr2Nd3P12Ru18Rh
_chemical_formula_sum   'Pr2 Nd3 P12 Ru18 Rh1'
_cell_volume   558.14480656
_cell_formula_units_Z   1
loop_
 _symmetry_equiv_pos_site_id
 _symmetry_equiv_pos_as_xyz
  1  'x, y, z'
loop_
 _atom_site_type_symbol
 _atom_site_label
 _atom_site_symmetry_multiplicity
 _atom_site_fract_x
 _atom_site_fract_y
 _atom_site_fract_z
 _atom_site_occupancy
  Pr  Pr0  1  0.000050  0.183372  0.500000  1
  Pr  Pr1  1  0.815712  0.815652  0.500000  1
  Nd  Nd2  1  0.184341  0.000016  0.500000  1
  Nd  Nd3  1  0.665178  0.332447  0.000000  1
  Nd  Nd4  1  0.334761  0.667253  0.000000  1
  P  P5  1  0.000347  0.811471  0.000000  1
  P  P6  1  0.187546  0.187370  0.000000  1
  P  P7  1  0.812485  0.000198  0.000000  1
  P  P8  1  0.694545  0.171768  0.500000  1
  P  P9  1  0.824994  0.523165  0.500000  1
  P  P10  1  0.475437  0.304608  0.500000  1
  P  P11  1  0.175057  0.698175  0.500000  1
  P  P12  1  0.524511  0.829165  0.500000  1
  P  P13  1  0.305403  0.477109  0.500000  1
  P  P14  1  0.000002  0.372246  0.000000  1
  P  P15  1  0.624993  0.625030  0.000000  1
  P  P16  1  0.374741  0.000038  0.000000  1
  Ru  Ru17  1  0.445130  0.445573  0.000000  1
  Ru  Ru18  1  0.554758  0.000470  0.000000  1
  Ru  Ru19  1  0.000207  0.712795  0.500000  1
  Ru  Ru20  1  0.285011  0.285478  0.500000  1
  Ru  Ru21  1  0.714878  0.000672  0.500000  1
  Ru  Ru22  1  0.805771  0.185280  0.000000  1
  Ru  Ru23  1  0.815323  0.621145  0.000000  1
  Ru  Ru24  1  0.377711  0.193550  0.000000  1
  Ru  Ru25  1  0.184798  0.806266  0.000000  1
  Ru  Ru26  1  0.621921  0.815902  0.000000  1
  Ru  Ru27  1  0.194239  0.379454  0.000000  1
  Ru  Ru28  1  0.875639  0.367648  0.500000  1
  Ru  Ru29  1  0.631735  0.508230  0.500000  1
  Ru  Ru30  1  0.491513  0.124552  0.500000  1
  Ru  Ru31  1  0.368143  0.876528  0.500000  1
  Ru  Ru32  1  0.508327  0.632905  0.500000  1
  Ru  Ru33  1  0.124356  0.491985  0.500000  1
  Ru  Ru34  1  0.000408  0.999287  0.000000  1
  Rh  Rh35  1  0.000028  0.553198  0.000000  1
