# generated using pymatgen
data_Pa3Sb4Os2Pd
_symmetry_space_group_name_H-M   'P 1'
_cell_length_a   8.38742458
_cell_length_b   8.38742424
_cell_length_c   8.38742500
_cell_angle_alpha   109.16675031
_cell_angle_beta   109.16674950
_cell_angle_gamma   110.08189464
_symmetry_Int_Tables_number   1
_chemical_formula_structural   Pa3Sb4Os2Pd
_chemical_formula_sum   'Pa6 Sb8 Os4 Pd2'
_cell_volume   454.17888753
_cell_formula_units_Z   2
loop_
 _symmetry_equiv_pos_site_id
 _symmetry_equiv_pos_as_xyz
  1  'x, y, z'
loop_
 _atom_site_type_symbol
 _atom_site_label
 _atom_site_symmetry_multiplicity
 _atom_site_fract_x
 _atom_site_fract_y
 _atom_site_fract_z
 _atom_site_occupancy
  Pa  Pa0  1  0.880242  0.250000  0.130242  1
  Pa  Pa1  1  0.619758  0.750000  0.369758  1
  Pa  Pa2  1  0.250000  0.119758  0.869758  1
  Pa  Pa3  1  0.750000  0.380242  0.630242  1
  Pa  Pa4  1  0.125000  0.875000  0.250000  1
  Pa  Pa5  1  0.375000  0.625000  0.750000  1
  Sb  Sb6  1  0.674313  0.499428  0.998203  1
  Sb  Sb7  1  0.498775  0.000572  0.674887  1
  Sb  Sb8  1  0.001225  0.676112  0.501797  1
  Sb  Sb9  1  0.825687  0.823888  0.825113  1
  Sb  Sb10  1  0.500572  0.998775  0.174887  1
  Sb  Sb11  1  0.176112  0.501225  0.001797  1
  Sb  Sb12  1  0.999428  0.174313  0.498203  1
  Sb  Sb13  1  0.323888  0.325687  0.325113  1
  Os  Os14  1  0.376674  0.250000  0.626674  1
  Os  Os15  1  0.123326  0.750000  0.873326  1
  Os  Os16  1  0.250000  0.623326  0.373326  1
  Os  Os17  1  0.750000  0.876674  0.126674  1
  Pd  Pd18  1  0.625000  0.375000  0.250000  1
  Pd  Pd19  1  0.875000  0.125000  0.750000  1
