# generated using pymatgen
data_Yb2Lu2Al15(SiIr2)3
_symmetry_space_group_name_H-M   'P 1'
_cell_length_a   7.52258593
_cell_length_b   7.53979722
_cell_length_c   9.29477800
_cell_angle_alpha   90.00000000
_cell_angle_beta   90.00000000
_cell_angle_gamma   119.75667901
_symmetry_Int_Tables_number   1
_chemical_formula_structural   Yb2Lu2Al15(SiIr2)3
_chemical_formula_sum   'Yb2 Lu2 Al15 Si3 Ir6'
_cell_volume   457.67384484
_cell_formula_units_Z   1
loop_
 _symmetry_equiv_pos_site_id
 _symmetry_equiv_pos_as_xyz
  1  'x, y, z'
loop_
 _atom_site_type_symbol
 _atom_site_label
 _atom_site_symmetry_multiplicity
 _atom_site_fract_x
 _atom_site_fract_y
 _atom_site_fract_z
 _atom_site_occupancy
  Yb  Yb0  1  0.000524  0.673532  0.250000  1
  Yb  Yb1  1  0.003399  0.324845  0.750000  1
  Lu  Lu2  1  0.669547  0.992245  0.250000  1
  Lu  Lu3  1  0.324923  0.003826  0.750000  1
  Al  Al4  1  0.999127  0.334366  0.077558  1
  Al  Al5  1  0.001426  0.664212  0.924277  1
  Al  Al6  1  0.001426  0.664212  0.575723  1
  Al  Al7  1  0.335840  0.003216  0.422783  1
  Al  Al8  1  0.999127  0.334366  0.422442  1
  Al  Al9  1  0.663841  0.999893  0.576608  1
  Al  Al10  1  0.663841  0.999893  0.923392  1
  Al  Al11  1  0.335840  0.003216  0.077217  1
  Al  Al12  1  0.335165  0.335038  0.560707  1
  Al  Al13  1  0.667723  0.664493  0.443322  1
  Al  Al14  1  0.667723  0.664493  0.056678  1
  Al  Al15  1  0.335165  0.335038  0.939293  1
  Al  Al16  1  0.664607  0.452840  0.750000  1
  Al  Al17  1  0.548385  0.339099  0.250000  1
  Al  Al18  1  0.449803  0.666769  0.750000  1
  Si  Si19  1  0.121019  0.126333  0.250000  1
  Si  Si20  1  0.871527  0.870254  0.750000  1
  Si  Si21  1  0.335671  0.545409  0.250000  1
  Ir  Ir22  1  0.670323  0.327926  0.000524  1
  Ir  Ir23  1  0.331404  0.672080  0.007746  1
  Ir  Ir24  1  0.331404  0.672080  0.492254  1
  Ir  Ir25  1  0.670323  0.327926  0.499476  1
  Ir  Ir26  1  0.000449  0.001200  0.000587  1
  Ir  Ir27  1  0.000449  0.001200  0.499413  1
