# generated using pymatgen
data_LaHoSn5Rh3
_symmetry_space_group_name_H-M   'P 1'
_cell_length_a   13.62284734
_cell_length_b   13.62284740
_cell_length_c   7.28610800
_cell_angle_alpha   90.00000000
_cell_angle_beta   90.00000000
_cell_angle_gamma   161.01506738
_symmetry_Int_Tables_number   1
_chemical_formula_structural   LaHoSn5Rh3
_chemical_formula_sum   'La2 Ho2 Sn10 Rh6'
_cell_volume   439.88735283
_cell_formula_units_Z   2
loop_
 _symmetry_equiv_pos_site_id
 _symmetry_equiv_pos_as_xyz
  1  'x, y, z'
loop_
 _atom_site_type_symbol
 _atom_site_label
 _atom_site_symmetry_multiplicity
 _atom_site_fract_x
 _atom_site_fract_y
 _atom_site_fract_z
 _atom_site_occupancy
  La  La0  1  0.171526  0.828474  0.745703  1
  La  La1  1  0.828474  0.171526  0.245703  1
  Ho  Ho2  1  0.475444  0.524556  0.762810  1
  Ho  Ho3  1  0.524556  0.475444  0.262810  1
  Sn  Sn4  1  0.881192  0.118808  0.766932  1
  Sn  Sn5  1  0.118808  0.881192  0.266932  1
  Sn  Sn6  1  0.704570  0.295430  0.447609  1
  Sn  Sn7  1  0.295430  0.704570  0.947609  1
  Sn  Sn8  1  0.593423  0.406577  0.885740  1
  Sn  Sn9  1  0.406577  0.593423  0.385740  1
  Sn  Sn10  1  0.953137  0.046863  0.103144  1
  Sn  Sn11  1  0.046863  0.953137  0.603144  1
  Sn  Sn12  1  0.289821  0.710179  0.525971  1
  Sn  Sn13  1  0.710179  0.289821  0.025971  1
  Rh  Rh14  1  0.049093  0.950907  0.984078  1
  Rh  Rh15  1  0.950907  0.049093  0.484078  1
  Rh  Rh16  1  0.778417  0.221583  0.737145  1
  Rh  Rh17  1  0.221583  0.778417  0.237145  1
  Rh  Rh18  1  0.395927  0.604073  0.012868  1
  Rh  Rh19  1  0.604073  0.395927  0.512868  1
