# generated using pymatgen
data_Sc8Mn4V3Si16W5
_symmetry_space_group_name_H-M   'P 1'
_cell_length_a   6.61924936
_cell_length_b   6.62464100
_cell_length_c   12.35830436
_cell_angle_alpha   90.05981980
_cell_angle_beta   89.95253918
_cell_angle_gamma   90.06888534
_symmetry_Int_Tables_number   1
_chemical_formula_structural   Sc8Mn4V3Si16W5
_chemical_formula_sum   'Sc8 Mn4 V3 Si16 W5'
_cell_volume   541.91263699
_cell_formula_units_Z   1
loop_
 _symmetry_equiv_pos_site_id
 _symmetry_equiv_pos_as_xyz
  1  'x, y, z'
loop_
 _atom_site_type_symbol
 _atom_site_label
 _atom_site_symmetry_multiplicity
 _atom_site_fract_x
 _atom_site_fract_y
 _atom_site_fract_z
 _atom_site_occupancy
  Sc  Sc0  1  0.008955  0.665525  0.030353  1
  Sc  Sc1  1  0.835315  0.502598  0.280243  1
  Sc  Sc2  1  0.165830  0.496901  0.778857  1
  Sc  Sc3  1  0.503972  0.835422  0.720155  1
  Sc  Sc4  1  0.497138  0.164853  0.220073  1
  Sc  Sc5  1  0.991707  0.334250  0.530714  1
  Sc  Sc6  1  0.666770  0.008715  0.969365  1
  Sc  Sc7  1  0.334458  0.990962  0.470487  1
  Mn  Mn8  1  0.331379  0.499169  0.376702  1
  Mn  Mn9  1  0.668201  0.499794  0.875265  1
  Mn  Mn10  1  0.500638  0.330758  0.623606  1
  Mn  Mn11  1  0.499757  0.668903  0.124220  1
  V  V12  1  0.998064  0.832778  0.627274  1
  V  V13  1  0.166683  0.001411  0.873525  1
  V  V14  1  0.833176  0.999100  0.372315  1
  Si  Si15  1  0.298782  0.959856  0.063628  1
  Si  Si16  1  0.529417  0.787056  0.313504  1
  Si  Si17  1  0.469161  0.212382  0.812324  1
  Si  Si18  1  0.787166  0.530474  0.687285  1
  Si  Si19  1  0.215863  0.472684  0.188724  1
  Si  Si20  1  0.705402  0.038015  0.563768  1
  Si  Si21  1  0.960692  0.298180  0.932734  1
  Si  Si22  1  0.038437  0.705035  0.436366  1
  Si  Si23  1  0.696717  0.387399  0.067588  1
  Si  Si24  1  0.127144  0.210667  0.324151  1
  Si  Si25  1  0.875466  0.790007  0.821233  1
  Si  Si26  1  0.210044  0.124482  0.678787  1
  Si  Si27  1  0.787242  0.869059  0.179370  1
  Si  Si28  1  0.299437  0.616228  0.569640  1
  Si  Si29  1  0.383417  0.700368  0.929991  1
  Si  Si30  1  0.616763  0.298981  0.430836  1
  W  W31  1  0.332048  0.332864  0.999296  1
  W  W32  1  0.160593  0.839435  0.250991  1
  W  W33  1  0.839060  0.160139  0.749326  1
  W  W34  1  0.667443  0.667066  0.500154  1
  W  W35  1  0.997662  0.168486  0.127149  1
