# generated using pymatgen
data_Ho4CoTc3B16
_symmetry_space_group_name_H-M   'P 1'
_cell_length_a   3.54658000
_cell_length_b   5.94966117
_cell_length_c   11.51665927
_cell_angle_alpha   89.92808136
_cell_angle_beta   90.00000000
_cell_angle_gamma   90.00000000
_symmetry_Int_Tables_number   1
_chemical_formula_structural   Ho4CoTc3B16
_chemical_formula_sum   'Ho4 Co1 Tc3 B16'
_cell_volume   243.01225210
_cell_formula_units_Z   1
loop_
 _symmetry_equiv_pos_site_id
 _symmetry_equiv_pos_as_xyz
  1  'x, y, z'
loop_
 _atom_site_type_symbol
 _atom_site_label
 _atom_site_symmetry_multiplicity
 _atom_site_fract_x
 _atom_site_fract_y
 _atom_site_fract_z
 _atom_site_occupancy
  Ho  Ho0  1  0.500000  0.374692  0.146552  1
  Ho  Ho1  1  0.500000  0.628493  0.851878  1
  Ho  Ho2  1  0.500000  0.127578  0.652673  1
  Ho  Ho3  1  0.500000  0.872624  0.346585  1
  Co  Co4  1  0.500000  0.861575  0.092356  1
  Tc  Tc5  1  0.500000  0.367133  0.411648  1
  Tc  Tc6  1  0.500000  0.631711  0.586126  1
  Tc  Tc7  1  0.500000  0.132754  0.914003  1
  B  B8  1  0.000000  0.111541  0.048005  1
  B  B9  1  0.000000  0.886022  0.953741  1
  B  B10  1  0.000000  0.386198  0.546898  1
  B  B11  1  0.000000  0.613989  0.451731  1
  B  B12  1  0.000000  0.134874  0.468213  1
  B  B13  1  0.000000  0.864859  0.530987  1
  B  B14  1  0.000000  0.365469  0.970267  1
  B  B15  1  0.000000  0.638290  0.032263  1
  B  B16  1  0.000000  0.023582  0.191208  1
  B  B17  1  0.000000  0.974183  0.808807  1
  B  B18  1  0.000000  0.476900  0.693039  1
  B  B19  1  0.000000  0.525919  0.305534  1
  B  B20  1  0.000000  0.211971  0.313260  1
  B  B21  1  0.000000  0.786339  0.685968  1
  B  B22  1  0.000000  0.286608  0.815771  1
  B  B23  1  0.000000  0.716697  0.182488  1
