# generated using pymatgen
data_ThNiHgPt3
_symmetry_space_group_name_H-M   'P 1'
_cell_length_a   5.28173042
_cell_length_b   5.45152038
_cell_length_c   5.45152000
_cell_angle_alpha   60.00000230
_cell_angle_beta   58.93077770
_cell_angle_gamma   58.93078893
_symmetry_Int_Tables_number   1
_chemical_formula_structural   ThNiHgPt3
_chemical_formula_sum   'Th1 Ni1 Hg1 Pt3'
_cell_volume   109.16548901
_cell_formula_units_Z   1
loop_
 _symmetry_equiv_pos_site_id
 _symmetry_equiv_pos_as_xyz
  1  'x, y, z'
loop_
 _atom_site_type_symbol
 _atom_site_label
 _atom_site_symmetry_multiplicity
 _atom_site_fract_x
 _atom_site_fract_y
 _atom_site_fract_z
 _atom_site_occupancy
  Th  Th0  1  0.751110  0.749630  0.749630  1
  Ni  Ni1  1  0.878809  0.373731  0.373731  1
  Hg  Hg2  1  0.992198  0.002601  0.002601  1
  Pt  Pt3  1  0.375962  0.876758  0.373641  1
  Pt  Pt4  1  0.375962  0.373641  0.373641  1
  Pt  Pt5  1  0.375962  0.373641  0.876758  1
