# generated using pymatgen
data_Li2ErThSi3
_symmetry_space_group_name_H-M   'P 1'
_cell_length_a   9.25309418
_cell_length_b   9.25309471
_cell_length_c   6.79710800
_cell_angle_alpha   90.00000000
_cell_angle_beta   90.00000000
_cell_angle_gamma   152.85416168
_symmetry_Int_Tables_number   1
_chemical_formula_structural   Li2ErThSi3
_chemical_formula_sum   'Li4 Er2 Th2 Si6'
_cell_volume   265.52637174
_cell_formula_units_Z   2
loop_
 _symmetry_equiv_pos_site_id
 _symmetry_equiv_pos_as_xyz
  1  'x, y, z'
loop_
 _atom_site_type_symbol
 _atom_site_label
 _atom_site_symmetry_multiplicity
 _atom_site_fract_x
 _atom_site_fract_y
 _atom_site_fract_z
 _atom_site_occupancy
  Li  Li0  1  0.809110  0.190890  0.561641  1
  Li  Li1  1  0.190890  0.809110  0.438359  1
  Li  Li2  1  0.190890  0.809110  0.061641  1
  Li  Li3  1  0.809110  0.190890  0.938359  1
  Er  Er4  1  0.346299  0.653701  0.250000  1
  Er  Er5  1  0.653701  0.346299  0.750000  1
  Th  Th6  1  0.553036  0.446964  0.250000  1
  Th  Th7  1  0.446964  0.553036  0.750000  1
  Si  Si8  1  0.939601  0.060399  0.070957  1
  Si  Si9  1  0.060399  0.939601  0.929043  1
  Si  Si10  1  0.060399  0.939601  0.570957  1
  Si  Si11  1  0.939601  0.060399  0.429043  1
  Si  Si12  1  0.723037  0.276963  0.250000  1
  Si  Si13  1  0.276963  0.723037  0.750000  1
