# generated using pymatgen
data_Er2Al2PdRh
_symmetry_space_group_name_H-M   'P 1'
_cell_length_a   4.30963000
_cell_length_b   6.83130100
_cell_length_c   7.86211700
_cell_angle_alpha   90.00000000
_cell_angle_beta   90.00000000
_cell_angle_gamma   90.00000000
_symmetry_Int_Tables_number   1
_chemical_formula_structural   Er2Al2PdRh
_chemical_formula_sum   'Er4 Al4 Pd2 Rh2'
_cell_volume   231.46370995
_cell_formula_units_Z   2
loop_
 _symmetry_equiv_pos_site_id
 _symmetry_equiv_pos_as_xyz
  1  'x, y, z'
loop_
 _atom_site_type_symbol
 _atom_site_label
 _atom_site_symmetry_multiplicity
 _atom_site_fract_x
 _atom_site_fract_y
 _atom_site_fract_z
 _atom_site_occupancy
  Er  Er0  1  0.250000  0.035002  0.322980  1
  Er  Er1  1  0.250000  0.535002  0.177020  1
  Er  Er2  1  0.750000  0.971909  0.681506  1
  Er  Er3  1  0.750000  0.471909  0.818494  1
  Al  Al4  1  0.250000  0.138622  0.936054  1
  Al  Al5  1  0.250000  0.638622  0.563946  1
  Al  Al6  1  0.750000  0.857628  0.058609  1
  Al  Al7  1  0.750000  0.357628  0.441391  1
  Pd  Pd8  1  0.750000  0.730889  0.377402  1
  Pd  Pd9  1  0.750000  0.230889  0.122598  1
  Rh  Rh10  1  0.250000  0.265950  0.618579  1
  Rh  Rh11  1  0.250000  0.765950  0.881421  1
