# generated using pymatgen
data_Pr5NdAl24Os7Ru
_symmetry_space_group_name_H-M   'P 1'
_cell_length_a   8.92663842
_cell_length_b   8.92664248
_cell_length_c   9.69520201
_cell_angle_alpha   90.00392636
_cell_angle_beta   89.99589508
_cell_angle_gamma   120.03495266
_symmetry_Int_Tables_number   1
_chemical_formula_structural   Pr5NdAl24Os7Ru
_chemical_formula_sum   'Pr5 Nd1 Al24 Os7 Ru1'
_cell_volume   668.82193630
_cell_formula_units_Z   1
loop_
 _symmetry_equiv_pos_site_id
 _symmetry_equiv_pos_as_xyz
  1  'x, y, z'
loop_
 _atom_site_type_symbol
 _atom_site_label
 _atom_site_symmetry_multiplicity
 _atom_site_fract_x
 _atom_site_fract_y
 _atom_site_fract_z
 _atom_site_occupancy
  Pr  Pr0  1  0.192418  0.384853  0.250310  1
  Pr  Pr1  1  0.807535  0.615011  0.749688  1
  Pr  Pr2  1  0.615149  0.807580  0.250311  1
  Pr  Pr3  1  0.384990  0.192466  0.749688  1
  Pr  Pr4  1  0.192446  0.807555  0.250287  1
  Nd  Nd5  1  0.807542  0.192457  0.749706  1
  Al  Al6  1  0.333325  0.666671  0.009417  1
  Al  Al7  1  0.666792  0.333209  0.990306  1
  Al  Al8  1  0.666787  0.333207  0.509524  1
  Al  Al9  1  0.333336  0.666668  0.490753  1
  Al  Al10  1  0.162292  0.325109  0.575291  1
  Al  Al11  1  0.837390  0.674765  0.424854  1
  Al  Al12  1  0.674889  0.837708  0.575290  1
  Al  Al13  1  0.837385  0.674775  0.074981  1
  Al  Al14  1  0.325237  0.162609  0.424854  1
  Al  Al15  1  0.162308  0.325102  0.924883  1
  Al  Al16  1  0.162596  0.837407  0.575193  1
  Al  Al17  1  0.325225  0.162616  0.074982  1
  Al  Al18  1  0.837373  0.162622  0.425135  1
  Al  Al19  1  0.674899  0.837692  0.924883  1
  Al  Al20  1  0.837377  0.162625  0.074692  1
  Al  Al21  1  0.162594  0.837403  0.924984  1
  Al  Al22  1  0.562047  0.124038  0.249997  1
  Al  Al23  1  0.438503  0.876452  0.750004  1
  Al  Al24  1  0.875961  0.437952  0.249993  1
  Al  Al25  1  0.123548  0.561497  0.750007  1
  Al  Al26  1  0.562022  0.437978  0.249986  1
  Al  Al27  1  0.437975  0.562025  0.750014  1
  Al  Al28  1  0.000012  0.999988  0.251611  1
  Al  Al29  1  0.999760  0.000240  0.748385  1
  Os  Os30  1  0.500287  0.000157  0.999781  1
  Os  Os31  1  0.999845  0.499714  0.999781  1
  Os  Os32  1  0.500289  0.000154  0.500210  1
  Os  Os33  1  0.500046  0.499955  0.999926  1
  Os  Os34  1  0.999847  0.499711  0.500211  1
  Os  Os35  1  0.500045  0.499958  0.500075  1
  Os  Os36  1  0.999967  0.000034  0.999917  1
  Ru  Ru37  1  0.999962  0.000039  0.500089  1
