# generated using pymatgen
data_BaAg2F8
_symmetry_space_group_name_H-M   'P 1'
_cell_length_a   8.02845594
_cell_length_b   8.02845606
_cell_length_c   8.02845658
_cell_angle_alpha   103.35781570
_cell_angle_beta   103.35782415
_cell_angle_gamma   122.54327445
_symmetry_Int_Tables_number   1
_chemical_formula_structural   BaAg2F8
_chemical_formula_sum   'Ba2 Ag4 F16'
_cell_volume   382.53432764
_cell_formula_units_Z   2
loop_
 _symmetry_equiv_pos_site_id
 _symmetry_equiv_pos_as_xyz
  1  'x, y, z'
loop_
 _atom_site_type_symbol
 _atom_site_label
 _atom_site_symmetry_multiplicity
 _atom_site_fract_x
 _atom_site_fract_y
 _atom_site_fract_z
 _atom_site_occupancy
  Ba  Ba0  1  0.000000  0.000000  0.000000  1
  Ba  Ba1  1  0.250000  0.750000  0.500000  1
  Ag  Ag2  1  0.790040  0.405526  0.939345  1
  Ag  Ag3  1  0.594474  0.533819  0.384514  1
  Ag  Ag4  1  0.466181  0.850695  0.060655  1
  Ag  Ag5  1  0.149305  0.209960  0.615486  1
  F  F6  1  0.723980  0.806591  0.602148  1
  F  F7  1  0.878169  0.276020  0.082612  1
  F  F8  1  0.193409  0.795557  0.917388  1
  F  F9  1  0.204443  0.121831  0.397852  1
  F  F10  1  0.219910  0.047197  0.722170  1
  F  F11  1  0.502260  0.780090  0.827286  1
  F  F12  1  0.854994  0.559686  0.488230  1
  F  F13  1  0.633236  0.145006  0.704691  1
  F  F14  1  0.440314  0.928544  0.295309  1
  F  F15  1  0.071456  0.366764  0.511770  1
  F  F16  1  0.731103  0.888685  0.191676  1
  F  F17  1  0.460573  0.268897  0.157583  1
  F  F18  1  0.111315  0.302990  0.842417  1
  F  F19  1  0.697010  0.539427  0.808324  1
  F  F20  1  0.325026  0.497740  0.277830  1
  F  F21  1  0.952803  0.674974  0.172714  1
