# generated using pymatgen
data_Sm2Er3(TcO6)2
_symmetry_space_group_name_H-M   'P 1'
_cell_length_a   6.83275837
_cell_length_b   6.83275952
_cell_length_c   7.54980020
_cell_angle_alpha   74.18802268
_cell_angle_beta   74.18801769
_cell_angle_gamma   49.27089634
_symmetry_Int_Tables_number   1
_chemical_formula_structural   Sm2Er3(TcO6)2
_chemical_formula_sum   'Sm2 Er3 Tc2 O12'
_cell_volume   254.82267186
_cell_formula_units_Z   1
loop_
 _symmetry_equiv_pos_site_id
 _symmetry_equiv_pos_as_xyz
  1  'x, y, z'
loop_
 _atom_site_type_symbol
 _atom_site_label
 _atom_site_symmetry_multiplicity
 _atom_site_fract_x
 _atom_site_fract_y
 _atom_site_fract_z
 _atom_site_occupancy
  Sm  Sm0  1  0.694218  0.694218  0.644719  1
  Sm  Sm1  1  0.305782  0.305782  0.355281  1
  Er  Er2  1  0.684200  0.684200  0.174059  1
  Er  Er3  1  0.315800  0.315800  0.825941  1
  Er  Er4  1  0.000000  0.000000  0.500000  1
  Tc  Tc5  1  0.787223  0.212777  0.000000  1
  Tc  Tc6  1  0.212777  0.787223  0.000000  1
  O  O7  1  0.999659  0.999659  0.205637  1
  O  O8  1  0.000341  0.000341  0.794363  1
  O  O9  1  0.587938  0.082634  0.080050  1
  O  O10  1  0.412062  0.917366  0.919950  1
  O  O11  1  0.917366  0.412062  0.919950  1
  O  O12  1  0.082634  0.587938  0.080050  1
  O  O13  1  0.501558  0.501558  0.173777  1
  O  O14  1  0.498442  0.498442  0.826223  1
  O  O15  1  0.403218  0.898278  0.420748  1
  O  O16  1  0.596782  0.101722  0.579252  1
  O  O17  1  0.101722  0.596782  0.579252  1
  O  O18  1  0.898278  0.403218  0.420748  1
