# generated using pymatgen
data_TbDy(Al3Ir)3
_symmetry_space_group_name_H-M   'P 1'
_cell_length_a   7.55812171
_cell_length_b   7.55677047
_cell_length_c   9.49285500
_cell_angle_alpha   89.99998716
_cell_angle_beta   90.00000000
_cell_angle_gamma   119.46168622
_symmetry_Int_Tables_number   1
_chemical_formula_structural   TbDy(Al3Ir)3
_chemical_formula_sum   'Tb2 Dy2 Al18 Ir6'
_cell_volume   472.07164510
_cell_formula_units_Z   2
loop_
 _symmetry_equiv_pos_site_id
 _symmetry_equiv_pos_as_xyz
  1  'x, y, z'
loop_
 _atom_site_type_symbol
 _atom_site_label
 _atom_site_symmetry_multiplicity
 _atom_site_fract_x
 _atom_site_fract_y
 _atom_site_fract_z
 _atom_site_occupancy
  Tb  Tb0  1  0.670690  0.994706  0.250000  1
  Tb  Tb1  1  0.329310  0.005294  0.750000  1
  Dy  Dy2  1  0.994715  0.670687  0.249999  1
  Dy  Dy3  1  0.005285  0.329313  0.750001  1
  Al  Al4  1  0.128835  0.128724  0.250000  1
  Al  Al5  1  0.871165  0.871276  0.750000  1
  Al  Al6  1  0.001285  0.335098  0.073585  1
  Al  Al7  1  0.998715  0.664902  0.926415  1
  Al  Al8  1  0.998715  0.664902  0.573585  1
  Al  Al9  1  0.334796  0.001153  0.426208  1
  Al  Al10  1  0.001285  0.335098  0.426415  1
  Al  Al11  1  0.665204  0.998847  0.573792  1
  Al  Al12  1  0.665204  0.998847  0.926208  1
  Al  Al13  1  0.334796  0.001153  0.073792  1
  Al  Al14  1  0.333477  0.333618  0.551539  1
  Al  Al15  1  0.666523  0.666382  0.448461  1
  Al  Al16  1  0.666523  0.666382  0.051539  1
  Al  Al17  1  0.333477  0.333618  0.948461  1
  Al  Al18  1  0.338820  0.547542  0.250000  1
  Al  Al19  1  0.661180  0.452458  0.750000  1
  Al  Al20  1  0.547885  0.339347  0.250000  1
  Al  Al21  1  0.452115  0.660653  0.750000  1
  Ir  Ir22  1  0.671636  0.328363  0.000020  1
  Ir  Ir23  1  0.328364  0.671637  0.999980  1
  Ir  Ir24  1  0.328364  0.671637  0.500020  1
  Ir  Ir25  1  0.671636  0.328363  0.499980  1
  Ir  Ir26  1  0.000000  0.000000  0.000000  1
  Ir  Ir27  1  0.000000  0.000000  0.500000  1
