# generated using pymatgen
data_Dy12Si5Ge3Ru8
_symmetry_space_group_name_H-M   'P 1'
_cell_length_a   5.58790232
_cell_length_b   7.57169337
_cell_length_c   13.49107500
_cell_angle_alpha   90.00000000
_cell_angle_beta   90.00000000
_cell_angle_gamma   89.89370419
_symmetry_Int_Tables_number   1
_chemical_formula_structural   Dy12Si5Ge3Ru8
_chemical_formula_sum   'Dy12 Si5 Ge3 Ru8'
_cell_volume   570.80482206
_cell_formula_units_Z   1
loop_
 _symmetry_equiv_pos_site_id
 _symmetry_equiv_pos_as_xyz
  1  'x, y, z'
loop_
 _atom_site_type_symbol
 _atom_site_label
 _atom_site_symmetry_multiplicity
 _atom_site_fract_x
 _atom_site_fract_y
 _atom_site_fract_z
 _atom_site_occupancy
  Dy  Dy0  1  0.147147  0.400775  0.600569  1
  Dy  Dy1  1  0.853332  0.597263  0.098834  1
  Dy  Dy2  1  0.147081  0.097208  0.400814  1
  Dy  Dy3  1  0.854060  0.904346  0.899681  1
  Dy  Dy4  1  0.853332  0.597263  0.401166  1
  Dy  Dy5  1  0.147147  0.400775  0.899431  1
  Dy  Dy6  1  0.854060  0.904346  0.600319  1
  Dy  Dy7  1  0.147081  0.097208  0.099186  1
  Dy  Dy8  1  0.628947  0.262830  0.750000  1
  Dy  Dy9  1  0.374279  0.735853  0.250000  1
  Dy  Dy10  1  0.624947  0.236783  0.250000  1
  Dy  Dy11  1  0.374262  0.762618  0.750000  1
  Si  Si12  1  0.136732  0.110746  0.750000  1
  Si  Si13  1  0.607369  0.250018  0.500751  1
  Si  Si14  1  0.391188  0.750486  0.999458  1
  Si  Si15  1  0.391188  0.750486  0.500542  1
  Si  Si16  1  0.607369  0.250018  0.999249  1
  Ge  Ge17  1  0.871713  0.885565  0.250000  1
  Ge  Ge18  1  0.126910  0.385630  0.250000  1
  Ge  Ge19  1  0.873498  0.614527  0.750000  1
  Ru  Ru20  1  0.351301  0.032209  0.591559  1
  Ru  Ru21  1  0.643464  0.969711  0.088530  1
  Ru  Ru22  1  0.354507  0.469099  0.411259  1
  Ru  Ru23  1  0.644907  0.531609  0.910902  1
  Ru  Ru24  1  0.643464  0.969711  0.411470  1
  Ru  Ru25  1  0.351301  0.032209  0.908441  1
  Ru  Ru26  1  0.644907  0.531609  0.589098  1
  Ru  Ru27  1  0.354507  0.469099  0.088741  1
