# generated using pymatgen
data_SrLi4Tb3Pt4
_symmetry_space_group_name_H-M   'P 1'
_cell_length_a   4.07395300
_cell_length_b   7.21196619
_cell_length_c   8.48284125
_cell_angle_alpha   91.19247459
_cell_angle_beta   90.00000000
_cell_angle_gamma   90.00000000
_symmetry_Int_Tables_number   1
_chemical_formula_structural   SrLi4Tb3Pt4
_chemical_formula_sum   'Sr1 Li4 Tb3 Pt4'
_cell_volume   249.18217289
_cell_formula_units_Z   1
loop_
 _symmetry_equiv_pos_site_id
 _symmetry_equiv_pos_as_xyz
  1  'x, y, z'
loop_
 _atom_site_type_symbol
 _atom_site_label
 _atom_site_symmetry_multiplicity
 _atom_site_fract_x
 _atom_site_fract_y
 _atom_site_fract_z
 _atom_site_occupancy
  Sr  Sr0  1  0.750000  0.460363  0.185501  1
  Li  Li1  1  0.250000  0.132151  0.055855  1
  Li  Li2  1  0.250000  0.631335  0.445359  1
  Li  Li3  1  0.750000  0.879142  0.941313  1
  Li  Li4  1  0.750000  0.363087  0.561151  1
  Tb  Tb5  1  0.250000  0.037221  0.682990  1
  Tb  Tb6  1  0.250000  0.543227  0.814795  1
  Tb  Tb7  1  0.750000  0.953889  0.322566  1
  Pt  Pt8  1  0.250000  0.228527  0.391747  1
  Pt  Pt9  1  0.250000  0.774180  0.115044  1
  Pt  Pt10  1  0.750000  0.746045  0.623137  1
  Pt  Pt11  1  0.750000  0.250833  0.860540  1
