# generated using pymatgen
data_PrBi3(Rh2O7)2
_symmetry_space_group_name_H-M   'P 1'
_cell_length_a   7.33187763
_cell_length_b   7.33187841
_cell_length_c   7.33187773
_cell_angle_alpha   60.59551799
_cell_angle_beta   60.59551221
_cell_angle_gamma   60.59551266
_symmetry_Int_Tables_number   1
_chemical_formula_structural   PrBi3(Rh2O7)2
_chemical_formula_sum   'Pr1 Bi3 Rh4 O14'
_cell_volume   282.44446180
_cell_formula_units_Z   1
loop_
 _symmetry_equiv_pos_site_id
 _symmetry_equiv_pos_as_xyz
  1  'x, y, z'
loop_
 _atom_site_type_symbol
 _atom_site_label
 _atom_site_symmetry_multiplicity
 _atom_site_fract_x
 _atom_site_fract_y
 _atom_site_fract_z
 _atom_site_occupancy
  Pr  Pr0  1  0.125000  0.125000  0.125000  1
  Bi  Bi1  1  0.125000  0.625000  0.125000  1
  Bi  Bi2  1  0.625000  0.125000  0.125000  1
  Bi  Bi3  1  0.125000  0.125000  0.625000  1
  Rh  Rh4  1  0.625000  0.625000  0.625000  1
  Rh  Rh5  1  0.625000  0.625000  0.125000  1
  Rh  Rh6  1  0.125000  0.625000  0.625000  1
  Rh  Rh7  1  0.625000  0.125000  0.625000  1
  O  O8  1  0.253838  0.253838  0.253838  1
  O  O9  1  0.291367  0.708180  0.291367  1
  O  O10  1  0.958633  0.958633  0.541820  1
  O  O11  1  0.543961  0.955296  0.543961  1
  O  O12  1  0.706039  0.706039  0.294704  1
  O  O13  1  0.955296  0.543961  0.543961  1
  O  O14  1  0.706039  0.294704  0.706039  1
  O  O15  1  0.291367  0.291367  0.708180  1
  O  O16  1  0.708180  0.291367  0.291367  1
  O  O17  1  0.294704  0.706039  0.706039  1
  O  O18  1  0.958633  0.541820  0.958633  1
  O  O19  1  0.543961  0.543961  0.955296  1
  O  O20  1  0.996162  0.996162  0.996162  1
  O  O21  1  0.541820  0.958633  0.958633  1
