# generated using pymatgen
data_Er8In3Ni
_symmetry_space_group_name_H-M   'P 1'
_cell_length_a   10.34330000
_cell_length_b   10.34329952
_cell_length_c   6.90788300
_cell_angle_alpha   90.00000000
_cell_angle_beta   90.00000000
_cell_angle_gamma   120.00000155
_symmetry_Int_Tables_number   1
_chemical_formula_structural   Er8In3Ni
_chemical_formula_sum   'Er16 In6 Ni2'
_cell_volume   640.02040511
_cell_formula_units_Z   2
loop_
 _symmetry_equiv_pos_site_id
 _symmetry_equiv_pos_as_xyz
  1  'x, y, z'
loop_
 _atom_site_type_symbol
 _atom_site_label
 _atom_site_symmetry_multiplicity
 _atom_site_fract_x
 _atom_site_fract_y
 _atom_site_fract_z
 _atom_site_occupancy
  Er  Er0  1  0.532726  0.065452  0.524129  1
  Er  Er1  1  0.934548  0.467274  0.524129  1
  Er  Er2  1  0.532726  0.467274  0.524129  1
  Er  Er3  1  0.467274  0.934548  0.024129  1
  Er  Er4  1  0.065452  0.532726  0.024129  1
  Er  Er5  1  0.467274  0.532726  0.024129  1
  Er  Er6  1  0.177834  0.355669  0.730390  1
  Er  Er7  1  0.644331  0.822166  0.730390  1
  Er  Er8  1  0.177834  0.822166  0.730390  1
  Er  Er9  1  0.822166  0.644331  0.230390  1
  Er  Er10  1  0.355669  0.177834  0.230390  1
  Er  Er11  1  0.822166  0.177834  0.230390  1
  Er  Er12  1  0.666667  0.333333  0.908430  1
  Er  Er13  1  0.333333  0.666667  0.408430  1
  Er  Er14  1  0.000000  0.000000  0.506016  1
  Er  Er15  1  0.000000  0.000000  0.006016  1
  In  In16  1  0.837180  0.674359  0.767980  1
  In  In17  1  0.325641  0.162820  0.767980  1
  In  In18  1  0.837180  0.162820  0.767980  1
  In  In19  1  0.162820  0.325641  0.267980  1
  In  In20  1  0.674359  0.837180  0.267980  1
  In  In21  1  0.162820  0.837180  0.267980  1
  Ni  Ni22  1  0.666667  0.333333  0.295898  1
  Ni  Ni23  1  0.333333  0.666667  0.795898  1
