# generated using pymatgen
data_Dy16TlInAg2(IrRh)2
_symmetry_space_group_name_H-M   'P 1'
_cell_length_a   9.56751564
_cell_length_b   9.54388657
_cell_length_c   9.54388800
_cell_angle_alpha   60.25298041
_cell_angle_beta   60.29751500
_cell_angle_gamma   60.29750909
_symmetry_Int_Tables_number   1
_chemical_formula_structural   Dy16TlInAg2(IrRh)2
_chemical_formula_sum   'Dy16 Tl1 In1 Ag2 Ir2 Rh2'
_cell_volume   620.16044805
_cell_formula_units_Z   1
loop_
 _symmetry_equiv_pos_site_id
 _symmetry_equiv_pos_as_xyz
  1  'x, y, z'
loop_
 _atom_site_type_symbol
 _atom_site_label
 _atom_site_symmetry_multiplicity
 _atom_site_fract_x
 _atom_site_fract_y
 _atom_site_fract_z
 _atom_site_occupancy
  Dy  Dy0  1  0.690151  0.311055  0.310299  1
  Dy  Dy1  1  0.691801  0.690942  0.309117  1
  Dy  Dy2  1  0.310937  0.690299  0.310885  1
  Dy  Dy3  1  0.935173  0.937304  0.563206  1
  Dy  Dy4  1  0.148309  0.148471  0.551305  1
  Dy  Dy5  1  0.556923  0.938712  0.566236  1
  Dy  Dy6  1  0.149370  0.149280  0.150534  1
  Dy  Dy7  1  0.310824  0.312108  0.689375  1
  Dy  Dy8  1  0.938766  0.556410  0.565463  1
  Dy  Dy9  1  0.561330  0.561283  0.938985  1
  Dy  Dy10  1  0.559091  0.936243  0.936858  1
  Dy  Dy11  1  0.935969  0.558254  0.938623  1
  Dy  Dy12  1  0.148262  0.551597  0.149734  1
  Dy  Dy13  1  0.311674  0.690311  0.689070  1
  Dy  Dy14  1  0.690670  0.311909  0.688854  1
  Dy  Dy15  1  0.552678  0.148594  0.149095  1
  Tl  Tl16  1  0.918335  0.918706  0.249042  1
  In  In17  1  0.921710  0.921957  0.916520  1
  Ag  Ag18  1  0.251739  0.916993  0.914009  1
  Ag  Ag19  1  0.916877  0.251459  0.914139  1
  Ir  Ir20  1  0.357649  0.357421  0.357841  1
  Ir  Ir21  1  0.927052  0.357479  0.356830  1
  Rh  Rh22  1  0.356844  0.356103  0.927717  1
  Rh  Rh23  1  0.357870  0.927111  0.356262  1
