# generated using pymatgen
data_Er5Lu3Mn(B8Os)3
_symmetry_space_group_name_H-M   'P 1'
_cell_length_a   3.59357000
_cell_length_b   9.05266019
_cell_length_c   11.43101700
_cell_angle_alpha   90.03989961
_cell_angle_beta   90.00000000
_cell_angle_gamma   90.00000000
_symmetry_Int_Tables_number   1
_chemical_formula_structural   Er5Lu3Mn(B8Os)3
_chemical_formula_sum   'Er5 Lu3 Mn1 B24 Os3'
_cell_volume   371.86653127
_cell_formula_units_Z   1
loop_
 _symmetry_equiv_pos_site_id
 _symmetry_equiv_pos_as_xyz
  1  'x, y, z'
loop_
 _atom_site_type_symbol
 _atom_site_label
 _atom_site_symmetry_multiplicity
 _atom_site_fract_x
 _atom_site_fract_y
 _atom_site_fract_z
 _atom_site_occupancy
  Er  Er0  1  0.000000  0.324896  0.412699  1
  Er  Er1  1  0.000000  0.677047  0.582164  1
  Er  Er2  1  0.000000  0.819181  0.088316  1
  Er  Er3  1  0.000000  0.179042  0.914965  1
  Er  Er4  1  0.000000  0.939644  0.371868  1
  Lu  Lu5  1  0.000000  0.056700  0.627201  1
  Lu  Lu6  1  0.000000  0.446214  0.130095  1
  Lu  Lu7  1  0.000000  0.556789  0.872765  1
  Mn  Mn8  1  0.000000  0.636763  0.320345  1
  B  B9  1  0.500000  0.553538  0.431536  1
  B  B10  1  0.500000  0.446756  0.566289  1
  B  B11  1  0.500000  0.054026  0.066793  1
  B  B12  1  0.500000  0.946672  0.933444  1
  B  B13  1  0.500000  0.745775  0.417589  1
  B  B14  1  0.500000  0.251065  0.580132  1
  B  B15  1  0.500000  0.250617  0.080815  1
  B  B16  1  0.500000  0.750751  0.919991  1
  B  B17  1  0.500000  0.788676  0.266025  1
  B  B18  1  0.500000  0.208500  0.734287  1
  B  B19  1  0.500000  0.292735  0.234384  1
  B  B20  1  0.500000  0.708436  0.765768  1
  B  B21  1  0.500000  0.630305  0.186205  1
  B  B22  1  0.500000  0.369714  0.815674  1
  B  B23  1  0.500000  0.131033  0.314829  1
  B  B24  1  0.500000  0.869157  0.684548  1
  B  B25  1  0.500000  0.981663  0.212596  1
  B  B26  1  0.500000  0.018322  0.787012  1
  B  B27  1  0.500000  0.484114  0.287675  1
  B  B28  1  0.500000  0.518403  0.712957  1
  B  B29  1  0.500000  0.604006  0.029158  1
  B  B30  1  0.500000  0.396877  0.971831  1
  B  B31  1  0.500000  0.105067  0.471240  1
  B  B32  1  0.500000  0.894595  0.529357  1
  Os  Os33  1  0.000000  0.361937  0.680032  1
  Os  Os34  1  0.000000  0.138657  0.178482  1
  Os  Os35  1  0.000000  0.862326  0.820931  1
