# generated using pymatgen
data_Nd6Al24Ni3Ru4Pt
_symmetry_space_group_name_H-M   'P 1'
_cell_length_a   8.87170938
_cell_length_b   8.85452324
_cell_length_c   9.59880859
_cell_angle_alpha   90.03679328
_cell_angle_beta   90.05904338
_cell_angle_gamma   119.49640448
_symmetry_Int_Tables_number   1
_chemical_formula_structural   Nd6Al24Ni3Ru4Pt
_chemical_formula_sum   'Nd6 Al24 Ni3 Ru4 Pt1'
_cell_volume   656.29849000
_cell_formula_units_Z   1
loop_
 _symmetry_equiv_pos_site_id
 _symmetry_equiv_pos_as_xyz
  1  'x, y, z'
loop_
 _atom_site_type_symbol
 _atom_site_label
 _atom_site_symmetry_multiplicity
 _atom_site_fract_x
 _atom_site_fract_y
 _atom_site_fract_z
 _atom_site_occupancy
  Nd  Nd0  1  0.189799  0.381095  0.251031  1
  Nd  Nd1  1  0.810201  0.618905  0.748969  1
  Nd  Nd2  1  0.618823  0.809741  0.246824  1
  Nd  Nd3  1  0.381177  0.190259  0.753176  1
  Nd  Nd4  1  0.190649  0.808671  0.249149  1
  Nd  Nd5  1  0.809351  0.191329  0.750851  1
  Al  Al6  1  0.333986  0.666459  0.021597  1
  Al  Al7  1  0.666014  0.333541  0.978403  1
  Al  Al8  1  0.660041  0.330866  0.522274  1
  Al  Al9  1  0.339959  0.669134  0.477726  1
  Al  Al10  1  0.168543  0.326462  0.575368  1
  Al  Al11  1  0.831457  0.673538  0.424632  1
  Al  Al12  1  0.673105  0.838280  0.574002  1
  Al  Al13  1  0.836992  0.672015  0.073402  1
  Al  Al14  1  0.326895  0.161720  0.425998  1
  Al  Al15  1  0.163008  0.327985  0.926598  1
  Al  Al16  1  0.169518  0.841801  0.576807  1
  Al  Al17  1  0.327918  0.165405  0.074553  1
  Al  Al18  1  0.830482  0.158199  0.423193  1
  Al  Al19  1  0.672082  0.834595  0.925447  1
  Al  Al20  1  0.837414  0.165853  0.076204  1
  Al  Al21  1  0.162586  0.834147  0.923796  1
  Al  Al22  1  0.561908  0.124507  0.249002  1
  Al  Al23  1  0.438092  0.875493  0.750998  1
  Al  Al24  1  0.870782  0.435334  0.245830  1
  Al  Al25  1  0.129218  0.564666  0.754170  1
  Al  Al26  1  0.559946  0.438931  0.249711  1
  Al  Al27  1  0.440054  0.561069  0.750289  1
  Al  Al28  1  0.997543  0.001124  0.249961  1
  Al  Al29  1  0.002457  0.998876  0.750039  1
  Ni  Ni30  1  0.500000  0.000000  0.000000  1
  Ni  Ni31  1  0.500000  0.500000  0.000000  1
  Ni  Ni32  1  0.500000  0.500000  0.500000  1
  Ru  Ru33  1  0.000000  0.500000  0.000000  1
  Ru  Ru34  1  0.500000  0.000000  0.500000  1
  Ru  Ru35  1  0.000000  0.000000  0.000000  1
  Ru  Ru36  1  0.000000  0.000000  0.500000  1
  Pt  Pt37  1  0.000000  0.500000  0.500000  1
