# generated using pymatgen
data_Tb5SmMgCo17P12
_symmetry_space_group_name_H-M   'P 1'
_cell_length_a   3.72830900
_cell_length_b   10.59005500
_cell_length_c   12.27540600
_cell_angle_alpha   90.00000000
_cell_angle_beta   90.00000000
_cell_angle_gamma   90.00000000
_symmetry_Int_Tables_number   1
_chemical_formula_structural   Tb5SmMgCo17P12
_chemical_formula_sum   'Tb5 Sm1 Mg1 Co17 P12'
_cell_volume   484.66982278
_cell_formula_units_Z   1
loop_
 _symmetry_equiv_pos_site_id
 _symmetry_equiv_pos_as_xyz
  1  'x, y, z'
loop_
 _atom_site_type_symbol
 _atom_site_label
 _atom_site_symmetry_multiplicity
 _atom_site_fract_x
 _atom_site_fract_y
 _atom_site_fract_z
 _atom_site_occupancy
  Tb  Tb0  1  0.000000  0.500000  0.524929  1
  Tb  Tb1  1  0.500000  0.821025  0.206992  1
  Tb  Tb2  1  0.500000  0.178975  0.206992  1
  Tb  Tb3  1  0.000000  0.682837  0.794548  1
  Tb  Tb4  1  0.000000  0.317163  0.794548  1
  Sm  Sm5  1  0.500000  0.000000  0.478183  1
  Mg  Mg6  1  0.500000  0.500000  0.152927  1
  Co  Co7  1  0.000000  0.000000  0.839814  1
  Co  Co8  1  0.500000  0.500000  0.704282  1
  Co  Co9  1  0.000000  0.000000  0.294715  1
  Co  Co10  1  0.000000  0.500000  0.985833  1
  Co  Co11  1  0.500000  0.000000  0.012134  1
  Co  Co12  1  0.500000  0.329351  0.993095  1
  Co  Co13  1  0.500000  0.670649  0.993095  1
  Co  Co14  1  0.000000  0.163168  0.001811  1
  Co  Co15  1  0.000000  0.836832  0.001811  1
  Co  Co16  1  0.500000  0.296419  0.432494  1
  Co  Co17  1  0.500000  0.703581  0.432494  1
  Co  Co18  1  0.000000  0.203307  0.570963  1
  Co  Co19  1  0.000000  0.796693  0.570963  1
  Co  Co20  1  0.500000  0.880194  0.709677  1
  Co  Co21  1  0.500000  0.119806  0.709677  1
  Co  Co22  1  0.000000  0.622287  0.293157  1
  Co  Co23  1  0.000000  0.377713  0.293157  1
  P  P24  1  0.500000  0.500000  0.883492  1
  P  P25  1  0.000000  0.000000  0.115636  1
  P  P26  1  0.500000  0.500000  0.353285  1
  P  P27  1  0.000000  0.000000  0.657832  1
  P  P28  1  0.500000  0.308845  0.616784  1
  P  P29  1  0.500000  0.691155  0.616784  1
  P  P30  1  0.000000  0.191422  0.385532  1
  P  P31  1  0.000000  0.808578  0.385532  1
  P  P32  1  0.500000  0.849589  0.890857  1
  P  P33  1  0.500000  0.150411  0.890857  1
  P  P34  1  0.000000  0.662467  0.102558  1
  P  P35  1  0.000000  0.337533  0.102558  1
