# generated using pymatgen
data_Tm5Lu3Cd2IrRu
_symmetry_space_group_name_H-M   'P 1'
_cell_length_a   9.47610710
_cell_length_b   9.48133262
_cell_length_c   9.51900834
_cell_angle_alpha   59.83331419
_cell_angle_beta   59.88504564
_cell_angle_gamma   59.73829292
_symmetry_Int_Tables_number   1
_chemical_formula_structural   Tm5Lu3Cd2IrRu
_chemical_formula_sum   'Tm10 Lu6 Cd4 Ir2 Ru2'
_cell_volume   602.26207308
_cell_formula_units_Z   2
loop_
 _symmetry_equiv_pos_site_id
 _symmetry_equiv_pos_as_xyz
  1  'x, y, z'
loop_
 _atom_site_type_symbol
 _atom_site_label
 _atom_site_symmetry_multiplicity
 _atom_site_fract_x
 _atom_site_fract_y
 _atom_site_fract_z
 _atom_site_occupancy
  Tm  Tm0  1  0.438112  0.061995  0.439978  1
  Tm  Tm1  1  0.062004  0.438118  0.059915  1
  Tm  Tm2  1  0.438131  0.438143  0.061876  1
  Tm  Tm3  1  0.059485  0.059485  0.440517  1
  Tm  Tm4  1  0.188561  0.809837  0.812759  1
  Tm  Tm5  1  0.809827  0.188558  0.188845  1
  Tm  Tm6  1  0.809680  0.188655  0.812697  1
  Tm  Tm7  1  0.188661  0.809697  0.188960  1
  Tm  Tm8  1  0.810918  0.810930  0.189067  1
  Tm  Tm9  1  0.188548  0.188554  0.811448  1
  Lu  Lu10  1  0.598463  0.598117  0.597978  1
  Lu  Lu11  1  0.598116  0.598474  0.205437  1
  Lu  Lu12  1  0.596698  0.208971  0.597447  1
  Lu  Lu13  1  0.208962  0.596697  0.596895  1
  Lu  Lu14  1  0.061659  0.438227  0.440042  1
  Lu  Lu15  1  0.438266  0.061627  0.060056  1
  Cd  Cd16  1  0.830340  0.830495  0.830617  1
  Cd  Cd17  1  0.830496  0.830337  0.508552  1
  Cd  Cd18  1  0.830906  0.507282  0.830839  1
  Cd  Cd19  1  0.507276  0.830912  0.830978  1
  Ir  Ir20  1  0.394222  0.825749  0.389543  1
  Ir  Ir21  1  0.825743  0.394224  0.390467  1
  Ru  Ru22  1  0.392269  0.392643  0.388146  1
  Ru  Ru23  1  0.392655  0.392271  0.826938  1
