# generated using pymatgen
data_Lu4Al24Pt6RhAu2
_symmetry_space_group_name_H-M   'P 1'
_cell_length_a   7.52804604
_cell_length_b   7.55711466
_cell_length_c   13.11620363
_cell_angle_alpha   84.61763669
_cell_angle_beta   79.06938963
_cell_angle_gamma   59.86837770
_symmetry_Int_Tables_number   1
_chemical_formula_structural   Lu4Al24Pt6RhAu2
_chemical_formula_sum   'Lu4 Al24 Pt6 Rh1 Au2'
_cell_volume   633.64706254
_cell_formula_units_Z   1
loop_
 _symmetry_equiv_pos_site_id
 _symmetry_equiv_pos_as_xyz
  1  'x, y, z'
loop_
 _atom_site_type_symbol
 _atom_site_label
 _atom_site_symmetry_multiplicity
 _atom_site_fract_x
 _atom_site_fract_y
 _atom_site_fract_z
 _atom_site_occupancy
  Lu  Lu0  1  0.392304  0.169360  0.809450  1
  Lu  Lu1  1  0.607696  0.830640  0.190550  1
  Lu  Lu2  1  0.733805  0.498928  0.810026  1
  Lu  Lu3  1  0.266195  0.501072  0.189974  1
  Al  Al4  1  0.685447  0.830884  0.945826  1
  Al  Al5  1  0.314553  0.169116  0.054174  1
  Al  Al6  1  0.145775  0.839138  0.562236  1
  Al  Al7  1  0.854225  0.160862  0.437764  1
  Al  Al8  1  0.488168  0.158929  0.559094  1
  Al  Al9  1  0.511832  0.841071  0.440906  1
  Al  Al10  1  0.224012  0.160788  0.322710  1
  Al  Al11  1  0.775988  0.839212  0.677290  1
  Al  Al12  1  0.438907  0.506833  0.677640  1
  Al  Al13  1  0.561093  0.493167  0.322360  1
  Al  Al14  1  0.107834  0.155649  0.675600  1
  Al  Al15  1  0.892166  0.844351  0.324400  1
  Al  Al16  1  0.350529  0.498085  0.945533  1
  Al  Al17  1  0.649471  0.501915  0.054467  1
  Al  Al18  1  0.015583  0.172562  0.953417  1
  Al  Al19  1  0.984417  0.827438  0.046583  1
  Al  Al20  1  0.195480  0.499684  0.437837  1
  Al  Al21  1  0.804520  0.500316  0.562163  1
  Al  Al22  1  0.733022  0.164064  0.182211  1
  Al  Al23  1  0.266978  0.835936  0.817789  1
  Al  Al24  1  0.059294  0.630580  0.820791  1
  Al  Al25  1  0.940706  0.369420  0.179209  1
  Al  Al26  1  0.853580  0.043101  0.817180  1
  Al  Al27  1  0.146420  0.956899  0.182820  1
  Pt  Pt28  1  0.656889  0.171788  0.999732  1
  Pt  Pt29  1  0.343111  0.828212  0.000268  1
  Pt  Pt30  1  0.536889  0.166835  0.361376  1
  Pt  Pt31  1  0.463111  0.833165  0.638624  1
  Pt  Pt32  1  0.778355  0.175951  0.637084  1
  Pt  Pt33  1  0.221645  0.824049  0.362916  1
  Rh  Rh34  1  0.000000  0.500000  0.000000  1
  Au  Au35  1  0.119975  0.490253  0.638759  1
  Au  Au36  1  0.880025  0.509747  0.361241  1
