# generated using pymatgen
data_Eu2Zn2CuP3
_symmetry_space_group_name_H-M   'P 1'
_cell_length_a   4.07910600
_cell_length_b   4.07910564
_cell_length_c   21.94520200
_cell_angle_alpha   90.00000000
_cell_angle_beta   90.00000000
_cell_angle_gamma   120.00000295
_symmetry_Int_Tables_number   1
_chemical_formula_structural   Eu2Zn2CuP3
_chemical_formula_sum   'Eu4 Zn4 Cu2 P6'
_cell_volume   316.22787152
_cell_formula_units_Z   2
loop_
 _symmetry_equiv_pos_site_id
 _symmetry_equiv_pos_as_xyz
  1  'x, y, z'
loop_
 _atom_site_type_symbol
 _atom_site_label
 _atom_site_symmetry_multiplicity
 _atom_site_fract_x
 _atom_site_fract_y
 _atom_site_fract_z
 _atom_site_occupancy
  Eu  Eu0  1  0.000000  0.000000  0.656879  1
  Eu  Eu1  1  0.000000  0.000000  0.343121  1
  Eu  Eu2  1  0.000000  0.000000  0.156879  1
  Eu  Eu3  1  0.000000  0.000000  0.843121  1
  Zn  Zn4  1  0.333333  0.666667  0.957684  1
  Zn  Zn5  1  0.666667  0.333333  0.457684  1
  Zn  Zn6  1  0.666667  0.333333  0.042316  1
  Zn  Zn7  1  0.333333  0.666667  0.542316  1
  Cu  Cu8  1  0.666667  0.333333  0.750000  1
  Cu  Cu9  1  0.333333  0.666667  0.250000  1
  P  P10  1  0.666667  0.333333  0.573082  1
  P  P11  1  0.333333  0.666667  0.426918  1
  P  P12  1  0.333333  0.666667  0.750000  1
  P  P13  1  0.666667  0.333333  0.926918  1
  P  P14  1  0.333333  0.666667  0.073082  1
  P  P15  1  0.666667  0.333333  0.250000  1
