# generated using pymatgen
data_Li4Dy(ThPb2)2
_symmetry_space_group_name_H-M   'P 1'
_cell_length_a   4.76676593
_cell_length_b   7.27467857
_cell_length_c   8.79224531
_cell_angle_alpha   114.43739694
_cell_angle_beta   105.72843079
_cell_angle_gamma   89.99999862
_symmetry_Int_Tables_number   1
_chemical_formula_structural   Li4Dy(ThPb2)2
_chemical_formula_sum   'Li4 Dy1 Th2 Pb4'
_cell_volume   264.98256643
_cell_formula_units_Z   1
loop_
 _symmetry_equiv_pos_site_id
 _symmetry_equiv_pos_as_xyz
  1  'x, y, z'
loop_
 _atom_site_type_symbol
 _atom_site_label
 _atom_site_symmetry_multiplicity
 _atom_site_fract_x
 _atom_site_fract_y
 _atom_site_fract_z
 _atom_site_occupancy
  Li  Li0  1  0.673099  0.989078  0.346200  1
  Li  Li1  1  0.326901  0.010922  0.653800  1
  Li  Li2  1  0.326901  0.642879  0.653800  1
  Li  Li3  1  0.673099  0.357121  0.346200  1
  Dy  Dy4  1  0.000000  0.000000  0.000000  1
  Th  Th5  1  0.123310  0.623310  0.246620  1
  Th  Th6  1  0.876690  0.376690  0.753380  1
  Pb  Pb7  1  0.500000  0.716989  0.000000  1
  Pb  Pb8  1  0.500000  0.283011  0.000000  1
  Pb  Pb9  1  0.783713  0.783713  0.567426  1
  Pb  Pb10  1  0.216287  0.216287  0.432574  1
