# generated using pymatgen
data_NdDy(HoB5)2
_symmetry_space_group_name_H-M   'P 1'
_cell_length_a   7.12793300
_cell_length_b   7.11640014
_cell_length_c   7.14817200
_cell_angle_alpha   76.68589377
_cell_angle_beta   90.00000000
_cell_angle_gamma   90.00000000
_symmetry_Int_Tables_number   1
_chemical_formula_structural   NdDy(HoB5)2
_chemical_formula_sum   'Nd2 Dy2 Ho4 B20'
_cell_volume   352.84693165
_cell_formula_units_Z   2
loop_
 _symmetry_equiv_pos_site_id
 _symmetry_equiv_pos_as_xyz
  1  'x, y, z'
loop_
 _atom_site_type_symbol
 _atom_site_label
 _atom_site_symmetry_multiplicity
 _atom_site_fract_x
 _atom_site_fract_y
 _atom_site_fract_z
 _atom_site_occupancy
  Nd  Nd0  1  0.688798  0.779828  0.622246  1
  Nd  Nd1  1  0.188798  0.220172  0.877754  1
  Dy  Dy2  1  0.306932  0.233151  0.373293  1
  Dy  Dy3  1  0.806932  0.766849  0.126707  1
  Ho  Ho4  1  0.315046  0.754645  0.253388  1
  Ho  Ho5  1  0.815046  0.245355  0.246612  1
  Ho  Ho6  1  0.684466  0.246776  0.747365  1
  Ho  Ho7  1  0.184466  0.753224  0.752635  1
  B  B8  1  0.504016  0.313214  0.043207  1
  B  B9  1  0.004016  0.686786  0.456793  1
  B  B10  1  0.496596  0.685341  0.961347  1
  B  B11  1  0.996596  0.314659  0.538653  1
  B  B12  1  0.490761  0.924520  0.930761  1
  B  B13  1  0.990761  0.075480  0.569239  1
  B  B14  1  0.517113  0.071807  0.080637  1
  B  B15  1  0.017113  0.928193  0.419363  1
  B  B16  1  0.326178  0.496121  0.040959  1
  B  B17  1  0.826178  0.503879  0.459041  1
  B  B18  1  0.672977  0.503350  0.960844  1
  B  B19  1  0.172977  0.496650  0.539156  1
  B  B20  1  0.909611  0.500070  0.910434  1
  B  B21  1  0.409611  0.499930  0.589566  1
  B  B22  1  0.088668  0.502646  0.089040  1
  B  B23  1  0.588668  0.497354  0.410960  1
  B  B24  1  0.960824  0.497662  0.672692  1
  B  B25  1  0.460824  0.502338  0.827308  1
  B  B26  1  0.038015  0.504192  0.324957  1
  B  B27  1  0.538015  0.495808  0.175043  1
