# generated using pymatgen
data_CaLa6Cd22As
_symmetry_space_group_name_H-M   'P 1'
_cell_length_a   10.24735937
_cell_length_b   10.24712172
_cell_length_c   10.24713034
_cell_angle_alpha   60.06372303
_cell_angle_beta   60.06356292
_cell_angle_gamma   60.06148081
_symmetry_Int_Tables_number   1
_chemical_formula_structural   CaLa6Cd22As
_chemical_formula_sum   'Ca1 La6 Cd22 As1'
_cell_volume   761.93864820
_cell_formula_units_Z   1
loop_
 _symmetry_equiv_pos_site_id
 _symmetry_equiv_pos_as_xyz
  1  'x, y, z'
loop_
 _atom_site_type_symbol
 _atom_site_label
 _atom_site_symmetry_multiplicity
 _atom_site_fract_x
 _atom_site_fract_y
 _atom_site_fract_z
 _atom_site_occupancy
  Ca  Ca0  1  0.500000  0.500000  0.500000  1
  La  La1  1  0.790137  0.790166  0.209903  1
  La  La2  1  0.209807  0.790144  0.209879  1
  La  La3  1  0.790053  0.209871  0.209835  1
  La  La4  1  0.209863  0.209834  0.790097  1
  La  La5  1  0.790193  0.209856  0.790121  1
  La  La6  1  0.209947  0.790129  0.790165  1
  Cd  Cd7  1  0.831494  0.831501  0.504902  1
  Cd  Cd8  1  0.831497  0.504902  0.831500  1
  Cd  Cd9  1  0.504911  0.831491  0.831492  1
  Cd  Cd10  1  0.831801  0.831811  0.831813  1
  Cd  Cd11  1  0.168506  0.168499  0.495098  1
  Cd  Cd12  1  0.168503  0.495098  0.168500  1
  Cd  Cd13  1  0.495089  0.168509  0.168508  1
  Cd  Cd14  1  0.168199  0.168189  0.168187  1
  Cd  Cd15  1  0.624511  0.624524  0.126445  1
  Cd  Cd16  1  0.624512  0.126447  0.624524  1
  Cd  Cd17  1  0.126432  0.624516  0.624520  1
  Cd  Cd18  1  0.624562  0.624569  0.624566  1
  Cd  Cd19  1  0.375489  0.375476  0.873555  1
  Cd  Cd20  1  0.375488  0.873553  0.375476  1
  Cd  Cd21  1  0.873568  0.375484  0.375480  1
  Cd  Cd22  1  0.375438  0.375431  0.375434  1
  Cd  Cd23  1  0.000000  0.000000  0.500000  1
  Cd  Cd24  1  0.500000  0.000000  0.500000  1
  Cd  Cd25  1  0.000000  0.500000  0.500000  1
  Cd  Cd26  1  0.500000  0.500000  0.000000  1
  Cd  Cd27  1  0.000000  0.500000  0.000000  1
  Cd  Cd28  1  0.500000  0.000000  0.000000  1
  As  As29  1  0.000000  0.000000  0.000000  1
