# generated using pymatgen
data_Hf6Mn5FeSi12
_symmetry_space_group_name_H-M   'P 1'
_cell_length_a   9.76197805
_cell_length_b   9.76165308
_cell_length_c   9.76201723
_cell_angle_alpha   149.65457061
_cell_angle_beta   132.68987973
_cell_angle_gamma   57.24346853
_symmetry_Int_Tables_number   1
_chemical_formula_structural   Hf6Mn5FeSi12
_chemical_formula_sum   'Hf6 Mn5 Fe1 Si12'
_cell_volume   343.00671316
_cell_formula_units_Z   1
loop_
 _symmetry_equiv_pos_site_id
 _symmetry_equiv_pos_as_xyz
  1  'x, y, z'
loop_
 _atom_site_type_symbol
 _atom_site_label
 _atom_site_symmetry_multiplicity
 _atom_site_fract_x
 _atom_site_fract_y
 _atom_site_fract_z
 _atom_site_occupancy
  Hf  Hf0  1  0.857243  0.594711  0.262540  1
  Hf  Hf1  1  0.142191  0.405037  0.737151  1
  Hf  Hf2  1  0.667828  0.405301  0.262540  1
  Hf  Hf3  1  0.332110  0.594955  0.737152  1
  Hf  Hf4  1  0.141120  0.141588  0.999536  1
  Hf  Hf5  1  0.857962  0.858408  0.999545  1
  Mn  Mn6  1  0.747249  0.999966  0.747222  1
  Mn  Mn7  1  0.999954  0.000091  0.500079  1
  Mn  Mn8  1  0.500011  0.500130  0.500107  1
  Mn  Mn9  1  0.500049  0.999948  0.999929  1
  Mn  Mn10  1  0.999965  0.499877  0.999870  1
  Fe  Fe11  1  0.254683  0.999996  0.254679  1
  Si  Si12  1  0.486669  0.136789  0.350083  1
  Si  Si13  1  0.513047  0.863279  0.649583  1
  Si  Si14  1  0.213275  0.863365  0.350037  1
  Si  Si15  1  0.786326  0.136583  0.649631  1
  Si  Si16  1  0.701425  0.701081  0.000235  1
  Si  Si17  1  0.299112  0.298910  0.000297  1
  Si  Si18  1  0.498621  0.743025  0.241649  1
  Si  Si19  1  0.498635  0.256967  0.755607  1
  Si  Si20  1  0.001595  0.252899  0.254500  1
  Si  Si21  1  0.211633  0.711942  0.499591  1
  Si  Si22  1  0.001607  0.747098  0.748705  1
  Si  Si23  1  0.787690  0.288055  0.499732  1
