# generated using pymatgen
data_Tm4MgB4SbRh10
_symmetry_space_group_name_H-M   'P 1'
_cell_length_a   9.52528200
_cell_length_b   9.52528200
_cell_length_c   3.24448300
_cell_angle_alpha   90.00000000
_cell_angle_beta   90.00000000
_cell_angle_gamma   90.00000000
_symmetry_Int_Tables_number   1
_chemical_formula_structural   Tm4MgB4SbRh10
_chemical_formula_sum   'Tm4 Mg1 B4 Sb1 Rh10'
_cell_volume   294.37517792
_cell_formula_units_Z   1
loop_
 _symmetry_equiv_pos_site_id
 _symmetry_equiv_pos_as_xyz
  1  'x, y, z'
loop_
 _atom_site_type_symbol
 _atom_site_label
 _atom_site_symmetry_multiplicity
 _atom_site_fract_x
 _atom_site_fract_y
 _atom_site_fract_z
 _atom_site_occupancy
  Tm  Tm0  1  0.672904  0.177033  0.000000  1
  Tm  Tm1  1  0.327096  0.822967  0.000000  1
  Tm  Tm2  1  0.177033  0.327096  0.000000  1
  Tm  Tm3  1  0.822967  0.672904  0.000000  1
  Mg  Mg4  1  0.500000  0.500000  0.000000  1
  B  B5  1  0.123322  0.617790  0.000000  1
  B  B6  1  0.876678  0.382210  0.000000  1
  B  B7  1  0.617790  0.876678  0.000000  1
  B  B8  1  0.382210  0.123322  0.000000  1
  Sb  Sb9  1  0.000000  0.000000  0.000000  1
  Rh  Rh10  1  0.500000  0.000000  0.500000  1
  Rh  Rh11  1  0.000000  0.500000  0.500000  1
  Rh  Rh12  1  0.222232  0.070392  0.500000  1
  Rh  Rh13  1  0.777768  0.929608  0.500000  1
  Rh  Rh14  1  0.070392  0.777768  0.500000  1
  Rh  Rh15  1  0.723531  0.428079  0.500000  1
  Rh  Rh16  1  0.929608  0.222232  0.500000  1
  Rh  Rh17  1  0.276469  0.571921  0.500000  1
  Rh  Rh18  1  0.571921  0.723531  0.500000  1
  Rh  Rh19  1  0.428079  0.276469  0.500000  1
