# generated using pymatgen
data_CaHo6NiBr12
_symmetry_space_group_name_H-M   'P 1'
_cell_length_a   9.15075979
_cell_length_b   9.15075814
_cell_length_c   9.15075840
_cell_angle_alpha   106.53363949
_cell_angle_beta   106.53364423
_cell_angle_gamma   106.53363480
_symmetry_Int_Tables_number   1
_chemical_formula_structural   CaHo6NiBr12
_chemical_formula_sum   'Ca1 Ho6 Ni1 Br12'
_cell_volume   646.08798729
_cell_formula_units_Z   1
loop_
 _symmetry_equiv_pos_site_id
 _symmetry_equiv_pos_as_xyz
  1  'x, y, z'
loop_
 _atom_site_type_symbol
 _atom_site_label
 _atom_site_symmetry_multiplicity
 _atom_site_fract_x
 _atom_site_fract_y
 _atom_site_fract_z
 _atom_site_occupancy
  Ca  Ca0  1  0.500000  0.500000  0.500000  1
  Ho  Ho1  1  0.099428  0.023023  0.305071  1
  Ho  Ho2  1  0.023023  0.305071  0.099428  1
  Ho  Ho3  1  0.305071  0.099428  0.023023  1
  Ho  Ho4  1  0.900571  0.976977  0.694929  1
  Ho  Ho5  1  0.976977  0.694929  0.900571  1
  Ho  Ho6  1  0.694929  0.900571  0.976977  1
  Ni  Ni7  1  0.000000  0.000000  0.000000  1
  Br  Br8  1  0.074372  0.676960  0.221086  1
  Br  Br9  1  0.676960  0.221086  0.074372  1
  Br  Br10  1  0.221086  0.074372  0.676960  1
  Br  Br11  1  0.925628  0.323040  0.778914  1
  Br  Br12  1  0.323040  0.778914  0.925628  1
  Br  Br13  1  0.778914  0.925628  0.323040  1
  Br  Br14  1  0.452541  0.152336  0.375576  1
  Br  Br15  1  0.152336  0.375576  0.452541  1
  Br  Br16  1  0.375576  0.452541  0.152336  1
  Br  Br17  1  0.547459  0.847664  0.624424  1
  Br  Br18  1  0.847664  0.624424  0.547459  1
  Br  Br19  1  0.624424  0.547459  0.847664  1
