# generated using pymatgen
data_Zr8Si13GeRh8
_symmetry_space_group_name_H-M   'P 1'
_cell_length_a   9.74628787
_cell_length_b   9.74628733
_cell_length_c   9.74628740
_cell_angle_alpha   94.40109227
_cell_angle_beta   94.40109506
_cell_angle_gamma   147.83557539
_symmetry_Int_Tables_number   1
_chemical_formula_structural   Zr8Si13GeRh8
_chemical_formula_sum   'Zr8 Si13 Ge1 Rh8'
_cell_volume   473.56326891
_cell_formula_units_Z   1
loop_
 _symmetry_equiv_pos_site_id
 _symmetry_equiv_pos_as_xyz
  1  'x, y, z'
loop_
 _atom_site_type_symbol
 _atom_site_label
 _atom_site_symmetry_multiplicity
 _atom_site_fract_x
 _atom_site_fract_y
 _atom_site_fract_z
 _atom_site_occupancy
  Zr  Zr0  1  0.692497  0.498280  0.194217  1
  Zr  Zr1  1  0.498280  0.692497  0.194217  1
  Zr  Zr2  1  0.498280  0.304063  0.805783  1
  Zr  Zr3  1  0.304063  0.498280  0.805783  1
  Zr  Zr4  1  0.866011  0.866011  0.728132  1
  Zr  Zr5  1  0.137879  0.866011  0.000000  1
  Zr  Zr6  1  0.866011  0.137879  0.000000  1
  Zr  Zr7  1  0.137879  0.137879  0.271868  1
  Si  Si8  1  0.251941  0.251941  0.000000  1
  Si  Si9  1  0.088744  0.500224  0.588519  1
  Si  Si10  1  0.500224  0.088744  0.588519  1
  Si  Si11  1  0.500224  0.911704  0.411481  1
  Si  Si12  1  0.911704  0.500224  0.411481  1
  Si  Si13  1  0.708004  0.999247  0.708757  1
  Si  Si14  1  0.999247  0.708004  0.708757  1
  Si  Si15  1  0.706241  0.706241  0.411370  1
  Si  Si16  1  0.294871  0.706241  0.000000  1
  Si  Si17  1  0.290491  0.999247  0.291243  1
  Si  Si18  1  0.706241  0.294871  0.000000  1
  Si  Si19  1  0.294871  0.294871  0.588630  1
  Si  Si20  1  0.999247  0.290491  0.291243  1
  Ge  Ge21  1  0.747990  0.747990  0.000000  1
  Rh  Rh22  1  0.102165  0.897734  0.500135  1
  Rh  Rh23  1  0.897734  0.397600  0.795570  1
  Rh  Rh24  1  0.602030  0.102165  0.204430  1
  Rh  Rh25  1  0.102165  0.602030  0.204430  1
  Rh  Rh26  1  0.602030  0.397600  0.499865  1
  Rh  Rh27  1  0.397600  0.897734  0.795570  1
  Rh  Rh28  1  0.897734  0.102165  0.500135  1
  Rh  Rh29  1  0.397600  0.602030  0.499865  1
