# generated using pymatgen
data_Ho2Er2ScOs7
_symmetry_space_group_name_H-M   'P 1'
_cell_length_a   5.38909500
_cell_length_b   5.38909460
_cell_length_c   8.84914500
_cell_angle_alpha   90.00000000
_cell_angle_beta   90.00000000
_cell_angle_gamma   119.99999632
_symmetry_Int_Tables_number   1
_chemical_formula_structural   Ho2Er2ScOs7
_chemical_formula_sum   'Ho2 Er2 Sc1 Os7'
_cell_volume   222.56845237
_cell_formula_units_Z   1
loop_
 _symmetry_equiv_pos_site_id
 _symmetry_equiv_pos_as_xyz
  1  'x, y, z'
loop_
 _atom_site_type_symbol
 _atom_site_label
 _atom_site_symmetry_multiplicity
 _atom_site_fract_x
 _atom_site_fract_y
 _atom_site_fract_z
 _atom_site_occupancy
  Ho  Ho0  1  0.333333  0.666667  0.423382  1
  Ho  Ho1  1  0.666667  0.333333  0.576618  1
  Er  Er2  1  0.666667  0.333333  0.939757  1
  Er  Er3  1  0.333333  0.666667  0.060243  1
  Sc  Sc4  1  0.000000  0.000000  0.500000  1
  Os  Os5  1  0.000000  0.000000  0.000000  1
  Os  Os6  1  0.827352  0.172648  0.244929  1
  Os  Os7  1  0.827352  0.654705  0.244929  1
  Os  Os8  1  0.345295  0.172648  0.244929  1
  Os  Os9  1  0.172648  0.827352  0.755071  1
  Os  Os10  1  0.172648  0.345295  0.755071  1
  Os  Os11  1  0.654705  0.827352  0.755071  1
