# generated using pymatgen
data_Tb4Ni2B16PtRh
_symmetry_space_group_name_H-M   'P 1'
_cell_length_a   6.93148765
_cell_length_b   6.93148841
_cell_length_c   6.93148738
_cell_angle_alpha   113.35256826
_cell_angle_beta   111.33983269
_cell_angle_gamma   103.86960514
_symmetry_Int_Tables_number   1
_chemical_formula_structural   Tb4Ni2B16PtRh
_chemical_formula_sum   'Tb4 Ni2 B16 Pt1 Rh1'
_cell_volume   254.46331155
_cell_formula_units_Z   1
loop_
 _symmetry_equiv_pos_site_id
 _symmetry_equiv_pos_as_xyz
  1  'x, y, z'
loop_
 _atom_site_type_symbol
 _atom_site_label
 _atom_site_symmetry_multiplicity
 _atom_site_fract_x
 _atom_site_fract_y
 _atom_site_fract_z
 _atom_site_occupancy
  Tb  Tb0  1  0.206010  0.208112  0.002102  1
  Tb  Tb1  1  0.793990  0.796092  0.002102  1
  Tb  Tb2  1  0.749789  0.247880  0.498092  1
  Tb  Tb3  1  0.250211  0.748303  0.498092  1
  Ni  Ni4  1  0.744091  0.500567  0.244658  1
  Ni  Ni5  1  0.255909  0.500567  0.756477  1
  B  B6  1  0.107961  0.272420  0.380380  1
  B  B7  1  0.891345  0.727136  0.618480  1
  B  B8  1  0.892039  0.272420  0.164460  1
  B  B9  1  0.108655  0.727136  0.835790  1
  B  B10  1  0.730278  0.888915  0.619192  1
  B  B11  1  0.266857  0.109865  0.376722  1
  B  B12  1  0.733143  0.109865  0.843007  1
  B  B13  1  0.269722  0.888915  0.158638  1
  B  B14  1  0.411419  0.418753  0.525141  1
  B  B15  1  0.891415  0.886428  0.472976  1
  B  B16  1  0.588581  0.113721  0.007335  1
  B  B17  1  0.108585  0.581562  0.995012  1
  B  B18  1  0.586548  0.581562  0.472976  1
  B  B19  1  0.106387  0.113721  0.525141  1
  B  B20  1  0.893613  0.418753  0.007335  1
  B  B21  1  0.413452  0.886428  0.995012  1
  Pt  Pt22  1  0.500000  0.276396  0.776396  1
  Rh  Rh23  1  0.500000  0.724485  0.224485  1
