# generated using pymatgen
data_Ho2Al20FeRh3
_symmetry_space_group_name_H-M   'P 1'
_cell_length_a   6.82150071
_cell_length_b   6.81707418
_cell_length_c   9.11251829
_cell_angle_alpha   90.08122272
_cell_angle_beta   90.14090876
_cell_angle_gamma   97.17863059
_symmetry_Int_Tables_number   1
_chemical_formula_structural   Ho2Al20FeRh3
_chemical_formula_sum   'Ho2 Al20 Fe1 Rh3'
_cell_volume   420.43291480
_cell_formula_units_Z   1
loop_
 _symmetry_equiv_pos_site_id
 _symmetry_equiv_pos_as_xyz
  1  'x, y, z'
loop_
 _atom_site_type_symbol
 _atom_site_label
 _atom_site_symmetry_multiplicity
 _atom_site_fract_x
 _atom_site_fract_y
 _atom_site_fract_z
 _atom_site_occupancy
  Ho  Ho0  1  0.872166  0.130920  0.751418  1
  Ho  Ho1  1  0.127834  0.869080  0.248582  1
  Al  Al2  1  0.622672  0.378779  0.550807  1
  Al  Al3  1  0.377328  0.621221  0.449193  1
  Al  Al4  1  0.371357  0.619650  0.047102  1
  Al  Al5  1  0.628643  0.380350  0.952898  1
  Al  Al6  1  0.221931  0.223007  0.498629  1
  Al  Al7  1  0.778069  0.776993  0.501371  1
  Al  Al8  1  0.782322  0.773704  0.002817  1
  Al  Al9  1  0.217678  0.226296  0.997183  1
  Al  Al10  1  0.848429  0.159401  0.100344  1
  Al  Al11  1  0.151571  0.840599  0.899656  1
  Al  Al12  1  0.154322  0.846130  0.604052  1
  Al  Al13  1  0.845678  0.153870  0.395948  1
  Al  Al14  1  0.860390  0.587111  0.754975  1
  Al  Al15  1  0.139610  0.412889  0.245025  1
  Al  Al16  1  0.409658  0.143209  0.751189  1
  Al  Al17  1  0.590342  0.856791  0.248811  1
  Al  Al18  1  0.222811  0.481037  0.756668  1
  Al  Al19  1  0.777189  0.518963  0.243332  1
  Al  Al20  1  0.520925  0.773576  0.751112  1
  Al  Al21  1  0.479075  0.226424  0.248888  1
  Fe  Fe22  1  0.000000  0.500000  0.000000  1
  Rh  Rh23  1  0.000000  0.500000  0.500000  1
  Rh  Rh24  1  0.500000  0.000000  0.000000  1
  Rh  Rh25  1  0.500000  0.000000  0.500000  1
