# generated using pymatgen
data_ErTm3Zn2(B2Ir5)2
_symmetry_space_group_name_H-M   'P 1'
_cell_length_a   9.59033759
_cell_length_b   9.59035759
_cell_length_c   3.12133000
_cell_angle_alpha   90.00000000
_cell_angle_beta   90.00000000
_cell_angle_gamma   89.93403158
_symmetry_Int_Tables_number   1
_chemical_formula_structural   ErTm3Zn2(B2Ir5)2
_chemical_formula_sum   'Er1 Tm3 Zn2 B4 Ir10'
_cell_volume   287.08340882
_cell_formula_units_Z   1
loop_
 _symmetry_equiv_pos_site_id
 _symmetry_equiv_pos_as_xyz
  1  'x, y, z'
loop_
 _atom_site_type_symbol
 _atom_site_label
 _atom_site_symmetry_multiplicity
 _atom_site_fract_x
 _atom_site_fract_y
 _atom_site_fract_z
 _atom_site_occupancy
  Er  Er0  1  0.322356  0.822356  0.000000  1
  Tm  Tm1  1  0.677755  0.177753  0.000000  1
  Tm  Tm2  1  0.177498  0.322393  0.000000  1
  Tm  Tm3  1  0.822393  0.677497  0.000000  1
  Zn  Zn4  1  0.500012  0.500078  0.000000  1
  Zn  Zn5  1  0.000075  0.000013  0.000000  1
  B  B6  1  0.124411  0.624411  0.000000  1
  B  B7  1  0.875203  0.375205  0.000000  1
  B  B8  1  0.375314  0.124967  0.000000  1
  B  B9  1  0.624965  0.875313  0.000000  1
  Ir  Ir10  1  0.568314  0.719857  0.500000  1
  Ir  Ir11  1  0.432331  0.280283  0.500000  1
  Ir  Ir12  1  0.932315  0.219868  0.500000  1
  Ir  Ir13  1  0.067073  0.779796  0.500000  1
  Ir  Ir14  1  0.780281  0.932328  0.500000  1
  Ir  Ir15  1  0.219859  0.068316  0.500000  1
  Ir  Ir16  1  0.279794  0.567069  0.500000  1
  Ir  Ir17  1  0.719867  0.432316  0.500000  1
  Ir  Ir18  1  0.999831  0.499832  0.500000  1
  Ir  Ir19  1  0.500351  0.000348  0.500000  1
