# generated using pymatgen
data_DyTmMn12P7
_symmetry_space_group_name_H-M   'P 1'
_cell_length_a   9.28801600
_cell_length_b   9.28801530
_cell_length_c   3.59007300
_cell_angle_alpha   90.00000000
_cell_angle_beta   90.00000000
_cell_angle_gamma   120.00000249
_symmetry_Int_Tables_number   1
_chemical_formula_structural   DyTmMn12P7
_chemical_formula_sum   'Dy1 Tm1 Mn12 P7'
_cell_volume   268.21297134
_cell_formula_units_Z   1
loop_
 _symmetry_equiv_pos_site_id
 _symmetry_equiv_pos_as_xyz
  1  'x, y, z'
loop_
 _atom_site_type_symbol
 _atom_site_label
 _atom_site_symmetry_multiplicity
 _atom_site_fract_x
 _atom_site_fract_y
 _atom_site_fract_z
 _atom_site_occupancy
  Dy  Dy0  1  0.666667  0.333333  0.500000  1
  Tm  Tm1  1  0.000000  0.000000  0.000000  1
  Mn  Mn2  1  0.710148  0.618550  0.000000  1
  Mn  Mn3  1  0.381450  0.091598  0.000000  1
  Mn  Mn4  1  0.908402  0.289852  0.000000  1
  Mn  Mn5  1  0.213766  0.389781  0.000000  1
  Mn  Mn6  1  0.610219  0.823985  0.000000  1
  Mn  Mn7  1  0.176015  0.786234  0.000000  1
  Mn  Mn8  1  0.288320  0.229307  0.500000  1
  Mn  Mn9  1  0.770693  0.059012  0.500000  1
  Mn  Mn10  1  0.940988  0.711680  0.500000  1
  Mn  Mn11  1  0.458420  0.563630  0.500000  1
  Mn  Mn12  1  0.436370  0.894791  0.500000  1
  Mn  Mn13  1  0.105209  0.541580  0.500000  1
  P  P14  1  0.453635  0.375978  0.000000  1
  P  P15  1  0.624022  0.077657  0.000000  1
  P  P16  1  0.922343  0.546365  0.000000  1
  P  P17  1  0.052316  0.256951  0.500000  1
  P  P18  1  0.743049  0.795367  0.500000  1
  P  P19  1  0.204633  0.947684  0.500000  1
  P  P20  1  0.333333  0.666667  0.000000  1
