# generated using pymatgen
data_K8Ba4TiSnP8
_symmetry_space_group_name_H-M   'P 1'
_cell_length_a   10.31619908
_cell_length_b   10.30675152
_cell_length_c   7.91748250
_cell_angle_alpha   88.84072694
_cell_angle_beta   89.03343717
_cell_angle_gamma   119.81797975
_symmetry_Int_Tables_number   1
_chemical_formula_structural   K8Ba4TiSnP8
_chemical_formula_sum   'K8 Ba4 Ti1 Sn1 P8'
_cell_volume   729.88531844
_cell_formula_units_Z   1
loop_
 _symmetry_equiv_pos_site_id
 _symmetry_equiv_pos_as_xyz
  1  'x, y, z'
loop_
 _atom_site_type_symbol
 _atom_site_label
 _atom_site_symmetry_multiplicity
 _atom_site_fract_x
 _atom_site_fract_y
 _atom_site_fract_z
 _atom_site_occupancy
  K  K0  1  0.058157  0.527921  0.617714  1
  K  K1  1  0.524908  0.052250  0.115492  1
  K  K2  1  0.274895  0.132869  0.819920  1
  K  K3  1  0.870814  0.727370  0.773339  1
  K  K4  1  0.861554  0.145185  0.796083  1
  K  K5  1  0.723042  0.869208  0.266638  1
  K  K6  1  0.136362  0.279995  0.313148  1
  K  K7  1  0.148352  0.860956  0.290107  1
  Ba  Ba8  1  0.466450  0.938545  0.607681  1
  Ba  Ba9  1  0.465597  0.524420  0.619006  1
  Ba  Ba10  1  0.940867  0.468494  0.115224  1
  Ba  Ba11  1  0.523214  0.466549  0.121145  1
  Ti  Ti12  1  0.335746  0.667953  0.008464  1
  Sn  Sn13  1  0.669607  0.337042  0.504584  1
  P  P14  1  0.667248  0.347096  0.831183  1
  P  P15  1  0.346233  0.666835  0.318659  1
  P  P16  1  0.588162  0.788581  0.887541  1
  P  P17  1  0.207713  0.407880  0.921471  1
  P  P18  1  0.204337  0.790639  0.907139  1
  P  P19  1  0.389817  0.197750  0.418841  1
  P  P20  1  0.798798  0.609182  0.381282  1
  P  P21  1  0.798126  0.193280  0.402834  1
