# generated using pymatgen
data_Cs4Na2NdSmSb4
_symmetry_space_group_name_H-M   'P 1'
_cell_length_a   11.76193452
_cell_length_b   11.76193422
_cell_length_c   7.68511600
_cell_angle_alpha   90.00000000
_cell_angle_beta   90.00000000
_cell_angle_gamma   98.99388086
_symmetry_Int_Tables_number   1
_chemical_formula_structural   Cs4Na2NdSmSb4
_chemical_formula_sum   'Cs8 Na4 Nd2 Sm2 Sb8'
_cell_volume   1050.11098494
_cell_formula_units_Z   2
loop_
 _symmetry_equiv_pos_site_id
 _symmetry_equiv_pos_as_xyz
  1  'x, y, z'
loop_
 _atom_site_type_symbol
 _atom_site_label
 _atom_site_symmetry_multiplicity
 _atom_site_fract_x
 _atom_site_fract_y
 _atom_site_fract_z
 _atom_site_occupancy
  Cs  Cs0  1  0.069540  0.430460  0.250000  1
  Cs  Cs1  1  0.430460  0.069540  0.750000  1
  Cs  Cs2  1  0.930360  0.569640  0.750000  1
  Cs  Cs3  1  0.569640  0.930360  0.250000  1
  Cs  Cs4  1  0.677939  0.322237  0.211570  1
  Cs  Cs5  1  0.822061  0.177763  0.711570  1
  Cs  Cs6  1  0.322237  0.677939  0.788430  1
  Cs  Cs7  1  0.177763  0.822061  0.288430  1
  Na  Na8  1  0.382297  0.382297  0.000000  1
  Na  Na9  1  0.117703  0.117703  0.500000  1
  Na  Na10  1  0.617687  0.617687  0.000000  1
  Na  Na11  1  0.882313  0.882313  0.500000  1
  Nd  Nd12  1  0.868114  0.868114  0.000000  1
  Nd  Nd13  1  0.631886  0.631886  0.500000  1
  Sm  Sm14  1  0.132073  0.132073  0.000000  1
  Sm  Sm15  1  0.367927  0.367927  0.500000  1
  Sb  Sb16  1  0.845495  0.654504  0.250000  1
  Sb  Sb17  1  0.654504  0.845495  0.750000  1
  Sb  Sb18  1  0.156654  0.343345  0.750000  1
  Sb  Sb19  1  0.343345  0.156654  0.250000  1
  Sb  Sb20  1  0.904918  0.097456  0.215082  1
  Sb  Sb21  1  0.595082  0.402544  0.715082  1
  Sb  Sb22  1  0.097456  0.904918  0.784918  1
  Sb  Sb23  1  0.402544  0.595082  0.284918  1
