# generated using pymatgen
data_YLu17Sc2(Cd3Ru)2
_symmetry_space_group_name_H-M   'P 1'
_cell_length_a   9.33204910
_cell_length_b   9.32963309
_cell_length_c   9.62512400
_cell_angle_alpha   90.00000000
_cell_angle_beta   90.00000000
_cell_angle_gamma   119.99143838
_symmetry_Int_Tables_number   1
_chemical_formula_structural   YLu17Sc2(Cd3Ru)2
_chemical_formula_sum   'Y1 Lu17 Sc2 Cd6 Ru2'
_cell_volume   725.79839896
_cell_formula_units_Z   1
loop_
 _symmetry_equiv_pos_site_id
 _symmetry_equiv_pos_as_xyz
  1  'x, y, z'
loop_
 _atom_site_type_symbol
 _atom_site_label
 _atom_site_symmetry_multiplicity
 _atom_site_fract_x
 _atom_site_fract_y
 _atom_site_fract_z
 _atom_site_occupancy
  Y  Y0  1  0.082298  0.541149  0.750000  1
  Lu  Lu1  1  0.210148  0.791675  0.441462  1
  Lu  Lu2  1  0.210148  0.418473  0.441462  1
  Lu  Lu3  1  0.580971  0.790485  0.442320  1
  Lu  Lu4  1  0.789068  0.208327  0.557067  1
  Lu  Lu5  1  0.789068  0.580741  0.557067  1
  Lu  Lu6  1  0.418960  0.209480  0.557369  1
  Lu  Lu7  1  0.789068  0.208327  0.942933  1
  Lu  Lu8  1  0.789068  0.580741  0.942933  1
  Lu  Lu9  1  0.418960  0.209480  0.942631  1
  Lu  Lu10  1  0.210148  0.791675  0.058538  1
  Lu  Lu11  1  0.210148  0.418473  0.058538  1
  Lu  Lu12  1  0.580971  0.790485  0.057680  1
  Lu  Lu13  1  0.541054  0.459531  0.250000  1
  Lu  Lu14  1  0.541054  0.081523  0.250000  1
  Lu  Lu15  1  0.919054  0.459527  0.250000  1
  Lu  Lu16  1  0.460766  0.540446  0.750000  1
  Lu  Lu17  1  0.460766  0.920319  0.750000  1
  Sc  Sc18  1  0.999738  0.999869  0.499958  1
  Sc  Sc19  1  0.999738  0.999869  0.000042  1
  Cd  Cd20  1  0.888726  0.111067  0.250000  1
  Cd  Cd21  1  0.888726  0.777662  0.250000  1
  Cd  Cd22  1  0.222588  0.111295  0.250000  1
  Cd  Cd23  1  0.111711  0.890078  0.750000  1
  Cd  Cd24  1  0.111711  0.221631  0.750000  1
  Cd  Cd25  1  0.777335  0.888667  0.750000  1
  Ru  Ru26  1  0.332467  0.666234  0.250000  1
  Ru  Ru27  1  0.665545  0.332772  0.750000  1
