# generated using pymatgen
data_NaY5TmCo6Sn23
_symmetry_space_group_name_H-M   'P 1'
_cell_length_a   9.72870712
_cell_length_b   9.72678360
_cell_length_c   9.96484407
_cell_angle_alpha   90.00000143
_cell_angle_beta   90.01192295
_cell_angle_gamma   119.99346492
_symmetry_Int_Tables_number   1
_chemical_formula_structural   NaY5TmCo6Sn23
_chemical_formula_sum   'Na1 Y5 Tm1 Co6 Sn23'
_cell_volume   816.68410807
_cell_formula_units_Z   1
loop_
 _symmetry_equiv_pos_site_id
 _symmetry_equiv_pos_as_xyz
  1  'x, y, z'
loop_
 _atom_site_type_symbol
 _atom_site_label
 _atom_site_symmetry_multiplicity
 _atom_site_fract_x
 _atom_site_fract_y
 _atom_site_fract_z
 _atom_site_occupancy
  Na  Na0  1  0.000042  0.000021  0.000026  1
  Y  Y1  1  0.479116  0.958092  0.305407  1
  Y  Y2  1  0.479116  0.521024  0.305407  1
  Y  Y3  1  0.958026  0.479013  0.694457  1
  Y  Y4  1  0.521031  0.041922  0.694546  1
  Y  Y5  1  0.521031  0.479109  0.694546  1
  Tm  Tm6  1  0.040201  0.520100  0.304992  1
  Co  Co7  1  0.170319  0.829648  0.799159  1
  Co  Co8  1  0.659387  0.829693  0.799276  1
  Co  Co9  1  0.170319  0.340671  0.799159  1
  Co  Co10  1  0.830400  0.171484  0.201047  1
  Co  Co11  1  0.340528  0.170264  0.200882  1
  Co  Co12  1  0.830400  0.658916  0.201047  1
  Sn  Sn13  1  0.000140  0.000070  0.499918  1
  Sn  Sn14  1  0.115763  0.883465  0.272043  1
  Sn  Sn15  1  0.768510  0.884255  0.271885  1
  Sn  Sn16  1  0.115763  0.232299  0.272043  1
  Sn  Sn17  1  0.884241  0.115853  0.728133  1
  Sn  Sn18  1  0.231480  0.115740  0.728143  1
  Sn  Sn19  1  0.884241  0.768387  0.728133  1
  Sn  Sn20  1  0.343811  0.999947  0.000025  1
  Sn  Sn21  1  0.656191  0.656108  0.000080  1
  Sn  Sn22  1  0.000154  0.344095  0.000194  1
  Sn  Sn23  1  0.343811  0.343864  0.000025  1
  Sn  Sn24  1  0.000154  0.656059  0.000194  1
  Sn  Sn25  1  0.656191  0.000083  0.000080  1
  Sn  Sn26  1  0.782498  0.563143  0.453124  1
  Sn  Sn27  1  0.782498  0.219356  0.453124  1
  Sn  Sn28  1  0.436847  0.218423  0.453428  1
  Sn  Sn29  1  0.218068  0.437109  0.545883  1
  Sn  Sn30  1  0.218068  0.780960  0.545883  1
  Sn  Sn31  1  0.563124  0.781562  0.546534  1
  Sn  Sn32  1  0.667200  0.333600  0.185715  1
  Sn  Sn33  1  0.333319  0.666660  0.814323  1
  Sn  Sn34  1  0.666647  0.333323  0.885269  1
  Sn  Sn35  1  0.331367  0.665684  0.115873  1
