# generated using pymatgen
data_DyHoMn4(CoP)6
_symmetry_space_group_name_H-M   'P 1'
_cell_length_a   3.60847800
_cell_length_b   10.34018400
_cell_length_c   12.03426900
_cell_angle_alpha   90.00000000
_cell_angle_beta   90.00000000
_cell_angle_gamma   90.00000000
_symmetry_Int_Tables_number   1
_chemical_formula_structural   DyHoMn4(CoP)6
_chemical_formula_sum   'Dy2 Ho2 Mn8 Co12 P12'
_cell_volume   449.02657388
_cell_formula_units_Z   2
loop_
 _symmetry_equiv_pos_site_id
 _symmetry_equiv_pos_as_xyz
  1  'x, y, z'
loop_
 _atom_site_type_symbol
 _atom_site_label
 _atom_site_symmetry_multiplicity
 _atom_site_fract_x
 _atom_site_fract_y
 _atom_site_fract_z
 _atom_site_occupancy
  Dy  Dy0  1  0.750000  0.416893  0.291078  1
  Dy  Dy1  1  0.750000  0.083107  0.791078  1
  Ho  Ho2  1  0.250000  0.583111  0.708902  1
  Ho  Ho3  1  0.250000  0.916889  0.208902  1
  Mn  Mn4  1  0.250000  0.712981  0.991223  1
  Mn  Mn5  1  0.250000  0.787019  0.491223  1
  Mn  Mn6  1  0.750000  0.287041  0.008806  1
  Mn  Mn7  1  0.750000  0.212959  0.508806  1
  Mn  Mn8  1  0.250000  0.406837  0.490980  1
  Mn  Mn9  1  0.250000  0.093163  0.990980  1
  Mn  Mn10  1  0.750000  0.593219  0.509265  1
  Mn  Mn11  1  0.750000  0.906781  0.009265  1
  Co  Co12  1  0.250000  0.221399  0.176623  1
  Co  Co13  1  0.250000  0.278601  0.676623  1
  Co  Co14  1  0.750000  0.778415  0.823296  1
  Co  Co15  1  0.750000  0.721585  0.323296  1
  Co  Co16  1  0.250000  0.882682  0.696147  1
  Co  Co17  1  0.250000  0.617318  0.196147  1
  Co  Co18  1  0.750000  0.117039  0.303821  1
  Co  Co19  1  0.750000  0.382961  0.803821  1
  Co  Co20  1  0.250000  0.465890  0.933677  1
  Co  Co21  1  0.250000  0.034110  0.433677  1
  Co  Co22  1  0.750000  0.534154  0.066190  1
  Co  Co23  1  0.750000  0.965846  0.566190  1
  P  P24  1  0.250000  0.419168  0.111364  1
  P  P25  1  0.250000  0.080832  0.611364  1
  P  P26  1  0.750000  0.580814  0.888379  1
  P  P27  1  0.750000  0.919186  0.388379  1
  P  P28  1  0.250000  0.269761  0.867109  1
  P  P29  1  0.250000  0.230239  0.367109  1
  P  P30  1  0.750000  0.730562  0.133039  1
  P  P31  1  0.750000  0.769438  0.633039  1
  P  P32  1  0.250000  0.599858  0.383570  1
  P  P33  1  0.250000  0.900142  0.883570  1
  P  P34  1  0.750000  0.400344  0.616532  1
  P  P35  1  0.750000  0.099656  0.116532  1
