# generated using pymatgen
data_Tb4Y6Cd3Tc
_symmetry_space_group_name_H-M   'P 1'
_cell_length_a   9.64790264
_cell_length_b   9.64460840
_cell_length_c   9.91083007
_cell_angle_alpha   89.99999951
_cell_angle_beta   90.06348217
_cell_angle_gamma   119.98871016
_symmetry_Int_Tables_number   1
_chemical_formula_structural   Tb4Y6Cd3Tc
_chemical_formula_sum   'Tb8 Y12 Cd6 Tc2'
_cell_volume   798.74327143
_cell_formula_units_Z   2
loop_
 _symmetry_equiv_pos_site_id
 _symmetry_equiv_pos_as_xyz
  1  'x, y, z'
loop_
 _atom_site_type_symbol
 _atom_site_label
 _atom_site_symmetry_multiplicity
 _atom_site_fract_x
 _atom_site_fract_y
 _atom_site_fract_z
 _atom_site_occupancy
  Tb  Tb0  1  0.209913  0.790442  0.440141  1
  Tb  Tb1  1  0.209913  0.419471  0.440141  1
  Tb  Tb2  1  0.580131  0.790065  0.440660  1
  Tb  Tb3  1  0.790000  0.209360  0.559643  1
  Tb  Tb4  1  0.790000  0.580640  0.559643  1
  Tb  Tb5  1  0.419994  0.209997  0.559256  1
  Tb  Tb6  1  0.789929  0.209643  0.940096  1
  Tb  Tb7  1  0.789929  0.580286  0.940096  1
  Y  Y8  1  0.999933  0.999967  0.500192  1
  Y  Y9  1  0.999685  0.999843  0.999884  1
  Y  Y10  1  0.419386  0.209693  0.941649  1
  Y  Y11  1  0.209813  0.790150  0.059210  1
  Y  Y12  1  0.209813  0.419663  0.059210  1
  Y  Y13  1  0.579760  0.789880  0.058765  1
  Y  Y14  1  0.539057  0.460338  0.249954  1
  Y  Y15  1  0.539057  0.078720  0.249954  1
  Y  Y16  1  0.920617  0.460309  0.249988  1
  Y  Y17  1  0.460685  0.539707  0.749952  1
  Y  Y18  1  0.460685  0.920977  0.749952  1
  Y  Y19  1  0.079556  0.539777  0.749916  1
  Cd  Cd20  1  0.886537  0.113697  0.249788  1
  Cd  Cd21  1  0.886537  0.772842  0.249788  1
  Cd  Cd22  1  0.227571  0.113786  0.249570  1
  Cd  Cd23  1  0.113774  0.886472  0.750395  1
  Cd  Cd24  1  0.113774  0.227300  0.750395  1
  Cd  Cd25  1  0.772394  0.886197  0.750169  1
  Tc  Tc26  1  0.332715  0.666358  0.252687  1
  Tc  Tc27  1  0.668845  0.334422  0.748905  1
