# generated using pymatgen
data_Y20Tl2In3AgRu2
_symmetry_space_group_name_H-M   'P 1'
_cell_length_a   9.74335573
_cell_length_b   9.83149912
_cell_length_c   9.72154400
_cell_angle_alpha   90.00000000
_cell_angle_beta   90.00000000
_cell_angle_gamma   120.29971418
_symmetry_Int_Tables_number   1
_chemical_formula_structural   Y20Tl2In3AgRu2
_chemical_formula_sum   'Y20 Tl2 In3 Ag1 Ru2'
_cell_volume   804.03438477
_cell_formula_units_Z   1
loop_
 _symmetry_equiv_pos_site_id
 _symmetry_equiv_pos_as_xyz
  1  'x, y, z'
loop_
 _atom_site_type_symbol
 _atom_site_label
 _atom_site_symmetry_multiplicity
 _atom_site_fract_x
 _atom_site_fract_y
 _atom_site_fract_z
 _atom_site_occupancy
  Y  Y0  1  0.011385  0.005692  0.491772  1
  Y  Y1  1  0.011385  0.005692  0.008228  1
  Y  Y2  1  0.209189  0.788246  0.439531  1
  Y  Y3  1  0.209189  0.420945  0.439531  1
  Y  Y4  1  0.581953  0.790977  0.438226  1
  Y  Y5  1  0.788889  0.208503  0.559618  1
  Y  Y6  1  0.788889  0.580386  0.559618  1
  Y  Y7  1  0.420413  0.210206  0.562770  1
  Y  Y8  1  0.788889  0.208503  0.940382  1
  Y  Y9  1  0.788889  0.580386  0.940382  1
  Y  Y10  1  0.420413  0.210206  0.937230  1
  Y  Y11  1  0.209189  0.788246  0.060469  1
  Y  Y12  1  0.209189  0.420945  0.060469  1
  Y  Y13  1  0.581953  0.790977  0.061774  1
  Y  Y14  1  0.530179  0.450879  0.250000  1
  Y  Y15  1  0.530179  0.079300  0.250000  1
  Y  Y16  1  0.913870  0.456935  0.250000  1
  Y  Y17  1  0.459039  0.542880  0.750000  1
  Y  Y18  1  0.459039  0.916157  0.750000  1
  Y  Y19  1  0.077022  0.538511  0.750000  1
  Tl  Tl20  1  0.882133  0.120696  0.250000  1
  Tl  Tl21  1  0.882133  0.761438  0.250000  1
  In  In22  1  0.114086  0.883041  0.750000  1
  In  In23  1  0.114086  0.231044  0.750000  1
  In  In24  1  0.774182  0.887091  0.750000  1
  Ag  Ag25  1  0.239678  0.119840  0.250000  1
  Ru  Ru26  1  0.332614  0.666308  0.250000  1
  Ru  Ru27  1  0.671948  0.335973  0.750000  1
