# generated using pymatgen
data_YbHo2ThPt4
_symmetry_space_group_name_H-M   'P 1'
_cell_length_a   4.51277300
_cell_length_b   5.63250337
_cell_length_c   7.17167878
_cell_angle_alpha   89.17246439
_cell_angle_beta   90.00000000
_cell_angle_gamma   90.00000000
_symmetry_Int_Tables_number   1
_chemical_formula_structural   YbHo2ThPt4
_chemical_formula_sum   'Yb1 Ho2 Th1 Pt4'
_cell_volume   182.27221786
_cell_formula_units_Z   1
loop_
 _symmetry_equiv_pos_site_id
 _symmetry_equiv_pos_as_xyz
  1  'x, y, z'
loop_
 _atom_site_type_symbol
 _atom_site_label
 _atom_site_symmetry_multiplicity
 _atom_site_fract_x
 _atom_site_fract_y
 _atom_site_fract_z
 _atom_site_occupancy
  Yb  Yb0  1  0.250000  0.354479  0.680671  1
  Ho  Ho1  1  0.250000  0.144693  0.185797  1
  Ho  Ho2  1  0.750000  0.640616  0.316635  1
  Th  Th3  1  0.750000  0.856690  0.815982  1
  Pt  Pt4  1  0.750000  0.154791  0.448297  1
  Pt  Pt5  1  0.250000  0.844980  0.539917  1
  Pt  Pt6  1  0.250000  0.665425  0.048570  1
  Pt  Pt7  1  0.750000  0.338327  0.964131  1
