# generated using pymatgen
data_Tb13Ho2Tm(AlRh)4
_symmetry_space_group_name_H-M   'P 1'
_cell_length_a   9.55941157
_cell_length_b   9.55100982
_cell_length_c   9.53895395
_cell_angle_alpha   60.08331755
_cell_angle_beta   60.05265372
_cell_angle_gamma   59.96705844
_symmetry_Int_Tables_number   1
_chemical_formula_structural   Tb13Ho2Tm(AlRh)4
_chemical_formula_sum   'Tb13 Ho2 Tm1 Al4 Rh4'
_cell_volume   616.31566148
_cell_formula_units_Z   1
loop_
 _symmetry_equiv_pos_site_id
 _symmetry_equiv_pos_as_xyz
  1  'x, y, z'
loop_
 _atom_site_type_symbol
 _atom_site_label
 _atom_site_symmetry_multiplicity
 _atom_site_fract_x
 _atom_site_fract_y
 _atom_site_fract_z
 _atom_site_occupancy
  Tb  Tb0  1  0.645541  0.060642  0.644985  1
  Tb  Tb1  1  0.062465  0.062989  0.436471  1
  Tb  Tb2  1  0.436655  0.435848  0.062671  1
  Tb  Tb3  1  0.649578  0.648986  0.648916  1
  Tb  Tb4  1  0.809153  0.191158  0.191007  1
  Tb  Tb5  1  0.192351  0.808219  0.808247  1
  Tb  Tb6  1  0.059945  0.645534  0.645471  1
  Tb  Tb7  1  0.437809  0.061656  0.061914  1
  Tb  Tb8  1  0.436981  0.062012  0.436235  1
  Tb  Tb9  1  0.061871  0.436834  0.062722  1
  Tb  Tb10  1  0.645476  0.645005  0.060584  1
  Tb  Tb11  1  0.191483  0.808981  0.191446  1
  Tb  Tb12  1  0.061569  0.436497  0.436579  1
  Ho  Ho13  1  0.807429  0.193043  0.808053  1
  Ho  Ho14  1  0.192323  0.192476  0.807909  1
  Tm  Tm15  1  0.806603  0.807158  0.193844  1
  Al  Al16  1  0.422625  0.422678  0.422845  1
  Al  Al17  1  0.424004  0.424153  0.730295  1
  Al  Al18  1  0.423888  0.730605  0.424348  1
  Al  Al19  1  0.730918  0.423973  0.424317  1
  Rh  Rh20  1  0.859687  0.427136  0.857240  1
  Rh  Rh21  1  0.855923  0.857398  0.859274  1
  Rh  Rh22  1  0.857639  0.857299  0.427070  1
  Rh  Rh23  1  0.428078  0.859717  0.857555  1
