# generated using pymatgen
data_ErTm7Tc2(B12Ru)2
_symmetry_space_group_name_H-M   'P 1'
_cell_length_a   3.62962000
_cell_length_b   9.07968787
_cell_length_c   11.45350103
_cell_angle_alpha   89.85656780
_cell_angle_beta   90.00000000
_cell_angle_gamma   90.00000000
_symmetry_Int_Tables_number   1
_chemical_formula_structural   ErTm7Tc2(B12Ru)2
_chemical_formula_sum   'Er1 Tm7 Tc2 B24 Ru2'
_cell_volume   377.45829764
_cell_formula_units_Z   1
loop_
 _symmetry_equiv_pos_site_id
 _symmetry_equiv_pos_as_xyz
  1  'x, y, z'
loop_
 _atom_site_type_symbol
 _atom_site_label
 _atom_site_symmetry_multiplicity
 _atom_site_fract_x
 _atom_site_fract_y
 _atom_site_fract_z
 _atom_site_occupancy
  Er  Er0  1  0.000000  0.324555  0.415726  1
  Tm  Tm1  1  0.000000  0.675390  0.584303  1
  Tm  Tm2  1  0.000000  0.820562  0.087428  1
  Tm  Tm3  1  0.000000  0.179422  0.912546  1
  Tm  Tm4  1  0.000000  0.942099  0.370793  1
  Tm  Tm5  1  0.000000  0.057791  0.629261  1
  Tm  Tm6  1  0.000000  0.443234  0.129783  1
  Tm  Tm7  1  0.000000  0.556822  0.870181  1
  Tc  Tc8  1  0.000000  0.638823  0.319954  1
  Tc  Tc9  1  0.000000  0.361367  0.680132  1
  B  B10  1  0.500000  0.553111  0.433407  1
  B  B11  1  0.500000  0.447149  0.566736  1
  B  B12  1  0.500000  0.053661  0.066487  1
  B  B13  1  0.500000  0.946324  0.933485  1
  B  B14  1  0.500000  0.749166  0.419334  1
  B  B15  1  0.500000  0.250837  0.580891  1
  B  B16  1  0.500000  0.249150  0.080691  1
  B  B17  1  0.500000  0.750851  0.919269  1
  B  B18  1  0.500000  0.792141  0.264757  1
  B  B19  1  0.500000  0.207863  0.735272  1
  B  B20  1  0.500000  0.291070  0.234542  1
  B  B21  1  0.500000  0.708852  0.765299  1
  B  B22  1  0.500000  0.631045  0.184503  1
  B  B23  1  0.500000  0.369000  0.815480  1
  B  B24  1  0.500000  0.130542  0.314545  1
  B  B25  1  0.500000  0.869295  0.685338  1
  B  B26  1  0.500000  0.982230  0.211885  1
  B  B27  1  0.500000  0.017741  0.788101  1
  B  B28  1  0.500000  0.481796  0.287479  1
  B  B29  1  0.500000  0.518449  0.712443  1
  B  B30  1  0.500000  0.602915  0.028254  1
  B  B31  1  0.500000  0.397095  0.971722  1
  B  B32  1  0.500000  0.102769  0.471398  1
  B  B33  1  0.500000  0.896972  0.528675  1
  Ru  Ru34  1  0.000000  0.137640  0.178454  1
  Ru  Ru35  1  0.000000  0.862274  0.821446  1
