# generated using pymatgen
data_Ba2V2Ni4SeS7
_symmetry_space_group_name_H-M   'P 1'
_cell_length_a   9.45312380
_cell_length_b   9.45745243
_cell_length_c   7.02204200
_cell_angle_alpha   90.00000000
_cell_angle_beta   90.00000000
_cell_angle_gamma   147.16655711
_symmetry_Int_Tables_number   1
_chemical_formula_structural   Ba2V2Ni4SeS7
_chemical_formula_sum   'Ba2 V2 Ni4 Se1 S7'
_cell_volume   340.38580726
_cell_formula_units_Z   1
loop_
 _symmetry_equiv_pos_site_id
 _symmetry_equiv_pos_as_xyz
  1  'x, y, z'
loop_
 _atom_site_type_symbol
 _atom_site_label
 _atom_site_symmetry_multiplicity
 _atom_site_fract_x
 _atom_site_fract_y
 _atom_site_fract_z
 _atom_site_occupancy
  Ba  Ba0  1  0.896277  0.560574  0.250000  1
  Ba  Ba1  1  0.556818  0.904384  0.750000  1
  V  V2  1  0.873766  0.093577  0.250000  1
  V  V3  1  0.092225  0.868149  0.750000  1
  Ni  Ni4  1  0.988389  0.987564  0.500829  1
  Ni  Ni5  1  0.988389  0.987564  0.999171  1
  Ni  Ni6  1  0.372004  0.586853  0.250000  1
  Ni  Ni7  1  0.592541  0.369308  0.750000  1
  Se  Se8  1  0.513215  0.947906  0.250000  1
  S  S9  1  0.327433  0.119780  0.498999  1
  S  S10  1  0.122262  0.326744  0.501727  1
  S  S11  1  0.945617  0.522043  0.750000  1
  S  S12  1  0.724847  0.749107  0.250000  1
  S  S13  1  0.747962  0.721361  0.750000  1
  S  S14  1  0.327433  0.119780  0.001001  1
  S  S15  1  0.122262  0.326744  0.998273  1
