# generated using pymatgen
data_LaTb2ThSe6
_symmetry_space_group_name_H-M   'P 1'
_cell_length_a   11.34425300
_cell_length_b   4.15250800
_cell_length_c   11.03600300
_cell_angle_alpha   90.00000000
_cell_angle_beta   90.00000000
_cell_angle_gamma   90.00000000
_symmetry_Int_Tables_number   1
_chemical_formula_structural   LaTb2ThSe6
_chemical_formula_sum   'La2 Tb4 Th2 Se12'
_cell_volume   519.87411167
_cell_formula_units_Z   2
loop_
 _symmetry_equiv_pos_site_id
 _symmetry_equiv_pos_as_xyz
  1  'x, y, z'
loop_
 _atom_site_type_symbol
 _atom_site_label
 _atom_site_symmetry_multiplicity
 _atom_site_fract_x
 _atom_site_fract_y
 _atom_site_fract_z
 _atom_site_occupancy
  La  La0  1  0.696805  0.750000  0.496662  1
  La  La1  1  0.196805  0.750000  0.003338  1
  Tb  Tb2  1  0.485562  0.250000  0.188492  1
  Tb  Tb3  1  0.985562  0.250000  0.311508  1
  Tb  Tb4  1  0.513997  0.750000  0.813573  1
  Tb  Tb5  1  0.013997  0.750000  0.686427  1
  Th  Th6  1  0.305205  0.250000  0.497338  1
  Th  Th7  1  0.805205  0.250000  0.002662  1
  Se  Se8  1  0.542240  0.250000  0.630069  1
  Se  Se9  1  0.042240  0.250000  0.869931  1
  Se  Se10  1  0.450967  0.750000  0.370243  1
  Se  Se11  1  0.950967  0.750000  0.129757  1
  Se  Se12  1  0.616873  0.750000  0.054413  1
  Se  Se13  1  0.116873  0.750000  0.445587  1
  Se  Se14  1  0.386292  0.250000  0.945516  1
  Se  Se15  1  0.886292  0.250000  0.554484  1
  Se  Se16  1  0.727983  0.250000  0.290701  1
  Se  Se17  1  0.227983  0.250000  0.209299  1
  Se  Se18  1  0.274077  0.750000  0.698941  1
  Se  Se19  1  0.774077  0.750000  0.801059  1
