# generated using pymatgen
data_Sm3Ho3Nb2(Co4P3)4
_symmetry_space_group_name_H-M   'P 1'
_cell_length_a   3.72593100
_cell_length_b   10.66155104
_cell_length_c   12.37472904
_cell_angle_alpha   89.99022795
_cell_angle_beta   90.00000000
_cell_angle_gamma   90.00000000
_symmetry_Int_Tables_number   1
_chemical_formula_structural   Sm3Ho3Nb2(Co4P3)4
_chemical_formula_sum   'Sm3 Ho3 Nb2 Co16 P12'
_cell_volume   491.57624798
_cell_formula_units_Z   1
loop_
 _symmetry_equiv_pos_site_id
 _symmetry_equiv_pos_as_xyz
  1  'x, y, z'
loop_
 _atom_site_type_symbol
 _atom_site_label
 _atom_site_symmetry_multiplicity
 _atom_site_fract_x
 _atom_site_fract_y
 _atom_site_fract_z
 _atom_site_occupancy
  Sm  Sm0  1  0.000000  0.500364  0.526376  1
  Sm  Sm1  1  0.500000  0.999890  0.473008  1
  Sm  Sm2  1  0.000000  0.320298  0.794687  1
  Ho  Ho3  1  0.500000  0.820004  0.205006  1
  Ho  Ho4  1  0.500000  0.179741  0.204182  1
  Ho  Ho5  1  0.000000  0.680547  0.795586  1
  Nb  Nb6  1  0.500000  0.500275  0.155848  1
  Nb  Nb7  1  0.000000  0.999299  0.844699  1
  Co  Co8  1  0.500000  0.502388  0.703785  1
  Co  Co9  1  0.000000  0.999506  0.295630  1
  Co  Co10  1  0.000000  0.501225  0.986830  1
  Co  Co11  1  0.500000  0.998939  0.015075  1
  Co  Co12  1  0.500000  0.332406  0.993004  1
  Co  Co13  1  0.500000  0.668630  0.992412  1
  Co  Co14  1  0.000000  0.166949  0.009612  1
  Co  Co15  1  0.000000  0.832095  0.009067  1
  Co  Co16  1  0.500000  0.294898  0.430089  1
  Co  Co17  1  0.500000  0.705191  0.431557  1
  Co  Co18  1  0.000000  0.204660  0.566418  1
  Co  Co19  1  0.000000  0.795298  0.568351  1
  Co  Co20  1  0.500000  0.877074  0.706414  1
  Co  Co21  1  0.500000  0.120711  0.704388  1
  Co  Co22  1  0.000000  0.622506  0.294031  1
  Co  Co23  1  0.000000  0.377330  0.293154  1
  P  P24  1  0.500000  0.502096  0.883960  1
  P  P25  1  0.000000  0.999353  0.117915  1
  P  P26  1  0.500000  0.499972  0.352982  1
  P  P27  1  0.000000  0.000198  0.646787  1
  P  P28  1  0.500000  0.308459  0.613728  1
  P  P29  1  0.500000  0.691491  0.616574  1
  P  P30  1  0.000000  0.190526  0.382169  1
  P  P31  1  0.000000  0.808983  0.383429  1
  P  P32  1  0.500000  0.841133  0.893766  1
  P  P33  1  0.500000  0.157089  0.895576  1
  P  P34  1  0.000000  0.659126  0.107409  1
  P  P35  1  0.000000  0.341350  0.106494  1
