# generated using pymatgen
data_TiCdFeP2O9
_symmetry_space_group_name_H-M   'P 1'
_cell_length_a   6.45724100
_cell_length_b   7.49793400
_cell_length_c   14.60849100
_cell_angle_alpha   90.00000000
_cell_angle_beta   90.00000000
_cell_angle_gamma   90.00000000
_symmetry_Int_Tables_number   1
_chemical_formula_structural   TiCdFeP2O9
_chemical_formula_sum   'Ti4 Cd4 Fe4 P8 O36'
_cell_volume   707.28421584
_cell_formula_units_Z   4
loop_
 _symmetry_equiv_pos_site_id
 _symmetry_equiv_pos_as_xyz
  1  'x, y, z'
loop_
 _atom_site_type_symbol
 _atom_site_label
 _atom_site_symmetry_multiplicity
 _atom_site_fract_x
 _atom_site_fract_y
 _atom_site_fract_z
 _atom_site_occupancy
  Ti  Ti0  1  0.750000  0.348519  0.883988  1
  Ti  Ti1  1  0.250000  0.651481  0.116012  1
  Ti  Ti2  1  0.250000  0.848519  0.616012  1
  Ti  Ti3  1  0.750000  0.151481  0.383988  1
  Cd  Cd4  1  0.750000  0.877275  0.778741  1
  Cd  Cd5  1  0.750000  0.622725  0.278741  1
  Cd  Cd6  1  0.250000  0.122725  0.221259  1
  Cd  Cd7  1  0.250000  0.377275  0.721259  1
  Fe  Fe8  1  0.500000  0.000000  0.000000  1
  Fe  Fe9  1  0.500000  0.500000  0.500000  1
  Fe  Fe10  1  0.000000  0.500000  0.500000  1
  Fe  Fe11  1  0.000000  0.000000  0.000000  1
  P  P12  1  0.250000  0.360039  0.934412  1
  P  P13  1  0.750000  0.639961  0.065588  1
  P  P14  1  0.750000  0.860039  0.565588  1
  P  P15  1  0.250000  0.139961  0.434412  1
  P  P16  1  0.750000  0.392927  0.696580  1
  P  P17  1  0.250000  0.607073  0.303420  1
  P  P18  1  0.250000  0.892927  0.803420  1
  P  P19  1  0.750000  0.107073  0.196580  1
  O  O20  1  0.050192  0.607901  0.362865  1
  O  O21  1  0.550192  0.392099  0.637135  1
  O  O22  1  0.949808  0.107901  0.137135  1
  O  O23  1  0.449808  0.892099  0.862865  1
  O  O24  1  0.949808  0.392099  0.637135  1
  O  O25  1  0.449808  0.607901  0.362865  1
  O  O26  1  0.050192  0.892099  0.862865  1
  O  O27  1  0.550192  0.107901  0.137135  1
  O  O28  1  0.250000  0.324938  0.479550  1
  O  O29  1  0.750000  0.675062  0.520450  1
  O  O30  1  0.750000  0.824938  0.020450  1
  O  O31  1  0.250000  0.175062  0.979550  1
  O  O32  1  0.750000  0.144418  0.940212  1
  O  O33  1  0.250000  0.855582  0.059788  1
  O  O34  1  0.250000  0.644418  0.559788  1
  O  O35  1  0.750000  0.355582  0.440212  1
  O  O36  1  0.750000  0.223390  0.760525  1
  O  O37  1  0.250000  0.776610  0.239475  1
  O  O38  1  0.250000  0.723390  0.739475  1
  O  O39  1  0.750000  0.276610  0.260525  1
  O  O40  1  0.439251  0.118444  0.369176  1
  O  O41  1  0.939251  0.881556  0.630824  1
  O  O42  1  0.560749  0.618444  0.130824  1
  O  O43  1  0.060749  0.381556  0.869176  1
  O  O44  1  0.560749  0.881556  0.630824  1
  O  O45  1  0.060749  0.118444  0.369176  1
  O  O46  1  0.439251  0.381556  0.869176  1
  O  O47  1  0.939251  0.618444  0.130824  1
  O  O48  1  0.750000  0.952159  0.267929  1
  O  O49  1  0.250000  0.047841  0.732071  1
  O  O50  1  0.250000  0.452159  0.232071  1
  O  O51  1  0.750000  0.547841  0.767929  1
  O  O52  1  0.750000  0.002632  0.490688  1
  O  O53  1  0.250000  0.997368  0.509312  1
  O  O54  1  0.250000  0.502632  0.009312  1
  O  O55  1  0.750000  0.497368  0.990688  1
