# generated using pymatgen
data_Dy17(ErRu4)3
_symmetry_space_group_name_H-M   'P 1'
_cell_length_a   10.79540600
_cell_length_b   10.79540600
_cell_length_c   6.36638900
_cell_angle_alpha   90.00000000
_cell_angle_beta   90.00000000
_cell_angle_gamma   90.00000000
_symmetry_Int_Tables_number   1
_chemical_formula_structural   Dy17(ErRu4)3
_chemical_formula_sum   'Dy17 Er3 Ru12'
_cell_volume   741.94400799
_cell_formula_units_Z   1
loop_
 _symmetry_equiv_pos_site_id
 _symmetry_equiv_pos_as_xyz
  1  'x, y, z'
loop_
 _atom_site_type_symbol
 _atom_site_label
 _atom_site_symmetry_multiplicity
 _atom_site_fract_x
 _atom_site_fract_y
 _atom_site_fract_z
 _atom_site_occupancy
  Dy  Dy0  1  0.291531  0.086896  0.378706  1
  Dy  Dy1  1  0.291597  0.913536  0.878845  1
  Dy  Dy2  1  0.708403  0.086464  0.878845  1
  Dy  Dy3  1  0.708469  0.913104  0.378706  1
  Dy  Dy4  1  0.586454  0.791355  0.879028  1
  Dy  Dy5  1  0.586866  0.207948  0.378944  1
  Dy  Dy6  1  0.413134  0.792052  0.378944  1
  Dy  Dy7  1  0.413546  0.208645  0.879028  1
  Dy  Dy8  1  0.207948  0.413134  0.621056  1
  Dy  Dy9  1  0.208645  0.586454  0.120972  1
  Dy  Dy10  1  0.791355  0.413546  0.120972  1
  Dy  Dy11  1  0.792052  0.586866  0.621056  1
  Dy  Dy12  1  0.913536  0.708403  0.121155  1
  Dy  Dy13  1  0.913104  0.291531  0.621294  1
  Dy  Dy14  1  0.086896  0.708469  0.621294  1
  Dy  Dy15  1  0.086464  0.291597  0.121155  1
  Dy  Dy16  1  0.500000  0.500000  0.500000  1
  Er  Er17  1  0.000000  0.000000  0.500000  1
  Er  Er18  1  0.000000  0.000000  0.000000  1
  Er  Er19  1  0.500000  0.500000  0.000000  1
  Ru  Ru20  1  0.847533  0.152756  0.249933  1
  Ru  Ru21  1  0.847244  0.847533  0.750067  1
  Ru  Ru22  1  0.152756  0.152467  0.750067  1
  Ru  Ru23  1  0.152467  0.847244  0.249933  1
  Ru  Ru24  1  0.653026  0.347180  0.750225  1
  Ru  Ru25  1  0.652820  0.653026  0.249775  1
  Ru  Ru26  1  0.347180  0.346974  0.249775  1
  Ru  Ru27  1  0.346974  0.652820  0.750225  1
  Ru  Ru28  1  0.500000  0.000000  0.127818  1
  Ru  Ru29  1  0.500000  0.000000  0.627652  1
  Ru  Ru30  1  0.000000  0.500000  0.872182  1
  Ru  Ru31  1  0.000000  0.500000  0.372348  1
