# generated using pymatgen
data_Yb2Ho2Ga17GeIr6
_symmetry_space_group_name_H-M   'P 1'
_cell_length_a   7.55620271
_cell_length_b   7.57220912
_cell_length_c   9.55706568
_cell_angle_alpha   90.09320428
_cell_angle_beta   89.76756092
_cell_angle_gamma   119.79447420
_symmetry_Int_Tables_number   1
_chemical_formula_structural   Yb2Ho2Ga17GeIr6
_chemical_formula_sum   'Yb2 Ho2 Ga17 Ge1 Ir6'
_cell_volume   474.54072969
_cell_formula_units_Z   1
loop_
 _symmetry_equiv_pos_site_id
 _symmetry_equiv_pos_as_xyz
  1  'x, y, z'
loop_
 _atom_site_type_symbol
 _atom_site_label
 _atom_site_symmetry_multiplicity
 _atom_site_fract_x
 _atom_site_fract_y
 _atom_site_fract_z
 _atom_site_occupancy
  Yb  Yb0  1  0.672043  0.999452  0.248470  1
  Yb  Yb1  1  0.330389  0.004229  0.749735  1
  Ho  Ho2  1  0.998540  0.666125  0.248390  1
  Ho  Ho3  1  0.000621  0.330495  0.754609  1
  Ga  Ga4  1  0.132292  0.124634  0.250756  1
  Ga  Ga5  1  0.869943  0.874700  0.750078  1
  Ga  Ga6  1  0.000424  0.672973  0.917663  1
  Ga  Ga7  1  0.001834  0.667848  0.580291  1
  Ga  Ga8  1  0.336466  0.999210  0.422210  1
  Ga  Ga9  1  0.999336  0.332372  0.421971  1
  Ga  Ga10  1  0.663037  0.999965  0.577863  1
  Ga  Ga11  1  0.656315  0.994157  0.920393  1
  Ga  Ga12  1  0.335887  0.998837  0.077779  1
  Ga  Ga13  1  0.332745  0.332126  0.565657  1
  Ga  Ga14  1  0.668728  0.668917  0.436047  1
  Ga  Ga15  1  0.668086  0.669816  0.065276  1
  Ga  Ga16  1  0.337200  0.332063  0.933602  1
  Ga  Ga17  1  0.343920  0.548831  0.250505  1
  Ga  Ga18  1  0.663708  0.454307  0.750015  1
  Ga  Ga19  1  0.547367  0.337387  0.249114  1
  Ga  Ga20  1  0.450082  0.659617  0.749774  1
  Ge  Ge21  1  0.997294  0.332680  0.082312  1
  Ir  Ir22  1  0.676225  0.330140  0.999721  1
  Ir  Ir23  1  0.318821  0.662464  0.000681  1
  Ir  Ir24  1  0.327321  0.669868  0.498688  1
  Ir  Ir25  1  0.671986  0.329416  0.499163  1
  Ir  Ir26  1  0.999536  0.006883  0.999866  1
  Ir  Ir27  1  0.999850  0.000489  0.499370  1
