# generated using pymatgen
data_Ba3Yb3(PrSn2)4
_symmetry_space_group_name_H-M   'P 1'
_cell_length_a   8.28590600
_cell_length_b   8.83563639
_cell_length_c   16.91304300
_cell_angle_alpha   90.03217671
_cell_angle_beta   90.00000000
_cell_angle_gamma   90.00000000
_symmetry_Int_Tables_number   1
_chemical_formula_structural   Ba3Yb3(PrSn2)4
_chemical_formula_sum   'Ba6 Yb6 Pr8 Sn16'
_cell_volume   1238.22486814
_cell_formula_units_Z   2
loop_
 _symmetry_equiv_pos_site_id
 _symmetry_equiv_pos_as_xyz
  1  'x, y, z'
loop_
 _atom_site_type_symbol
 _atom_site_label
 _atom_site_symmetry_multiplicity
 _atom_site_fract_x
 _atom_site_fract_y
 _atom_site_fract_z
 _atom_site_occupancy
  Ba  Ba0  1  0.508585  0.679587  0.596703  1
  Ba  Ba1  1  0.008585  0.820413  0.903297  1
  Ba  Ba2  1  0.491321  0.321486  0.092612  1
  Ba  Ba3  1  0.991321  0.178514  0.407388  1
  Ba  Ba4  1  0.488859  0.321961  0.405596  1
  Ba  Ba5  1  0.988859  0.178039  0.094404  1
  Yb  Yb6  1  0.511758  0.691648  0.901868  1
  Yb  Yb7  1  0.011758  0.808352  0.598132  1
  Yb  Yb8  1  0.841750  0.511339  0.750637  1
  Yb  Yb9  1  0.341750  0.988661  0.749363  1
  Yb  Yb10  1  0.157808  0.494581  0.249980  1
  Yb  Yb11  1  0.657808  0.005419  0.250020  1
  Pr  Pr12  1  0.677147  0.170179  0.622562  1
  Pr  Pr13  1  0.177147  0.329821  0.877438  1
  Pr  Pr14  1  0.325963  0.825535  0.120899  1
  Pr  Pr15  1  0.825963  0.674465  0.379101  1
  Pr  Pr16  1  0.322890  0.829259  0.379154  1
  Pr  Pr17  1  0.822890  0.670741  0.120846  1
  Pr  Pr18  1  0.676151  0.169178  0.874970  1
  Pr  Pr19  1  0.176151  0.330822  0.625030  1
  Sn  Sn20  1  0.655569  0.959413  0.462089  1
  Sn  Sn21  1  0.155569  0.540587  0.037911  1
  Sn  Sn22  1  0.345815  0.032391  0.956032  1
  Sn  Sn23  1  0.845815  0.467609  0.543968  1
  Sn  Sn24  1  0.335172  0.035468  0.543738  1
  Sn  Sn25  1  0.835172  0.464532  0.956262  1
  Sn  Sn26  1  0.654533  0.953340  0.036451  1
  Sn  Sn27  1  0.154533  0.546660  0.463549  1
  Sn  Sn28  1  0.475134  0.378874  0.751270  1
  Sn  Sn29  1  0.975134  0.121126  0.748730  1
  Sn  Sn30  1  0.527711  0.626367  0.250587  1
  Sn  Sn31  1  0.027711  0.873633  0.249413  1
  Sn  Sn32  1  0.722986  0.880512  0.747658  1
  Sn  Sn33  1  0.222986  0.619488  0.752342  1
  Sn  Sn34  1  0.280850  0.112771  0.249732  1
  Sn  Sn35  1  0.780850  0.387229  0.250268  1
