# generated using pymatgen
data_Si2Pd4Pt6Au
_symmetry_space_group_name_H-M   'P 1'
_cell_length_a   3.91597000
_cell_length_b   6.25576300
_cell_length_c   16.42202600
_cell_angle_alpha   90.00000000
_cell_angle_beta   90.00000000
_cell_angle_gamma   90.00000000
_symmetry_Int_Tables_number   1
_chemical_formula_structural   Si2Pd4Pt6Au
_chemical_formula_sum   'Si4 Pd8 Pt12 Au2'
_cell_volume   402.29661515
_cell_formula_units_Z   2
loop_
 _symmetry_equiv_pos_site_id
 _symmetry_equiv_pos_as_xyz
  1  'x, y, z'
loop_
 _atom_site_type_symbol
 _atom_site_label
 _atom_site_symmetry_multiplicity
 _atom_site_fract_x
 _atom_site_fract_y
 _atom_site_fract_z
 _atom_site_occupancy
  Si  Si0  1  0.500000  0.826442  0.299739  1
  Si  Si1  1  0.500000  0.173558  0.700261  1
  Si  Si2  1  0.500000  0.326442  0.200261  1
  Si  Si3  1  0.500000  0.673558  0.799739  1
  Pd  Pd4  1  0.000000  0.308692  0.457234  1
  Pd  Pd5  1  0.000000  0.691308  0.542766  1
  Pd  Pd6  1  0.000000  0.808692  0.042766  1
  Pd  Pd7  1  0.000000  0.191308  0.957234  1
  Pd  Pd8  1  0.000000  0.519728  0.285722  1
  Pd  Pd9  1  0.000000  0.480272  0.714278  1
  Pd  Pd10  1  0.000000  0.019728  0.214278  1
  Pd  Pd11  1  0.000000  0.980272  0.785722  1
  Pt  Pt12  1  0.000000  0.901278  0.381630  1
  Pt  Pt13  1  0.000000  0.098722  0.618370  1
  Pt  Pt14  1  0.000000  0.401278  0.118370  1
  Pt  Pt15  1  0.000000  0.598722  0.881630  1
  Pt  Pt16  1  0.500000  0.596509  0.417951  1
  Pt  Pt17  1  0.500000  0.403491  0.582049  1
  Pt  Pt18  1  0.500000  0.096509  0.082049  1
  Pt  Pt19  1  0.500000  0.903491  0.917951  1
  Pt  Pt20  1  0.500000  0.208710  0.334281  1
  Pt  Pt21  1  0.500000  0.791290  0.665719  1
  Pt  Pt22  1  0.500000  0.708710  0.165719  1
  Pt  Pt23  1  0.500000  0.291290  0.834281  1
  Au  Au24  1  0.500000  0.500000  0.000000  1
  Au  Au25  1  0.500000  0.000000  0.500000  1
