# generated using pymatgen
data_Dy3Tm2Lu3(P3Ir4)4
_symmetry_space_group_name_H-M   'P 1'
_cell_length_a   12.93156600
_cell_length_b   12.93315115
_cell_length_c   3.98511200
_cell_angle_alpha   90.00000000
_cell_angle_beta   90.00000000
_cell_angle_gamma   119.99594568
_symmetry_Int_Tables_number   1
_chemical_formula_structural   Dy3Tm2Lu3(P3Ir4)4
_chemical_formula_sum   'Dy3 Tm2 Lu3 P12 Ir16'
_cell_volume   577.22399776
_cell_formula_units_Z   1
loop_
 _symmetry_equiv_pos_site_id
 _symmetry_equiv_pos_as_xyz
  1  'x, y, z'
loop_
 _atom_site_type_symbol
 _atom_site_label
 _atom_site_symmetry_multiplicity
 _atom_site_fract_x
 _atom_site_fract_y
 _atom_site_fract_z
 _atom_site_occupancy
  Dy  Dy0  1  0.333326  0.666666  0.500000  1
  Dy  Dy1  1  0.666661  0.333334  0.500000  1
  Dy  Dy2  1  0.814247  0.000000  0.000000  1
  Tm  Tm3  1  0.999994  0.814122  0.000000  1
  Tm  Tm4  1  0.185872  0.185878  0.000000  1
  Lu  Lu5  1  0.000061  0.446469  0.500000  1
  Lu  Lu6  1  0.553592  0.553531  0.500000  1
  Lu  Lu7  1  0.445979  0.000000  0.500000  1
  P  P8  1  0.000013  0.652087  0.500000  1
  P  P9  1  0.347926  0.347913  0.500000  1
  P  P10  1  0.651385  0.000000  0.500000  1
  P  P11  1  0.516856  0.687907  0.000000  1
  P  P12  1  0.312060  0.828821  0.000000  1
  P  P13  1  0.171137  0.483309  0.000000  1
  P  P14  1  0.483241  0.171179  0.000000  1
  P  P15  1  0.687829  0.516691  0.000000  1
  P  P16  1  0.828949  0.312093  0.000000  1
  P  P17  1  0.000342  0.176291  0.500000  1
  P  P18  1  0.824051  0.823709  0.500000  1
  P  P19  1  0.176148  0.000000  0.500000  1
  Ir  Ir20  1  0.509548  0.866495  0.000000  1
  Ir  Ir21  1  0.133652  0.643185  0.000000  1
  Ir  Ir22  1  0.356920  0.490607  0.000000  1
  Ir  Ir23  1  0.490468  0.356815  0.000000  1
  Ir  Ir24  1  0.866313  0.509393  0.000000  1
  Ir  Ir25  1  0.643054  0.133505  0.000000  1
  Ir  Ir26  1  0.000466  0.275760  0.000000  1
  Ir  Ir27  1  0.724705  0.724240  0.000000  1
  Ir  Ir28  1  0.275116  0.000000  0.000000  1
  Ir  Ir29  1  0.629729  0.808249  0.500000  1
  Ir  Ir30  1  0.190693  0.821411  0.500000  1
  Ir  Ir31  1  0.178763  0.369300  0.500000  1
  Ir  Ir32  1  0.369282  0.178589  0.500000  1
  Ir  Ir33  1  0.809463  0.630700  0.500000  1
  Ir  Ir34  1  0.821480  0.191751  0.500000  1
  Ir  Ir35  1  0.000678  0.000000  0.500000  1
