# generated using pymatgen
data_PaNO
_symmetry_space_group_name_H-M   'P 1'
_cell_length_a   5.42193700
_cell_length_b   5.43962605
_cell_length_c   5.41961813
_cell_angle_alpha   90.03427931
_cell_angle_beta   90.00000000
_cell_angle_gamma   90.00000000
_symmetry_Int_Tables_number   1
_chemical_formula_structural   PaNO
_chemical_formula_sum   'Pa4 N4 O4'
_cell_volume   159.84244764
_cell_formula_units_Z   4
loop_
 _symmetry_equiv_pos_site_id
 _symmetry_equiv_pos_as_xyz
  1  'x, y, z'
loop_
 _atom_site_type_symbol
 _atom_site_label
 _atom_site_symmetry_multiplicity
 _atom_site_fract_x
 _atom_site_fract_y
 _atom_site_fract_z
 _atom_site_occupancy
  Pa  Pa0  1  0.499695  0.736122  0.750508  1
  Pa  Pa1  1  0.999695  0.263878  0.749492  1
  Pa  Pa2  1  0.500305  0.263878  0.249492  1
  Pa  Pa3  1  0.000305  0.736122  0.250508  1
  N  N4  1  0.250085  0.499455  0.998231  1
  N  N5  1  0.750085  0.500545  0.501769  1
  N  N6  1  0.749915  0.500545  0.001769  1
  N  N7  1  0.249915  0.499455  0.498231  1
  O  O8  1  0.749973  0.000628  0.495807  1
  O  O9  1  0.249973  0.999372  0.004193  1
  O  O10  1  0.250027  0.999372  0.504193  1
  O  O11  1  0.750027  0.000628  0.995807  1
