# generated using pymatgen
data_Hf3V2Ga3
_symmetry_space_group_name_H-M   'P 1'
_cell_length_a   7.78798000
_cell_length_b   7.78798041
_cell_length_c   5.26667700
_cell_angle_alpha   90.00000000
_cell_angle_beta   90.00000000
_cell_angle_gamma   119.99999825
_symmetry_Int_Tables_number   1
_chemical_formula_structural   Hf3V2Ga3
_chemical_formula_sum   'Hf6 V4 Ga6'
_cell_volume   276.64129044
_cell_formula_units_Z   2
loop_
 _symmetry_equiv_pos_site_id
 _symmetry_equiv_pos_as_xyz
  1  'x, y, z'
loop_
 _atom_site_type_symbol
 _atom_site_label
 _atom_site_symmetry_multiplicity
 _atom_site_fract_x
 _atom_site_fract_y
 _atom_site_fract_z
 _atom_site_occupancy
  Hf  Hf0  1  0.244798  0.000000  0.250000  1
  Hf  Hf1  1  0.755202  0.000000  0.750000  1
  Hf  Hf2  1  0.000000  0.244798  0.250000  1
  Hf  Hf3  1  0.000000  0.755202  0.750000  1
  Hf  Hf4  1  0.755202  0.755202  0.250000  1
  Hf  Hf5  1  0.244798  0.244798  0.750000  1
  V  V6  1  0.333333  0.666667  0.000000  1
  V  V7  1  0.666667  0.333333  0.000000  1
  V  V8  1  0.666667  0.333333  0.500000  1
  V  V9  1  0.333333  0.666667  0.500000  1
  Ga  Ga10  1  0.596742  0.000000  0.250000  1
  Ga  Ga11  1  0.403258  0.000000  0.750000  1
  Ga  Ga12  1  0.000000  0.596742  0.250000  1
  Ga  Ga13  1  0.000000  0.403258  0.750000  1
  Ga  Ga14  1  0.403258  0.403258  0.250000  1
  Ga  Ga15  1  0.596742  0.596742  0.750000  1
