# generated using pymatgen
data_Li7Dy2Ho6ZnSn8
_symmetry_space_group_name_H-M   'P 1'
_cell_length_a   9.37736000
_cell_length_b   9.37482114
_cell_length_c   7.24233104
_cell_angle_alpha   89.94069205
_cell_angle_beta   89.99842851
_cell_angle_gamma   120.01045145
_symmetry_Int_Tables_number   1
_chemical_formula_structural   Li7Dy2Ho6ZnSn8
_chemical_formula_sum   'Li7 Dy2 Ho6 Zn1 Sn8'
_cell_volume   551.32351662
_cell_formula_units_Z   1
loop_
 _symmetry_equiv_pos_site_id
 _symmetry_equiv_pos_as_xyz
  1  'x, y, z'
loop_
 _atom_site_type_symbol
 _atom_site_label
 _atom_site_symmetry_multiplicity
 _atom_site_fract_x
 _atom_site_fract_y
 _atom_site_fract_z
 _atom_site_occupancy
  Li  Li0  1  0.165196  0.832383  0.288858  1
  Li  Li1  1  0.667223  0.832450  0.288825  1
  Li  Li2  1  0.833186  0.666321  0.789287  1
  Li  Li3  1  0.832015  0.166156  0.788393  1
  Li  Li4  1  0.334123  0.166120  0.788403  1
  Li  Li5  1  0.333972  0.668048  0.679501  1
  Li  Li6  1  0.668262  0.336468  0.175773  1
  Dy  Dy7  1  0.511404  0.022792  0.496767  1
  Dy  Dy8  1  0.511381  0.488712  0.493088  1
  Ho  Ho9  1  0.977331  0.488698  0.493104  1
  Ho  Ho10  1  0.488839  0.977677  0.989974  1
  Ho  Ho11  1  0.486893  0.510168  0.992637  1
  Ho  Ho12  1  0.023259  0.510166  0.992645  1
  Ho  Ho13  1  0.999426  0.998846  0.498648  1
  Ho  Ho14  1  0.000994  0.002010  0.997801  1
  Zn  Zn15  1  0.166454  0.333049  0.300041  1
  Sn  Sn16  1  0.166064  0.332329  0.729816  1
  Sn  Sn17  1  0.165536  0.832603  0.728622  1
  Sn  Sn18  1  0.667171  0.832764  0.728773  1
  Sn  Sn19  1  0.833965  0.667722  0.229765  1
  Sn  Sn20  1  0.831754  0.165798  0.226939  1
  Sn  Sn21  1  0.334014  0.165662  0.226854  1
  Sn  Sn22  1  0.334325  0.668823  0.257310  1
  Sn  Sn23  1  0.667210  0.334235  0.760143  1
