# generated using pymatgen
data_CeSe23
_symmetry_space_group_name_H-M   'P 1'
_cell_length_a   6.28450453
_cell_length_b   10.41948452
_cell_length_c   16.35552100
_cell_angle_alpha   86.11606785
_cell_angle_beta   80.21568517
_cell_angle_gamma   90.57713853
_symmetry_Int_Tables_number   1
_chemical_formula_structural   CeSe23
_chemical_formula_sum   'Ce1 Se23'
_cell_volume   1052.72505564
_cell_formula_units_Z   1
loop_
 _symmetry_equiv_pos_site_id
 _symmetry_equiv_pos_as_xyz
  1  'x, y, z'
loop_
 _atom_site_type_symbol
 _atom_site_label
 _atom_site_symmetry_multiplicity
 _atom_site_fract_x
 _atom_site_fract_y
 _atom_site_fract_z
 _atom_site_occupancy
  Ce  Ce0  1  0.620414  0.178543  0.392079  1
  Se  Se1  1  0.724232  0.914024  0.363413  1
  Se  Se2  1  0.951951  0.330012  0.138980  1
  Se  Se3  1  0.810322  0.272162  0.521296  1
  Se  Se4  1  0.425155  0.906998  0.472973  1
  Se  Se5  1  0.152591  0.281865  0.009715  1
  Se  Se6  1  0.775879  0.738530  0.040609  1
  Se  Se7  1  0.152300  0.211232  0.384803  1
  Se  Se8  1  0.624484  0.440640  0.324411  1
  Se  Se9  1  0.817722  0.123448  0.206257  1
  Se  Se10  1  0.241900  0.882873  0.116430  1
  Se  Se11  1  0.699829  0.652160  0.596214  1
  Se  Se12  1  0.249870  0.407549  0.596155  1
  Se  Se13  1  0.164824  0.877754  0.853581  1
  Se  Se14  1  0.743543  0.136303  0.890838  1
  Se  Se15  1  0.020775  0.694436  0.132658  1
  Se  Se16  1  0.583301  0.864750  0.596876  1
  Se  Se17  1  0.450770  0.210195  0.583127  1
  Se  Se18  1  0.953693  0.692201  0.906655  1
  Se  Se19  1  0.941411  0.324998  0.904753  1
  Se  Se20  1  0.387508  0.314054  0.265535  1
  Se  Se21  1  0.132543  0.005835  0.232047  1
  Se  Se22  1  0.428829  0.520686  0.683614  1
  Se  Se23  1  0.946153  0.018750  0.786979  1
