# generated using pymatgen
data_NdZnAg4
_symmetry_space_group_name_H-M   'P 1'
_cell_length_a   5.47448289
_cell_length_b   5.47448288
_cell_length_c   5.47448325
_cell_angle_alpha   61.68663736
_cell_angle_beta   61.68663267
_cell_angle_gamma   61.68663632
_symmetry_Int_Tables_number   1
_chemical_formula_structural   NdZnAg4
_chemical_formula_sum   'Nd1 Zn1 Ag4'
_cell_volume   120.40167799
_cell_formula_units_Z   1
loop_
 _symmetry_equiv_pos_site_id
 _symmetry_equiv_pos_as_xyz
  1  'x, y, z'
loop_
 _atom_site_type_symbol
 _atom_site_label
 _atom_site_symmetry_multiplicity
 _atom_site_fract_x
 _atom_site_fract_y
 _atom_site_fract_z
 _atom_site_occupancy
  Nd  Nd0  1  0.998662  0.998662  0.998662  1
  Zn  Zn1  1  0.377696  0.377696  0.377696  1
  Ag  Ag2  1  0.872635  0.376493  0.376493  1
  Ag  Ag3  1  0.376493  0.872635  0.376493  1
  Ag  Ag4  1  0.376493  0.376493  0.872635  1
  Ag  Ag5  1  0.748019  0.748019  0.748019  1
