# generated using pymatgen
data_Tb2YTm17Pt16
_symmetry_space_group_name_H-M   'P 1'
_cell_length_a   7.40941512
_cell_length_b   7.49346659
_cell_length_c   14.59537604
_cell_angle_alpha   90.00291465
_cell_angle_beta   89.99786420
_cell_angle_gamma   89.96250816
_symmetry_Int_Tables_number   1
_chemical_formula_structural   Tb2YTm17Pt16
_chemical_formula_sum   'Tb2 Y1 Tm17 Pt16'
_cell_volume   810.36727974
_cell_formula_units_Z   1
loop_
 _symmetry_equiv_pos_site_id
 _symmetry_equiv_pos_as_xyz
  1  'x, y, z'
loop_
 _atom_site_type_symbol
 _atom_site_label
 _atom_site_symmetry_multiplicity
 _atom_site_fract_x
 _atom_site_fract_y
 _atom_site_fract_z
 _atom_site_occupancy
  Tb  Tb0  1  0.500864  0.321044  0.907382  1
  Tb  Tb1  1  0.498918  0.679095  0.407557  1
  Y  Y2  1  0.999101  0.821030  0.092462  1
  Tm  Tm3  1  0.681026  0.989610  0.250077  1
  Tm  Tm4  1  0.180920  0.510463  0.250009  1
  Tm  Tm5  1  0.819112  0.489311  0.749597  1
  Tm  Tm6  1  0.318795  0.010479  0.749739  1
  Tm  Tm7  1  0.656857  0.833163  0.622412  1
  Tm  Tm8  1  0.156037  0.667420  0.877261  1
  Tm  Tm9  1  0.844538  0.332188  0.377727  1
  Tm  Tm10  1  0.343763  0.167259  0.122587  1
  Tm  Tm11  1  0.343810  0.167515  0.377917  1
  Tm  Tm12  1  0.844042  0.332238  0.122202  1
  Tm  Tm13  1  0.155878  0.667833  0.622097  1
  Tm  Tm14  1  0.656159  0.832282  0.877723  1
  Tm  Tm15  1  0.997905  0.820240  0.406963  1
  Tm  Tm16  1  0.497500  0.680515  0.093278  1
  Tm  Tm17  1  0.502489  0.319219  0.593237  1
  Tm  Tm18  1  0.002301  0.180592  0.906860  1
  Tm  Tm19  1  0.002038  0.179931  0.592795  1
  Pt  Pt20  1  0.816872  0.642678  0.250787  1
  Pt  Pt21  1  0.316974  0.857186  0.249488  1
  Pt  Pt22  1  0.683655  0.142864  0.748895  1
  Pt  Pt23  1  0.181759  0.356243  0.749497  1
  Pt  Pt24  1  0.546216  0.385810  0.249560  1
  Pt  Pt25  1  0.046124  0.114278  0.250570  1
  Pt  Pt26  1  0.954147  0.886601  0.749959  1
  Pt  Pt27  1  0.453596  0.613944  0.749384  1
  Pt  Pt28  1  0.816435  0.531449  0.542550  1
  Pt  Pt29  1  0.315838  0.966444  0.958081  1
  Pt  Pt30  1  0.684719  0.034046  0.458633  1
  Pt  Pt31  1  0.184334  0.466542  0.041926  1
  Pt  Pt32  1  0.181916  0.466066  0.458481  1
  Pt  Pt33  1  0.682062  0.033019  0.041940  1
  Pt  Pt34  1  0.315409  0.968678  0.542420  1
  Pt  Pt35  1  0.817892  0.532726  0.957946  1
