# generated using pymatgen
data_Zr6Zn17Ni6Te
_symmetry_space_group_name_H-M   'P 1'
_cell_length_a   8.67212650
_cell_length_b   8.67212659
_cell_length_c   8.67212700
_cell_angle_alpha   60.00000225
_cell_angle_beta   60.00000191
_cell_angle_gamma   60.00000381
_symmetry_Int_Tables_number   1
_chemical_formula_structural   Zr6Zn17Ni6Te
_chemical_formula_sum   'Zr6 Zn17 Ni6 Te1'
_cell_volume   461.17087386
_cell_formula_units_Z   1
loop_
 _symmetry_equiv_pos_site_id
 _symmetry_equiv_pos_as_xyz
  1  'x, y, z'
loop_
 _atom_site_type_symbol
 _atom_site_label
 _atom_site_symmetry_multiplicity
 _atom_site_fract_x
 _atom_site_fract_y
 _atom_site_fract_z
 _atom_site_occupancy
  Zr  Zr0  1  0.727876  0.272124  0.272124  1
  Zr  Zr1  1  0.272124  0.727876  0.727876  1
  Zr  Zr2  1  0.272124  0.727876  0.272124  1
  Zr  Zr3  1  0.727876  0.272124  0.727876  1
  Zr  Zr4  1  0.272124  0.272124  0.727876  1
  Zr  Zr5  1  0.727876  0.727876  0.272124  1
  Zn  Zn6  1  0.129186  0.129186  0.129186  1
  Zn  Zn7  1  0.870814  0.870814  0.870814  1
  Zn  Zn8  1  0.129186  0.129186  0.612443  1
  Zn  Zn9  1  0.129186  0.612443  0.129186  1
  Zn  Zn10  1  0.870814  0.870814  0.387557  1
  Zn  Zn11  1  0.870814  0.387557  0.870814  1
  Zn  Zn12  1  0.612443  0.129186  0.129186  1
  Zn  Zn13  1  0.387557  0.870814  0.870814  1
  Zn  Zn14  1  0.338076  0.338076  0.338076  1
  Zn  Zn15  1  0.661924  0.661924  0.661924  1
  Zn  Zn16  1  0.338076  0.338076  0.985772  1
  Zn  Zn17  1  0.338076  0.985772  0.338076  1
  Zn  Zn18  1  0.661924  0.661924  0.014228  1
  Zn  Zn19  1  0.661924  0.014228  0.661924  1
  Zn  Zn20  1  0.985772  0.338076  0.338076  1
  Zn  Zn21  1  0.014228  0.661924  0.661924  1
  Zn  Zn22  1  0.000000  0.000000  0.000000  1
  Ni  Ni23  1  0.500000  0.000000  0.000000  1
  Ni  Ni24  1  0.000000  0.500000  0.500000  1
  Ni  Ni25  1  0.000000  0.500000  0.000000  1
  Ni  Ni26  1  0.500000  0.000000  0.500000  1
  Ni  Ni27  1  0.000000  0.000000  0.500000  1
  Ni  Ni28  1  0.500000  0.500000  0.000000  1
  Te  Te29  1  0.500000  0.500000  0.500000  1
