# generated using pymatgen
data_TbEr5TcOs
_symmetry_space_group_name_H-M   'P 1'
_cell_length_a   6.25497700
_cell_length_b   7.39152600
_cell_length_c   8.99963500
_cell_angle_alpha   90.00000000
_cell_angle_beta   90.00000000
_cell_angle_gamma   90.00000000
_symmetry_Int_Tables_number   1
_chemical_formula_structural   TbEr5TcOs
_chemical_formula_sum   'Tb2 Er10 Tc2 Os2'
_cell_volume   416.08755078
_cell_formula_units_Z   2
loop_
 _symmetry_equiv_pos_site_id
 _symmetry_equiv_pos_as_xyz
  1  'x, y, z'
loop_
 _atom_site_type_symbol
 _atom_site_label
 _atom_site_symmetry_multiplicity
 _atom_site_fract_x
 _atom_site_fract_y
 _atom_site_fract_z
 _atom_site_occupancy
  Tb  Tb0  1  0.876406  0.539296  0.250000  1
  Tb  Tb1  1  0.623594  0.039296  0.250000  1
  Er  Er2  1  0.337105  0.674696  0.061911  1
  Er  Er3  1  0.162895  0.174696  0.438089  1
  Er  Er4  1  0.664575  0.325068  0.563479  1
  Er  Er5  1  0.835425  0.825068  0.936521  1
  Er  Er6  1  0.664575  0.325068  0.936521  1
  Er  Er7  1  0.835425  0.825068  0.563479  1
  Er  Er8  1  0.337105  0.674696  0.438089  1
  Er  Er9  1  0.162895  0.174696  0.061911  1
  Er  Er10  1  0.129688  0.459417  0.750000  1
  Er  Er11  1  0.370312  0.959417  0.750000  1
  Tc  Tc12  1  0.039575  0.883794  0.250000  1
  Tc  Tc13  1  0.460425  0.383794  0.250000  1
  Os  Os14  1  0.959582  0.117966  0.750000  1
  Os  Os15  1  0.540418  0.617966  0.750000  1
