# generated using pymatgen
data_Er4TmZn2Sb
_symmetry_space_group_name_H-M   'P 1'
_cell_length_a   8.48926594
_cell_length_b   8.48926505
_cell_length_c   8.48926510
_cell_angle_alpha   123.70574335
_cell_angle_beta   123.70574276
_cell_angle_gamma   83.69301233
_symmetry_Int_Tables_number   1
_chemical_formula_structural   Er4TmZn2Sb
_chemical_formula_sum   'Er8 Tm2 Zn4 Sb2'
_cell_volume   405.68505049
_cell_formula_units_Z   2
loop_
 _symmetry_equiv_pos_site_id
 _symmetry_equiv_pos_as_xyz
  1  'x, y, z'
loop_
 _atom_site_type_symbol
 _atom_site_label
 _atom_site_symmetry_multiplicity
 _atom_site_fract_x
 _atom_site_fract_y
 _atom_site_fract_z
 _atom_site_occupancy
  Er  Er0  1  0.010623  0.510623  0.809412  1
  Er  Er1  1  0.701211  0.201211  0.190588  1
  Er  Er2  1  0.510623  0.701211  0.500000  1
  Er  Er3  1  0.201211  0.010623  0.500000  1
  Er  Er4  1  0.989377  0.489377  0.190588  1
  Er  Er5  1  0.298789  0.798789  0.809412  1
  Er  Er6  1  0.489377  0.298789  0.500000  1
  Er  Er7  1  0.798789  0.989377  0.500000  1
  Tm  Tm8  1  0.000000  0.000000  0.000000  1
  Tm  Tm9  1  0.500000  0.500000  0.000000  1
  Zn  Zn10  1  0.636315  0.136315  0.772628  1
  Zn  Zn11  1  0.363685  0.863685  0.227372  1
  Zn  Zn12  1  0.136315  0.363685  0.500000  1
  Zn  Zn13  1  0.863685  0.636315  0.500000  1
  Sb  Sb14  1  0.750000  0.750000  0.000000  1
  Sb  Sb15  1  0.250000  0.250000  0.000000  1
