# generated using pymatgen
data_SmHfB6Ru
_symmetry_space_group_name_H-M   'P 1'
_cell_length_a   3.58279600
_cell_length_b   9.06846600
_cell_length_c   11.47212000
_cell_angle_alpha   90.00000000
_cell_angle_beta   90.00000000
_cell_angle_gamma   90.00000000
_symmetry_Int_Tables_number   1
_chemical_formula_structural   SmHfB6Ru
_chemical_formula_sum   'Sm4 Hf4 B24 Ru4'
_cell_volume   372.73449855
_cell_formula_units_Z   4
loop_
 _symmetry_equiv_pos_site_id
 _symmetry_equiv_pos_as_xyz
  1  'x, y, z'
loop_
 _atom_site_type_symbol
 _atom_site_label
 _atom_site_symmetry_multiplicity
 _atom_site_fract_x
 _atom_site_fract_y
 _atom_site_fract_z
 _atom_site_occupancy
  Sm  Sm0  1  0.000000  0.322036  0.414407  1
  Sm  Sm1  1  0.000000  0.677964  0.585593  1
  Sm  Sm2  1  0.000000  0.822036  0.085593  1
  Sm  Sm3  1  0.000000  0.177964  0.914407  1
  Hf  Hf4  1  0.000000  0.945315  0.374018  1
  Hf  Hf5  1  0.000000  0.054685  0.625982  1
  Hf  Hf6  1  0.000000  0.445315  0.125982  1
  Hf  Hf7  1  0.000000  0.554685  0.874018  1
  B  B8  1  0.500000  0.555777  0.431991  1
  B  B9  1  0.500000  0.444223  0.568009  1
  B  B10  1  0.500000  0.055777  0.068009  1
  B  B11  1  0.500000  0.944223  0.931991  1
  B  B12  1  0.500000  0.753549  0.417084  1
  B  B13  1  0.500000  0.246451  0.582916  1
  B  B14  1  0.500000  0.253549  0.082916  1
  B  B15  1  0.500000  0.746451  0.917084  1
  B  B16  1  0.500000  0.795525  0.264336  1
  B  B17  1  0.500000  0.204475  0.735664  1
  B  B18  1  0.500000  0.295525  0.235664  1
  B  B19  1  0.500000  0.704475  0.764336  1
  B  B20  1  0.500000  0.629394  0.182541  1
  B  B21  1  0.500000  0.370606  0.817459  1
  B  B22  1  0.500000  0.129394  0.317459  1
  B  B23  1  0.500000  0.870606  0.682541  1
  B  B24  1  0.500000  0.983257  0.214337  1
  B  B25  1  0.500000  0.016743  0.785663  1
  B  B26  1  0.500000  0.483257  0.285663  1
  B  B27  1  0.500000  0.516743  0.714337  1
  B  B28  1  0.500000  0.599092  0.026483  1
  B  B29  1  0.500000  0.400908  0.973517  1
  B  B30  1  0.500000  0.099092  0.473517  1
  B  B31  1  0.500000  0.900908  0.526483  1
  Ru  Ru32  1  0.000000  0.643314  0.317337  1
  Ru  Ru33  1  0.000000  0.356686  0.682663  1
  Ru  Ru34  1  0.000000  0.143314  0.182663  1
  Ru  Ru35  1  0.000000  0.856686  0.817337  1
