# generated using pymatgen
data_Ho3Tm5B24(IrRh)2
_symmetry_space_group_name_H-M   'P 1'
_cell_length_a   3.62100600
_cell_length_b   9.13015671
_cell_length_c   11.46762110
_cell_angle_alpha   90.09184445
_cell_angle_beta   90.00000000
_cell_angle_gamma   90.00000000
_symmetry_Int_Tables_number   1
_chemical_formula_structural   Ho3Tm5B24(IrRh)2
_chemical_formula_sum   'Ho3 Tm5 B24 Ir2 Rh2'
_cell_volume   379.12310579
_cell_formula_units_Z   1
loop_
 _symmetry_equiv_pos_site_id
 _symmetry_equiv_pos_as_xyz
  1  'x, y, z'
loop_
 _atom_site_type_symbol
 _atom_site_label
 _atom_site_symmetry_multiplicity
 _atom_site_fract_x
 _atom_site_fract_y
 _atom_site_fract_z
 _atom_site_occupancy
  Ho  Ho0  1  0.500000  0.322953  0.413946  1
  Ho  Ho1  1  0.500000  0.677060  0.586071  1
  Ho  Ho2  1  0.500000  0.179129  0.912682  1
  Tm  Tm3  1  0.500000  0.820601  0.087306  1
  Tm  Tm4  1  0.500000  0.445352  0.126530  1
  Tm  Tm5  1  0.500000  0.554900  0.873611  1
  Tm  Tm6  1  0.500000  0.056436  0.625817  1
  Tm  Tm7  1  0.500000  0.943483  0.374101  1
  B  B8  1  0.000000  0.109198  0.470134  1
  B  B9  1  0.000000  0.890742  0.529803  1
  B  B10  1  0.000000  0.391251  0.970447  1
  B  B11  1  0.000000  0.609386  0.029741  1
  B  B12  1  0.000000  0.132162  0.316069  1
  B  B13  1  0.000000  0.867778  0.683909  1
  B  B14  1  0.000000  0.367247  0.816232  1
  B  B15  1  0.000000  0.633189  0.183556  1
  B  B16  1  0.000000  0.053713  0.065815  1
  B  B17  1  0.000000  0.945720  0.934503  1
  B  B18  1  0.000000  0.446465  0.565436  1
  B  B19  1  0.000000  0.553556  0.434506  1
  B  B20  1  0.000000  0.482477  0.286696  1
  B  B21  1  0.000000  0.517635  0.713329  1
  B  B22  1  0.000000  0.017722  0.786254  1
  B  B23  1  0.000000  0.981750  0.213507  1
  B  B24  1  0.000000  0.250450  0.079374  1
  B  B25  1  0.000000  0.749688  0.921102  1
  B  B26  1  0.000000  0.250568  0.579385  1
  B  B27  1  0.000000  0.749415  0.420539  1
  B  B28  1  0.000000  0.294469  0.235009  1
  B  B29  1  0.000000  0.705563  0.765058  1
  B  B30  1  0.000000  0.205614  0.735522  1
  B  B31  1  0.000000  0.794554  0.264039  1
  Ir  Ir32  1  0.500000  0.138512  0.178108  1
  Ir  Ir33  1  0.500000  0.861006  0.822070  1
  Rh  Rh34  1  0.500000  0.360235  0.680179  1
  Rh  Rh35  1  0.500000  0.640018  0.319613  1
