# generated using pymatgen
data_Tb3As4Pd7
_symmetry_space_group_name_H-M   'P 1'
_cell_length_a   8.16512618
_cell_length_b   8.16512552
_cell_length_c   9.65338374
_cell_angle_alpha   55.46672203
_cell_angle_beta   55.46672681
_cell_angle_gamma   29.43212168
_symmetry_Int_Tables_number   1
_chemical_formula_structural   Tb3As4Pd7
_chemical_formula_sum   'Tb3 As4 Pd7'
_cell_volume   256.23718590
_cell_formula_units_Z   1
loop_
 _symmetry_equiv_pos_site_id
 _symmetry_equiv_pos_as_xyz
  1  'x, y, z'
loop_
 _atom_site_type_symbol
 _atom_site_label
 _atom_site_symmetry_multiplicity
 _atom_site_fract_x
 _atom_site_fract_y
 _atom_site_fract_z
 _atom_site_occupancy
  Tb  Tb0  1  0.677113  0.677113  0.328716  1
  Tb  Tb1  1  0.322887  0.322887  0.671284  1
  Tb  Tb2  1  0.000000  0.000000  0.000000  1
  As  As3  1  0.340565  0.340565  0.252087  1
  As  As4  1  0.659435  0.659435  0.747913  1
  As  As5  1  0.893992  0.893992  0.823398  1
  As  As6  1  0.106008  0.106008  0.176602  1
  Pd  Pd7  1  0.304874  0.304874  0.027208  1
  Pd  Pd8  1  0.695126  0.695126  0.972792  1
  Pd  Pd9  1  0.511838  0.511838  0.707954  1
  Pd  Pd10  1  0.832740  0.832740  0.426038  1
  Pd  Pd11  1  0.488162  0.488162  0.292046  1
  Pd  Pd12  1  0.167260  0.167260  0.573962  1
  Pd  Pd13  1  0.000000  0.000000  0.500000  1
