# generated using pymatgen
data_Tb6AlCuOs
_symmetry_space_group_name_H-M   'P 1'
_cell_length_a   8.47779167
_cell_length_b   8.47779194
_cell_length_c   8.47779274
_cell_angle_alpha   104.55352443
_cell_angle_beta   110.80123308
_cell_angle_gamma   113.17796940
_symmetry_Int_Tables_number   1
_chemical_formula_structural   Tb6AlCuOs
_chemical_formula_sum   'Tb12 Al2 Cu2 Os2'
_cell_volume   466.27544828
_cell_formula_units_Z   2
loop_
 _symmetry_equiv_pos_site_id
 _symmetry_equiv_pos_as_xyz
  1  'x, y, z'
loop_
 _atom_site_type_symbol
 _atom_site_label
 _atom_site_symmetry_multiplicity
 _atom_site_fract_x
 _atom_site_fract_y
 _atom_site_fract_z
 _atom_site_occupancy
  Tb  Tb0  1  0.692830  0.260627  0.953457  1
  Tb  Tb1  1  0.307170  0.739373  0.046543  1
  Tb  Tb2  1  0.692830  0.739373  0.432205  1
  Tb  Tb3  1  0.307170  0.260627  0.567795  1
  Tb  Tb4  1  0.809599  0.143430  0.333830  1
  Tb  Tb5  1  0.809599  0.475770  0.666170  1
  Tb  Tb6  1  0.190401  0.856570  0.666170  1
  Tb  Tb7  1  0.190401  0.524230  0.333830  1
  Tb  Tb8  1  0.591156  0.775163  0.815993  1
  Tb  Tb9  1  0.959169  0.775163  0.184007  1
  Tb  Tb10  1  0.040831  0.224837  0.815993  1
  Tb  Tb11  1  0.408844  0.224837  0.184007  1
  Al  Al12  1  0.500000  0.500000  0.000000  1
  Al  Al13  1  0.500000  0.000000  0.500000  1
  Cu  Cu14  1  0.000000  0.118848  0.118848  1
  Cu  Cu15  1  0.000000  0.881152  0.881152  1
  Os  Os16  1  0.827892  0.500000  0.327892  1
  Os  Os17  1  0.172108  0.500000  0.672108  1
