# generated using pymatgen
data_La2PrAl10(SiOs2)2
_symmetry_space_group_name_H-M   'P 1'
_cell_length_a   8.84442543
_cell_length_b   8.84442475
_cell_length_c   9.76247700
_cell_angle_alpha   90.00000000
_cell_angle_beta   90.00000000
_cell_angle_gamma   120.08499907
_symmetry_Int_Tables_number   1
_chemical_formula_structural   La2PrAl10(SiOs2)2
_chemical_formula_sum   'La4 Pr2 Al20 Si4 Os8'
_cell_volume   660.78056019
_cell_formula_units_Z   2
loop_
 _symmetry_equiv_pos_site_id
 _symmetry_equiv_pos_as_xyz
  1  'x, y, z'
loop_
 _atom_site_type_symbol
 _atom_site_label
 _atom_site_symmetry_multiplicity
 _atom_site_fract_x
 _atom_site_fract_y
 _atom_site_fract_z
 _atom_site_occupancy
  La  La0  1  0.194813  0.387366  0.250000  1
  La  La1  1  0.805187  0.612634  0.750000  1
  La  La2  1  0.612634  0.805187  0.250000  1
  La  La3  1  0.387366  0.194813  0.750000  1
  Pr  Pr4  1  0.192773  0.807227  0.250000  1
  Pr  Pr5  1  0.807227  0.192773  0.750000  1
  Al  Al6  1  0.164079  0.329067  0.574531  1
  Al  Al7  1  0.835921  0.670933  0.425469  1
  Al  Al8  1  0.670933  0.835921  0.574531  1
  Al  Al9  1  0.835921  0.670933  0.074531  1
  Al  Al10  1  0.329067  0.164079  0.425469  1
  Al  Al11  1  0.164079  0.329067  0.925469  1
  Al  Al12  1  0.164329  0.835671  0.574878  1
  Al  Al13  1  0.329067  0.164079  0.074531  1
  Al  Al14  1  0.835671  0.164329  0.425122  1
  Al  Al15  1  0.670933  0.835921  0.925469  1
  Al  Al16  1  0.835671  0.164329  0.074878  1
  Al  Al17  1  0.164329  0.835671  0.925122  1
  Al  Al18  1  0.565284  0.130579  0.250000  1
  Al  Al19  1  0.434716  0.869421  0.750000  1
  Al  Al20  1  0.869421  0.434716  0.250000  1
  Al  Al21  1  0.130579  0.565284  0.750000  1
  Al  Al22  1  0.565738  0.434262  0.250000  1
  Al  Al23  1  0.434262  0.565738  0.750000  1
  Al  Al24  1  0.000277  0.999723  0.250000  1
  Al  Al25  1  0.999723  0.000277  0.750000  1
  Si  Si26  1  0.332410  0.667590  0.021373  1
  Si  Si27  1  0.667590  0.332410  0.978627  1
  Si  Si28  1  0.667590  0.332410  0.521373  1
  Si  Si29  1  0.332410  0.667590  0.478627  1
  Os  Os30  1  0.500000  0.000000  0.000000  1
  Os  Os31  1  0.000000  0.500000  0.000000  1
  Os  Os32  1  0.500000  0.000000  0.500000  1
  Os  Os33  1  0.500000  0.500000  0.000000  1
  Os  Os34  1  0.000000  0.500000  0.500000  1
  Os  Os35  1  0.500000  0.500000  0.500000  1
  Os  Os36  1  0.000000  0.000000  0.000000  1
  Os  Os37  1  0.000000  0.000000  0.500000  1
