# generated using pymatgen
data_LaTmCu2SiGe
_symmetry_space_group_name_H-M   'P 1'
_cell_length_a   4.23387000
_cell_length_b   4.23387139
_cell_length_c   7.69890100
_cell_angle_alpha   90.00000000
_cell_angle_beta   90.00000000
_cell_angle_gamma   120.00000479
_symmetry_Int_Tables_number   1
_chemical_formula_structural   LaTmCu2SiGe
_chemical_formula_sum   'La1 Tm1 Cu2 Si1 Ge1'
_cell_volume   119.51833268
_cell_formula_units_Z   1
loop_
 _symmetry_equiv_pos_site_id
 _symmetry_equiv_pos_as_xyz
  1  'x, y, z'
loop_
 _atom_site_type_symbol
 _atom_site_label
 _atom_site_symmetry_multiplicity
 _atom_site_fract_x
 _atom_site_fract_y
 _atom_site_fract_z
 _atom_site_occupancy
  La  La0  1  0.000000  0.000000  0.001527  1
  Tm  Tm1  1  0.000000  0.000000  0.498672  1
  Cu  Cu2  1  0.333333  0.666667  0.719945  1
  Cu  Cu3  1  0.666667  0.333333  0.279596  1
  Si  Si4  1  0.333333  0.666667  0.267885  1
  Ge  Ge5  1  0.666667  0.333333  0.732374  1
