# generated using pymatgen
data_CaCe2(B3Ir4)2
_symmetry_space_group_name_H-M   'P 1'
_cell_length_a   9.97266318
_cell_length_b   9.10347605
_cell_length_c   5.66414895
_cell_angle_alpha   81.35462449
_cell_angle_beta   64.48481132
_cell_angle_gamma   34.16056616
_symmetry_Int_Tables_number   1
_chemical_formula_structural   CaCe2(B3Ir4)2
_chemical_formula_sum   'Ca1 Ce2 B6 Ir8'
_cell_volume   238.05500392
_cell_formula_units_Z   1
loop_
 _symmetry_equiv_pos_site_id
 _symmetry_equiv_pos_as_xyz
  1  'x, y, z'
loop_
 _atom_site_type_symbol
 _atom_site_label
 _atom_site_symmetry_multiplicity
 _atom_site_fract_x
 _atom_site_fract_y
 _atom_site_fract_z
 _atom_site_occupancy
  Ca  Ca0  1  0.681884  0.681884  0.318116  1
  Ce  Ce1  1  0.322194  0.322194  0.677806  1
  Ce  Ce2  1  0.499549  0.499549  0.500451  1
  B  B3  1  0.669821  0.981766  0.018234  1
  B  B4  1  0.981766  0.669821  0.330179  1
  B  B5  1  0.327355  0.018318  0.981682  1
  B  B6  1  0.018318  0.327355  0.672645  1
  B  B7  1  0.168570  0.832291  0.167709  1
  B  B8  1  0.832291  0.168570  0.831430  1
  Ir  Ir9  1  0.585951  0.585951  0.914049  1
  Ir  Ir10  1  0.912532  0.912532  0.087468  1
  Ir  Ir11  1  0.414508  0.414508  0.085492  1
  Ir  Ir12  1  0.085951  0.085951  0.414049  1
  Ir  Ir13  1  0.914508  0.914508  0.585492  1
  Ir  Ir14  1  0.249207  0.249207  0.250793  1
  Ir  Ir15  1  0.086390  0.086390  0.913610  1
  Ir  Ir16  1  0.749207  0.749207  0.750793  1
