# generated using pymatgen
data_Er12Co4RhPb
_symmetry_space_group_name_H-M   'P 1'
_cell_length_a   8.23548202
_cell_length_b   8.23548138
_cell_length_c   8.23548296
_cell_angle_alpha   110.90504350
_cell_angle_beta   110.67350718
_cell_angle_gamma   106.86618967
_symmetry_Int_Tables_number   1
_chemical_formula_structural   Er12Co4RhPb
_chemical_formula_sum   'Er12 Co4 Rh1 Pb1'
_cell_volume   429.31230205
_cell_formula_units_Z   1
loop_
 _symmetry_equiv_pos_site_id
 _symmetry_equiv_pos_as_xyz
  1  'x, y, z'
loop_
 _atom_site_type_symbol
 _atom_site_label
 _atom_site_symmetry_multiplicity
 _atom_site_fract_x
 _atom_site_fract_y
 _atom_site_fract_z
 _atom_site_occupancy
  Er  Er0  1  0.313029  0.617905  0.304875  1
  Er  Er1  1  0.686971  0.382096  0.695125  1
  Er  Er2  1  0.313029  0.008155  0.695125  1
  Er  Er3  1  0.686971  0.991845  0.304875  1
  Er  Er4  1  0.411982  0.213763  0.198219  1
  Er  Er5  1  0.588018  0.786237  0.801781  1
  Er  Er6  1  0.015545  0.213763  0.801781  1
  Er  Er7  1  0.984455  0.786237  0.198219  1
  Er  Er8  1  0.184203  0.287513  0.471716  1
  Er  Er9  1  0.815797  0.712487  0.528284  1
  Er  Er10  1  0.184203  0.712487  0.896690  1
  Er  Er11  1  0.815797  0.287513  0.103310  1
  Co  Co12  1  0.112183  0.612183  0.500000  1
  Co  Co13  1  0.887818  0.387818  0.500000  1
  Co  Co14  1  0.378511  0.000000  0.378511  1
  Co  Co15  1  0.621489  0.000000  0.621489  1
  Rh  Rh16  1  0.000000  0.000000  0.000000  1
  Pb  Pb17  1  0.500000  0.500000  0.000000  1
