# generated using pymatgen
data_SmEr3BI5
_symmetry_space_group_name_H-M   'P 1'
_cell_length_a   9.66566972
_cell_length_b   9.66567062
_cell_length_c   8.56160400
_cell_angle_alpha   77.91361582
_cell_angle_beta   77.91361468
_cell_angle_gamma   24.45170945
_symmetry_Int_Tables_number   1
_chemical_formula_structural   SmEr3BI5
_chemical_formula_sum   'Sm1 Er3 B1 I5'
_cell_volume   323.39899531
_cell_formula_units_Z   1
loop_
 _symmetry_equiv_pos_site_id
 _symmetry_equiv_pos_as_xyz
  1  'x, y, z'
loop_
 _atom_site_type_symbol
 _atom_site_label
 _atom_site_symmetry_multiplicity
 _atom_site_fract_x
 _atom_site_fract_y
 _atom_site_fract_z
 _atom_site_occupancy
  Sm  Sm0  1  0.998873  0.998873  0.801504  1
  Er  Er1  1  0.365953  0.365953  0.069303  1
  Er  Er2  1  0.000745  0.000745  0.192778  1
  Er  Er3  1  0.634140  0.634140  0.933778  1
  B  B4  1  0.499999  0.499999  0.004195  1
  I  I5  1  0.834793  0.834793  0.339800  1
  I  I6  1  0.825588  0.825588  0.831148  1
  I  I7  1  0.171395  0.171395  0.173831  1
  I  I8  1  0.500278  0.500278  0.491675  1
  I  I9  1  0.168236  0.168236  0.661988  1
