# generated using pymatgen
data_Ta6Ti3Ge6B2Mo
_symmetry_space_group_name_H-M   'P 1'
_cell_length_a   7.71747500
_cell_length_b   7.71747440
_cell_length_c   5.23952000
_cell_angle_alpha   90.00000000
_cell_angle_beta   90.00000000
_cell_angle_gamma   119.99999828
_symmetry_Int_Tables_number   1
_chemical_formula_structural   Ta6Ti3Ge6B2Mo
_chemical_formula_sum   'Ta6 Ti3 Ge6 B2 Mo1'
_cell_volume   270.25427377
_cell_formula_units_Z   1
loop_
 _symmetry_equiv_pos_site_id
 _symmetry_equiv_pos_as_xyz
  1  'x, y, z'
loop_
 _atom_site_type_symbol
 _atom_site_label
 _atom_site_symmetry_multiplicity
 _atom_site_fract_x
 _atom_site_fract_y
 _atom_site_fract_z
 _atom_site_occupancy
  Ta  Ta0  1  0.756457  0.757861  0.248001  1
  Ta  Ta1  1  0.242139  0.998596  0.248001  1
  Ta  Ta2  1  0.001404  0.243543  0.248001  1
  Ta  Ta3  1  0.242139  0.243543  0.751999  1
  Ta  Ta4  1  0.756457  0.998596  0.751999  1
  Ta  Ta5  1  0.001404  0.757861  0.751999  1
  Ti  Ti6  1  0.333333  0.666667  0.500000  1
  Ti  Ti7  1  0.333333  0.666667  0.000000  1
  Ti  Ti8  1  0.666667  0.333333  0.000000  1
  Ge  Ge9  1  0.403832  0.405328  0.250181  1
  Ge  Ge10  1  0.594672  0.998504  0.250181  1
  Ge  Ge11  1  0.001496  0.596168  0.250181  1
  Ge  Ge12  1  0.594672  0.596168  0.749819  1
  Ge  Ge13  1  0.403832  0.998504  0.749819  1
  Ge  Ge14  1  0.001496  0.405328  0.749819  1
  B  B15  1  0.000000  0.000000  0.500000  1
  B  B16  1  0.000000  0.000000  0.000000  1
  Mo  Mo17  1  0.666667  0.333333  0.500000  1
