# generated using pymatgen
data_SmAl10OsRh
_symmetry_space_group_name_H-M   'P 1'
_cell_length_a   6.85768125
_cell_length_b   6.88655834
_cell_length_c   9.20782300
_cell_angle_alpha   90.00000000
_cell_angle_beta   90.00000000
_cell_angle_gamma   97.08200530
_symmetry_Int_Tables_number   1
_chemical_formula_structural   SmAl10OsRh
_chemical_formula_sum   'Sm2 Al20 Os2 Rh2'
_cell_volume   431.52943563
_cell_formula_units_Z   2
loop_
 _symmetry_equiv_pos_site_id
 _symmetry_equiv_pos_as_xyz
  1  'x, y, z'
loop_
 _atom_site_type_symbol
 _atom_site_label
 _atom_site_symmetry_multiplicity
 _atom_site_fract_x
 _atom_site_fract_y
 _atom_site_fract_z
 _atom_site_occupancy
  Sm  Sm0  1  0.870071  0.124643  0.750000  1
  Sm  Sm1  1  0.129929  0.875357  0.250000  1
  Al  Al2  1  0.620416  0.375875  0.550188  1
  Al  Al3  1  0.379584  0.624125  0.449812  1
  Al  Al4  1  0.379584  0.624125  0.050188  1
  Al  Al5  1  0.620416  0.375875  0.949812  1
  Al  Al6  1  0.224075  0.223239  0.498817  1
  Al  Al7  1  0.775925  0.776761  0.501183  1
  Al  Al8  1  0.775925  0.776761  0.998817  1
  Al  Al9  1  0.224075  0.223239  0.001183  1
  Al  Al10  1  0.842316  0.157137  0.102638  1
  Al  Al11  1  0.157684  0.842863  0.897362  1
  Al  Al12  1  0.157684  0.842863  0.602638  1
  Al  Al13  1  0.842316  0.157137  0.397362  1
  Al  Al14  1  0.856010  0.588399  0.750000  1
  Al  Al15  1  0.143990  0.411601  0.250000  1
  Al  Al16  1  0.409975  0.142509  0.750000  1
  Al  Al17  1  0.590025  0.857491  0.250000  1
  Al  Al18  1  0.224553  0.481715  0.750000  1
  Al  Al19  1  0.775447  0.518285  0.250000  1
  Al  Al20  1  0.517418  0.779735  0.750000  1
  Al  Al21  1  0.482582  0.220265  0.250000  1
  Os  Os22  1  0.500000  0.000000  0.000000  1
  Os  Os23  1  0.500000  0.000000  0.500000  1
  Rh  Rh24  1  0.000000  0.500000  0.500000  1
  Rh  Rh25  1  0.000000  0.500000  0.000000  1
