# generated using pymatgen
data_YTm3(B4Mo)4
_symmetry_space_group_name_H-M   'P 1'
_cell_length_a   3.60337500
_cell_length_b   6.00508537
_cell_length_c   11.60327771
_cell_angle_alpha   89.95997879
_cell_angle_beta   90.00000000
_cell_angle_gamma   90.00000000
_symmetry_Int_Tables_number   1
_chemical_formula_structural   YTm3(B4Mo)4
_chemical_formula_sum   'Y1 Tm3 B16 Mo4'
_cell_volume   251.07832766
_cell_formula_units_Z   1
loop_
 _symmetry_equiv_pos_site_id
 _symmetry_equiv_pos_as_xyz
  1  'x, y, z'
loop_
 _atom_site_type_symbol
 _atom_site_label
 _atom_site_symmetry_multiplicity
 _atom_site_fract_x
 _atom_site_fract_y
 _atom_site_fract_z
 _atom_site_occupancy
  Y  Y0  1  0.000000  0.372993  0.649874  1
  Tm  Tm1  1  0.000000  0.127094  0.149657  1
  Tm  Tm2  1  0.000000  0.872845  0.850472  1
  Tm  Tm3  1  0.000000  0.627180  0.350241  1
  B  B4  1  0.500000  0.022911  0.694205  1
  B  B5  1  0.500000  0.976210  0.305733  1
  B  B6  1  0.500000  0.524551  0.806572  1
  B  B7  1  0.500000  0.476254  0.194158  1
  B  B8  1  0.500000  0.113684  0.547343  1
  B  B9  1  0.500000  0.885012  0.451802  1
  B  B10  1  0.500000  0.615005  0.952249  1
  B  B11  1  0.500000  0.385185  0.048018  1
  B  B12  1  0.500000  0.287768  0.313250  1
  B  B13  1  0.500000  0.713458  0.686824  1
  B  B14  1  0.500000  0.787752  0.186587  1
  B  B15  1  0.500000  0.211788  0.814015  1
  B  B16  1  0.500000  0.367427  0.467517  1
  B  B17  1  0.500000  0.633102  0.531337  1
  B  B18  1  0.500000  0.867506  0.031923  1
  B  B19  1  0.500000  0.132354  0.968279  1
  Mo  Mo20  1  0.000000  0.130141  0.415473  1
  Mo  Mo21  1  0.000000  0.869690  0.583831  1
  Mo  Mo22  1  0.000000  0.630466  0.084203  1
  Mo  Mo23  1  0.000000  0.369625  0.916437  1
