# generated using pymatgen
data_La20Si11Pt
_symmetry_space_group_name_H-M   'P 1'
_cell_length_a   7.88508800
_cell_length_b   7.88508800
_cell_length_c   14.52894600
_cell_angle_alpha   90.00000000
_cell_angle_beta   90.00000000
_cell_angle_gamma   90.00000000
_symmetry_Int_Tables_number   1
_chemical_formula_structural   La20Si11Pt
_chemical_formula_sum   'La20 Si11 Pt1'
_cell_volume   903.33159147
_cell_formula_units_Z   1
loop_
 _symmetry_equiv_pos_site_id
 _symmetry_equiv_pos_as_xyz
  1  'x, y, z'
loop_
 _atom_site_type_symbol
 _atom_site_label
 _atom_site_symmetry_multiplicity
 _atom_site_fract_x
 _atom_site_fract_y
 _atom_site_fract_z
 _atom_site_occupancy
  La  La0  1  0.500000  0.000000  0.775335  1
  La  La1  1  0.328088  0.314242  0.104828  1
  La  La2  1  0.827338  0.815701  0.895269  1
  La  La3  1  0.000000  0.500000  0.223435  1
  La  La4  1  0.830058  0.188166  0.395649  1
  La  La5  1  0.172662  0.184299  0.895269  1
  La  La6  1  0.671912  0.685758  0.104828  1
  La  La7  1  0.000000  0.500000  0.717623  1
  La  La8  1  0.812853  0.833644  0.606310  1
  La  La9  1  0.311834  0.330058  0.395649  1
  La  La10  1  0.185758  0.828088  0.104828  1
  La  La11  1  0.187147  0.166356  0.606310  1
  La  La12  1  0.814242  0.171912  0.104828  1
  La  La13  1  0.333644  0.687147  0.606310  1
  La  La14  1  0.500000  0.000000  0.274186  1
  La  La15  1  0.684299  0.327338  0.895269  1
  La  La16  1  0.666356  0.312853  0.606310  1
  La  La17  1  0.315701  0.672662  0.895269  1
  La  La18  1  0.169942  0.811834  0.395649  1
  La  La19  1  0.688166  0.669942  0.395649  1
  Si  Si20  1  0.613542  0.387765  0.249052  1
  Si  Si21  1  0.887519  0.114584  0.751763  1
  Si  Si22  1  0.500000  0.000000  0.495829  1
  Si  Si23  1  0.887765  0.886458  0.249052  1
  Si  Si24  1  0.000000  0.500000  0.004840  1
  Si  Si25  1  0.112481  0.885416  0.751763  1
  Si  Si26  1  0.385416  0.387519  0.751763  1
  Si  Si27  1  0.112235  0.113542  0.249052  1
  Si  Si28  1  0.386458  0.612235  0.249052  1
  Si  Si29  1  0.614584  0.612481  0.751763  1
  Si  Si30  1  0.500000  0.000000  0.995108  1
  Pt  Pt31  1  0.000000  0.500000  0.502150  1
