# generated using pymatgen
data_KRb3(Ho3Se5)4
_symmetry_space_group_name_H-M   'P 1'
_cell_length_a   4.13308800
_cell_length_b   12.26828432
_cell_length_c   22.07482788
_cell_angle_alpha   89.87148457
_cell_angle_beta   90.00000000
_cell_angle_gamma   90.00000000
_symmetry_Int_Tables_number   1
_chemical_formula_structural   KRb3(Ho3Se5)4
_chemical_formula_sum   'K1 Rb3 Ho12 Se20'
_cell_volume   1119.32117065
_cell_formula_units_Z   1
loop_
 _symmetry_equiv_pos_site_id
 _symmetry_equiv_pos_as_xyz
  1  'x, y, z'
loop_
 _atom_site_type_symbol
 _atom_site_label
 _atom_site_symmetry_multiplicity
 _atom_site_fract_x
 _atom_site_fract_y
 _atom_site_fract_z
 _atom_site_occupancy
  K  K0  1  0.250000  0.657991  0.601276  1
  Rb  Rb1  1  0.250000  0.846459  0.096377  1
  Rb  Rb2  1  0.750000  0.153552  0.903694  1
  Rb  Rb3  1  0.750000  0.346432  0.404057  1
  Ho  Ho4  1  0.750000  0.803169  0.827642  1
  Ho  Ho5  1  0.250000  0.196492  0.171947  1
  Ho  Ho6  1  0.250000  0.304878  0.670975  1
  Ho  Ho7  1  0.750000  0.696300  0.328619  1
  Ho  Ho8  1  0.250000  0.959708  0.698021  1
  Ho  Ho9  1  0.750000  0.039821  0.301670  1
  Ho  Ho10  1  0.750000  0.460592  0.800631  1
  Ho  Ho11  1  0.250000  0.539968  0.198841  1
  Ho  Ho12  1  0.750000  0.389182  0.052731  1
  Ho  Ho13  1  0.250000  0.610859  0.946975  1
  Ho  Ho14  1  0.250000  0.887538  0.447479  1
  Ho  Ho15  1  0.750000  0.110214  0.552816  1
  Se  Se16  1  0.250000  0.946839  0.569763  1
  Se  Se17  1  0.750000  0.050957  0.430506  1
  Se  Se18  1  0.750000  0.448198  0.929859  1
  Se  Se19  1  0.250000  0.551967  0.069577  1
  Se  Se20  1  0.750000  0.769434  0.955121  1
  Se  Se21  1  0.250000  0.230685  0.044313  1
  Se  Se22  1  0.250000  0.268487  0.544087  1
  Se  Se23  1  0.750000  0.729299  0.456289  1
  Se  Se24  1  0.250000  0.958356  0.826520  1
  Se  Se25  1  0.750000  0.041287  0.172984  1
  Se  Se26  1  0.750000  0.460897  0.671383  1
  Se  Se27  1  0.250000  0.541086  0.327429  1
  Se  Se28  1  0.750000  0.131006  0.683295  1
  Se  Se29  1  0.250000  0.868941  0.316845  1
  Se  Se30  1  0.250000  0.630796  0.816204  1
  Se  Se31  1  0.750000  0.369314  0.183316  1
  Se  Se32  1  0.750000  0.693368  0.199738  1
  Se  Se33  1  0.250000  0.307258  0.799730  1
  Se  Se34  1  0.250000  0.193300  0.300541  1
  Se  Se35  1  0.750000  0.805368  0.698746  1
