# generated using pymatgen
data_DyHo2Sn3RuPt2
_symmetry_space_group_name_H-M   'P 1'
_cell_length_a   7.68792177
_cell_length_b   7.68791997
_cell_length_c   3.78947700
_cell_angle_alpha   90.00000000
_cell_angle_beta   90.00000000
_cell_angle_gamma   120.11353782
_symmetry_Int_Tables_number   1
_chemical_formula_structural   DyHo2Sn3RuPt2
_chemical_formula_sum   'Dy1 Ho2 Sn3 Ru1 Pt2'
_cell_volume   193.74464598
_cell_formula_units_Z   1
loop_
 _symmetry_equiv_pos_site_id
 _symmetry_equiv_pos_as_xyz
  1  'x, y, z'
loop_
 _atom_site_type_symbol
 _atom_site_label
 _atom_site_symmetry_multiplicity
 _atom_site_fract_x
 _atom_site_fract_y
 _atom_site_fract_z
 _atom_site_occupancy
  Dy  Dy0  1  0.402282  0.402282  0.500000  1
  Ho  Ho1  1  0.597848  0.999975  0.500000  1
  Ho  Ho2  1  0.999975  0.597848  0.500000  1
  Sn  Sn3  1  0.999189  0.259265  0.000000  1
  Sn  Sn4  1  0.740817  0.740817  0.000000  1
  Sn  Sn5  1  0.259265  0.999189  0.000000  1
  Ru  Ru6  1  0.000144  0.000144  0.500000  1
  Pt  Pt7  1  0.667499  0.332981  0.000000  1
  Pt  Pt8  1  0.332981  0.667499  0.000000  1
