# generated using pymatgen
data_YbCeMnCo16
_symmetry_space_group_name_H-M   'P 1'
_cell_length_a   6.28260734
_cell_length_b   6.28260614
_cell_length_c   6.28260792
_cell_angle_alpha   83.08267389
_cell_angle_beta   83.08269251
_cell_angle_gamma   83.08267901
_symmetry_Int_Tables_number   1
_chemical_formula_structural   YbCeMnCo16
_chemical_formula_sum   'Yb1 Ce1 Mn1 Co16'
_cell_volume   242.96880502
_cell_formula_units_Z   1
loop_
 _symmetry_equiv_pos_site_id
 _symmetry_equiv_pos_as_xyz
  1  'x, y, z'
loop_
 _atom_site_type_symbol
 _atom_site_label
 _atom_site_symmetry_multiplicity
 _atom_site_fract_x
 _atom_site_fract_y
 _atom_site_fract_z
 _atom_site_occupancy
  Yb  Yb0  1  0.344616  0.344616  0.344616  1
  Ce  Ce1  1  0.651418  0.651418  0.651418  1
  Mn  Mn2  1  0.098049  0.098049  0.098049  1
  Co  Co3  1  0.349423  0.846903  0.349423  1
  Co  Co4  1  0.349423  0.349423  0.846903  1
  Co  Co5  1  0.846903  0.349423  0.349423  1
  Co  Co6  1  0.653750  0.143871  0.653750  1
  Co  Co7  1  0.653750  0.653750  0.143871  1
  Co  Co8  1  0.143871  0.653750  0.653750  1
  Co  Co9  1  0.712756  0.290311  0.998668  1
  Co  Co10  1  0.998668  0.712756  0.290311  1
  Co  Co11  1  0.290311  0.998668  0.712756  1
  Co  Co12  1  0.998668  0.290311  0.712756  1
  Co  Co13  1  0.712756  0.998668  0.290311  1
  Co  Co14  1  0.290311  0.712756  0.998668  1
  Co  Co15  1  0.001580  0.001580  0.504498  1
  Co  Co16  1  0.504498  0.001580  0.001580  1
  Co  Co17  1  0.001580  0.504498  0.001580  1
  Co  Co18  1  0.897667  0.897667  0.897667  1
