# generated using pymatgen
data_Sr2MnZn(SiIr2)2
_symmetry_space_group_name_H-M   'P 1'
_cell_length_a   4.19329400
_cell_length_b   4.19329900
_cell_length_c   10.42707100
_cell_angle_alpha   90.00000000
_cell_angle_beta   90.00000000
_cell_angle_gamma   90.00000000
_symmetry_Int_Tables_number   1
_chemical_formula_structural   Sr2MnZn(SiIr2)2
_chemical_formula_sum   'Sr2 Mn1 Zn1 Si2 Ir4'
_cell_volume   183.34685889
_cell_formula_units_Z   1
loop_
 _symmetry_equiv_pos_site_id
 _symmetry_equiv_pos_as_xyz
  1  'x, y, z'
loop_
 _atom_site_type_symbol
 _atom_site_label
 _atom_site_symmetry_multiplicity
 _atom_site_fract_x
 _atom_site_fract_y
 _atom_site_fract_z
 _atom_site_occupancy
  Sr  Sr0  1  0.000000  0.500000  0.250217  1
  Sr  Sr1  1  0.500000  0.000000  0.749783  1
  Mn  Mn2  1  0.000000  0.000000  0.499999  1
  Zn  Zn3  1  0.500000  0.500000  0.500001  1
  Si  Si4  1  0.000000  0.500000  0.880986  1
  Si  Si5  1  0.500000  0.000000  0.119014  1
  Ir  Ir6  1  0.000000  0.000000  0.000000  1
  Ir  Ir7  1  0.500000  0.500000  0.000000  1
  Ir  Ir8  1  0.000000  0.500000  0.650256  1
  Ir  Ir9  1  0.500000  0.000000  0.349744  1
