# generated using pymatgen
data_Li8Nd8BiPb7
_symmetry_space_group_name_H-M   'P 1'
_cell_length_a   9.68537800
_cell_length_b   9.68356326
_cell_length_c   7.69299877
_cell_angle_alpha   90.07729550
_cell_angle_beta   90.00000000
_cell_angle_gamma   120.00619948
_symmetry_Int_Tables_number   1
_chemical_formula_structural   Li8Nd8BiPb7
_chemical_formula_sum   'Li8 Nd8 Bi1 Pb7'
_cell_volume   624.81349732
_cell_formula_units_Z   1
loop_
 _symmetry_equiv_pos_site_id
 _symmetry_equiv_pos_as_xyz
  1  'x, y, z'
loop_
 _atom_site_type_symbol
 _atom_site_label
 _atom_site_symmetry_multiplicity
 _atom_site_fract_x
 _atom_site_fract_y
 _atom_site_fract_z
 _atom_site_occupancy
  Li  Li0  1  0.166782  0.333564  0.285122  1
  Li  Li1  1  0.167731  0.833488  0.287736  1
  Li  Li2  1  0.665756  0.833488  0.287736  1
  Li  Li3  1  0.833131  0.666262  0.786737  1
  Li  Li4  1  0.830540  0.165448  0.789723  1
  Li  Li5  1  0.334908  0.165448  0.789723  1
  Li  Li6  1  0.334494  0.668990  0.666727  1
  Li  Li7  1  0.666335  0.332668  0.168531  1
  Nd  Nd8  1  0.512403  0.024806  0.494847  1
  Nd  Nd9  1  0.515972  0.490143  0.492640  1
  Nd  Nd10  1  0.974169  0.490143  0.492640  1
  Nd  Nd11  1  0.487598  0.975196  0.995809  1
  Nd  Nd12  1  0.491709  0.513713  0.996568  1
  Nd  Nd13  1  0.022005  0.513713  0.996568  1
  Nd  Nd14  1  0.998126  0.996250  0.497916  1
  Nd  Nd15  1  0.998466  0.996933  0.001268  1
  Bi  Bi16  1  0.166767  0.333536  0.731632  1
  Pb  Pb17  1  0.166492  0.832888  0.729488  1
  Pb  Pb18  1  0.666395  0.832888  0.729488  1
  Pb  Pb19  1  0.833281  0.666561  0.230296  1
  Pb  Pb20  1  0.833833  0.167246  0.229720  1
  Pb  Pb21  1  0.333414  0.167246  0.229720  1
  Pb  Pb22  1  0.332818  0.665639  0.265471  1
  Pb  Pb23  1  0.666872  0.333742  0.765863  1
