# generated using pymatgen
data_Ho(Al5Os)2
_symmetry_space_group_name_H-M   'P 1'
_cell_length_a   6.85677447
_cell_length_b   6.85677468
_cell_length_c   9.15583400
_cell_angle_alpha   90.00000000
_cell_angle_beta   90.00000000
_cell_angle_gamma   96.47409996
_symmetry_Int_Tables_number   1
_chemical_formula_structural   Ho(Al5Os)2
_chemical_formula_sum   'Ho2 Al20 Os4'
_cell_volume   427.71970358
_cell_formula_units_Z   2
loop_
 _symmetry_equiv_pos_site_id
 _symmetry_equiv_pos_as_xyz
  1  'x, y, z'
loop_
 _atom_site_type_symbol
 _atom_site_label
 _atom_site_symmetry_multiplicity
 _atom_site_fract_x
 _atom_site_fract_y
 _atom_site_fract_z
 _atom_site_occupancy
  Ho  Ho0  1  0.869750  0.130250  0.750000  1
  Ho  Ho1  1  0.130250  0.869750  0.250000  1
  Al  Al2  1  0.518856  0.782684  0.750000  1
  Al  Al3  1  0.782684  0.518856  0.250000  1
  Al  Al4  1  0.481144  0.217316  0.250000  1
  Al  Al5  1  0.217316  0.481144  0.750000  1
  Al  Al6  1  0.623711  0.376289  0.954161  1
  Al  Al7  1  0.376289  0.623711  0.045839  1
  Al  Al8  1  0.623711  0.376289  0.545839  1
  Al  Al9  1  0.376289  0.623711  0.454161  1
  Al  Al10  1  0.416426  0.147691  0.750000  1
  Al  Al11  1  0.147691  0.416426  0.250000  1
  Al  Al12  1  0.583574  0.852309  0.250000  1
  Al  Al13  1  0.852309  0.583574  0.750000  1
  Al  Al14  1  0.844970  0.155030  0.399192  1
  Al  Al15  1  0.155030  0.844970  0.600808  1
  Al  Al16  1  0.844970  0.155030  0.100808  1
  Al  Al17  1  0.155030  0.844970  0.899192  1
  Al  Al18  1  0.775902  0.775902  0.000000  1
  Al  Al19  1  0.775902  0.775902  0.500000  1
  Al  Al20  1  0.224098  0.224098  0.000000  1
  Al  Al21  1  0.224098  0.224098  0.500000  1
  Os  Os22  1  0.500000  0.000000  0.000000  1
  Os  Os23  1  0.000000  0.500000  0.000000  1
  Os  Os24  1  0.500000  0.000000  0.500000  1
  Os  Os25  1  0.000000  0.500000  0.500000  1
