# generated using pymatgen
data_Sm2YMg3PtPb2
_symmetry_space_group_name_H-M   'P 1'
_cell_length_a   7.57043986
_cell_length_b   7.57044052
_cell_length_c   4.57019200
_cell_angle_alpha   90.00000000
_cell_angle_beta   90.00000000
_cell_angle_gamma   119.75110448
_symmetry_Int_Tables_number   1
_chemical_formula_structural   Sm2YMg3PtPb2
_chemical_formula_sum   'Sm2 Y1 Mg3 Pt1 Pb2'
_cell_volume   227.40034243
_cell_formula_units_Z   1
loop_
 _symmetry_equiv_pos_site_id
 _symmetry_equiv_pos_as_xyz
  1  'x, y, z'
loop_
 _atom_site_type_symbol
 _atom_site_label
 _atom_site_symmetry_multiplicity
 _atom_site_fract_x
 _atom_site_fract_y
 _atom_site_fract_z
 _atom_site_occupancy
  Sm  Sm0  1  0.396292  0.000102  0.000000  1
  Sm  Sm1  1  0.000102  0.396292  0.000000  1
  Y  Y2  1  0.604831  0.604831  0.000000  1
  Mg  Mg3  1  0.999043  0.772527  0.500000  1
  Mg  Mg4  1  0.227376  0.227376  0.500000  1
  Mg  Mg5  1  0.772527  0.999043  0.500000  1
  Pt  Pt6  1  0.999082  0.999082  0.000000  1
  Pb  Pb7  1  0.334506  0.666239  0.500000  1
  Pb  Pb8  1  0.666239  0.334506  0.500000  1
