# generated using pymatgen
data_Hf3Zr3Ti3Al13Pt7
_symmetry_space_group_name_H-M   'P 1'
_cell_length_a   8.82775762
_cell_length_b   8.82775760
_cell_length_c   8.82893901
_cell_angle_alpha   59.78494133
_cell_angle_beta   59.78493976
_cell_angle_gamma   59.79849833
_symmetry_Int_Tables_number   1
_chemical_formula_structural   Hf3Zr3Ti3Al13Pt7
_chemical_formula_sum   'Hf3 Zr3 Ti3 Al13 Pt7'
_cell_volume   484.18742249
_cell_formula_units_Z   1
loop_
 _symmetry_equiv_pos_site_id
 _symmetry_equiv_pos_as_xyz
  1  'x, y, z'
loop_
 _atom_site_type_symbol
 _atom_site_label
 _atom_site_symmetry_multiplicity
 _atom_site_fract_x
 _atom_site_fract_y
 _atom_site_fract_z
 _atom_site_occupancy
  Hf  Hf0  1  0.316027  0.316027  0.683466  1
  Hf  Hf1  1  0.682203  0.315626  0.684094  1
  Hf  Hf2  1  0.315626  0.682203  0.684094  1
  Zr  Zr3  1  0.687086  0.687086  0.312842  1
  Zr  Zr4  1  0.311298  0.685973  0.313842  1
  Zr  Zr5  1  0.685973  0.311298  0.313842  1
  Ti  Ti6  1  0.879343  0.879343  0.361501  1
  Ti  Ti7  1  0.879454  0.360890  0.879555  1
  Ti  Ti8  1  0.360890  0.879454  0.879555  1
  Al  Al9  1  0.882554  0.882554  0.881904  1
  Al  Al10  1  0.119617  0.119617  0.641661  1
  Al  Al11  1  0.120268  0.640533  0.119611  1
  Al  Al12  1  0.640533  0.120268  0.119611  1
  Al  Al13  1  0.121639  0.121639  0.120828  1
  Al  Al14  1  0.665820  0.665820  0.001269  1
  Al  Al15  1  0.665249  0.002905  0.665514  1
  Al  Al16  1  0.002905  0.665249  0.665514  1
  Al  Al17  1  0.663121  0.663121  0.663509  1
  Al  Al18  1  0.334537  0.334537  0.996313  1
  Al  Al19  1  0.333987  0.997524  0.334537  1
  Al  Al20  1  0.997524  0.333987  0.334537  1
  Al  Al21  1  0.333339  0.333339  0.333835  1
  Pt  Pt22  1  0.002813  0.002813  0.003346  1
  Pt  Pt23  1  0.998588  0.998588  0.505263  1
  Pt  Pt24  1  0.497953  0.999226  0.502360  1
  Pt  Pt25  1  0.999226  0.497953  0.502360  1
  Pt  Pt26  1  0.499966  0.499966  0.998799  1
  Pt  Pt27  1  0.999099  0.503361  0.998221  1
  Pt  Pt28  1  0.503361  0.999099  0.998221  1
