# generated using pymatgen
data_Ho5Lu11(In3Tc)2
_symmetry_space_group_name_H-M   'P 1'
_cell_length_a   10.23572241
_cell_length_b   10.23661699
_cell_length_c   6.99344799
_cell_angle_alpha   90.20741185
_cell_angle_beta   89.79174942
_cell_angle_gamma   120.01735330
_symmetry_Int_Tables_number   1
_chemical_formula_structural   Ho5Lu11(In3Tc)2
_chemical_formula_sum   'Ho5 Lu11 In6 Tc2'
_cell_volume   634.47886041
_cell_formula_units_Z   1
loop_
 _symmetry_equiv_pos_site_id
 _symmetry_equiv_pos_as_xyz
  1  'x, y, z'
loop_
 _atom_site_type_symbol
 _atom_site_label
 _atom_site_symmetry_multiplicity
 _atom_site_fract_x
 _atom_site_fract_y
 _atom_site_fract_z
 _atom_site_occupancy
  Ho  Ho0  1  0.531360  0.062554  0.525309  1
  Ho  Ho1  1  0.937492  0.468650  0.525317  1
  Ho  Ho2  1  0.531232  0.468769  0.526267  1
  Ho  Ho3  1  0.468582  0.936641  0.025909  1
  Ho  Ho4  1  0.063331  0.531425  0.025882  1
  Lu  Lu5  1  0.467986  0.532074  0.026352  1
  Lu  Lu6  1  0.177852  0.354657  0.727595  1
  Lu  Lu7  1  0.645327  0.822124  0.727645  1
  Lu  Lu8  1  0.177049  0.822933  0.726952  1
  Lu  Lu9  1  0.822178  0.645639  0.226234  1
  Lu  Lu10  1  0.354339  0.177801  0.226253  1
  Lu  Lu11  1  0.823158  0.176856  0.226569  1
  Lu  Lu12  1  0.666179  0.333823  0.904648  1
  Lu  Lu13  1  0.333604  0.666368  0.403440  1
  Lu  Lu14  1  0.000031  0.999999  0.505238  1
  Lu  Lu15  1  0.999958  0.000062  0.005319  1
  In  In16  1  0.836580  0.673499  0.770505  1
  In  In17  1  0.326494  0.163401  0.770478  1
  In  In18  1  0.836700  0.163320  0.770910  1
  In  In19  1  0.163902  0.326929  0.270430  1
  In  In20  1  0.673057  0.836093  0.270401  1
  In  In21  1  0.163321  0.836665  0.270576  1
  Tc  Tc22  1  0.666752  0.333255  0.298788  1
  Tc  Tc23  1  0.333535  0.666460  0.798662  1
