# generated using pymatgen
data_Pa6Ni6Ge7As
_symmetry_space_group_name_H-M   'P 1'
_cell_length_a   7.84034088
_cell_length_b   7.84034085
_cell_length_c   7.84034000
_cell_angle_alpha   109.50994246
_cell_angle_beta   109.50995014
_cell_angle_gamma   109.50994691
_symmetry_Int_Tables_number   1
_chemical_formula_structural   Pa6Ni6Ge7As
_chemical_formula_sum   'Pa6 Ni6 Ge7 As1'
_cell_volume   370.47477420
_cell_formula_units_Z   1
loop_
 _symmetry_equiv_pos_site_id
 _symmetry_equiv_pos_as_xyz
  1  'x, y, z'
loop_
 _atom_site_type_symbol
 _atom_site_label
 _atom_site_symmetry_multiplicity
 _atom_site_fract_x
 _atom_site_fract_y
 _atom_site_fract_z
 _atom_site_occupancy
  Pa  Pa0  1  0.624567  0.373295  0.249796  1
  Pa  Pa1  1  0.373295  0.249796  0.624567  1
  Pa  Pa2  1  0.126776  0.750784  0.875691  1
  Pa  Pa3  1  0.750784  0.875691  0.126776  1
  Pa  Pa4  1  0.249796  0.624567  0.373295  1
  Pa  Pa5  1  0.875691  0.126776  0.750784  1
  Ni  Ni6  1  0.874109  0.249622  0.123464  1
  Ni  Ni7  1  0.374265  0.626514  0.751116  1
  Ni  Ni8  1  0.626514  0.751116  0.374265  1
  Ni  Ni9  1  0.751116  0.374265  0.626514  1
  Ni  Ni10  1  0.249622  0.123464  0.874109  1
  Ni  Ni11  1  0.123464  0.874109  0.249622  1
  Ge  Ge12  1  0.499667  0.001055  0.834579  1
  Ge  Ge13  1  0.165579  0.165579  0.165579  1
  Ge  Ge14  1  0.834579  0.499667  0.001055  1
  Ge  Ge15  1  0.001055  0.834579  0.499667  1
  Ge  Ge16  1  0.336017  0.499340  0.000044  1
  Ge  Ge17  1  0.000044  0.336017  0.499340  1
  Ge  Ge18  1  0.499340  0.000044  0.336017  1
  As  As19  1  0.663719  0.663719  0.663719  1
