# generated using pymatgen
data_SmAg6CO11
_symmetry_space_group_name_H-M   'P 1'
_cell_length_a   7.14959363
_cell_length_b   7.14959347
_cell_length_c   7.14959277
_cell_angle_alpha   60.53579324
_cell_angle_beta   60.53579399
_cell_angle_gamma   60.53578979
_symmetry_Int_Tables_number   1
_chemical_formula_structural   SmAg6CO11
_chemical_formula_sum   'Sm1 Ag6 C1 O11'
_cell_volume   261.55017809
_cell_formula_units_Z   1
loop_
 _symmetry_equiv_pos_site_id
 _symmetry_equiv_pos_as_xyz
  1  'x, y, z'
loop_
 _atom_site_type_symbol
 _atom_site_label
 _atom_site_symmetry_multiplicity
 _atom_site_fract_x
 _atom_site_fract_y
 _atom_site_fract_z
 _atom_site_occupancy
  Sm  Sm0  1  0.998823  0.998823  0.998823  1
  Ag  Ag1  1  0.499536  0.000402  0.000402  1
  Ag  Ag2  1  0.500427  0.500427  0.001009  1
  Ag  Ag3  1  0.500427  0.001009  0.500427  1
  Ag  Ag4  1  0.000402  0.000402  0.499536  1
  Ag  Ag5  1  0.001009  0.500427  0.500427  1
  Ag  Ag6  1  0.000402  0.499536  0.000402  1
  C  C7  1  0.499935  0.499935  0.499935  1
  O  O8  1  0.581073  0.144304  0.144304  1
  O  O9  1  0.144304  0.581073  0.144304  1
  O  O10  1  0.139662  0.139662  0.139662  1
  O  O11  1  0.144304  0.144304  0.581073  1
  O  O12  1  0.603303  0.603303  0.293013  1
  O  O13  1  0.603303  0.293013  0.603303  1
  O  O14  1  0.293013  0.603303  0.603303  1
  O  O15  1  0.857041  0.857041  0.416215  1
  O  O16  1  0.857041  0.416215  0.857041  1
  O  O17  1  0.859782  0.859782  0.859782  1
  O  O18  1  0.416215  0.857041  0.857041  1
