# generated using pymatgen
data_TbHo3GeI6
_symmetry_space_group_name_H-M   'P 1'
_cell_length_a   4.21244600
_cell_length_b   14.00067868
_cell_length_c   14.75771193
_cell_angle_alpha   90.14923592
_cell_angle_beta   90.00000000
_cell_angle_gamma   90.00000000
_symmetry_Int_Tables_number   1
_chemical_formula_structural   TbHo3GeI6
_chemical_formula_sum   'Tb2 Ho6 Ge2 I12'
_cell_volume   870.36414250
_cell_formula_units_Z   2
loop_
 _symmetry_equiv_pos_site_id
 _symmetry_equiv_pos_as_xyz
  1  'x, y, z'
loop_
 _atom_site_type_symbol
 _atom_site_label
 _atom_site_symmetry_multiplicity
 _atom_site_fract_x
 _atom_site_fract_y
 _atom_site_fract_z
 _atom_site_occupancy
  Tb  Tb0  1  0.000000  0.612839  0.924438  1
  Tb  Tb1  1  0.000000  0.387161  0.075562  1
  Ho  Ho2  1  0.500000  0.114222  0.347389  1
  Ho  Ho3  1  0.500000  0.885778  0.652611  1
  Ho  Ho4  1  0.500000  0.614731  0.153188  1
  Ho  Ho5  1  0.500000  0.385269  0.846812  1
  Ho  Ho6  1  0.000000  0.111483  0.574567  1
  Ho  Ho7  1  0.000000  0.888517  0.425433  1
  Ge  Ge8  1  0.500000  0.000000  0.500000  1
  Ge  Ge9  1  0.500000  0.500000  0.000000  1
  I  I10  1  0.500000  0.243105  0.162553  1
  I  I11  1  0.500000  0.756895  0.837447  1
  I  I12  1  0.500000  0.745691  0.338734  1
  I  I13  1  0.500000  0.254309  0.661266  1
  I  I14  1  0.000000  0.257718  0.413869  1
  I  I15  1  0.000000  0.742282  0.586131  1
  I  I16  1  0.000000  0.758538  0.087895  1
  I  I17  1  0.000000  0.241462  0.912105  1
  I  I18  1  0.000000  0.999418  0.241287  1
  I  I19  1  0.000000  0.000582  0.758713  1
  I  I20  1  0.000000  0.501142  0.260206  1
  I  I21  1  0.000000  0.498858  0.739794  1
