# generated using pymatgen
data_LaCe(Sn2Ir)4
_symmetry_space_group_name_H-M   'P 1'
_cell_length_a   4.54351600
_cell_length_b   7.27383000
_cell_length_c   18.63965000
_cell_angle_alpha   90.00000000
_cell_angle_beta   90.00000000
_cell_angle_gamma   90.00000000
_symmetry_Int_Tables_number   1
_chemical_formula_structural   LaCe(Sn2Ir)4
_chemical_formula_sum   'La2 Ce2 Sn16 Ir8'
_cell_volume   616.01737500
_cell_formula_units_Z   2
loop_
 _symmetry_equiv_pos_site_id
 _symmetry_equiv_pos_as_xyz
  1  'x, y, z'
loop_
 _atom_site_type_symbol
 _atom_site_label
 _atom_site_symmetry_multiplicity
 _atom_site_fract_x
 _atom_site_fract_y
 _atom_site_fract_z
 _atom_site_occupancy
  La  La0  1  0.750000  0.003340  0.141706  1
  La  La1  1  0.750000  0.496660  0.641706  1
  Ce  Ce2  1  0.250000  0.996054  0.857830  1
  Ce  Ce3  1  0.250000  0.503946  0.357830  1
  Sn  Sn4  1  0.250000  0.303628  0.182589  1
  Sn  Sn5  1  0.250000  0.196372  0.682589  1
  Sn  Sn6  1  0.750000  0.699229  0.818001  1
  Sn  Sn7  1  0.750000  0.800771  0.318001  1
  Sn  Sn8  1  0.250000  0.722324  0.194654  1
  Sn  Sn9  1  0.250000  0.777676  0.694654  1
  Sn  Sn10  1  0.750000  0.275809  0.806584  1
  Sn  Sn11  1  0.750000  0.224191  0.306584  1
  Sn  Sn12  1  0.250000  0.864093  0.031289  1
  Sn  Sn13  1  0.250000  0.635907  0.531289  1
  Sn  Sn14  1  0.750000  0.134947  0.966756  1
  Sn  Sn15  1  0.750000  0.365053  0.466756  1
  Sn  Sn16  1  0.250000  0.520357  0.932123  1
  Sn  Sn17  1  0.250000  0.979643  0.432123  1
  Sn  Sn18  1  0.750000  0.480642  0.067937  1
  Sn  Sn19  1  0.750000  0.019358  0.567937  1
  Ir  Ir20  1  0.250000  0.250233  0.034178  1
  Ir  Ir21  1  0.250000  0.249767  0.534178  1
  Ir  Ir22  1  0.750000  0.750702  0.964979  1
  Ir  Ir23  1  0.750000  0.749298  0.464979  1
  Ir  Ir24  1  0.250000  0.018621  0.286798  1
  Ir  Ir25  1  0.250000  0.481379  0.786798  1
  Ir  Ir26  1  0.750000  0.982754  0.714576  1
  Ir  Ir27  1  0.750000  0.517246  0.214576  1
