# generated using pymatgen
data_Fe4CoSbO8
_symmetry_space_group_name_H-M   'P 1'
_cell_length_a   6.12975581
_cell_length_b   6.15038350
_cell_length_c   10.90128814
_cell_angle_alpha   74.56563990
_cell_angle_beta   91.01170885
_cell_angle_gamma   59.63715596
_symmetry_Int_Tables_number   1
_chemical_formula_structural   Fe4CoSbO8
_chemical_formula_sum   'Fe8 Co2 Sb2 O16'
_cell_volume   336.05342584
_cell_formula_units_Z   2
loop_
 _symmetry_equiv_pos_site_id
 _symmetry_equiv_pos_as_xyz
  1  'x, y, z'
loop_
 _atom_site_type_symbol
 _atom_site_label
 _atom_site_symmetry_multiplicity
 _atom_site_fract_x
 _atom_site_fract_y
 _atom_site_fract_z
 _atom_site_occupancy
  Fe  Fe0  1  0.683774  0.137764  0.546762  1
  Fe  Fe1  1  0.318163  0.858081  0.453499  1
  Fe  Fe2  1  0.249818  0.500979  0.248870  1
  Fe  Fe3  1  0.749757  0.499218  0.750744  1
  Fe  Fe4  1  0.751752  0.500857  0.248339  1
  Fe  Fe5  1  0.249182  0.498989  0.751654  1
  Fe  Fe6  1  0.751306  0.000121  0.248650  1
  Fe  Fe7  1  0.248031  0.000795  0.751802  1
  Co  Co8  1  0.812462  0.860052  0.952475  1
  Co  Co9  1  0.187144  0.139433  0.047397  1
  Sb  Sb10  1  0.499940  0.499763  0.000006  1
  Sb  Sb11  1  0.000361  0.500187  0.499906  1
  O  O12  1  0.626907  0.274970  0.349447  1
  O  O13  1  0.124877  0.271266  0.853790  1
  O  O14  1  0.874527  0.728827  0.146099  1
  O  O15  1  0.372346  0.728851  0.650984  1
  O  O16  1  0.388063  0.273987  0.114491  1
  O  O17  1  0.888120  0.277567  0.614141  1
  O  O18  1  0.850647  0.272765  0.120751  1
  O  O19  1  0.347210  0.273072  0.623642  1
  O  O20  1  0.393775  0.728554  0.119759  1
  O  O21  1  0.895084  0.723683  0.621959  1
  O  O22  1  0.653027  0.727216  0.376355  1
  O  O23  1  0.149133  0.726524  0.879292  1
  O  O24  1  0.105547  0.275864  0.379024  1
  O  O25  1  0.605715  0.271314  0.879894  1
  O  O26  1  0.111423  0.724220  0.384493  1
  O  O27  1  0.611909  0.725082  0.885773  1
