# generated using pymatgen
data_CaPr4InSi2
_symmetry_space_group_name_H-M   'P 1'
_cell_length_a   7.89522300
_cell_length_b   9.33080130
_cell_length_c   7.89522300
_cell_angle_alpha   115.02876430
_cell_angle_beta   90.00000000
_cell_angle_gamma   115.02876430
_symmetry_Int_Tables_number   1
_chemical_formula_structural   CaPr4InSi2
_chemical_formula_sum   'Ca2 Pr8 In2 Si4'
_cell_volume   466.03806369
_cell_formula_units_Z   2
loop_
 _symmetry_equiv_pos_site_id
 _symmetry_equiv_pos_as_xyz
  1  'x, y, z'
loop_
 _atom_site_type_symbol
 _atom_site_label
 _atom_site_symmetry_multiplicity
 _atom_site_fract_x
 _atom_site_fract_y
 _atom_site_fract_z
 _atom_site_occupancy
  Ca  Ca0  1  0.000000  0.000000  0.000000  1
  Ca  Ca1  1  0.500000  0.000000  0.500000  1
  Pr  Pr2  1  0.538525  0.723218  0.684694  1
  Pr  Pr3  1  0.184694  0.723218  0.038525  1
  Pr  Pr4  1  0.684694  0.723218  0.184694  1
  Pr  Pr5  1  0.038525  0.723218  0.538525  1
  Pr  Pr6  1  0.461475  0.276782  0.315306  1
  Pr  Pr7  1  0.815306  0.276782  0.961475  1
  Pr  Pr8  1  0.315306  0.276782  0.815306  1
  Pr  Pr9  1  0.961475  0.276782  0.461475  1
  In  In10  1  0.750000  0.500000  0.750000  1
  In  In11  1  0.250000  0.500000  0.250000  1
  Si  Si12  1  0.886239  0.000000  0.613761  1
  Si  Si13  1  0.113761  0.000000  0.386239  1
  Si  Si14  1  0.613761  0.000000  0.113761  1
  Si  Si15  1  0.386239  0.000000  0.886239  1
