# generated using pymatgen
data_NaY(NbSe2)8
_symmetry_space_group_name_H-M   'P 1'
_cell_length_a   7.01460700
_cell_length_b   7.01460737
_cell_length_c   14.93967200
_cell_angle_alpha   90.00000000
_cell_angle_beta   90.00000000
_cell_angle_gamma   120.00000296
_symmetry_Int_Tables_number   1
_chemical_formula_structural   NaY(NbSe2)8
_chemical_formula_sum   'Na1 Y1 Nb8 Se16'
_cell_volume   636.61723642
_cell_formula_units_Z   1
loop_
 _symmetry_equiv_pos_site_id
 _symmetry_equiv_pos_as_xyz
  1  'x, y, z'
loop_
 _atom_site_type_symbol
 _atom_site_label
 _atom_site_symmetry_multiplicity
 _atom_site_fract_x
 _atom_site_fract_y
 _atom_site_fract_z
 _atom_site_occupancy
  Na  Na0  1  0.000000  0.000000  0.000000  1
  Y  Y1  1  0.000000  0.000000  0.500000  1
  Nb  Nb2  1  0.000000  0.000000  0.258098  1
  Nb  Nb3  1  0.000000  0.000000  0.741902  1
  Nb  Nb4  1  0.507985  0.015972  0.256589  1
  Nb  Nb5  1  0.984028  0.492015  0.256589  1
  Nb  Nb6  1  0.507985  0.492015  0.256589  1
  Nb  Nb7  1  0.492015  0.984028  0.743411  1
  Nb  Nb8  1  0.015972  0.507985  0.743411  1
  Nb  Nb9  1  0.492015  0.507985  0.743411  1
  Se  Se10  1  0.333333  0.666667  0.859533  1
  Se  Se11  1  0.666667  0.333333  0.140467  1
  Se  Se12  1  0.666667  0.333333  0.373137  1
  Se  Se13  1  0.333333  0.666667  0.626863  1
  Se  Se14  1  0.169912  0.830088  0.368288  1
  Se  Se15  1  0.169912  0.339823  0.368288  1
  Se  Se16  1  0.660177  0.830088  0.368288  1
  Se  Se17  1  0.830088  0.169912  0.631712  1
  Se  Se18  1  0.830088  0.660177  0.631712  1
  Se  Se19  1  0.339823  0.169912  0.631712  1
  Se  Se20  1  0.832324  0.167676  0.852668  1
  Se  Se21  1  0.832324  0.664649  0.852668  1
  Se  Se22  1  0.335351  0.167676  0.852668  1
  Se  Se23  1  0.167676  0.832324  0.147332  1
  Se  Se24  1  0.167676  0.335351  0.147332  1
  Se  Se25  1  0.664649  0.832324  0.147332  1
