# generated using pymatgen
data_YbTcBrO4
_symmetry_space_group_name_H-M   'P 1'
_cell_length_a   9.06576900
_cell_length_b   5.93140719
_cell_length_c   7.43880509
_cell_angle_alpha   50.64126689
_cell_angle_beta   90.00000000
_cell_angle_gamma   90.00000000
_symmetry_Int_Tables_number   1
_chemical_formula_structural   YbTcBrO4
_chemical_formula_sum   'Yb2 Tc2 Br2 O8'
_cell_volume   309.28018470
_cell_formula_units_Z   2
loop_
 _symmetry_equiv_pos_site_id
 _symmetry_equiv_pos_as_xyz
  1  'x, y, z'
loop_
 _atom_site_type_symbol
 _atom_site_label
 _atom_site_symmetry_multiplicity
 _atom_site_fract_x
 _atom_site_fract_y
 _atom_site_fract_z
 _atom_site_occupancy
  Yb  Yb0  1  0.477696  0.126374  0.454760  1
  Yb  Yb1  1  0.977696  0.873626  0.045240  1
  Tc  Tc2  1  0.864990  0.712637  0.624471  1
  Tc  Tc3  1  0.364990  0.287363  0.875529  1
  Br  Br4  1  0.195881  0.422075  0.300158  1
  Br  Br5  1  0.695881  0.577925  0.199842  1
  O  O6  1  0.369784  0.666043  0.702187  1
  O  O7  1  0.869784  0.333957  0.797813  1
  O  O8  1  0.683026  0.829024  0.580052  1
  O  O9  1  0.183026  0.170976  0.919948  1
  O  O10  1  0.959679  0.820232  0.762392  1
  O  O11  1  0.459679  0.179768  0.737608  1
  O  O12  1  0.948944  0.867880  0.358712  1
  O  O13  1  0.448944  0.132120  0.141288  1
