# generated using pymatgen
data_NpCl2O
_symmetry_space_group_name_H-M   'P 1'
_cell_length_a   4.16774478
_cell_length_b   16.21852535
_cell_length_c   7.64276666
_cell_angle_alpha   82.76692369
_cell_angle_beta   105.85138236
_cell_angle_gamma   82.67375106
_symmetry_Int_Tables_number   1
_chemical_formula_structural   NpCl2O
_chemical_formula_sum   'Np4 Cl8 O4'
_cell_volume   485.86332341
_cell_formula_units_Z   4
loop_
 _symmetry_equiv_pos_site_id
 _symmetry_equiv_pos_as_xyz
  1  'x, y, z'
loop_
 _atom_site_type_symbol
 _atom_site_label
 _atom_site_symmetry_multiplicity
 _atom_site_fract_x
 _atom_site_fract_y
 _atom_site_fract_z
 _atom_site_occupancy
  Np  Np0  1  0.255515  0.744360  0.255269  1
  Np  Np1  1  0.005530  0.994446  0.005616  1
  Np  Np2  1  0.755481  0.244535  0.755543  1
  Np  Np3  1  0.505589  0.494476  0.505743  1
  Cl  Cl4  1  0.160714  0.212936  0.534936  1
  Cl  Cl5  1  0.909877  0.463880  0.284347  1
  Cl  Cl6  1  0.660564  0.713049  0.034522  1
  Cl  Cl7  1  0.409871  0.963822  0.784264  1
  Cl  Cl8  1  0.349415  0.276960  0.975199  1
  Cl  Cl9  1  0.100513  0.525931  0.726422  1
  Cl  Cl10  1  0.849453  0.776779  0.474996  1
  Cl  Cl11  1  0.600291  0.025968  0.225990  1
  O  O12  1  0.631315  0.369377  0.632024  1
  O  O13  1  0.379666  0.619427  0.378695  1
  O  O14  1  0.131758  0.869380  0.132899  1
  O  O15  1  0.879550  0.119573  0.878631  1
