# generated using pymatgen
data_Rb4Na2TbDySb4
_symmetry_space_group_name_H-M   'P 1'
_cell_length_a   11.37110054
_cell_length_b   11.37110032
_cell_length_c   7.51626900
_cell_angle_alpha   90.00000000
_cell_angle_beta   90.00000000
_cell_angle_gamma   98.32171663
_symmetry_Int_Tables_number   1
_chemical_formula_structural   Rb4Na2TbDySb4
_chemical_formula_sum   'Rb8 Na4 Tb2 Dy2 Sb8'
_cell_volume   961.63525503
_cell_formula_units_Z   2
loop_
 _symmetry_equiv_pos_site_id
 _symmetry_equiv_pos_as_xyz
  1  'x, y, z'
loop_
 _atom_site_type_symbol
 _atom_site_label
 _atom_site_symmetry_multiplicity
 _atom_site_fract_x
 _atom_site_fract_y
 _atom_site_fract_z
 _atom_site_occupancy
  Rb  Rb0  1  0.070794  0.429206  0.250000  1
  Rb  Rb1  1  0.429206  0.070794  0.750000  1
  Rb  Rb2  1  0.929187  0.570813  0.750000  1
  Rb  Rb3  1  0.570813  0.929187  0.250000  1
  Rb  Rb4  1  0.676373  0.323641  0.215622  1
  Rb  Rb5  1  0.823627  0.176359  0.715622  1
  Rb  Rb6  1  0.323641  0.676373  0.784378  1
  Rb  Rb7  1  0.176359  0.823627  0.284378  1
  Na  Na8  1  0.382088  0.382088  0.000000  1
  Na  Na9  1  0.117912  0.117912  0.500000  1
  Na  Na10  1  0.617945  0.617945  0.000000  1
  Na  Na11  1  0.882055  0.882055  0.500000  1
  Tb  Tb12  1  0.131273  0.131273  0.000000  1
  Tb  Tb13  1  0.368727  0.368727  0.500000  1
  Dy  Dy14  1  0.868780  0.868780  0.000000  1
  Dy  Dy15  1  0.631220  0.631220  0.500000  1
  Sb  Sb16  1  0.846712  0.653287  0.250000  1
  Sb  Sb17  1  0.653287  0.846712  0.750000  1
  Sb  Sb18  1  0.153008  0.346991  0.750000  1
  Sb  Sb19  1  0.346991  0.153008  0.250000  1
  Sb  Sb20  1  0.899551  0.100030  0.211708  1
  Sb  Sb21  1  0.600449  0.399970  0.711708  1
  Sb  Sb22  1  0.100030  0.899551  0.788292  1
  Sb  Sb23  1  0.399970  0.600449  0.288292  1
