# generated using pymatgen
data_Hf3Zr6Ti(Sn3P)2
_symmetry_space_group_name_H-M   'P 1'
_cell_length_a   8.59249700
_cell_length_b   8.59249652
_cell_length_c   5.88488000
_cell_angle_alpha   90.00000000
_cell_angle_beta   90.00000000
_cell_angle_gamma   119.99999028
_symmetry_Int_Tables_number   1
_chemical_formula_structural   Hf3Zr6Ti(Sn3P)2
_chemical_formula_sum   'Hf3 Zr6 Ti1 Sn6 P2'
_cell_volume   376.27645171
_cell_formula_units_Z   1
loop_
 _symmetry_equiv_pos_site_id
 _symmetry_equiv_pos_as_xyz
  1  'x, y, z'
loop_
 _atom_site_type_symbol
 _atom_site_label
 _atom_site_symmetry_multiplicity
 _atom_site_fract_x
 _atom_site_fract_y
 _atom_site_fract_z
 _atom_site_occupancy
  Hf  Hf0  1  0.666667  0.333333  0.000000  1
  Hf  Hf1  1  0.333333  0.666667  0.000000  1
  Hf  Hf2  1  0.333333  0.666667  0.500000  1
  Zr  Zr3  1  0.748716  0.749564  0.750506  1
  Zr  Zr4  1  0.250436  0.999152  0.750506  1
  Zr  Zr5  1  0.000848  0.251284  0.750506  1
  Zr  Zr6  1  0.250436  0.251284  0.249494  1
  Zr  Zr7  1  0.748716  0.999152  0.249494  1
  Zr  Zr8  1  0.000848  0.749564  0.249494  1
  Ti  Ti9  1  0.666667  0.333333  0.500000  1
  Sn  Sn10  1  0.402760  0.398914  0.746036  1
  Sn  Sn11  1  0.601086  0.003846  0.746036  1
  Sn  Sn12  1  0.996154  0.597240  0.746036  1
  Sn  Sn13  1  0.601086  0.597240  0.253964  1
  Sn  Sn14  1  0.402760  0.003846  0.253964  1
  Sn  Sn15  1  0.996154  0.398914  0.253964  1
  P  P16  1  0.000000  0.000000  0.000000  1
  P  P17  1  0.000000  0.000000  0.500000  1
