# generated using pymatgen
data_Cs4Na2ErTmAs4
_symmetry_space_group_name_H-M   'P 1'
_cell_length_a   9.78117161
_cell_length_b   9.78117179
_cell_length_c   9.78117131
_cell_angle_alpha   136.51258149
_cell_angle_beta   136.93938930
_cell_angle_gamma   62.86057300
_symmetry_Int_Tables_number   1
_chemical_formula_structural   Cs4Na2ErTmAs4
_chemical_formula_sum   'Cs4 Na2 Er1 Tm1 As4'
_cell_volume   434.22609017
_cell_formula_units_Z   1
loop_
 _symmetry_equiv_pos_site_id
 _symmetry_equiv_pos_as_xyz
  1  'x, y, z'
loop_
 _atom_site_type_symbol
 _atom_site_label
 _atom_site_symmetry_multiplicity
 _atom_site_fract_x
 _atom_site_fract_y
 _atom_site_fract_z
 _atom_site_occupancy
  Cs  Cs0  1  0.681229  0.401610  0.720343  1
  Cs  Cs1  1  0.818771  0.039114  0.220382  1
  Cs  Cs2  1  0.181268  0.960886  0.779657  1
  Cs  Cs3  1  0.318732  0.598390  0.279618  1
  Na  Na4  1  0.750000  0.000000  0.750000  1
  Na  Na5  1  0.250000  0.000000  0.250000  1
  Er  Er6  1  0.750000  0.500000  0.250000  1
  Tm  Tm7  1  0.250000  0.500000  0.750000  1
  As  As8  1  0.409524  0.191695  0.780585  1
  As  As9  1  0.588890  0.808305  0.217829  1
  As  As10  1  0.090476  0.371063  0.282171  1
  As  As11  1  0.911110  0.628937  0.719415  1
