# generated using pymatgen
data_HfZr5BBr12
_symmetry_space_group_name_H-M   'P 1'
_cell_length_a   8.67463730
_cell_length_b   8.69095953
_cell_length_c   8.66176819
_cell_angle_alpha   106.68970115
_cell_angle_beta   106.85158529
_cell_angle_gamma   106.92795677
_symmetry_Int_Tables_number   1
_chemical_formula_structural   HfZr5BBr12
_chemical_formula_sum   'Hf1 Zr5 B1 Br12'
_cell_volume   546.44171230
_cell_formula_units_Z   1
loop_
 _symmetry_equiv_pos_site_id
 _symmetry_equiv_pos_as_xyz
  1  'x, y, z'
loop_
 _atom_site_type_symbol
 _atom_site_label
 _atom_site_symmetry_multiplicity
 _atom_site_fract_x
 _atom_site_fract_y
 _atom_site_fract_z
 _atom_site_occupancy
  Hf  Hf0  1  0.972355  0.714821  0.905433  1
  Zr  Zr1  1  0.287676  0.096181  0.027979  1
  Zr  Zr2  1  0.095722  0.028907  0.288333  1
  Zr  Zr3  1  0.904606  0.973634  0.712744  1
  Zr  Zr4  1  0.713436  0.905685  0.972645  1
  Zr  Zr5  1  0.027473  0.285247  0.094383  1
  B  B6  1  0.000159  0.997196  0.999172  1
  Br  Br7  1  0.922073  0.314550  0.777040  1
  Br  Br8  1  0.686732  0.222662  0.077963  1
  Br  Br9  1  0.442845  0.141037  0.365572  1
  Br  Br10  1  0.861249  0.634983  0.563106  1
  Br  Br11  1  0.223598  0.078196  0.686358  1
  Br  Br12  1  0.640264  0.558895  0.859670  1
  Br  Br13  1  0.365325  0.442165  0.140632  1
  Br  Br14  1  0.776082  0.921272  0.313357  1
  Br  Br15  1  0.140712  0.364900  0.442325  1
  Br  Br16  1  0.556913  0.858864  0.634481  1
  Br  Br17  1  0.306111  0.774082  0.920996  1
  Br  Br18  1  0.076669  0.686722  0.217811  1
