# generated using pymatgen
data_HoZr3(BRu)16
_symmetry_space_group_name_H-M   'P 1'
_cell_length_a   9.14804749
_cell_length_b   7.43432849
_cell_length_c   7.43432828
_cell_angle_alpha   90.03140962
_cell_angle_beta   113.96078991
_cell_angle_gamma   113.96078465
_symmetry_Int_Tables_number   1
_chemical_formula_structural   HoZr3(BRu)16
_chemical_formula_sum   'Ho1 Zr3 B16 Ru16'
_cell_volume   413.84555179
_cell_formula_units_Z   1
loop_
 _symmetry_equiv_pos_site_id
 _symmetry_equiv_pos_as_xyz
  1  'x, y, z'
loop_
 _atom_site_type_symbol
 _atom_site_label
 _atom_site_symmetry_multiplicity
 _atom_site_fract_x
 _atom_site_fract_y
 _atom_site_fract_z
 _atom_site_occupancy
  Ho  Ho0  1  0.249999  0.125000  0.875000  1
  Zr  Zr1  1  0.750000  0.875000  0.125000  1
  Zr  Zr2  1  0.249999  0.625000  0.374999  1
  Zr  Zr3  1  0.750000  0.375000  0.624999  1
  B  B4  1  0.914675  0.288272  0.068099  1
  B  B5  1  0.413728  0.567794  0.124853  1
  B  B6  1  0.086272  0.211126  0.154066  1
  B  B7  1  0.585713  0.153250  0.211550  1
  B  B8  1  0.413985  0.067329  0.288598  1
  B  B9  1  0.914675  0.626405  0.346577  1
  B  B10  1  0.585324  0.653422  0.373596  1
  B  B11  1  0.086272  0.875147  0.432206  1
  B  B12  1  0.914286  0.125837  0.567537  1
  B  B13  1  0.413985  0.346656  0.625387  1
  B  B14  1  0.086015  0.374613  0.653344  1
  B  B15  1  0.585324  0.931900  0.711728  1
  B  B16  1  0.413728  0.845934  0.788874  1
  B  B17  1  0.914286  0.788449  0.846749  1
  B  B18  1  0.585713  0.432463  0.874162  1
  B  B19  1  0.086015  0.711402  0.932671  1
  Ru  Ru20  1  0.872890  0.550483  0.033455  1
  Ru  Ru21  1  0.374326  0.835053  0.052400  1
  Ru  Ru22  1  0.125674  0.947600  0.164947  1
  Ru  Ru23  1  0.629143  0.467718  0.178927  1
  Ru  Ru24  1  0.374833  0.339765  0.324560  1
  Ru  Ru25  1  0.872890  0.322408  0.339436  1
  Ru  Ru26  1  0.627111  0.966546  0.449517  1
  Ru  Ru27  1  0.125674  0.178074  0.460726  1
  Ru  Ru28  1  0.870858  0.821075  0.532282  1
  Ru  Ru29  1  0.374833  0.035068  0.550272  1
  Ru  Ru30  1  0.125167  0.675441  0.660235  1
  Ru  Ru31  1  0.627111  0.660565  0.677592  1
  Ru  Ru32  1  0.374326  0.539274  0.821926  1
  Ru  Ru33  1  0.870858  0.049783  0.838575  1
  Ru  Ru34  1  0.629143  0.161425  0.950216  1
  Ru  Ru35  1  0.125167  0.449728  0.964932  1
