# generated using pymatgen
data_BaS6
_symmetry_space_group_name_H-M   'P 1'
_cell_length_a   5.10390214
_cell_length_b   5.72651495
_cell_length_c   9.40217146
_cell_angle_alpha   76.98932945
_cell_angle_beta   87.48700690
_cell_angle_gamma   55.35440977
_symmetry_Int_Tables_number   1
_chemical_formula_structural   BaS6
_chemical_formula_sum   'Ba1 S6'
_cell_volume   219.05507305
_cell_formula_units_Z   1
loop_
 _symmetry_equiv_pos_site_id
 _symmetry_equiv_pos_as_xyz
  1  'x, y, z'
loop_
 _atom_site_type_symbol
 _atom_site_label
 _atom_site_symmetry_multiplicity
 _atom_site_fract_x
 _atom_site_fract_y
 _atom_site_fract_z
 _atom_site_occupancy
  Ba  Ba0  1  0.406160  0.778408  0.386614  1
  S  S1  1  0.778519  0.676731  0.079611  1
  S  S2  1  0.050509  0.995564  0.835361  1
  S  S3  1  0.102344  0.470273  0.268102  1
  S  S4  1  0.695705  0.072422  0.979799  1
  S  S5  1  0.023829  0.788860  0.691207  1
  S  S6  1  0.705407  0.079147  0.504287  1
