# generated using pymatgen
data_Th3U(Al8Pt3)3
_symmetry_space_group_name_H-M   'P 1'
_cell_length_a   7.61732297
_cell_length_b   7.63105208
_cell_length_c   13.22687164
_cell_angle_alpha   84.51706902
_cell_angle_beta   78.92737617
_cell_angle_gamma   59.95314390
_symmetry_Int_Tables_number   1
_chemical_formula_structural   Th3U(Al8Pt3)3
_chemical_formula_sum   'Th3 U1 Al24 Pt9'
_cell_volume   653.14320046
_cell_formula_units_Z   1
loop_
 _symmetry_equiv_pos_site_id
 _symmetry_equiv_pos_as_xyz
  1  'x, y, z'
loop_
 _atom_site_type_symbol
 _atom_site_label
 _atom_site_symmetry_multiplicity
 _atom_site_fract_x
 _atom_site_fract_y
 _atom_site_fract_z
 _atom_site_occupancy
  Th  Th0  1  0.394671  0.168163  0.807167  1
  Th  Th1  1  0.604807  0.832297  0.193503  1
  Th  Th2  1  0.733375  0.498273  0.807158  1
  U  U3  1  0.265107  0.502568  0.196231  1
  Al  Al4  1  0.687582  0.833843  0.946012  1
  Al  Al5  1  0.312450  0.171751  0.057059  1
  Al  Al6  1  0.146182  0.833562  0.559993  1
  Al  Al7  1  0.854003  0.166828  0.438395  1
  Al  Al8  1  0.481782  0.166838  0.557187  1
  Al  Al9  1  0.518779  0.833249  0.442256  1
  Al  Al10  1  0.213062  0.167450  0.333228  1
  Al  Al11  1  0.788525  0.834183  0.663572  1
  Al  Al12  1  0.435795  0.510245  0.663808  1
  Al  Al13  1  0.563043  0.489542  0.333115  1
  Al  Al14  1  0.112473  0.155951  0.662192  1
  Al  Al15  1  0.891123  0.841363  0.334486  1
  Al  Al16  1  0.347016  0.502826  0.950405  1
  Al  Al17  1  0.644081  0.498514  0.057034  1
  Al  Al18  1  0.014154  0.164496  0.957351  1
  Al  Al19  1  0.987757  0.830332  0.048207  1
  Al  Al20  1  0.186580  0.499490  0.441146  1
  Al  Al21  1  0.813795  0.500013  0.557003  1
  Al  Al22  1  0.734420  0.167518  0.183251  1
  Al  Al23  1  0.261912  0.835603  0.816643  1
  Al  Al24  1  0.062577  0.634499  0.814858  1
  Al  Al25  1  0.941956  0.365447  0.184312  1
  Al  Al26  1  0.860895  0.036844  0.815677  1
  Al  Al27  1  0.140691  0.958352  0.183249  1
  Pt  Pt28  1  0.120378  0.491286  0.638071  1
  Pt  Pt29  1  0.879062  0.508266  0.360885  1
  Pt  Pt30  1  0.658940  0.169792  0.999189  1
  Pt  Pt31  1  0.343886  0.831196  0.999029  1
  Pt  Pt32  1  0.538720  0.165345  0.361381  1
  Pt  Pt33  1  0.463273  0.833045  0.638612  1
  Pt  Pt34  1  0.778444  0.175403  0.637394  1
  Pt  Pt35  1  0.221546  0.825634  0.362059  1
  Pt  Pt36  1  0.997153  0.499993  0.998877  1
