# generated using pymatgen
data_HoTm7Sc11Si16Rh
_symmetry_space_group_name_H-M   'P 1'
_cell_length_a   6.95115101
_cell_length_b   7.37159793
_cell_length_c   13.84077413
_cell_angle_alpha   90.01384055
_cell_angle_beta   90.00733568
_cell_angle_gamma   89.91119746
_symmetry_Int_Tables_number   1
_chemical_formula_structural   HoTm7Sc11Si16Rh
_chemical_formula_sum   'Ho1 Tm7 Sc11 Si16 Rh1'
_cell_volume   709.21548050
_cell_formula_units_Z   1
loop_
 _symmetry_equiv_pos_site_id
 _symmetry_equiv_pos_as_xyz
  1  'x, y, z'
loop_
 _atom_site_type_symbol
 _atom_site_label
 _atom_site_symmetry_multiplicity
 _atom_site_fract_x
 _atom_site_fract_y
 _atom_site_fract_z
 _atom_site_occupancy
  Ho  Ho0  1  0.012193  0.179166  0.093261  1
  Tm  Tm1  1  0.990723  0.814218  0.902261  1
  Tm  Tm2  1  0.489290  0.674763  0.903090  1
  Tm  Tm3  1  0.990721  0.814245  0.597703  1
  Tm  Tm4  1  0.509987  0.322023  0.093933  1
  Tm  Tm5  1  0.012230  0.179333  0.406643  1
  Tm  Tm6  1  0.510002  0.321965  0.406071  1
  Tm  Tm7  1  0.489285  0.674738  0.596892  1
  Sc  Sc8  1  0.840680  0.496277  0.250049  1
  Sc  Sc9  1  0.342276  0.005236  0.250038  1
  Sc  Sc10  1  0.653560  0.996693  0.750003  1
  Sc  Sc11  1  0.321669  0.176690  0.628167  1
  Sc  Sc12  1  0.672278  0.825164  0.374294  1
  Sc  Sc13  1  0.173156  0.673665  0.376021  1
  Sc  Sc14  1  0.672269  0.825126  0.125719  1
  Sc  Sc15  1  0.831060  0.328628  0.629529  1
  Sc  Sc16  1  0.321716  0.176637  0.871808  1
  Sc  Sc17  1  0.831004  0.328688  0.870461  1
  Sc  Sc18  1  0.173169  0.673604  0.123995  1
  Si  Si19  1  0.023915  0.094128  0.749986  1
  Si  Si20  1  0.973327  0.889437  0.250068  1
  Si  Si21  1  0.469798  0.612449  0.250008  1
  Si  Si22  1  0.517075  0.396498  0.749993  1
  Si  Si23  1  0.282755  0.861423  0.750005  1
  Si  Si24  1  0.716106  0.132367  0.250112  1
  Si  Si25  1  0.215260  0.369591  0.250095  1
  Si  Si26  1  0.792000  0.630148  0.749997  1
  Si  Si27  1  0.161319  0.464204  0.542488  1
  Si  Si28  1  0.841772  0.534755  0.463643  1
  Si  Si29  1  0.343481  0.964936  0.463178  1
  Si  Si30  1  0.841710  0.534965  0.036307  1
  Si  Si31  1  0.659683  0.034555  0.540116  1
  Si  Si32  1  0.161368  0.464401  0.957458  1
  Si  Si33  1  0.659581  0.034501  0.959864  1
  Si  Si34  1  0.343777  0.964809  0.036753  1
  Rh  Rh35  1  0.159805  0.529976  0.749990  1
