# generated using pymatgen
data_Tb6BiAuO14
_symmetry_space_group_name_H-M   'P 1'
_cell_length_a   6.51500493
_cell_length_b   6.56596536
_cell_length_c   7.62964638
_cell_angle_alpha   106.57932666
_cell_angle_beta   90.15678101
_cell_angle_gamma   98.20305762
_symmetry_Int_Tables_number   1
_chemical_formula_structural   Tb6BiAuO14
_chemical_formula_sum   'Tb6 Bi1 Au1 O14'
_cell_volume   309.28139450
_cell_formula_units_Z   1
loop_
 _symmetry_equiv_pos_site_id
 _symmetry_equiv_pos_as_xyz
  1  'x, y, z'
loop_
 _atom_site_type_symbol
 _atom_site_label
 _atom_site_symmetry_multiplicity
 _atom_site_fract_x
 _atom_site_fract_y
 _atom_site_fract_z
 _atom_site_occupancy
  Tb  Tb0  1  0.735382  0.461760  0.115799  1
  Tb  Tb1  1  0.734394  0.475042  0.614661  1
  Tb  Tb2  1  0.539441  0.996099  0.752556  1
  Tb  Tb3  1  0.460559  0.003901  0.247444  1
  Tb  Tb4  1  0.265606  0.524958  0.385339  1
  Tb  Tb5  1  0.264618  0.538240  0.884201  1
  Bi  Bi6  1  0.000000  0.000000  0.500000  1
  Au  Au7  1  0.000000  0.000000  0.000000  1
  O  O8  1  0.699467  0.073061  0.492618  1
  O  O9  1  0.934561  0.673202  0.962277  1
  O  O10  1  0.707262  0.074990  0.046936  1
  O  O11  1  0.927311  0.653149  0.388771  1
  O  O12  1  0.883372  0.903374  0.737029  1
  O  O13  1  0.556893  0.352491  0.833842  1
  O  O14  1  0.546393  0.359988  0.343552  1
  O  O15  1  0.453607  0.640012  0.656448  1
  O  O16  1  0.443107  0.647509  0.166158  1
  O  O17  1  0.116628  0.096626  0.262971  1
  O  O18  1  0.072689  0.346851  0.611229  1
  O  O19  1  0.292738  0.925010  0.953064  1
  O  O20  1  0.065439  0.326798  0.037723  1
  O  O21  1  0.300533  0.926939  0.507382  1
