# generated using pymatgen
data_Tb3Dy3Ho10MgIn3Ir4
_symmetry_space_group_name_H-M   'P 1'
_cell_length_a   9.65429253
_cell_length_b   9.65045324
_cell_length_c   9.65605700
_cell_angle_alpha   60.00710638
_cell_angle_beta   60.01974978
_cell_angle_gamma   60.02524549
_symmetry_Int_Tables_number   1
_chemical_formula_structural   Tb3Dy3Ho10MgIn3Ir4
_chemical_formula_sum   'Tb3 Dy3 Ho10 Mg1 In3 Ir4'
_cell_volume   636.39083937
_cell_formula_units_Z   1
loop_
 _symmetry_equiv_pos_site_id
 _symmetry_equiv_pos_as_xyz
  1  'x, y, z'
loop_
 _atom_site_type_symbol
 _atom_site_label
 _atom_site_symmetry_multiplicity
 _atom_site_fract_x
 _atom_site_fract_y
 _atom_site_fract_z
 _atom_site_occupancy
  Tb  Tb0  1  0.189345  0.810774  0.811832  1
  Tb  Tb1  1  0.810548  0.188609  0.189201  1
  Tb  Tb2  1  0.813383  0.186100  0.813489  1
  Dy  Dy3  1  0.190957  0.808870  0.190787  1
  Dy  Dy4  1  0.810472  0.809275  0.191102  1
  Dy  Dy5  1  0.190518  0.189777  0.809366  1
  Ho  Ho6  1  0.599097  0.596943  0.599969  1
  Ho  Ho7  1  0.599453  0.596952  0.204789  1
  Ho  Ho8  1  0.597567  0.208663  0.596856  1
  Ho  Ho9  1  0.204950  0.597561  0.599364  1
  Ho  Ho10  1  0.058691  0.442770  0.439909  1
  Ho  Ho11  1  0.437574  0.061654  0.060955  1
  Ho  Ho12  1  0.440533  0.059762  0.440616  1
  Ho  Ho13  1  0.061330  0.439276  0.061315  1
  Ho  Ho14  1  0.439725  0.442634  0.058748  1
  Ho  Ho15  1  0.061113  0.062021  0.437210  1
  Mg  Mg16  1  0.826187  0.827742  0.826539  1
  In  In17  1  0.832597  0.832782  0.502899  1
  In  In18  1  0.832726  0.502693  0.832100  1
  In  In19  1  0.502654  0.833197  0.832572  1
  Ir  Ir20  1  0.390829  0.392124  0.391586  1
  Ir  Ir21  1  0.390700  0.391455  0.826966  1
  Ir  Ir22  1  0.392147  0.825711  0.391151  1
  Ir  Ir23  1  0.826904  0.392657  0.390680  1
