# generated using pymatgen
data_CaDy(Al5Fe)4
_symmetry_space_group_name_H-M   'P 1'
_cell_length_a   6.77709824
_cell_length_b   6.77709902
_cell_length_c   8.98388800
_cell_angle_alpha   90.00000000
_cell_angle_beta   90.00000000
_cell_angle_gamma   97.14350933
_symmetry_Int_Tables_number   1
_chemical_formula_structural   CaDy(Al5Fe)4
_chemical_formula_sum   'Ca1 Dy1 Al20 Fe4'
_cell_volume   409.41872839
_cell_formula_units_Z   1
loop_
 _symmetry_equiv_pos_site_id
 _symmetry_equiv_pos_as_xyz
  1  'x, y, z'
loop_
 _atom_site_type_symbol
 _atom_site_label
 _atom_site_symmetry_multiplicity
 _atom_site_fract_x
 _atom_site_fract_y
 _atom_site_fract_z
 _atom_site_occupancy
  Ca  Ca0  1  0.876565  0.123435  0.750000  1
  Dy  Dy1  1  0.124569  0.875431  0.250000  1
  Al  Al2  1  0.625524  0.374476  0.543748  1
  Al  Al3  1  0.374532  0.625468  0.448136  1
  Al  Al4  1  0.374532  0.625468  0.051864  1
  Al  Al5  1  0.625524  0.374476  0.956252  1
  Al  Al6  1  0.227247  0.228187  0.499357  1
  Al  Al7  1  0.771813  0.772753  0.499357  1
  Al  Al8  1  0.771813  0.772753  0.000643  1
  Al  Al9  1  0.227247  0.228187  0.000643  1
  Al  Al10  1  0.843495  0.156505  0.096927  1
  Al  Al11  1  0.160174  0.839826  0.903436  1
  Al  Al12  1  0.160174  0.839826  0.596564  1
  Al  Al13  1  0.843495  0.156505  0.403073  1
  Al  Al14  1  0.866583  0.586433  0.750000  1
  Al  Al15  1  0.133339  0.416161  0.250000  1
  Al  Al16  1  0.413567  0.133417  0.750000  1
  Al  Al17  1  0.583839  0.866661  0.250000  1
  Al  Al18  1  0.220111  0.476576  0.750000  1
  Al  Al19  1  0.779356  0.521739  0.250000  1
  Al  Al20  1  0.523424  0.779889  0.750000  1
  Al  Al21  1  0.478261  0.220644  0.250000  1
  Fe  Fe22  1  0.999413  0.502006  0.499395  1
  Fe  Fe23  1  0.999413  0.502006  0.000605  1
  Fe  Fe24  1  0.497994  0.000587  0.000605  1
  Fe  Fe25  1  0.497994  0.000587  0.499395  1
