# generated using pymatgen
data_Sr2LiTbO4
_symmetry_space_group_name_H-M   'P 1'
_cell_length_a   11.61106700
_cell_length_b   3.48227100
_cell_length_c   11.62278400
_cell_angle_alpha   90.00000000
_cell_angle_beta   90.00000000
_cell_angle_gamma   90.00000000
_symmetry_Int_Tables_number   1
_chemical_formula_structural   Sr2LiTbO4
_chemical_formula_sum   'Sr8 Li4 Tb4 O16'
_cell_volume   469.94265274
_cell_formula_units_Z   4
loop_
 _symmetry_equiv_pos_site_id
 _symmetry_equiv_pos_as_xyz
  1  'x, y, z'
loop_
 _atom_site_type_symbol
 _atom_site_label
 _atom_site_symmetry_multiplicity
 _atom_site_fract_x
 _atom_site_fract_y
 _atom_site_fract_z
 _atom_site_occupancy
  Sr  Sr0  1  0.634942  0.499999  0.072230  1
  Sr  Sr1  1  0.098131  0.000000  0.114469  1
  Sr  Sr2  1  0.598131  0.000000  0.385531  1
  Sr  Sr3  1  0.134943  0.499999  0.427770  1
  Sr  Sr4  1  0.865057  0.000000  0.572230  1
  Sr  Sr5  1  0.401868  0.499999  0.614468  1
  Sr  Sr6  1  0.901868  0.499999  0.885531  1
  Sr  Sr7  1  0.365056  0.000000  0.927769  1
  Li  Li8  1  0.847115  0.000000  0.090853  1
  Li  Li9  1  0.347115  0.000000  0.409147  1
  Li  Li10  1  0.652885  0.499999  0.590852  1
  Li  Li11  1  0.152884  0.499999  0.909147  1
  Tb  Tb12  1  0.358060  0.499999  0.205435  1
  Tb  Tb13  1  0.858061  0.499999  0.294564  1
  Tb  Tb14  1  0.141939  0.000000  0.705436  1
  Tb  Tb15  1  0.641939  0.000000  0.794563  1
  O  O16  1  0.246008  0.499999  0.044980  1
  O  O17  1  0.938283  0.499999  0.111635  1
  O  O18  1  0.471654  0.000000  0.132080  1
  O  O19  1  0.743372  0.000000  0.221167  1
  O  O20  1  0.243372  0.000000  0.278832  1
  O  O21  1  0.971654  0.000000  0.367919  1
  O  O22  1  0.438282  0.499999  0.388364  1
  O  O23  1  0.746008  0.499999  0.455019  1
  O  O24  1  0.253991  0.000000  0.544980  1
  O  O25  1  0.561717  0.000000  0.611636  1
  O  O26  1  0.028345  0.499999  0.632080  1
  O  O27  1  0.756627  0.499999  0.721168  1
  O  O28  1  0.256628  0.499999  0.778832  1
  O  O29  1  0.528344  0.499999  0.867919  1
  O  O30  1  0.061717  0.000000  0.888364  1
  O  O31  1  0.753991  0.000000  0.955019  1
