# generated using pymatgen
data_Ho4CI6
_symmetry_space_group_name_H-M   'P 1'
_cell_length_a   4.03132500
_cell_length_b   13.77044700
_cell_length_c   14.26156500
_cell_angle_alpha   90.00000000
_cell_angle_beta   90.00000000
_cell_angle_gamma   90.00000000
_symmetry_Int_Tables_number   1
_chemical_formula_structural   Ho4CI6
_chemical_formula_sum   'Ho8 C2 I12'
_cell_volume   791.70435789
_cell_formula_units_Z   2
loop_
 _symmetry_equiv_pos_site_id
 _symmetry_equiv_pos_as_xyz
  1  'x, y, z'
loop_
 _atom_site_type_symbol
 _atom_site_label
 _atom_site_symmetry_multiplicity
 _atom_site_fract_x
 _atom_site_fract_y
 _atom_site_fract_z
 _atom_site_occupancy
  Ho  Ho0  1  0.000000  0.092379  0.073587  1
  Ho  Ho1  1  0.000000  0.907621  0.926413  1
  Ho  Ho2  1  0.000000  0.592379  0.426413  1
  Ho  Ho3  1  0.000000  0.407621  0.573587  1
  Ho  Ho4  1  0.500000  0.113179  0.867222  1
  Ho  Ho5  1  0.500000  0.886821  0.132778  1
  Ho  Ho6  1  0.500000  0.613179  0.632778  1
  Ho  Ho7  1  0.500000  0.386821  0.367222  1
  C  C8  1  0.500000  0.000000  0.000000  1
  C  C9  1  0.500000  0.500000  0.500000  1
  I  I10  1  0.500000  0.270190  0.680259  1
  I  I11  1  0.500000  0.729810  0.319741  1
  I  I12  1  0.500000  0.770190  0.819741  1
  I  I13  1  0.500000  0.229810  0.180259  1
  I  I14  1  0.000000  0.263693  0.933716  1
  I  I15  1  0.000000  0.736307  0.066284  1
  I  I16  1  0.000000  0.482889  0.236845  1
  I  I17  1  0.000000  0.517111  0.763155  1
  I  I18  1  0.000000  0.982889  0.263155  1
  I  I19  1  0.000000  0.017111  0.736845  1
  I  I20  1  0.000000  0.236307  0.433716  1
  I  I21  1  0.000000  0.763693  0.566284  1
