# generated using pymatgen
data_Hf4ZrBeAs3
_symmetry_space_group_name_H-M   'P 1'
_cell_length_a   3.64925600
_cell_length_b   10.32029900
_cell_length_c   17.47725700
_cell_angle_alpha   90.00000000
_cell_angle_beta   90.00000000
_cell_angle_gamma   90.00000000
_symmetry_Int_Tables_number   1
_chemical_formula_structural   Hf4ZrBeAs3
_chemical_formula_sum   'Hf16 Zr4 Be4 As12'
_cell_volume   658.21819482
_cell_formula_units_Z   4
loop_
 _symmetry_equiv_pos_site_id
 _symmetry_equiv_pos_as_xyz
  1  'x, y, z'
loop_
 _atom_site_type_symbol
 _atom_site_label
 _atom_site_symmetry_multiplicity
 _atom_site_fract_x
 _atom_site_fract_y
 _atom_site_fract_z
 _atom_site_occupancy
  Hf  Hf0  1  0.250000  0.876964  0.477876  1
  Hf  Hf1  1  0.750000  0.123036  0.522124  1
  Hf  Hf2  1  0.750000  0.376964  0.022124  1
  Hf  Hf3  1  0.250000  0.623036  0.977876  1
  Hf  Hf4  1  0.250000  0.940079  0.080261  1
  Hf  Hf5  1  0.750000  0.059921  0.919739  1
  Hf  Hf6  1  0.750000  0.440079  0.419739  1
  Hf  Hf7  1  0.250000  0.559921  0.580261  1
  Hf  Hf8  1  0.250000  0.243152  0.167693  1
  Hf  Hf9  1  0.750000  0.756848  0.832307  1
  Hf  Hf10  1  0.750000  0.743152  0.332307  1
  Hf  Hf11  1  0.250000  0.256848  0.667693  1
  Hf  Hf12  1  0.250000  0.518589  0.273134  1
  Hf  Hf13  1  0.750000  0.481411  0.726866  1
  Hf  Hf14  1  0.750000  0.018589  0.226866  1
  Hf  Hf15  1  0.250000  0.981411  0.773134  1
  Zr  Zr16  1  0.250000  0.187188  0.370018  1
  Zr  Zr17  1  0.750000  0.812812  0.629982  1
  Zr  Zr18  1  0.750000  0.687188  0.129982  1
  Zr  Zr19  1  0.250000  0.312812  0.870018  1
  Be  Be20  1  0.250000  0.626580  0.413804  1
  Be  Be21  1  0.750000  0.373420  0.586196  1
  Be  Be22  1  0.750000  0.126580  0.086196  1
  Be  Be23  1  0.250000  0.873420  0.913804  1
  As  As24  1  0.250000  0.489613  0.116687  1
  As  As25  1  0.750000  0.510387  0.883313  1
  As  As26  1  0.750000  0.989613  0.383313  1
  As  As27  1  0.250000  0.010387  0.616687  1
  As  As28  1  0.250000  0.812068  0.222261  1
  As  As29  1  0.750000  0.187932  0.777739  1
  As  As30  1  0.750000  0.312068  0.277739  1
  As  As31  1  0.250000  0.687932  0.722261  1
  As  As32  1  0.250000  0.181622  0.010515  1
  As  As33  1  0.750000  0.818378  0.989485  1
  As  As34  1  0.750000  0.681622  0.489485  1
  As  As35  1  0.250000  0.318378  0.510515  1
