# generated using pymatgen
data_LaTm2Co(P3Rh4)2
_symmetry_space_group_name_H-M   'P 1'
_cell_length_a   3.87075100
_cell_length_b   11.20353900
_cell_length_c   12.86684100
_cell_angle_alpha   90.00000000
_cell_angle_beta   90.00000000
_cell_angle_gamma   90.00000000
_symmetry_Int_Tables_number   1
_chemical_formula_structural   LaTm2Co(P3Rh4)2
_chemical_formula_sum   'La2 Tm4 Co2 P12 Rh16'
_cell_volume   557.98483943
_cell_formula_units_Z   2
loop_
 _symmetry_equiv_pos_site_id
 _symmetry_equiv_pos_as_xyz
  1  'x, y, z'
loop_
 _atom_site_type_symbol
 _atom_site_label
 _atom_site_symmetry_multiplicity
 _atom_site_fract_x
 _atom_site_fract_y
 _atom_site_fract_z
 _atom_site_occupancy
  La  La0  1  0.000000  0.500000  0.523224  1
  La  La1  1  0.500000  0.000000  0.476776  1
  Tm  Tm2  1  0.500000  0.815344  0.200244  1
  Tm  Tm3  1  0.500000  0.184656  0.200244  1
  Tm  Tm4  1  0.000000  0.684656  0.799756  1
  Tm  Tm5  1  0.000000  0.315344  0.799756  1
  Co  Co6  1  0.000000  0.500000  0.980351  1
  Co  Co7  1  0.500000  0.000000  0.019649  1
  P  P8  1  0.500000  0.500000  0.883390  1
  P  P9  1  0.000000  0.000000  0.116610  1
  P  P10  1  0.500000  0.500000  0.344693  1
  P  P11  1  0.000000  0.000000  0.655307  1
  P  P12  1  0.500000  0.313043  0.623011  1
  P  P13  1  0.500000  0.686957  0.623011  1
  P  P14  1  0.000000  0.186957  0.376989  1
  P  P15  1  0.000000  0.813043  0.376989  1
  P  P16  1  0.500000  0.852187  0.896713  1
  P  P17  1  0.500000  0.147813  0.896713  1
  P  P18  1  0.000000  0.647813  0.103287  1
  P  P19  1  0.000000  0.352187  0.103287  1
  Rh  Rh20  1  0.500000  0.500000  0.163958  1
  Rh  Rh21  1  0.000000  0.000000  0.836042  1
  Rh  Rh22  1  0.500000  0.500000  0.708223  1
  Rh  Rh23  1  0.000000  0.000000  0.291777  1
  Rh  Rh24  1  0.500000  0.336166  0.993325  1
  Rh  Rh25  1  0.500000  0.663834  0.993325  1
  Rh  Rh26  1  0.000000  0.163834  0.006675  1
  Rh  Rh27  1  0.000000  0.836166  0.006675  1
  Rh  Rh28  1  0.500000  0.292108  0.427860  1
  Rh  Rh29  1  0.500000  0.707892  0.427860  1
  Rh  Rh30  1  0.000000  0.207892  0.572140  1
  Rh  Rh31  1  0.000000  0.792108  0.572140  1
  Rh  Rh32  1  0.500000  0.872605  0.715658  1
  Rh  Rh33  1  0.500000  0.127395  0.715658  1
  Rh  Rh34  1  0.000000  0.627395  0.284342  1
  Rh  Rh35  1  0.000000  0.372605  0.284342  1
