# generated using pymatgen
data_Tb3DyTm4(MoO6)4
_symmetry_space_group_name_H-M   'P 1'
_cell_length_a   5.37203500
_cell_length_b   7.67760982
_cell_length_c   11.37810401
_cell_angle_alpha   75.56701261
_cell_angle_beta   90.00000000
_cell_angle_gamma   90.00000000
_symmetry_Int_Tables_number   1
_chemical_formula_structural   Tb3DyTm4(MoO6)4
_chemical_formula_sum   'Tb3 Dy1 Tm4 Mo4 O24'
_cell_volume   454.47228991
_cell_formula_units_Z   1
loop_
 _symmetry_equiv_pos_site_id
 _symmetry_equiv_pos_as_xyz
  1  'x, y, z'
loop_
 _atom_site_type_symbol
 _atom_site_label
 _atom_site_symmetry_multiplicity
 _atom_site_fract_x
 _atom_site_fract_y
 _atom_site_fract_z
 _atom_site_occupancy
  Tb  Tb0  1  0.741770  0.000000  0.750000  1
  Tb  Tb1  1  0.681742  0.500000  0.750000  1
  Tb  Tb2  1  0.317833  0.500000  0.250000  1
  Dy  Dy3  1  0.258612  0.000000  0.250000  1
  Tm  Tm4  1  0.181938  0.795826  0.579313  1
  Tm  Tm5  1  0.818346  0.795898  0.079694  1
  Tm  Tm6  1  0.181938  0.204174  0.920687  1
  Tm  Tm7  1  0.818346  0.204102  0.420306  1
  Mo  Mo8  1  0.255932  0.722228  0.887176  1
  Mo  Mo9  1  0.743918  0.722859  0.386825  1
  Mo  Mo10  1  0.255932  0.277772  0.612824  1
  Mo  Mo11  1  0.743918  0.277141  0.113175  1
  O  O12  1  0.044142  0.939836  0.898673  1
  O  O13  1  0.534633  0.842663  0.932299  1
  O  O14  1  0.956960  0.940076  0.397908  1
  O  O15  1  0.459544  0.789104  0.724747  1
  O  O16  1  0.465268  0.843685  0.431767  1
  O  O17  1  0.984190  0.713224  0.769713  1
  O  O18  1  0.539578  0.789970  0.224641  1
  O  O19  1  0.849674  0.635225  0.548861  1
  O  O20  1  0.353929  0.489629  0.887150  1
  O  O21  1  0.015879  0.713691  0.269455  1
  O  O22  1  0.353929  0.510371  0.612850  1
  O  O23  1  0.849674  0.364775  0.951139  1
  O  O24  1  0.149736  0.634403  0.049058  1
  O  O25  1  0.646355  0.490137  0.386696  1
  O  O26  1  0.984190  0.286776  0.730287  1
  O  O27  1  0.646355  0.509863  0.113304  1
  O  O28  1  0.149736  0.365597  0.450942  1
  O  O29  1  0.459544  0.210896  0.775253  1
  O  O30  1  0.015879  0.286309  0.230545  1
  O  O31  1  0.534633  0.157337  0.567701  1
  O  O32  1  0.539578  0.210030  0.275359  1
  O  O33  1  0.044142  0.060164  0.601327  1
  O  O34  1  0.465268  0.156315  0.068233  1
  O  O35  1  0.956960  0.059924  0.102092  1
