# generated using pymatgen
data_La5Pr5Sm2(Si7Br3)2
_symmetry_space_group_name_H-M   'P 1'
_cell_length_a   4.09578300
_cell_length_b   11.89018500
_cell_length_c   16.63249700
_cell_angle_alpha   90.00000000
_cell_angle_beta   90.00000000
_cell_angle_gamma   90.00000000
_symmetry_Int_Tables_number   1
_chemical_formula_structural   La5Pr5Sm2(Si7Br3)2
_chemical_formula_sum   'La5 Pr5 Sm2 Si14 Br6'
_cell_volume   809.99624346
_cell_formula_units_Z   1
loop_
 _symmetry_equiv_pos_site_id
 _symmetry_equiv_pos_as_xyz
  1  'x, y, z'
loop_
 _atom_site_type_symbol
 _atom_site_label
 _atom_site_symmetry_multiplicity
 _atom_site_fract_x
 _atom_site_fract_y
 _atom_site_fract_z
 _atom_site_occupancy
  La  La0  1  0.000000  0.661976  0.000000  1
  La  La1  1  0.500000  0.067918  0.879133  1
  La  La2  1  0.000000  0.932606  0.620390  1
  La  La3  1  0.500000  0.067918  0.120867  1
  La  La4  1  0.000000  0.932606  0.379610  1
  Pr  Pr5  1  0.500000  0.340676  0.500000  1
  Pr  Pr6  1  0.500000  0.360874  0.756989  1
  Pr  Pr7  1  0.000000  0.638088  0.741920  1
  Pr  Pr8  1  0.500000  0.360874  0.243011  1
  Pr  Pr9  1  0.000000  0.638088  0.258080  1
  Sm  Sm10  1  0.500000  0.358762  0.000000  1
  Sm  Sm11  1  0.000000  0.641654  0.500000  1
  Si  Si12  1  0.000000  0.156753  0.000000  1
  Si  Si13  1  0.500000  0.843380  0.500000  1
  Si  Si14  1  0.500000  0.566461  0.877380  1
  Si  Si15  1  0.000000  0.432264  0.622262  1
  Si  Si16  1  0.500000  0.566461  0.122620  1
  Si  Si17  1  0.000000  0.432264  0.377738  1
  Si  Si18  1  0.000000  0.257568  0.875245  1
  Si  Si19  1  0.500000  0.742420  0.624524  1
  Si  Si20  1  0.000000  0.257568  0.124755  1
  Si  Si21  1  0.500000  0.742420  0.375476  1
  Si  Si22  1  0.000000  0.459231  0.878693  1
  Si  Si23  1  0.500000  0.540708  0.620745  1
  Si  Si24  1  0.500000  0.540708  0.379255  1
  Si  Si25  1  0.000000  0.459231  0.121307  1
  Br  Br26  1  0.500000  0.111990  0.691742  1
  Br  Br27  1  0.000000  0.886699  0.808286  1
  Br  Br28  1  0.000000  0.138063  0.500000  1
  Br  Br29  1  0.500000  0.865079  0.000000  1
  Br  Br30  1  0.500000  0.111990  0.308258  1
  Br  Br31  1  0.000000  0.886699  0.191714  1
