# generated using pymatgen
data_MgZn(WO3)4
_symmetry_space_group_name_H-M   'P 1'
_cell_length_a   6.61723808
_cell_length_b   6.65204043
_cell_length_c   10.72097266
_cell_angle_alpha   71.92993886
_cell_angle_beta   72.02043902
_cell_angle_gamma   89.99606887
_symmetry_Int_Tables_number   1
_chemical_formula_structural   MgZn(WO3)4
_chemical_formula_sum   'Mg2 Zn2 W8 O24'
_cell_volume   424.33723974
_cell_formula_units_Z   2
loop_
 _symmetry_equiv_pos_site_id
 _symmetry_equiv_pos_as_xyz
  1  'x, y, z'
loop_
 _atom_site_type_symbol
 _atom_site_label
 _atom_site_symmetry_multiplicity
 _atom_site_fract_x
 _atom_site_fract_y
 _atom_site_fract_z
 _atom_site_occupancy
  Mg  Mg0  1  0.500005  0.500005  0.999990  1
  Mg  Mg1  1  0.000003  0.000004  0.999991  1
  Zn  Zn2  1  0.250017  0.749987  0.499998  1
  Zn  Zn3  1  0.749975  0.250015  0.500023  1
  W  W4  1  0.418325  0.918362  0.163251  1
  W  W5  1  0.918315  0.418352  0.163262  1
  W  W6  1  0.081675  0.581646  0.836751  1
  W  W7  1  0.581664  0.081633  0.836759  1
  W  W8  1  0.167819  0.167776  0.664427  1
  W  W9  1  0.667824  0.667777  0.664460  1
  W  W10  1  0.332184  0.332229  0.335531  1
  W  W11  1  0.832187  0.832229  0.335565  1
  O  O12  1  0.558731  0.749989  0.500023  1
  O  O13  1  0.058719  0.250024  0.500001  1
  O  O14  1  0.941284  0.749976  0.500000  1
  O  O15  1  0.441271  0.250003  0.499976  1
  O  O16  1  0.499975  0.191080  0.000010  1
  O  O17  1  0.999987  0.691050  0.000022  1
  O  O18  1  0.500024  0.808915  0.999999  1
  O  O19  1  0.000002  0.308942  0.999994  1
  O  O20  1  0.707251  0.913569  0.173025  1
  O  O21  1  0.207274  0.413552  0.172987  1
  O  O22  1  0.119683  0.913480  0.172991  1
  O  O23  1  0.619681  0.413462  0.172972  1
  O  O24  1  0.792735  0.586449  0.827010  1
  O  O25  1  0.292757  0.086434  0.826973  1
  O  O26  1  0.380313  0.586535  0.827025  1
  O  O27  1  0.880311  0.086515  0.827005  1
  O  O28  1  0.162034  0.870163  0.675924  1
  O  O29  1  0.662031  0.370165  0.675941  1
  O  O30  1  0.162110  0.453854  0.675940  1
  O  O31  1  0.662130  0.953873  0.675926  1
  O  O32  1  0.337973  0.629842  0.324049  1
  O  O33  1  0.837973  0.129841  0.324075  1
  O  O34  1  0.337866  0.046127  0.324066  1
  O  O35  1  0.837894  0.546144  0.324058  1
