# generated using pymatgen
data_Th2HgPtAu
_symmetry_space_group_name_H-M   'P 1'
_cell_length_a   8.04022000
_cell_length_b   8.04021969
_cell_length_c   3.85258500
_cell_angle_alpha   90.00000000
_cell_angle_beta   90.00000000
_cell_angle_gamma   90.53742618
_symmetry_Int_Tables_number   1
_chemical_formula_structural   Th2HgPtAu
_chemical_formula_sum   'Th4 Hg2 Pt2 Au2'
_cell_volume   249.03992225
_cell_formula_units_Z   2
loop_
 _symmetry_equiv_pos_site_id
 _symmetry_equiv_pos_as_xyz
  1  'x, y, z'
loop_
 _atom_site_type_symbol
 _atom_site_label
 _atom_site_symmetry_multiplicity
 _atom_site_fract_x
 _atom_site_fract_y
 _atom_site_fract_z
 _atom_site_occupancy
  Th  Th0  1  0.682206  0.182206  0.500000  1
  Th  Th1  1  0.317794  0.817794  0.500000  1
  Th  Th2  1  0.167005  0.332995  0.500000  1
  Th  Th3  1  0.832995  0.667005  0.500000  1
  Hg  Hg4  1  0.000000  0.000000  0.000000  1
  Hg  Hg5  1  0.500000  0.500000  0.000000  1
  Pt  Pt6  1  0.128067  0.628067  0.000000  1
  Pt  Pt7  1  0.871933  0.371933  0.000000  1
  Au  Au8  1  0.627010  0.872990  0.000000  1
  Au  Au9  1  0.372990  0.127010  0.000000  1
