# generated using pymatgen
data_Li4Er3Tm(B6Ir)4
_symmetry_space_group_name_H-M   'P 1'
_cell_length_a   3.50681500
_cell_length_b   8.80579300
_cell_length_c   11.18362402
_cell_angle_alpha   89.99461514
_cell_angle_beta   90.00000000
_cell_angle_gamma   90.00000000
_symmetry_Int_Tables_number   1
_chemical_formula_structural   Li4Er3Tm(B6Ir)4
_chemical_formula_sum   'Li4 Er3 Tm1 B24 Ir4'
_cell_volume   345.35351796
_cell_formula_units_Z   1
loop_
 _symmetry_equiv_pos_site_id
 _symmetry_equiv_pos_as_xyz
  1  'x, y, z'
loop_
 _atom_site_type_symbol
 _atom_site_label
 _atom_site_symmetry_multiplicity
 _atom_site_fract_x
 _atom_site_fract_y
 _atom_site_fract_z
 _atom_site_occupancy
  Li  Li0  1  0.500000  0.446140  0.122958  1
  Li  Li1  1  0.500000  0.554043  0.877138  1
  Li  Li2  1  0.500000  0.053944  0.623038  1
  Li  Li3  1  0.500000  0.946007  0.376983  1
  Er  Er4  1  0.500000  0.316857  0.414100  1
  Er  Er5  1  0.500000  0.683246  0.585809  1
  Er  Er6  1  0.500000  0.183137  0.914241  1
  Tm  Tm7  1  0.500000  0.816752  0.085740  1
  B  B8  1  0.000000  0.090844  0.475011  1
  B  B9  1  0.000000  0.909114  0.524990  1
  B  B10  1  0.000000  0.409209  0.975067  1
  B  B11  1  0.000000  0.591073  0.025035  1
  B  B12  1  0.000000  0.124150  0.318959  1
  B  B13  1  0.000000  0.875740  0.681122  1
  B  B14  1  0.000000  0.375803  0.819054  1
  B  B15  1  0.000000  0.624447  0.180758  1
  B  B16  1  0.000000  0.055301  0.067376  1
  B  B17  1  0.000000  0.944336  0.932902  1
  B  B18  1  0.000000  0.444545  0.567374  1
  B  B19  1  0.000000  0.555579  0.432468  1
  B  B20  1  0.000000  0.479015  0.285251  1
  B  B21  1  0.000000  0.521106  0.714624  1
  B  B22  1  0.000000  0.020999  0.785561  1
  B  B23  1  0.000000  0.978747  0.214417  1
  B  B24  1  0.000000  0.258481  0.081725  1
  B  B25  1  0.000000  0.741489  0.918605  1
  B  B26  1  0.000000  0.241455  0.581737  1
  B  B27  1  0.000000  0.758607  0.418130  1
  B  B28  1  0.000000  0.293368  0.235998  1
  B  B29  1  0.000000  0.706562  0.764125  1
  B  B30  1  0.000000  0.206540  0.736104  1
  B  B31  1  0.000000  0.793522  0.263645  1
  Ir  Ir32  1  0.500000  0.140178  0.181632  1
  Ir  Ir33  1  0.500000  0.859513  0.818564  1
  Ir  Ir34  1  0.500000  0.359557  0.681705  1
  Ir  Ir35  1  0.500000  0.640594  0.318055  1
