# generated using pymatgen
data_Tm15LuIn6FeCo
_symmetry_space_group_name_H-M   'P 1'
_cell_length_a   10.18648400
_cell_length_b   10.18647911
_cell_length_c   6.90611200
_cell_angle_alpha   90.00008359
_cell_angle_beta   89.99996653
_cell_angle_gamma   119.99997953
_symmetry_Int_Tables_number   1
_chemical_formula_structural   Tm15LuIn6FeCo
_chemical_formula_sum   'Tm15 Lu1 In6 Fe1 Co1'
_cell_volume   620.60139089
_cell_formula_units_Z   1
loop_
 _symmetry_equiv_pos_site_id
 _symmetry_equiv_pos_as_xyz
  1  'x, y, z'
loop_
 _atom_site_type_symbol
 _atom_site_label
 _atom_site_symmetry_multiplicity
 _atom_site_fract_x
 _atom_site_fract_y
 _atom_site_fract_z
 _atom_site_occupancy
  Tm  Tm0  1  0.534941  0.069881  0.522245  1
  Tm  Tm1  1  0.930120  0.465060  0.522246  1
  Tm  Tm2  1  0.534941  0.465059  0.522245  1
  Tm  Tm3  1  0.466041  0.932083  0.022522  1
  Tm  Tm4  1  0.067917  0.533958  0.022522  1
  Tm  Tm5  1  0.466040  0.533958  0.022523  1
  Tm  Tm6  1  0.179142  0.358285  0.727644  1
  Tm  Tm7  1  0.641714  0.820857  0.727643  1
  Tm  Tm8  1  0.179143  0.820857  0.727643  1
  Tm  Tm9  1  0.820872  0.641744  0.228181  1
  Tm  Tm10  1  0.358257  0.179129  0.228181  1
  Tm  Tm11  1  0.820872  0.179128  0.228181  1
  Tm  Tm12  1  0.666667  0.333333  0.910088  1
  Tm  Tm13  1  0.333333  0.666667  0.410644  1
  Tm  Tm14  1  0.000000  0.000000  0.508599  1
  Lu  Lu15  1  0.000001  0.000002  0.008182  1
  In  In16  1  0.837574  0.675148  0.770247  1
  In  In17  1  0.324852  0.162426  0.770247  1
  In  In18  1  0.837574  0.162426  0.770248  1
  In  In19  1  0.162940  0.325881  0.269034  1
  In  In20  1  0.674119  0.837059  0.269034  1
  In  In21  1  0.162940  0.837060  0.269034  1
  Fe  Fe22  1  0.666666  0.333333  0.299673  1
  Co  Co23  1  0.333333  0.666667  0.798875  1
