# generated using pymatgen
data_Tb4ReRu6W
_symmetry_space_group_name_H-M   'P 1'
_cell_length_a   5.15515141
_cell_length_b   5.15515146
_cell_length_c   9.12620900
_cell_angle_alpha   90.00000000
_cell_angle_beta   90.00000000
_cell_angle_gamma   114.54083987
_symmetry_Int_Tables_number   1
_chemical_formula_structural   Tb4ReRu6W
_chemical_formula_sum   'Tb4 Re1 Ru6 W1'
_cell_volume   220.62512302
_cell_formula_units_Z   1
loop_
 _symmetry_equiv_pos_site_id
 _symmetry_equiv_pos_as_xyz
  1  'x, y, z'
loop_
 _atom_site_type_symbol
 _atom_site_label
 _atom_site_symmetry_multiplicity
 _atom_site_fract_x
 _atom_site_fract_y
 _atom_site_fract_z
 _atom_site_occupancy
  Tb  Tb0  1  0.330382  0.669618  0.435341  1
  Tb  Tb1  1  0.667125  0.332875  0.567459  1
  Tb  Tb2  1  0.667125  0.332875  0.932541  1
  Tb  Tb3  1  0.330382  0.669618  0.064659  1
  Re  Re4  1  0.163165  0.836835  0.750000  1
  Ru  Ru5  1  0.999379  0.000621  0.500546  1
  Ru  Ru6  1  0.999379  0.000621  0.999454  1
  Ru  Ru7  1  0.835350  0.650431  0.250000  1
  Ru  Ru8  1  0.349569  0.164650  0.250000  1
  Ru  Ru9  1  0.163955  0.345865  0.750000  1
  Ru  Ru10  1  0.654135  0.836045  0.750000  1
  W  W11  1  0.840050  0.159950  0.250000  1
