# generated using pymatgen
data_Pr3Mg3AlTlHg
_symmetry_space_group_name_H-M   'P 1'
_cell_length_a   7.67766200
_cell_length_b   7.67766171
_cell_length_c   4.72624500
_cell_angle_alpha   90.00000000
_cell_angle_beta   90.00000000
_cell_angle_gamma   120.00000125
_symmetry_Int_Tables_number   1
_chemical_formula_structural   Pr3Mg3AlTlHg
_chemical_formula_sum   'Pr3 Mg3 Al1 Tl1 Hg1'
_cell_volume   241.27083021
_cell_formula_units_Z   1
loop_
 _symmetry_equiv_pos_site_id
 _symmetry_equiv_pos_as_xyz
  1  'x, y, z'
loop_
 _atom_site_type_symbol
 _atom_site_label
 _atom_site_symmetry_multiplicity
 _atom_site_fract_x
 _atom_site_fract_y
 _atom_site_fract_z
 _atom_site_occupancy
  Pr  Pr0  1  0.584465  0.008241  0.000000  1
  Pr  Pr1  1  0.991759  0.576223  0.000000  1
  Pr  Pr2  1  0.423777  0.415535  0.000000  1
  Mg  Mg3  1  0.242481  0.005043  0.500000  1
  Mg  Mg4  1  0.994957  0.237438  0.500000  1
  Mg  Mg5  1  0.762562  0.757519  0.500000  1
  Al  Al6  1  0.666667  0.333333  0.500000  1
  Tl  Tl7  1  0.333333  0.666667  0.500000  1
  Hg  Hg8  1  0.000000  0.000000  0.000000  1
