# generated using pymatgen
data_La2Nd2Al5Br2
_symmetry_space_group_name_H-M   'P 1'
_cell_length_a   11.78485800
_cell_length_b   11.78485829
_cell_length_c   4.33030700
_cell_angle_alpha   90.00000000
_cell_angle_beta   90.00000000
_cell_angle_gamma   93.55973294
_symmetry_Int_Tables_number   1
_chemical_formula_structural   La2Nd2Al5Br2
_chemical_formula_sum   'La4 Nd4 Al10 Br4'
_cell_volume   600.24516876
_cell_formula_units_Z   2
loop_
 _symmetry_equiv_pos_site_id
 _symmetry_equiv_pos_as_xyz
  1  'x, y, z'
loop_
 _atom_site_type_symbol
 _atom_site_label
 _atom_site_symmetry_multiplicity
 _atom_site_fract_x
 _atom_site_fract_y
 _atom_site_fract_z
 _atom_site_occupancy
  La  La0  1  0.039243  0.676845  0.500000  1
  La  La1  1  0.960757  0.323155  0.500000  1
  La  La2  1  0.676845  0.039243  0.500000  1
  La  La3  1  0.323155  0.960757  0.500000  1
  Nd  Nd4  1  0.731215  0.731215  0.000000  1
  Nd  Nd5  1  0.366931  0.633069  0.000000  1
  Nd  Nd6  1  0.268785  0.268785  0.000000  1
  Nd  Nd7  1  0.633069  0.366931  0.000000  1
  Al  Al8  1  0.579068  0.579068  0.500000  1
  Al  Al9  1  0.420932  0.420932  0.500000  1
  Al  Al10  1  0.217734  0.482226  0.500000  1
  Al  Al11  1  0.782266  0.517774  0.500000  1
  Al  Al12  1  0.529415  0.896948  0.000000  1
  Al  Al13  1  0.517774  0.782266  0.500000  1
  Al  Al14  1  0.470585  0.103052  0.000000  1
  Al  Al15  1  0.103052  0.470585  0.000000  1
  Al  Al16  1  0.482226  0.217734  0.500000  1
  Al  Al17  1  0.896948  0.529415  0.000000  1
  Br  Br18  1  0.873667  0.873667  0.500000  1
  Br  Br19  1  0.174795  0.825205  0.000000  1
  Br  Br20  1  0.126333  0.126333  0.500000  1
  Br  Br21  1  0.825205  0.174795  0.000000  1
