# generated using pymatgen
data_Hf18BeRe4W4Se
_symmetry_space_group_name_H-M   'P 1'
_cell_length_a   8.64431159
_cell_length_b   8.67273490
_cell_length_c   8.58934900
_cell_angle_alpha   90.00000000
_cell_angle_beta   90.00000000
_cell_angle_gamma   120.10882421
_symmetry_Int_Tables_number   1
_chemical_formula_structural   Hf18BeRe4W4Se
_chemical_formula_sum   'Hf18 Be1 Re4 W4 Se1'
_cell_volume   557.05756869
_cell_formula_units_Z   1
loop_
 _symmetry_equiv_pos_site_id
 _symmetry_equiv_pos_as_xyz
  1  'x, y, z'
loop_
 _atom_site_type_symbol
 _atom_site_label
 _atom_site_symmetry_multiplicity
 _atom_site_fract_x
 _atom_site_fract_y
 _atom_site_fract_z
 _atom_site_occupancy
  Hf  Hf0  1  0.198655  0.801713  0.444124  1
  Hf  Hf1  1  0.198655  0.396943  0.444124  1
  Hf  Hf2  1  0.603698  0.801849  0.444161  1
  Hf  Hf3  1  0.806406  0.192975  0.546323  1
  Hf  Hf4  1  0.806406  0.613432  0.546323  1
  Hf  Hf5  1  0.386568  0.193284  0.546301  1
  Hf  Hf6  1  0.806406  0.192975  0.953677  1
  Hf  Hf7  1  0.806406  0.613432  0.953677  1
  Hf  Hf8  1  0.386568  0.193284  0.953699  1
  Hf  Hf9  1  0.198655  0.801713  0.055876  1
  Hf  Hf10  1  0.198655  0.396943  0.055876  1
  Hf  Hf11  1  0.603698  0.801849  0.055839  1
  Hf  Hf12  1  0.540626  0.459815  0.250000  1
  Hf  Hf13  1  0.540626  0.080810  0.250000  1
  Hf  Hf14  1  0.919025  0.459512  0.250000  1
  Hf  Hf15  1  0.456827  0.545010  0.750000  1
  Hf  Hf16  1  0.456827  0.911817  0.750000  1
  Hf  Hf17  1  0.086967  0.543483  0.750000  1
  Be  Be18  1  0.333699  0.666850  0.250000  1
  Re  Re19  1  0.889179  0.110487  0.250000  1
  Re  Re20  1  0.889179  0.778691  0.250000  1
  Re  Re21  1  0.221874  0.110936  0.250000  1
  Re  Re22  1  0.777340  0.888670  0.750000  1
  W  W23  1  0.110517  0.888997  0.750000  1
  W  W24  1  0.110517  0.221520  0.750000  1
  W  W25  1  0.999160  0.999580  0.498160  1
  W  W26  1  0.999160  0.999580  0.001840  1
  Se  Se27  1  0.667696  0.333848  0.750000  1
