# generated using pymatgen
data_Zr12Zn8Cu3AuC4
_symmetry_space_group_name_H-M   'P 1'
_cell_length_a   8.65076838
_cell_length_b   8.64961151
_cell_length_c   8.64976247
_cell_angle_alpha   60.00112023
_cell_angle_beta   60.00503272
_cell_angle_gamma   60.00516013
_symmetry_Int_Tables_number   1
_chemical_formula_structural   Zr12Zn8Cu3AuC4
_chemical_formula_sum   'Zr12 Zn8 Cu3 Au1 C4'
_cell_volume   457.69650614
_cell_formula_units_Z   1
loop_
 _symmetry_equiv_pos_site_id
 _symmetry_equiv_pos_as_xyz
  1  'x, y, z'
loop_
 _atom_site_type_symbol
 _atom_site_label
 _atom_site_symmetry_multiplicity
 _atom_site_fract_x
 _atom_site_fract_y
 _atom_site_fract_z
 _atom_site_occupancy
  Zr  Zr0  1  0.439109  0.439116  0.060661  1
  Zr  Zr1  1  0.060637  0.439470  0.060656  1
  Zr  Zr2  1  0.439450  0.060668  0.060655  1
  Zr  Zr3  1  0.060640  0.060668  0.439463  1
  Zr  Zr4  1  0.439123  0.060650  0.439136  1
  Zr  Zr5  1  0.060669  0.439095  0.439099  1
  Zr  Zr6  1  0.810892  0.810883  0.189339  1
  Zr  Zr7  1  0.189363  0.810531  0.189344  1
  Zr  Zr8  1  0.810550  0.189332  0.189344  1
  Zr  Zr9  1  0.189360  0.189332  0.810537  1
  Zr  Zr10  1  0.810876  0.189349  0.810866  1
  Zr  Zr11  1  0.189331  0.810905  0.810901  1
  Zn  Zn12  1  0.834807  0.834786  0.508372  1
  Zn  Zn13  1  0.834794  0.508374  0.834791  1
  Zn  Zn14  1  0.508383  0.834792  0.834807  1
  Zn  Zn15  1  0.829920  0.829956  0.829945  1
  Zn  Zn16  1  0.415193  0.415214  0.741627  1
  Zn  Zn17  1  0.415206  0.741626  0.415210  1
  Zn  Zn18  1  0.741617  0.415208  0.415193  1
  Zn  Zn19  1  0.420080  0.420044  0.420055  1
  Cu  Cu20  1  0.625000  0.625000  0.125000  1
  Cu  Cu21  1  0.625001  0.125000  0.625000  1
  Cu  Cu22  1  0.125000  0.625000  0.625000  1
  Au  Au23  1  0.625000  0.625001  0.625000  1
  C  C24  1  0.125000  0.125000  0.625001  1
  C  C25  1  0.125001  0.625000  0.125000  1
  C  C26  1  0.625001  0.125000  0.124999  1
  C  C27  1  0.125000  0.125000  0.125000  1
