# generated using pymatgen
data_Ho3Sn3HgRu2
_symmetry_space_group_name_H-M   'P 1'
_cell_length_a   7.70668400
_cell_length_b   7.70668389
_cell_length_c   3.89584400
_cell_angle_alpha   90.00000000
_cell_angle_beta   90.00000000
_cell_angle_gamma   120.00000046
_symmetry_Int_Tables_number   1
_chemical_formula_structural   Ho3Sn3HgRu2
_chemical_formula_sum   'Ho3 Sn3 Hg1 Ru2'
_cell_volume   200.38595818
_cell_formula_units_Z   1
loop_
 _symmetry_equiv_pos_site_id
 _symmetry_equiv_pos_as_xyz
  1  'x, y, z'
loop_
 _atom_site_type_symbol
 _atom_site_label
 _atom_site_symmetry_multiplicity
 _atom_site_fract_x
 _atom_site_fract_y
 _atom_site_fract_z
 _atom_site_occupancy
  Ho  Ho0  1  0.973003  0.387933  0.500000  1
  Ho  Ho1  1  0.612067  0.585070  0.500000  1
  Ho  Ho2  1  0.414930  0.026997  0.500000  1
  Sn  Sn3  1  0.989045  0.739061  0.000000  1
  Sn  Sn4  1  0.260939  0.249984  0.000000  1
  Sn  Sn5  1  0.750016  0.010955  0.000000  1
  Hg  Hg6  1  0.333333  0.666667  0.000000  1
  Ru  Ru7  1  0.666667  0.333333  0.000000  1
  Ru  Ru8  1  0.000000  0.000000  0.500000  1
