# generated using pymatgen
data_Lu4Mg3Sc(B6Ir)4
_symmetry_space_group_name_H-M   'P 1'
_cell_length_a   3.52391900
_cell_length_b   8.89374439
_cell_length_c   11.26796401
_cell_angle_alpha   90.05874179
_cell_angle_beta   90.00000000
_cell_angle_gamma   90.00000000
_symmetry_Int_Tables_number   1
_chemical_formula_structural   Lu4Mg3Sc(B6Ir)4
_chemical_formula_sum   'Lu4 Mg3 Sc1 B24 Ir4'
_cell_volume   353.14721330
_cell_formula_units_Z   1
loop_
 _symmetry_equiv_pos_site_id
 _symmetry_equiv_pos_as_xyz
  1  'x, y, z'
loop_
 _atom_site_type_symbol
 _atom_site_label
 _atom_site_symmetry_multiplicity
 _atom_site_fract_x
 _atom_site_fract_y
 _atom_site_fract_z
 _atom_site_occupancy
  Lu  Lu0  1  0.500000  0.317917  0.415099  1
  Lu  Lu1  1  0.500000  0.681317  0.586306  1
  Lu  Lu2  1  0.500000  0.182329  0.914018  1
  Lu  Lu3  1  0.500000  0.817912  0.084645  1
  Mg  Mg4  1  0.500000  0.448202  0.117808  1
  Mg  Mg5  1  0.500000  0.552214  0.881567  1
  Mg  Mg6  1  0.500000  0.053380  0.620655  1
  Sc  Sc7  1  0.500000  0.945953  0.378075  1
  B  B8  1  0.000000  0.102526  0.472622  1
  B  B9  1  0.000000  0.897952  0.527918  1
  B  B10  1  0.000000  0.398663  0.972425  1
  B  B11  1  0.000000  0.601327  0.027360  1
  B  B12  1  0.000000  0.130410  0.319503  1
  B  B13  1  0.000000  0.870662  0.681769  1
  B  B14  1  0.000000  0.371359  0.819419  1
  B  B15  1  0.000000  0.628750  0.179887  1
  B  B16  1  0.000000  0.055804  0.065097  1
  B  B17  1  0.000000  0.944716  0.934136  1
  B  B18  1  0.000000  0.445071  0.566152  1
  B  B19  1  0.000000  0.554607  0.434943  1
  B  B20  1  0.000000  0.480456  0.284827  1
  B  B21  1  0.000000  0.519065  0.715055  1
  B  B22  1  0.000000  0.019569  0.785245  1
  B  B23  1  0.000000  0.980972  0.214661  1
  B  B24  1  0.000000  0.254958  0.078066  1
  B  B25  1  0.000000  0.745120  0.920957  1
  B  B26  1  0.000000  0.246162  0.579650  1
  B  B27  1  0.000000  0.753577  0.422068  1
  B  B28  1  0.000000  0.295393  0.235248  1
  B  B29  1  0.000000  0.705165  0.765025  1
  B  B30  1  0.000000  0.205771  0.735529  1
  B  B31  1  0.000000  0.793657  0.264485  1
  Ir  Ir32  1  0.500000  0.141275  0.181369  1
  Ir  Ir33  1  0.500000  0.860164  0.817980  1
  Ir  Ir34  1  0.500000  0.359746  0.680711  1
  Ir  Ir35  1  0.500000  0.637880  0.319716  1
