# generated using pymatgen
data_LiPr4ZnSi6
_symmetry_space_group_name_H-M   'P 1'
_cell_length_a   8.33619411
_cell_length_b   8.25830488
_cell_length_c   5.95283308
_cell_angle_alpha   69.67965005
_cell_angle_beta   68.28003085
_cell_angle_gamma   42.04033843
_symmetry_Int_Tables_number   1
_chemical_formula_structural   LiPr4ZnSi6
_chemical_formula_sum   'Li1 Pr4 Zn1 Si6'
_cell_volume   253.21343851
_cell_formula_units_Z   1
loop_
 _symmetry_equiv_pos_site_id
 _symmetry_equiv_pos_as_xyz
  1  'x, y, z'
loop_
 _atom_site_type_symbol
 _atom_site_label
 _atom_site_symmetry_multiplicity
 _atom_site_fract_x
 _atom_site_fract_y
 _atom_site_fract_z
 _atom_site_occupancy
  Li  Li0  1  0.334215  0.334215  0.665785  1
  Pr  Pr1  1  0.244092  0.756596  0.243404  1
  Pr  Pr2  1  0.756596  0.244092  0.755908  1
  Pr  Pr3  1  0.750013  0.750013  0.749987  1
  Pr  Pr4  1  0.250013  0.250013  0.249987  1
  Zn  Zn5  1  0.666001  0.666001  0.333999  1
  Si  Si6  1  0.662880  0.169846  0.337120  1
  Si  Si7  1  0.832472  0.331755  0.167528  1
  Si  Si8  1  0.331755  0.832472  0.668245  1
  Si  Si9  1  0.169846  0.662880  0.830154  1
  Si  Si10  1  0.835038  0.835038  0.164962  1
  Si  Si11  1  0.167079  0.167079  0.832921  1
