# generated using pymatgen
data_La5Ce6In9Rh4
_symmetry_space_group_name_H-M   'P 1'
_cell_length_a   13.30646121
_cell_length_b   13.30645964
_cell_length_c   3.84700100
_cell_angle_alpha   90.00000000
_cell_angle_beta   90.00000000
_cell_angle_gamma   110.41456968
_symmetry_Int_Tables_number   1
_chemical_formula_structural   La5Ce6In9Rh4
_chemical_formula_sum   'La5 Ce6 In9 Rh4'
_cell_volume   638.37603873
_cell_formula_units_Z   1
loop_
 _symmetry_equiv_pos_site_id
 _symmetry_equiv_pos_as_xyz
  1  'x, y, z'
loop_
 _atom_site_type_symbol
 _atom_site_label
 _atom_site_symmetry_multiplicity
 _atom_site_fract_x
 _atom_site_fract_y
 _atom_site_fract_z
 _atom_site_occupancy
  La  La0  1  0.000000  0.000000  0.000000  1
  La  La1  1  0.841187  0.158813  0.000000  1
  La  La2  1  0.158813  0.841187  0.000000  1
  La  La3  1  0.628259  0.371741  0.000000  1
  La  La4  1  0.371741  0.628259  0.000000  1
  Ce  Ce5  1  0.313040  0.313040  0.000000  1
  Ce  Ce6  1  0.686960  0.686960  0.000000  1
  Ce  Ce7  1  0.075767  0.422493  0.000000  1
  Ce  Ce8  1  0.924233  0.577507  0.000000  1
  Ce  Ce9  1  0.422493  0.075767  0.000000  1
  Ce  Ce10  1  0.577507  0.924233  0.000000  1
  In  In11  1  0.841453  0.367262  0.500000  1
  In  In12  1  0.158547  0.632738  0.500000  1
  In  In13  1  0.367262  0.841453  0.500000  1
  In  In14  1  0.632738  0.158547  0.500000  1
  In  In15  1  0.080231  0.222049  0.500000  1
  In  In16  1  0.919769  0.777951  0.500000  1
  In  In17  1  0.222049  0.080231  0.500000  1
  In  In18  1  0.777951  0.919769  0.500000  1
  In  In19  1  0.500000  0.500000  0.500000  1
  Rh  Rh20  1  0.234171  0.434167  0.500000  1
  Rh  Rh21  1  0.765829  0.565833  0.500000  1
  Rh  Rh22  1  0.434167  0.234171  0.500000  1
  Rh  Rh23  1  0.565833  0.765829  0.500000  1
