# generated using pymatgen
data_BeNb4Fe(CoP)3
_symmetry_space_group_name_H-M   'P 1'
_cell_length_a   3.57212700
_cell_length_b   6.12607781
_cell_length_c   6.97901435
_cell_angle_alpha   90.03327702
_cell_angle_beta   90.00000000
_cell_angle_gamma   90.00000000
_symmetry_Int_Tables_number   1
_chemical_formula_structural   BeNb4Fe(CoP)3
_chemical_formula_sum   'Be1 Nb4 Fe1 Co3 P3'
_cell_volume   152.72263832
_cell_formula_units_Z   1
loop_
 _symmetry_equiv_pos_site_id
 _symmetry_equiv_pos_as_xyz
  1  'x, y, z'
loop_
 _atom_site_type_symbol
 _atom_site_label
 _atom_site_symmetry_multiplicity
 _atom_site_fract_x
 _atom_site_fract_y
 _atom_site_fract_z
 _atom_site_occupancy
  Be  Be0  1  0.250000  0.776004  0.380987  1
  Nb  Nb1  1  0.250000  0.022673  0.820683  1
  Nb  Nb2  1  0.250000  0.527476  0.671155  1
  Nb  Nb3  1  0.750000  0.974742  0.185367  1
  Nb  Nb4  1  0.750000  0.486272  0.325854  1
  Fe  Fe5  1  0.250000  0.140974  0.437922  1
  Co  Co6  1  0.250000  0.636784  0.058282  1
  Co  Co7  1  0.750000  0.857707  0.561760  1
  Co  Co8  1  0.750000  0.357021  0.938093  1
  P  P9  1  0.250000  0.273060  0.124649  1
  P  P10  1  0.750000  0.222016  0.614475  1
  P  P11  1  0.750000  0.725272  0.880773  1
