# generated using pymatgen
data_Y2TmPa(Ga3Rh)6
_symmetry_space_group_name_H-M   'P 1'
_cell_length_a   7.60053413
_cell_length_b   7.59438086
_cell_length_c   9.47345000
_cell_angle_alpha   90.00000000
_cell_angle_beta   90.00000000
_cell_angle_gamma   119.83424220
_symmetry_Int_Tables_number   1
_chemical_formula_structural   Y2TmPa(Ga3Rh)6
_chemical_formula_sum   'Y2 Tm1 Pa1 Ga18 Rh6'
_cell_volume   474.34929692
_cell_formula_units_Z   1
loop_
 _symmetry_equiv_pos_site_id
 _symmetry_equiv_pos_as_xyz
  1  'x, y, z'
loop_
 _atom_site_type_symbol
 _atom_site_label
 _atom_site_symmetry_multiplicity
 _atom_site_fract_x
 _atom_site_fract_y
 _atom_site_fract_z
 _atom_site_occupancy
  Y  Y0  1  0.003771  0.331514  0.750000  1
  Y  Y1  1  0.331083  0.002891  0.750000  1
  Tm  Tm2  1  0.669691  0.997002  0.250000  1
  Pa  Pa3  1  0.997544  0.668627  0.250000  1
  Ga  Ga4  1  0.127785  0.127524  0.250000  1
  Ga  Ga5  1  0.874796  0.875448  0.750000  1
  Ga  Ga6  1  0.998393  0.330619  0.079609  1
  Ga  Ga7  1  0.000362  0.665618  0.917845  1
  Ga  Ga8  1  0.000362  0.665618  0.582155  1
  Ga  Ga9  1  0.338074  0.002278  0.420275  1
  Ga  Ga10  1  0.998393  0.330619  0.420391  1
  Ga  Ga11  1  0.665752  0.000948  0.580077  1
  Ga  Ga12  1  0.665752  0.000948  0.919923  1
  Ga  Ga13  1  0.338074  0.002278  0.079725  1
  Ga  Ga14  1  0.332359  0.332386  0.567151  1
  Ga  Ga15  1  0.664454  0.668011  0.434773  1
  Ga  Ga16  1  0.664454  0.668011  0.065227  1
  Ga  Ga17  1  0.332359  0.332386  0.932849  1
  Ga  Ga18  1  0.338344  0.545586  0.250000  1
  Ga  Ga19  1  0.661420  0.451948  0.750000  1
  Ga  Ga20  1  0.545147  0.338842  0.250000  1
  Ga  Ga21  1  0.452795  0.661858  0.750000  1
  Rh  Rh22  1  0.672864  0.330526  0.001860  1
  Rh  Rh23  1  0.327080  0.671362  0.002049  1
  Rh  Rh24  1  0.327080  0.671362  0.497951  1
  Rh  Rh25  1  0.672864  0.330526  0.498140  1
  Rh  Rh26  1  0.999474  0.997633  0.002113  1
  Rh  Rh27  1  0.999474  0.997633  0.497887  1
