# generated using pymatgen
data_TcPt3Rh5
_symmetry_space_group_name_H-M   'P 1'
_cell_length_a   6.15898485
_cell_length_b   6.15898469
_cell_length_c   6.15898515
_cell_angle_alpha   95.60897758
_cell_angle_beta   95.80028112
_cell_angle_gamma   143.24483961
_symmetry_Int_Tables_number   1
_chemical_formula_structural   TcPt3Rh5
_chemical_formula_sum   'Tc1 Pt3 Rh5'
_cell_volume   132.67279876
_cell_formula_units_Z   1
loop_
 _symmetry_equiv_pos_site_id
 _symmetry_equiv_pos_as_xyz
  1  'x, y, z'
loop_
 _atom_site_type_symbol
 _atom_site_label
 _atom_site_symmetry_multiplicity
 _atom_site_fract_x
 _atom_site_fract_y
 _atom_site_fract_z
 _atom_site_occupancy
  Tc  Tc0  1  0.000000  0.004523  0.004523  1
  Pt  Pt1  1  0.000000  0.671982  0.671982  1
  Pt  Pt2  1  0.671776  0.998680  0.670455  1
  Pt  Pt3  1  0.328224  0.998680  0.326904  1
  Rh  Rh4  1  0.337855  0.339044  0.676898  1
  Rh  Rh5  1  0.659556  0.662154  0.321708  1
  Rh  Rh6  1  0.662145  0.339044  0.001189  1
  Rh  Rh7  1  0.340444  0.662154  0.002598  1
  Rh  Rh8  1  0.000000  0.323742  0.323742  1
