# generated using pymatgen
data_Y3HoCo5Si10Os
_symmetry_space_group_name_H-M   'P 1'
_cell_length_a   7.89266546
_cell_length_b   7.89052294
_cell_length_c   8.00741188
_cell_angle_alpha   139.21141603
_cell_angle_beta   106.71651904
_cell_angle_gamma   86.54227858
_symmetry_Int_Tables_number   1
_chemical_formula_structural   Y3HoCo5Si10Os
_chemical_formula_sum   'Y3 Ho1 Co5 Si10 Os1'
_cell_volume   301.96200949
_cell_formula_units_Z   1
loop_
 _symmetry_equiv_pos_site_id
 _symmetry_equiv_pos_as_xyz
  1  'x, y, z'
loop_
 _atom_site_type_symbol
 _atom_site_label
 _atom_site_symmetry_multiplicity
 _atom_site_fract_x
 _atom_site_fract_y
 _atom_site_fract_z
 _atom_site_occupancy
  Y  Y0  1  0.129937  0.354663  0.754836  1
  Y  Y1  1  0.599709  0.875032  0.745454  1
  Y  Y2  1  0.401639  0.137596  0.268891  1
  Ho  Ho3  1  0.869007  0.632342  0.230321  1
  Co  Co4  1  0.738775  0.158709  0.620873  1
  Co  Co5  1  0.538400  0.617862  0.879975  1
  Co  Co6  1  0.459592  0.392512  0.127430  1
  Co  Co7  1  0.993744  0.744135  0.750101  1
  Co  Co8  1  0.264713  0.832186  0.372390  1
  Si  Si9  1  0.065442  0.889124  0.157962  1
  Si  Si10  1  0.935689  0.087102  0.821800  1
  Si  Si11  1  0.265087  0.613449  0.677487  1
  Si  Si12  1  0.731114  0.408801  0.342239  1
  Si  Si13  1  0.232796  0.982892  0.749484  1
  Si  Si14  1  0.782459  0.532109  0.750010  1
  Si  Si15  1  0.770569  0.019932  0.250206  1
  Si  Si16  1  0.490657  0.240111  0.750137  1
  Si  Si17  1  0.512153  0.761601  0.250739  1
  Si  Si18  1  0.216801  0.467593  0.250058  1
  Os  Os19  1  0.001717  0.252248  0.249606  1
