# generated using pymatgen
data_Nb12Ge3Pt5N4
_symmetry_space_group_name_H-M   'P 1'
_cell_length_a   7.06309097
_cell_length_b   7.06309107
_cell_length_c   7.06309035
_cell_angle_alpha   90.19967856
_cell_angle_beta   89.80032549
_cell_angle_gamma   89.80032082
_symmetry_Int_Tables_number   1
_chemical_formula_structural   Nb12Ge3Pt5N4
_chemical_formula_sum   'Nb12 Ge3 Pt5 N4'
_cell_volume   352.35175334
_cell_formula_units_Z   1
loop_
 _symmetry_equiv_pos_site_id
 _symmetry_equiv_pos_as_xyz
  1  'x, y, z'
loop_
 _atom_site_type_symbol
 _atom_site_label
 _atom_site_symmetry_multiplicity
 _atom_site_fract_x
 _atom_site_fract_y
 _atom_site_fract_z
 _atom_site_occupancy
  Nb  Nb0  1  0.788798  0.954971  0.378690  1
  Nb  Nb1  1  0.710610  0.050364  0.883540  1
  Nb  Nb2  1  0.212929  0.452208  0.121929  1
  Nb  Nb3  1  0.296056  0.542599  0.627927  1
  Nb  Nb4  1  0.949636  0.383540  0.789390  1
  Nb  Nb5  1  0.045029  0.878690  0.711202  1
  Nb  Nb6  1  0.457401  0.127927  0.203944  1
  Nb  Nb7  1  0.547792  0.621929  0.287071  1
  Nb  Nb8  1  0.378071  0.787071  0.952208  1
  Nb  Nb9  1  0.872073  0.703944  0.042599  1
  Nb  Nb10  1  0.121310  0.211202  0.454971  1
  Nb  Nb11  1  0.616460  0.289390  0.550364  1
  Ge  Ge12  1  0.428913  0.928456  0.565767  1
  Ge  Ge13  1  0.934233  0.571087  0.428456  1
  Ge  Ge14  1  0.071544  0.065767  0.071087  1
  Pt  Pt15  1  0.179658  0.820342  0.320342  1
  Pt  Pt16  1  0.312044  0.171912  0.815124  1
  Pt  Pt17  1  0.828088  0.315124  0.187956  1
  Pt  Pt18  1  0.684876  0.687956  0.671912  1
  Pt  Pt19  1  0.566889  0.433111  0.933111  1
  N  N20  1  0.872106  0.127894  0.627894  1
  N  N21  1  0.623383  0.874202  0.123697  1
  N  N22  1  0.125798  0.623697  0.876617  1
  N  N23  1  0.376303  0.376617  0.374202  1
