# generated using pymatgen
data_Er6Tm4(IrPt)3
_symmetry_space_group_name_H-M   'P 1'
_cell_length_a   10.91989579
_cell_length_b   10.91294600
_cell_length_c   6.28669237
_cell_angle_alpha   90.00000000
_cell_angle_beta   90.03392383
_cell_angle_gamma   90.00000000
_symmetry_Int_Tables_number   1
_chemical_formula_structural   Er6Tm4(IrPt)3
_chemical_formula_sum   'Er12 Tm8 Ir6 Pt6'
_cell_volume   749.17389116
_cell_formula_units_Z   2
loop_
 _symmetry_equiv_pos_site_id
 _symmetry_equiv_pos_as_xyz
  1  'x, y, z'
loop_
 _atom_site_type_symbol
 _atom_site_label
 _atom_site_symmetry_multiplicity
 _atom_site_fract_x
 _atom_site_fract_y
 _atom_site_fract_z
 _atom_site_occupancy
  Er  Er0  1  0.295082  0.090342  0.373556  1
  Er  Er1  1  0.295082  0.909658  0.873556  1
  Er  Er2  1  0.704589  0.087101  0.872527  1
  Er  Er3  1  0.704589  0.912899  0.372527  1
  Er  Er4  1  0.583448  0.791894  0.873094  1
  Er  Er5  1  0.583448  0.208106  0.373094  1
  Er  Er6  1  0.410945  0.793010  0.378109  1
  Er  Er7  1  0.410945  0.206990  0.878109  1
  Er  Er8  1  0.209529  0.414486  0.623740  1
  Er  Er9  1  0.209529  0.585514  0.123740  1
  Er  Er10  1  0.795258  0.412660  0.125040  1
  Er  Er11  1  0.795258  0.587340  0.625040  1
  Tm  Tm12  1  0.914269  0.704470  0.126467  1
  Tm  Tm13  1  0.914269  0.295530  0.626467  1
  Tm  Tm14  1  0.091181  0.704377  0.626618  1
  Tm  Tm15  1  0.091181  0.295623  0.126618  1
  Tm  Tm16  1  0.999715  0.999685  0.499928  1
  Tm  Tm17  1  0.999715  0.000315  0.999928  1
  Tm  Tm18  1  0.497221  0.498927  0.000050  1
  Tm  Tm19  1  0.497221  0.501073  0.500050  1
  Ir  Ir20  1  0.346595  0.345800  0.250282  1
  Ir  Ir21  1  0.346595  0.654200  0.750282  1
  Ir  Ir22  1  0.499997  0.999816  0.121541  1
  Ir  Ir23  1  0.499997  0.000184  0.621541  1
  Ir  Ir24  1  0.999925  0.500203  0.878560  1
  Ir  Ir25  1  0.999925  0.499797  0.378560  1
  Pt  Pt26  1  0.845745  0.153331  0.251313  1
  Pt  Pt27  1  0.845745  0.846669  0.751313  1
  Pt  Pt28  1  0.152009  0.153772  0.749612  1
  Pt  Pt29  1  0.152009  0.846228  0.249612  1
  Pt  Pt30  1  0.654493  0.346725  0.749562  1
  Pt  Pt31  1  0.654493  0.653275  0.249562  1
