# generated using pymatgen
data_AsSe8Br3
_symmetry_space_group_name_H-M   'P 1'
_cell_length_a   9.25350661
_cell_length_b   9.86105495
_cell_length_c   11.77666550
_cell_angle_alpha   93.69708197
_cell_angle_beta   108.77930427
_cell_angle_gamma   108.53339068
_symmetry_Int_Tables_number   1
_chemical_formula_structural   AsSe8Br3
_chemical_formula_sum   'As2 Se16 Br6'
_cell_volume   947.84134985
_cell_formula_units_Z   2
loop_
 _symmetry_equiv_pos_site_id
 _symmetry_equiv_pos_as_xyz
  1  'x, y, z'
loop_
 _atom_site_type_symbol
 _atom_site_label
 _atom_site_symmetry_multiplicity
 _atom_site_fract_x
 _atom_site_fract_y
 _atom_site_fract_z
 _atom_site_occupancy
  As  As0  1  0.790224  0.047121  0.848811  1
  As  As1  1  0.209776  0.952879  0.151189  1
  Se  Se2  1  0.848646  0.514291  0.829105  1
  Se  Se3  1  0.151354  0.485709  0.170895  1
  Se  Se4  1  0.710679  0.429358  0.617476  1
  Se  Se5  1  0.289321  0.570642  0.382524  1
  Se  Se6  1  0.725979  0.197897  0.574921  1
  Se  Se7  1  0.274021  0.802103  0.425079  1
  Se  Se8  1  0.937389  0.227683  0.497007  1
  Se  Se9  1  0.062611  0.772317  0.502993  1
  Se  Se10  1  0.884090  0.324718  0.137683  1
  Se  Se11  1  0.115910  0.675282  0.862317  1
  Se  Se12  1  0.706691  0.456950  0.082671  1
  Se  Se13  1  0.293309  0.543050  0.917329  1
  Se  Se14  1  0.656147  0.527222  0.257183  1
  Se  Se15  1  0.343853  0.472778  0.742817  1
  Se  Se16  1  0.830020  0.771532  0.343110  1
  Se  Se17  1  0.169980  0.228468  0.656890  1
  Br  Br18  1  0.519142  0.047556  0.792538  1
  Br  Br19  1  0.480858  0.952444  0.207462  1
  Br  Br20  1  0.783023  0.905878  0.007160  1
  Br  Br21  1  0.216977  0.094122  0.992840  1
  Br  Br22  1  0.755581  0.862681  0.690514  1
  Br  Br23  1  0.244419  0.137319  0.309486  1
