# generated using pymatgen
data_Tb18ErMgPb16
_symmetry_space_group_name_H-M   'P 1'
_cell_length_a   8.23341900
_cell_length_b   8.31993027
_cell_length_c   15.71504000
_cell_angle_alpha   90.00000000
_cell_angle_beta   90.00000000
_cell_angle_gamma   90.01454444
_symmetry_Int_Tables_number   1
_chemical_formula_structural   Tb18ErMgPb16
_chemical_formula_sum   'Tb18 Er1 Mg1 Pb16'
_cell_volume   1076.50333703
_cell_formula_units_Z   1
loop_
 _symmetry_equiv_pos_site_id
 _symmetry_equiv_pos_as_xyz
  1  'x, y, z'
loop_
 _atom_site_type_symbol
 _atom_site_label
 _atom_site_symmetry_multiplicity
 _atom_site_fract_x
 _atom_site_fract_y
 _atom_site_fract_z
 _atom_site_occupancy
  Tb  Tb0  1  0.375464  0.838423  0.879707  1
  Tb  Tb1  1  0.883534  0.657375  0.620863  1
  Tb  Tb2  1  0.622766  0.157811  0.379589  1
  Tb  Tb3  1  0.123344  0.339854  0.120509  1
  Tb  Tb4  1  0.622766  0.157811  0.120411  1
  Tb  Tb5  1  0.123344  0.339854  0.379491  1
  Tb  Tb6  1  0.375464  0.838423  0.620293  1
  Tb  Tb7  1  0.883534  0.657375  0.879137  1
  Tb  Tb8  1  0.532089  0.325222  0.900922  1
  Tb  Tb9  1  0.035751  0.180711  0.598960  1
  Tb  Tb10  1  0.465106  0.676230  0.400277  1
  Tb  Tb11  1  0.965306  0.823495  0.100258  1
  Tb  Tb12  1  0.465106  0.676230  0.099723  1
  Tb  Tb13  1  0.965306  0.823495  0.399742  1
  Tb  Tb14  1  0.532089  0.325222  0.599078  1
  Tb  Tb15  1  0.035751  0.180711  0.901040  1
  Tb  Tb16  1  0.707068  0.995641  0.750000  1
  Tb  Tb17  1  0.790945  0.496305  0.250000  1
  Er  Er18  1  0.290552  0.004143  0.250000  1
  Mg  Mg19  1  0.208856  0.503775  0.750000  1
  Pb  Pb20  1  0.281269  0.032331  0.043368  1
  Pb  Pb21  1  0.781797  0.466219  0.457341  1
  Pb  Pb22  1  0.719038  0.966996  0.543805  1
  Pb  Pb23  1  0.218772  0.534540  0.957844  1
  Pb  Pb24  1  0.719038  0.966996  0.956195  1
  Pb  Pb25  1  0.218772  0.534540  0.542156  1
  Pb  Pb26  1  0.281269  0.032331  0.456632  1
  Pb  Pb27  1  0.781797  0.466219  0.042659  1
  Pb  Pb28  1  0.570199  0.621408  0.750000  1
  Pb  Pb29  1  0.074507  0.879771  0.750000  1
  Pb  Pb30  1  0.426918  0.374327  0.250000  1
  Pb  Pb31  1  0.928428  0.124995  0.250000  1
  Pb  Pb32  1  0.345097  0.153202  0.750000  1
  Pb  Pb33  1  0.841235  0.348157  0.750000  1
  Pb  Pb34  1  0.653167  0.847111  0.250000  1
  Pb  Pb35  1  0.154556  0.652753  0.250000  1
