# generated using pymatgen
data_Ho12Tl2Si3Os
_symmetry_space_group_name_H-M   'P 1'
_cell_length_a   8.50455940
_cell_length_b   8.50456019
_cell_length_c   8.50456100
_cell_angle_alpha   113.14482043
_cell_angle_beta   112.13687325
_cell_angle_gamma   103.30431895
_symmetry_Int_Tables_number   1
_chemical_formula_structural   Ho12Tl2Si3Os
_chemical_formula_sum   'Ho12 Tl2 Si3 Os1'
_cell_volume   469.42037179
_cell_formula_units_Z   1
loop_
 _symmetry_equiv_pos_site_id
 _symmetry_equiv_pos_as_xyz
  1  'x, y, z'
loop_
 _atom_site_type_symbol
 _atom_site_label
 _atom_site_symmetry_multiplicity
 _atom_site_fract_x
 _atom_site_fract_y
 _atom_site_fract_z
 _atom_site_occupancy
  Ho  Ho0  1  0.315837  0.622042  0.306204  1
  Ho  Ho1  1  0.677525  0.380073  0.702549  1
  Ho  Ho2  1  0.315837  0.009633  0.693796  1
  Ho  Ho3  1  0.677525  0.974977  0.297451  1
  Ho  Ho4  1  0.185767  0.290715  0.471237  1
  Ho  Ho5  1  0.819477  0.714529  0.528763  1
  Ho  Ho6  1  0.185767  0.714529  0.895052  1
  Ho  Ho7  1  0.819477  0.290715  0.104948  1
  Ho  Ho8  1  0.447506  0.242691  0.204817  1
  Ho  Ho9  1  0.547551  0.759134  0.788416  1
  Ho  Ho10  1  0.037874  0.242691  0.795183  1
  Ho  Ho11  1  0.970717  0.759134  0.211584  1
  Tl  Tl12  1  0.502620  0.502620  0.000000  1
  Tl  Tl13  1  0.993409  0.993409  0.000000  1
  Si  Si14  1  0.875300  0.375300  0.500000  1
  Si  Si15  1  0.362475  0.004590  0.357886  1
  Si  Si16  1  0.646705  0.004590  0.642114  1
  Os  Os17  1  0.118628  0.618628  0.500000  1
