# generated using pymatgen
data_Ti8OsRu7
_symmetry_space_group_name_H-M   'P 1'
_cell_length_a   4.36897800
_cell_length_b   12.33303500
_cell_length_c   4.36857200
_cell_angle_alpha   90.00000000
_cell_angle_beta   90.00000000
_cell_angle_gamma   89.99970708
_symmetry_Int_Tables_number   1
_chemical_formula_structural   Ti8OsRu7
_chemical_formula_sum   'Ti8 Os1 Ru7'
_cell_volume   235.39071045
_cell_formula_units_Z   1
loop_
 _symmetry_equiv_pos_site_id
 _symmetry_equiv_pos_as_xyz
  1  'x, y, z'
loop_
 _atom_site_type_symbol
 _atom_site_label
 _atom_site_symmetry_multiplicity
 _atom_site_fract_x
 _atom_site_fract_y
 _atom_site_fract_z
 _atom_site_occupancy
  Ti  Ti0  1  0.917179  0.000128  0.000000  1
  Ti  Ti1  1  0.916146  0.249925  0.000000  1
  Ti  Ti2  1  0.916145  0.500068  0.000000  1
  Ti  Ti3  1  0.917175  0.749873  0.000000  1
  Ti  Ti4  1  0.417183  0.000118  0.500000  1
  Ti  Ti5  1  0.416141  0.249919  0.500000  1
  Ti  Ti6  1  0.416145  0.500080  0.500000  1
  Ti  Ti7  1  0.417179  0.749887  0.500000  1
  Os  Os8  1  0.917301  0.875001  0.500000  1
  Ru  Ru9  1  0.416672  0.125343  0.000000  1
  Ru  Ru10  1  0.416011  0.374998  0.000000  1
  Ru  Ru11  1  0.416665  0.624659  0.000000  1
  Ru  Ru12  1  0.417309  0.875003  0.000000  1
  Ru  Ru13  1  0.916666  0.125491  0.500000  1
  Ru  Ru14  1  0.916008  0.374997  0.500000  1
  Ru  Ru15  1  0.916665  0.624511  0.500000  1
