# generated using pymatgen
data_Tm3V(Ni4P3)2
_symmetry_space_group_name_H-M   'P 1'
_cell_length_a   3.71635800
_cell_length_b   10.58376800
_cell_length_c   12.24598300
_cell_angle_alpha   90.00000000
_cell_angle_beta   90.00000000
_cell_angle_gamma   90.00000000
_symmetry_Int_Tables_number   1
_chemical_formula_structural   Tm3V(Ni4P3)2
_chemical_formula_sum   'Tm6 V2 Ni16 P12'
_cell_volume   481.67211730
_cell_formula_units_Z   2
loop_
 _symmetry_equiv_pos_site_id
 _symmetry_equiv_pos_as_xyz
  1  'x, y, z'
loop_
 _atom_site_type_symbol
 _atom_site_label
 _atom_site_symmetry_multiplicity
 _atom_site_fract_x
 _atom_site_fract_y
 _atom_site_fract_z
 _atom_site_occupancy
  Tm  Tm0  1  0.000000  0.500000  0.523882  1
  Tm  Tm1  1  0.500000  0.000000  0.476118  1
  Tm  Tm2  1  0.500000  0.818613  0.205805  1
  Tm  Tm3  1  0.500000  0.181387  0.205805  1
  Tm  Tm4  1  0.000000  0.681387  0.794195  1
  Tm  Tm5  1  0.000000  0.318613  0.794195  1
  V  V6  1  0.500000  0.500000  0.153254  1
  V  V7  1  0.000000  0.000000  0.846746  1
  Ni  Ni8  1  0.500000  0.500000  0.701028  1
  Ni  Ni9  1  0.000000  0.000000  0.298972  1
  Ni  Ni10  1  0.000000  0.500000  0.985066  1
  Ni  Ni11  1  0.500000  0.000000  0.014934  1
  Ni  Ni12  1  0.500000  0.333249  0.989611  1
  Ni  Ni13  1  0.500000  0.666751  0.989611  1
  Ni  Ni14  1  0.000000  0.166751  0.010389  1
  Ni  Ni15  1  0.000000  0.833249  0.010389  1
  Ni  Ni16  1  0.500000  0.301910  0.428916  1
  Ni  Ni17  1  0.500000  0.698090  0.428916  1
  Ni  Ni18  1  0.000000  0.198090  0.571084  1
  Ni  Ni19  1  0.000000  0.801910  0.571084  1
  Ni  Ni20  1  0.500000  0.878448  0.709141  1
  Ni  Ni21  1  0.500000  0.121552  0.709141  1
  Ni  Ni22  1  0.000000  0.621552  0.290859  1
  Ni  Ni23  1  0.000000  0.378448  0.290859  1
  P  P24  1  0.500000  0.500000  0.878000  1
  P  P25  1  0.000000  0.000000  0.122000  1
  P  P26  1  0.500000  0.500000  0.347456  1
  P  P27  1  0.000000  0.000000  0.652544  1
  P  P28  1  0.500000  0.315452  0.614977  1
  P  P29  1  0.500000  0.684548  0.614977  1
  P  P30  1  0.000000  0.184548  0.385023  1
  P  P31  1  0.000000  0.815452  0.385023  1
  P  P32  1  0.500000  0.845733  0.891245  1
  P  P33  1  0.500000  0.154267  0.891245  1
  P  P34  1  0.000000  0.654267  0.108755  1
  P  P35  1  0.000000  0.345733  0.108755  1
