# generated using pymatgen
data_Th10GaSn6Hg
_symmetry_space_group_name_H-M   'P 1'
_cell_length_a   9.63591500
_cell_length_b   9.63591510
_cell_length_c   6.58433500
_cell_angle_alpha   90.00000000
_cell_angle_beta   90.00000000
_cell_angle_gamma   120.00000311
_symmetry_Int_Tables_number   1
_chemical_formula_structural   Th10GaSn6Hg
_chemical_formula_sum   'Th10 Ga1 Sn6 Hg1'
_cell_volume   529.45427836
_cell_formula_units_Z   1
loop_
 _symmetry_equiv_pos_site_id
 _symmetry_equiv_pos_as_xyz
  1  'x, y, z'
loop_
 _atom_site_type_symbol
 _atom_site_label
 _atom_site_symmetry_multiplicity
 _atom_site_fract_x
 _atom_site_fract_y
 _atom_site_fract_z
 _atom_site_occupancy
  Th  Th0  1  0.726251  0.726251  0.739200  1
  Th  Th1  1  0.273749  0.000000  0.739200  1
  Th  Th2  1  0.000000  0.273749  0.739200  1
  Th  Th3  1  0.273749  0.273749  0.260800  1
  Th  Th4  1  0.726251  0.000000  0.260800  1
  Th  Th5  1  0.000000  0.726251  0.260800  1
  Th  Th6  1  0.666667  0.333333  0.000000  1
  Th  Th7  1  0.333333  0.666667  0.000000  1
  Th  Th8  1  0.333333  0.666667  0.500000  1
  Th  Th9  1  0.666667  0.333333  0.500000  1
  Ga  Ga10  1  0.000000  0.000000  0.500000  1
  Sn  Sn11  1  0.378799  0.378799  0.752829  1
  Sn  Sn12  1  0.621201  0.000000  0.752829  1
  Sn  Sn13  1  0.000000  0.621201  0.752829  1
  Sn  Sn14  1  0.621201  0.621201  0.247171  1
  Sn  Sn15  1  0.378799  0.000000  0.247171  1
  Sn  Sn16  1  0.000000  0.378799  0.247171  1
  Hg  Hg17  1  0.000000  0.000000  0.000000  1
