# generated using pymatgen
data_La6Zn4Pd8Pt5
_symmetry_space_group_name_H-M   'P 1'
_cell_length_a   8.46567136
_cell_length_b   8.46560566
_cell_length_c   8.45745229
_cell_angle_alpha   109.43261525
_cell_angle_beta   109.40897728
_cell_angle_gamma   109.52127499
_symmetry_Int_Tables_number   1
_chemical_formula_structural   La6Zn4Pd8Pt5
_chemical_formula_sum   'La6 Zn4 Pd8 Pt5'
_cell_volume   466.88369267
_cell_formula_units_Z   1
loop_
 _symmetry_equiv_pos_site_id
 _symmetry_equiv_pos_as_xyz
  1  'x, y, z'
loop_
 _atom_site_type_symbol
 _atom_site_label
 _atom_site_symmetry_multiplicity
 _atom_site_fract_x
 _atom_site_fract_y
 _atom_site_fract_z
 _atom_site_occupancy
  La  La0  1  0.697686  0.697347  0.000796  1
  La  La1  1  0.302216  0.999933  0.302997  1
  La  La2  1  0.999343  0.301941  0.302253  1
  La  La3  1  0.303270  0.302765  0.999422  1
  La  La4  1  0.697445  0.000698  0.697576  1
  La  La5  1  0.000048  0.697297  0.696752  1
  Zn  Zn6  1  0.000006  0.999948  0.499692  1
  Zn  Zn7  1  0.999887  0.499982  0.000064  1
  Zn  Zn8  1  0.500357  0.000266  0.000200  1
  Zn  Zn9  1  0.499825  0.499800  0.500022  1
  Pd  Pd10  1  0.330176  0.660054  0.330297  1
  Pd  Pd11  1  0.999982  0.330502  0.670282  1
  Pd  Pd12  1  0.329828  0.670021  0.000110  1
  Pd  Pd13  1  0.330306  0.999882  0.670110  1
  Pd  Pd14  1  0.660067  0.330315  0.330592  1
  Pd  Pd15  1  0.669461  0.669743  0.340234  1
  Pd  Pd16  1  0.669912  0.339947  0.669905  1
  Pd  Pd17  1  0.339890  0.669944  0.670029  1
  Pt  Pt18  1  0.329647  0.330040  0.659148  1
  Pt  Pt19  1  0.669947  0.000015  0.329797  1
  Pt  Pt20  1  0.000177  0.670174  0.330026  1
  Pt  Pt21  1  0.670412  0.329541  0.000226  1
  Pt  Pt22  1  0.000110  0.999847  0.999471  1
