# generated using pymatgen
data_Ce6Cr5P12Rh13
_symmetry_space_group_name_H-M   'P 1'
_cell_length_a   3.92924800
_cell_length_b   11.28032258
_cell_length_c   12.91865300
_cell_angle_alpha   90.08890246
_cell_angle_beta   90.00000000
_cell_angle_gamma   90.00000000
_symmetry_Int_Tables_number   1
_chemical_formula_structural   Ce6Cr5P12Rh13
_chemical_formula_sum   'Ce6 Cr5 P12 Rh13'
_cell_volume   572.59515672
_cell_formula_units_Z   1
loop_
 _symmetry_equiv_pos_site_id
 _symmetry_equiv_pos_as_xyz
  1  'x, y, z'
loop_
 _atom_site_type_symbol
 _atom_site_label
 _atom_site_symmetry_multiplicity
 _atom_site_fract_x
 _atom_site_fract_y
 _atom_site_fract_z
 _atom_site_occupancy
  Ce  Ce0  1  0.000000  0.500926  0.520722  1
  Ce  Ce1  1  0.500000  0.999634  0.478024  1
  Ce  Ce2  1  0.500000  0.819113  0.199472  1
  Ce  Ce3  1  0.500000  0.180967  0.201546  1
  Ce  Ce4  1  0.000000  0.677925  0.800153  1
  Ce  Ce5  1  0.000000  0.321678  0.797801  1
  Cr  Cr6  1  0.500000  0.494741  0.161642  1
  Cr  Cr7  1  0.000000  0.002810  0.840204  1
  Cr  Cr8  1  0.000000  0.494357  0.986814  1
  Cr  Cr9  1  0.500000  0.002186  0.010897  1
  Cr  Cr10  1  0.500000  0.336628  0.997762  1
  P  P11  1  0.500000  0.496072  0.883401  1
  P  P12  1  0.000000  0.001093  0.115522  1
  P  P13  1  0.500000  0.500523  0.342287  1
  P  P14  1  0.000000  0.000254  0.657029  1
  P  P15  1  0.500000  0.310740  0.616714  1
  P  P16  1  0.500000  0.689696  0.617184  1
  P  P17  1  0.000000  0.189297  0.382921  1
  P  P18  1  0.000000  0.811045  0.382140  1
  P  P19  1  0.500000  0.851312  0.895215  1
  P  P20  1  0.500000  0.153522  0.893696  1
  P  P21  1  0.000000  0.644205  0.104010  1
  P  P22  1  0.000000  0.351618  0.108559  1
  Rh  Rh23  1  0.500000  0.500288  0.697599  1
  Rh  Rh24  1  0.000000  0.000218  0.300650  1
  Rh  Rh25  1  0.500000  0.663314  0.995108  1
  Rh  Rh26  1  0.000000  0.169876  0.005399  1
  Rh  Rh27  1  0.000000  0.834754  0.003926  1
  Rh  Rh28  1  0.500000  0.294610  0.431966  1
  Rh  Rh29  1  0.500000  0.705436  0.431013  1
  Rh  Rh30  1  0.000000  0.204151  0.569003  1
  Rh  Rh31  1  0.000000  0.796158  0.569307  1
  Rh  Rh32  1  0.500000  0.875180  0.713361  1
  Rh  Rh33  1  0.500000  0.124093  0.710890  1
  Rh  Rh34  1  0.000000  0.625086  0.286806  1
  Rh  Rh35  1  0.000000  0.376492  0.291255  1
