# generated using pymatgen
data_HoTh7(Si3Ir)4
_symmetry_space_group_name_H-M   'P 1'
_cell_length_a   8.22222577
_cell_length_b   8.19855080
_cell_length_c   8.45480900
_cell_angle_alpha   90.00000000
_cell_angle_beta   90.00000000
_cell_angle_gamma   119.90480989
_symmetry_Int_Tables_number   1
_chemical_formula_structural   HoTh7(Si3Ir)4
_chemical_formula_sum   'Ho1 Th7 Si12 Ir4'
_cell_volume   494.05659226
_cell_formula_units_Z   1
loop_
 _symmetry_equiv_pos_site_id
 _symmetry_equiv_pos_as_xyz
  1  'x, y, z'
loop_
 _atom_site_type_symbol
 _atom_site_label
 _atom_site_symmetry_multiplicity
 _atom_site_fract_x
 _atom_site_fract_y
 _atom_site_fract_z
 _atom_site_occupancy
  Ho  Ho0  1  0.001078  0.500538  0.750000  1
  Th  Th1  1  0.000010  0.000005  0.250000  1
  Th  Th2  1  0.000037  0.000019  0.750000  1
  Th  Th3  1  0.500457  0.499554  0.250000  1
  Th  Th4  1  0.500457  0.000903  0.250000  1
  Th  Th5  1  0.999171  0.499585  0.250000  1
  Th  Th6  1  0.499316  0.500436  0.750000  1
  Th  Th7  1  0.499316  0.998880  0.750000  1
  Si  Si8  1  0.165422  0.831580  0.500738  1
  Si  Si9  1  0.165422  0.333840  0.500738  1
  Si  Si10  1  0.670061  0.835030  0.496933  1
  Si  Si11  1  0.834500  0.168442  0.502085  1
  Si  Si12  1  0.834500  0.666059  0.502085  1
  Si  Si13  1  0.330097  0.165049  0.498194  1
  Si  Si14  1  0.834500  0.168442  0.997915  1
  Si  Si15  1  0.834500  0.666059  0.997915  1
  Si  Si16  1  0.330097  0.165049  0.001806  1
  Si  Si17  1  0.165422  0.831580  0.999262  1
  Si  Si18  1  0.165422  0.333840  0.999262  1
  Si  Si19  1  0.670061  0.835030  0.003067  1
  Ir  Ir20  1  0.336221  0.668111  0.504691  1
  Ir  Ir21  1  0.663856  0.331927  0.507244  1
  Ir  Ir22  1  0.663856  0.331927  0.992756  1
  Ir  Ir23  1  0.336221  0.668111  0.995309  1
