# generated using pymatgen
data_Dy6Ho10MgAg3Ir4
_symmetry_space_group_name_H-M   'P 1'
_cell_length_a   9.55758831
_cell_length_b   9.56678382
_cell_length_c   9.56678400
_cell_angle_alpha   59.99999939
_cell_angle_beta   59.96816774
_cell_angle_gamma   59.96816525
_symmetry_Int_Tables_number   1
_chemical_formula_structural   Dy6Ho10MgAg3Ir4
_chemical_formula_sum   'Dy6 Ho10 Mg1 Ag3 Ir4'
_cell_volume   618.23859674
_cell_formula_units_Z   1
loop_
 _symmetry_equiv_pos_site_id
 _symmetry_equiv_pos_as_xyz
  1  'x, y, z'
loop_
 _atom_site_type_symbol
 _atom_site_label
 _atom_site_symmetry_multiplicity
 _atom_site_fract_x
 _atom_site_fract_y
 _atom_site_fract_z
 _atom_site_occupancy
  Dy  Dy0  1  0.934315  0.563338  0.563338  1
  Dy  Dy1  1  0.562237  0.936531  0.936531  1
  Dy  Dy2  1  0.562237  0.936531  0.564700  1
  Dy  Dy3  1  0.934315  0.563338  0.939009  1
  Dy  Dy4  1  0.562237  0.564700  0.936531  1
  Dy  Dy5  1  0.934315  0.939009  0.563338  1
  Ho  Ho6  1  0.350856  0.349967  0.349967  1
  Ho  Ho7  1  0.350856  0.349967  0.949208  1
  Ho  Ho8  1  0.350856  0.949208  0.349967  1
  Ho  Ho9  1  0.938998  0.353667  0.353667  1
  Ho  Ho10  1  0.810979  0.188632  0.188632  1
  Ho  Ho11  1  0.186947  0.812899  0.812899  1
  Ho  Ho12  1  0.186947  0.812899  0.187254  1
  Ho  Ho13  1  0.810979  0.188632  0.811757  1
  Ho  Ho14  1  0.186947  0.187254  0.812899  1
  Ho  Ho15  1  0.810979  0.811757  0.188632  1
  Mg  Mg16  1  0.283975  0.572008  0.572008  1
  Ag  Ag17  1  0.582215  0.583560  0.583560  1
  Ag  Ag18  1  0.582215  0.583560  0.250666  1
  Ag  Ag19  1  0.582215  0.250666  0.583560  1
  Ir  Ir20  1  0.140757  0.143573  0.143573  1
  Ir  Ir21  1  0.140757  0.143573  0.572097  1
  Ir  Ir22  1  0.140757  0.572097  0.143573  1
  Ir  Ir23  1  0.572108  0.142631  0.142631  1
