# generated using pymatgen
data_BaTbTc4N7
_symmetry_space_group_name_H-M   'P 1'
_cell_length_a   6.47165900
_cell_length_b   6.47166003
_cell_length_c   10.49010300
_cell_angle_alpha   90.00000000
_cell_angle_beta   90.00000000
_cell_angle_gamma   119.99999984
_symmetry_Int_Tables_number   1
_chemical_formula_structural   BaTbTc4N7
_chemical_formula_sum   'Ba2 Tb2 Tc8 N14'
_cell_volume   380.48864919
_cell_formula_units_Z   2
loop_
 _symmetry_equiv_pos_site_id
 _symmetry_equiv_pos_as_xyz
  1  'x, y, z'
loop_
 _atom_site_type_symbol
 _atom_site_label
 _atom_site_symmetry_multiplicity
 _atom_site_fract_x
 _atom_site_fract_y
 _atom_site_fract_z
 _atom_site_occupancy
  Ba  Ba0  1  0.333333  0.666667  0.349566  1
  Ba  Ba1  1  0.666667  0.333333  0.849566  1
  Tb  Tb2  1  0.333333  0.666667  0.725433  1
  Tb  Tb3  1  0.666667  0.333333  0.225433  1
  Tc  Tc4  1  0.838769  0.677536  0.548094  1
  Tc  Tc5  1  0.161231  0.838769  0.048094  1
  Tc  Tc6  1  0.677536  0.838769  0.048094  1
  Tc  Tc7  1  0.322464  0.161231  0.548094  1
  Tc  Tc8  1  0.838769  0.161231  0.548094  1
  Tc  Tc9  1  0.161231  0.322464  0.048094  1
  Tc  Tc10  1  0.000000  0.000000  0.855294  1
  Tc  Tc11  1  0.000000  0.000000  0.355294  1
  N  N12  1  0.000000  0.000000  0.633178  1
  N  N13  1  0.000000  0.000000  0.133178  1
  N  N14  1  0.168861  0.337722  0.861349  1
  N  N15  1  0.831139  0.168861  0.361349  1
  N  N16  1  0.337722  0.168861  0.361349  1
  N  N17  1  0.662278  0.831139  0.861349  1
  N  N18  1  0.168861  0.831139  0.861349  1
  N  N19  1  0.831139  0.662278  0.361349  1
  N  N20  1  0.974978  0.487489  0.600700  1
  N  N21  1  0.487489  0.974978  0.100700  1
  N  N22  1  0.487489  0.512511  0.100700  1
  N  N23  1  0.512511  0.487489  0.600700  1
  N  N24  1  0.025022  0.512511  0.100700  1
  N  N25  1  0.512511  0.025022  0.600700  1
