# generated using pymatgen
data_Pr3Th(B10Os)2
_symmetry_space_group_name_H-M   'P 1'
_cell_length_a   4.23547200
_cell_length_b   5.77990391
_cell_length_c   11.49851054
_cell_angle_alpha   90.06434069
_cell_angle_beta   90.00000000
_cell_angle_gamma   90.00000000
_symmetry_Int_Tables_number   1
_chemical_formula_structural   Pr3Th(B10Os)2
_chemical_formula_sum   'Pr3 Th1 B20 Os2'
_cell_volume   281.49050328
_cell_formula_units_Z   1
loop_
 _symmetry_equiv_pos_site_id
 _symmetry_equiv_pos_as_xyz
  1  'x, y, z'
loop_
 _atom_site_type_symbol
 _atom_site_label
 _atom_site_symmetry_multiplicity
 _atom_site_fract_x
 _atom_site_fract_y
 _atom_site_fract_z
 _atom_site_occupancy
  Pr  Pr0  1  0.500000  0.282042  0.870111  1
  Pr  Pr1  1  0.500000  0.719484  0.129231  1
  Pr  Pr2  1  0.500000  0.782288  0.632567  1
  Th  Th3  1  0.500000  0.223463  0.370586  1
  B  B4  1  0.000000  0.117305  0.542570  1
  B  B5  1  0.000000  0.877546  0.458040  1
  B  B6  1  0.000000  0.619609  0.957236  1
  B  B7  1  0.000000  0.379734  0.042783  1
  B  B8  1  0.000000  0.135515  0.697326  1
  B  B9  1  0.000000  0.866774  0.303513  1
  B  B10  1  0.299276  0.221155  0.119227  1
  B  B11  1  0.298796  0.778296  0.881655  1
  B  B12  1  0.700430  0.721322  0.380914  1
  B  B13  1  0.701200  0.276450  0.617510  1
  B  B14  1  0.701204  0.778296  0.881655  1
  B  B15  1  0.700724  0.221155  0.119227  1
  B  B16  1  0.298800  0.276450  0.617510  1
  B  B17  1  0.299570  0.721322  0.380914  1
  B  B18  1  0.000000  0.059608  0.193649  1
  B  B19  1  0.000000  0.942543  0.807959  1
  B  B20  1  0.000000  0.559779  0.306307  1
  B  B21  1  0.000000  0.442108  0.691366  1
  B  B22  1  0.000000  0.365578  0.197221  1
  B  B23  1  0.000000  0.635715  0.802281  1
  Os  Os24  1  0.000000  0.496461  0.498322  1
  Os  Os25  1  0.000000  0.000005  0.000317  1
