# generated using pymatgen
data_Ho2FeOs3
_symmetry_space_group_name_H-M   'P 1'
_cell_length_a   5.26088432
_cell_length_b   5.26088402
_cell_length_c   5.26088421
_cell_angle_alpha   61.01543570
_cell_angle_beta   61.01544127
_cell_angle_gamma   61.01543648
_symmetry_Int_Tables_number   1
_chemical_formula_structural   Ho2FeOs3
_chemical_formula_sum   'Ho2 Fe1 Os3'
_cell_volume   105.31294531
_cell_formula_units_Z   1
loop_
 _symmetry_equiv_pos_site_id
 _symmetry_equiv_pos_as_xyz
  1  'x, y, z'
loop_
 _atom_site_type_symbol
 _atom_site_label
 _atom_site_symmetry_multiplicity
 _atom_site_fract_x
 _atom_site_fract_y
 _atom_site_fract_z
 _atom_site_occupancy
  Ho  Ho0  1  0.623847  0.623847  0.623847  1
  Ho  Ho1  1  0.376153  0.376153  0.376153  1
  Fe  Fe2  1  0.000000  0.000000  0.000000  1
  Os  Os3  1  0.000000  0.500000  0.000000  1
  Os  Os4  1  0.500000  0.000000  0.000000  1
  Os  Os5  1  0.000000  0.000000  0.500000  1
