# generated using pymatgen
data_Tb3DyY2(Si3Ru)8
_symmetry_space_group_name_H-M   'P 1'
_cell_length_a   10.13181674
_cell_length_b   10.13181708
_cell_length_c   8.15534704
_cell_angle_alpha   90.07128440
_cell_angle_beta   89.92871620
_cell_angle_gamma   132.58160348
_symmetry_Int_Tables_number   1
_chemical_formula_structural   Tb3DyY2(Si3Ru)8
_chemical_formula_sum   'Tb3 Dy1 Y2 Si24 Ru8'
_cell_volume   616.42464616
_cell_formula_units_Z   1
loop_
 _symmetry_equiv_pos_site_id
 _symmetry_equiv_pos_as_xyz
  1  'x, y, z'
loop_
 _atom_site_type_symbol
 _atom_site_label
 _atom_site_symmetry_multiplicity
 _atom_site_fract_x
 _atom_site_fract_y
 _atom_site_fract_z
 _atom_site_occupancy
  Tb  Tb0  1  0.502183  0.002183  0.750000  1
  Tb  Tb1  1  0.997908  0.497908  0.250000  1
  Tb  Tb2  1  0.497451  0.997451  0.250000  1
  Dy  Dy3  1  0.002266  0.502266  0.750000  1
  Y  Y4  1  0.499975  0.500008  0.500014  1
  Y  Y5  1  0.000008  0.999975  0.999986  1
  Si  Si6  1  0.793998  0.205372  0.500282  1
  Si  Si7  1  0.294594  0.705906  0.999959  1
  Si  Si8  1  0.205906  0.794594  0.500041  1
  Si  Si9  1  0.705372  0.293998  0.999718  1
  Si  Si10  1  0.332425  0.332198  0.833222  1
  Si  Si11  1  0.667568  0.667807  0.166866  1
  Si  Si12  1  0.167807  0.167568  0.333134  1
  Si  Si13  1  0.832198  0.832425  0.666778  1
  Si  Si14  1  0.122030  0.887556  0.727633  1
  Si  Si15  1  0.114011  0.879369  0.271601  1
  Si  Si16  1  0.611899  0.377261  0.227984  1
  Si  Si17  1  0.621065  0.386731  0.771840  1
  Si  Si18  1  0.877261  0.111899  0.272016  1
  Si  Si19  1  0.886731  0.121065  0.728160  1
  Si  Si20  1  0.387556  0.622030  0.772367  1
  Si  Si21  1  0.379369  0.614011  0.228399  1
  Si  Si22  1  0.345662  0.111559  0.504121  1
  Si  Si23  1  0.889311  0.656364  0.496410  1
  Si  Si24  1  0.388411  0.154319  0.004556  1
  Si  Si25  1  0.843797  0.610733  0.995596  1
  Si  Si26  1  0.654319  0.888411  0.495444  1
  Si  Si27  1  0.110733  0.343797  0.504404  1
  Si  Si28  1  0.611559  0.845662  0.995879  1
  Si  Si29  1  0.156364  0.389311  0.003590  1
  Ru  Ru30  1  0.670677  0.333237  0.499990  1
  Ru  Ru31  1  0.166802  0.829378  0.999037  1
  Ru  Ru32  1  0.329378  0.666802  0.500963  1
  Ru  Ru33  1  0.833237  0.170677  0.000010  1
  Ru  Ru34  1  0.126059  0.125716  0.626935  1
  Ru  Ru35  1  0.874226  0.874169  0.372916  1
  Ru  Ru36  1  0.374169  0.374226  0.127084  1
  Ru  Ru37  1  0.625716  0.626059  0.873065  1
