# generated using pymatgen
data_SmCoCl
_symmetry_space_group_name_H-M   'P 1'
_cell_length_a   3.93820900
_cell_length_b   3.93820972
_cell_length_c   10.70419000
_cell_angle_alpha   90.00000000
_cell_angle_beta   90.00000000
_cell_angle_gamma   120.00001919
_symmetry_Int_Tables_number   1
_chemical_formula_structural   SmCoCl
_chemical_formula_sum   'Sm2 Co2 Cl2'
_cell_volume   143.77453001
_cell_formula_units_Z   2
loop_
 _symmetry_equiv_pos_site_id
 _symmetry_equiv_pos_as_xyz
  1  'x, y, z'
loop_
 _atom_site_type_symbol
 _atom_site_label
 _atom_site_symmetry_multiplicity
 _atom_site_fract_x
 _atom_site_fract_y
 _atom_site_fract_z
 _atom_site_occupancy
  Sm  Sm0  1  0.000000  0.000000  0.179007  1
  Sm  Sm1  1  0.000000  0.000000  0.820993  1
  Co  Co2  1  0.333333  0.666667  0.006476  1
  Co  Co3  1  0.666667  0.333333  0.993524  1
  Cl  Cl4  1  0.333333  0.666667  0.656387  1
  Cl  Cl5  1  0.666667  0.333333  0.343613  1
