# generated using pymatgen
data_Sc3Ga(Ru3W)2
_symmetry_space_group_name_H-M   'P 1'
_cell_length_a   4.44722200
_cell_length_b   6.28722600
_cell_length_c   13.37411200
_cell_angle_alpha   90.00000000
_cell_angle_beta   89.99969117
_cell_angle_gamma   90.00000000
_symmetry_Int_Tables_number   1
_chemical_formula_structural   Sc3Ga(Ru3W)2
_chemical_formula_sum   'Sc6 Ga2 Ru12 W4'
_cell_volume   373.94939679
_cell_formula_units_Z   2
loop_
 _symmetry_equiv_pos_site_id
 _symmetry_equiv_pos_as_xyz
  1  'x, y, z'
loop_
 _atom_site_type_symbol
 _atom_site_label
 _atom_site_symmetry_multiplicity
 _atom_site_fract_x
 _atom_site_fract_y
 _atom_site_fract_z
 _atom_site_occupancy
  Sc  Sc0  1  0.000003  0.500001  0.993568  1
  Sc  Sc1  1  0.499981  0.000000  0.166021  1
  Sc  Sc2  1  0.999992  0.500001  0.334027  1
  Sc  Sc3  1  0.500006  0.000000  0.506416  1
  Sc  Sc4  1  0.000011  0.500001  0.675200  1
  Sc  Sc5  1  0.499998  0.000000  0.824772  1
  Ga  Ga6  1  0.000010  0.000000  0.669333  1
  Ga  Ga7  1  0.500003  0.500001  0.830660  1
  Ru  Ru8  1  0.500002  0.245403  0.004194  1
  Ru  Ru9  1  0.500002  0.754597  0.004194  1
  Ru  Ru10  1  0.000000  0.251391  0.167027  1
  Ru  Ru11  1  0.000000  0.748609  0.167027  1
  Ru  Ru12  1  0.499991  0.248619  0.332984  1
  Ru  Ru13  1  0.499991  0.751380  0.332984  1
  Ru  Ru14  1  0.000004  0.254591  0.495815  1
  Ru  Ru15  1  0.000004  0.745409  0.495815  1
  Ru  Ru16  1  0.500014  0.256864  0.660321  1
  Ru  Ru17  1  0.500014  0.743135  0.660321  1
  Ru  Ru18  1  0.000000  0.243123  0.839678  1
  Ru  Ru19  1  0.000000  0.756877  0.839678  1
  W  W20  1  0.999998  0.000000  0.993453  1
  W  W21  1  0.499992  0.500001  0.164887  1
  W  W22  1  0.999996  0.000000  0.335086  1
  W  W23  1  0.499999  0.500001  0.506536  1
