# generated using pymatgen
data_Tm9LuSi5Pb
_symmetry_space_group_name_H-M   'P 1'
_cell_length_a   8.42991706
_cell_length_b   8.43140390
_cell_length_c   6.28066703
_cell_angle_alpha   89.99124965
_cell_angle_beta   90.01148374
_cell_angle_gamma   120.19926912
_symmetry_Int_Tables_number   1
_chemical_formula_structural   Tm9LuSi5Pb
_chemical_formula_sum   'Tm9 Lu1 Si5 Pb1'
_cell_volume   385.81937407
_cell_formula_units_Z   1
loop_
 _symmetry_equiv_pos_site_id
 _symmetry_equiv_pos_as_xyz
  1  'x, y, z'
loop_
 _atom_site_type_symbol
 _atom_site_label
 _atom_site_symmetry_multiplicity
 _atom_site_fract_x
 _atom_site_fract_y
 _atom_site_fract_z
 _atom_site_occupancy
  Tm  Tm0  1  0.331218  0.675312  0.503900  1
  Tm  Tm1  1  0.331140  0.675307  0.996108  1
  Tm  Tm2  1  0.675277  0.331204  0.996135  1
  Tm  Tm3  1  0.767509  0.767423  0.250171  1
  Tm  Tm4  1  0.239770  0.987610  0.250142  1
  Tm  Tm5  1  0.987362  0.239661  0.250251  1
  Tm  Tm6  1  0.239815  0.239710  0.749825  1
  Tm  Tm7  1  0.756354  0.998369  0.749761  1
  Tm  Tm8  1  0.998093  0.756240  0.749816  1
  Lu  Lu9  1  0.675514  0.331162  0.503845  1
  Si  Si10  1  0.603847  0.998789  0.250510  1
  Si  Si11  1  0.997818  0.603345  0.250533  1
  Si  Si12  1  0.605753  0.605328  0.749582  1
  Si  Si13  1  0.394152  0.002228  0.749518  1
  Si  Si14  1  0.001215  0.393629  0.749434  1
  Pb  Pb15  1  0.395163  0.394683  0.250470  1
