# generated using pymatgen
data_Nd2YIn4Hg
_symmetry_space_group_name_H-M   'P 1'
_cell_length_a   6.50099547
_cell_length_b   6.50099614
_cell_length_c   10.62708300
_cell_angle_alpha   90.00000000
_cell_angle_beta   90.00000000
_cell_angle_gamma   103.43853158
_symmetry_Int_Tables_number   1
_chemical_formula_structural   Nd2YIn4Hg
_chemical_formula_sum   'Nd4 Y2 In8 Hg2'
_cell_volume   436.83452358
_cell_formula_units_Z   2
loop_
 _symmetry_equiv_pos_site_id
 _symmetry_equiv_pos_as_xyz
  1  'x, y, z'
loop_
 _atom_site_type_symbol
 _atom_site_label
 _atom_site_symmetry_multiplicity
 _atom_site_fract_x
 _atom_site_fract_y
 _atom_site_fract_z
 _atom_site_occupancy
  Nd  Nd0  1  0.202960  0.797040  0.500000  1
  Nd  Nd1  1  0.202960  0.797040  0.000000  1
  Nd  Nd2  1  0.797040  0.202960  0.500000  1
  Nd  Nd3  1  0.797040  0.202960  0.000000  1
  Y  Y4  1  0.628516  0.628516  0.250000  1
  Y  Y5  1  0.371484  0.371484  0.750000  1
  In  In6  1  0.315942  0.315942  0.045793  1
  In  In7  1  0.684058  0.684058  0.954207  1
  In  In8  1  0.315942  0.315942  0.454207  1
  In  In9  1  0.684058  0.684058  0.545793  1
  In  In10  1  0.503506  0.073681  0.250000  1
  In  In11  1  0.926319  0.496494  0.750000  1
  In  In12  1  0.496494  0.926319  0.750000  1
  In  In13  1  0.073681  0.503506  0.250000  1
  Hg  Hg14  1  0.006814  0.006813  0.250000  1
  Hg  Hg15  1  0.993187  0.993186  0.750000  1
