# generated using pymatgen
data_Sm3Tm(Sc3Ga4)2
_symmetry_space_group_name_H-M   'P 1'
_cell_length_a   7.33230854
_cell_length_b   7.60874030
_cell_length_c   14.54664866
_cell_angle_alpha   89.89643105
_cell_angle_beta   90.03598840
_cell_angle_gamma   90.02563812
_symmetry_Int_Tables_number   1
_chemical_formula_structural   Sm3Tm(Sc3Ga4)2
_chemical_formula_sum   'Sm6 Tm2 Sc12 Ga16'
_cell_volume   811.55060136
_cell_formula_units_Z   2
loop_
 _symmetry_equiv_pos_site_id
 _symmetry_equiv_pos_as_xyz
  1  'x, y, z'
loop_
 _atom_site_type_symbol
 _atom_site_label
 _atom_site_symmetry_multiplicity
 _atom_site_fract_x
 _atom_site_fract_y
 _atom_site_fract_z
 _atom_site_occupancy
  Sm  Sm0  1  0.010810  0.178344  0.094629  1
  Sm  Sm1  1  0.989190  0.821656  0.905371  1
  Sm  Sm2  1  0.488991  0.678515  0.905884  1
  Sm  Sm3  1  0.989178  0.820831  0.594579  1
  Sm  Sm4  1  0.511009  0.321485  0.094116  1
  Sm  Sm5  1  0.010822  0.179169  0.405421  1
  Tm  Tm6  1  0.510717  0.320069  0.405403  1
  Tm  Tm7  1  0.489283  0.679931  0.594597  1
  Sc  Sc8  1  0.163082  0.501962  0.749413  1
  Sc  Sc9  1  0.836918  0.498038  0.250587  1
  Sc  Sc10  1  0.338395  0.002115  0.250619  1
  Sc  Sc11  1  0.661605  0.997885  0.749381  1
  Sc  Sc12  1  0.331111  0.173622  0.624217  1
  Sc  Sc13  1  0.668889  0.826378  0.375783  1
  Sc  Sc14  1  0.171413  0.672779  0.375663  1
  Sc  Sc15  1  0.669598  0.826882  0.125144  1
  Sc  Sc16  1  0.828587  0.327221  0.624337  1
  Sc  Sc17  1  0.330402  0.173118  0.874856  1
  Sc  Sc18  1  0.830296  0.326583  0.875017  1
  Sc  Sc19  1  0.169704  0.673417  0.124983  1
  Ga  Ga20  1  0.031694  0.118337  0.749829  1
  Ga  Ga21  1  0.968306  0.881663  0.250171  1
  Ga  Ga22  1  0.468839  0.617407  0.250698  1
  Ga  Ga23  1  0.531161  0.382593  0.749302  1
  Ga  Ga24  1  0.285626  0.872633  0.749167  1
  Ga  Ga25  1  0.714374  0.127367  0.250833  1
  Ga  Ga26  1  0.216983  0.373363  0.251315  1
  Ga  Ga27  1  0.783017  0.626637  0.748685  1
  Ga  Ga28  1  0.164488  0.466016  0.540759  1
  Ga  Ga29  1  0.835512  0.533984  0.459241  1
  Ga  Ga30  1  0.340665  0.965265  0.459679  1
  Ga  Ga31  1  0.839430  0.535443  0.040354  1
  Ga  Ga32  1  0.659335  0.034735  0.540321  1
  Ga  Ga33  1  0.160570  0.464557  0.959646  1
  Ga  Ga34  1  0.660421  0.035909  0.959579  1
  Ga  Ga35  1  0.339579  0.964091  0.040421  1
