# generated using pymatgen
data_Ba3(HgBi)4
_symmetry_space_group_name_H-M   'P 1'
_cell_length_a   9.99346287
_cell_length_b   9.99346386
_cell_length_c   9.99346358
_cell_angle_alpha   149.02752757
_cell_angle_beta   130.27901323
_cell_angle_gamma   59.73998091
_symmetry_Int_Tables_number   1
_chemical_formula_structural   Ba3(HgBi)4
_chemical_formula_sum   'Ba3 Hg4 Bi4'
_cell_volume   388.59925182
_cell_formula_units_Z   1
loop_
 _symmetry_equiv_pos_site_id
 _symmetry_equiv_pos_as_xyz
  1  'x, y, z'
loop_
 _atom_site_type_symbol
 _atom_site_label
 _atom_site_symmetry_multiplicity
 _atom_site_fract_x
 _atom_site_fract_y
 _atom_site_fract_z
 _atom_site_occupancy
  Ba  Ba0  1  0.631228  0.131228  0.500000  1
  Ba  Ba1  1  0.368772  0.868772  0.500000  1
  Ba  Ba2  1  0.000000  0.000000  0.000000  1
  Hg  Hg3  1  0.978358  0.673313  0.305045  1
  Hg  Hg4  1  0.021642  0.326687  0.694955  1
  Hg  Hg5  1  0.631732  0.326687  0.305045  1
  Hg  Hg6  1  0.368268  0.673313  0.694955  1
  Bi  Bi7  1  0.788501  0.788501  0.000000  1
  Bi  Bi8  1  0.211499  0.211499  0.000000  1
  Bi  Bi9  1  0.686041  0.500000  0.186041  1
  Bi  Bi10  1  0.313959  0.500000  0.813959  1
