# generated using pymatgen
data_Dy4Lu8Co5Pb
_symmetry_space_group_name_H-M   'P 1'
_cell_length_a   8.17395161
_cell_length_b   8.17395094
_cell_length_c   8.17395075
_cell_angle_alpha   111.26027775
_cell_angle_beta   110.62400688
_cell_angle_gamma   106.56847589
_symmetry_Int_Tables_number   1
_chemical_formula_structural   Dy4Lu8Co5Pb
_chemical_formula_sum   'Dy4 Lu8 Co5 Pb1'
_cell_volume   419.59334524
_cell_formula_units_Z   1
loop_
 _symmetry_equiv_pos_site_id
 _symmetry_equiv_pos_as_xyz
  1  'x, y, z'
loop_
 _atom_site_type_symbol
 _atom_site_label
 _atom_site_symmetry_multiplicity
 _atom_site_fract_x
 _atom_site_fract_y
 _atom_site_fract_z
 _atom_site_occupancy
  Dy  Dy0  1  0.592589  0.787801  0.804788  1
  Dy  Dy1  1  0.407411  0.212199  0.195212  1
  Dy  Dy2  1  0.983013  0.787801  0.195212  1
  Dy  Dy3  1  0.016987  0.212199  0.804788  1
  Lu  Lu4  1  0.817176  0.711889  0.529065  1
  Lu  Lu5  1  0.182824  0.288111  0.470935  1
  Lu  Lu6  1  0.182824  0.711889  0.894711  1
  Lu  Lu7  1  0.817176  0.288111  0.105289  1
  Lu  Lu8  1  0.686133  0.378679  0.692546  1
  Lu  Lu9  1  0.313867  0.621321  0.307454  1
  Lu  Lu10  1  0.686133  0.993588  0.307454  1
  Lu  Lu11  1  0.313867  0.006412  0.692546  1
  Co  Co12  1  0.622905  0.000000  0.622905  1
  Co  Co13  1  0.377095  0.000000  0.377095  1
  Co  Co14  1  0.112532  0.612532  0.500000  1
  Co  Co15  1  0.887468  0.387468  0.500000  1
  Co  Co16  1  0.000000  0.000000  0.000000  1
  Pb  Pb17  1  0.500000  0.500000  0.000000  1
