# generated using pymatgen
data_La2Si6SnPd12
_symmetry_space_group_name_H-M   'P 1'
_cell_length_a   10.20838200
_cell_length_b   10.20838238
_cell_length_c   3.95734200
_cell_angle_alpha   90.00000000
_cell_angle_beta   90.00000000
_cell_angle_gamma   120.00000526
_symmetry_Int_Tables_number   1
_chemical_formula_structural   La2Si6SnPd12
_chemical_formula_sum   'La2 Si6 Sn1 Pd12'
_cell_volume   357.14784596
_cell_formula_units_Z   1
loop_
 _symmetry_equiv_pos_site_id
 _symmetry_equiv_pos_as_xyz
  1  'x, y, z'
loop_
 _atom_site_type_symbol
 _atom_site_label
 _atom_site_symmetry_multiplicity
 _atom_site_fract_x
 _atom_site_fract_y
 _atom_site_fract_z
 _atom_site_occupancy
  La  La0  1  0.666667  0.333333  0.247046  1
  La  La1  1  0.000000  0.000000  0.750918  1
  Si  Si2  1  0.737688  0.779881  0.255109  1
  Si  Si3  1  0.042194  0.262312  0.255109  1
  Si  Si4  1  0.220119  0.957806  0.255109  1
  Si  Si5  1  0.928319  0.554407  0.743419  1
  Si  Si6  1  0.626087  0.071681  0.743419  1
  Si  Si7  1  0.445593  0.373913  0.743419  1
  Sn  Sn8  1  0.333333  0.666667  0.461578  1
  Pd  Pd9  1  0.775761  0.048875  0.252502  1
  Pd  Pd10  1  0.273112  0.224239  0.252502  1
  Pd  Pd11  1  0.951125  0.726888  0.252502  1
  Pd  Pd12  1  0.891756  0.282881  0.745849  1
  Pd  Pd13  1  0.391123  0.108244  0.745849  1
  Pd  Pd14  1  0.717119  0.608877  0.745849  1
  Pd  Pd15  1  0.491896  0.541791  0.236448  1
  Pd  Pd16  1  0.049894  0.508104  0.236448  1
  Pd  Pd17  1  0.458209  0.950106  0.236448  1
  Pd  Pd18  1  0.178249  0.787241  0.763998  1
  Pd  Pd19  1  0.608991  0.821751  0.763998  1
  Pd  Pd20  1  0.212759  0.391009  0.763998  1
