# generated using pymatgen
data_TbDy3Tm8Co5Hg
_symmetry_space_group_name_H-M   'P 1'
_cell_length_a   8.19746207
_cell_length_b   8.19973460
_cell_length_c   8.19695240
_cell_angle_alpha   110.40341246
_cell_angle_beta   110.41045270
_cell_angle_gamma   107.64689777
_symmetry_Int_Tables_number   1
_chemical_formula_structural   TbDy3Tm8Co5Hg
_chemical_formula_sum   'Tb1 Dy3 Tm8 Co5 Hg1'
_cell_volume   423.64974966
_cell_formula_units_Z   1
loop_
 _symmetry_equiv_pos_site_id
 _symmetry_equiv_pos_as_xyz
  1  'x, y, z'
loop_
 _atom_site_type_symbol
 _atom_site_label
 _atom_site_symmetry_multiplicity
 _atom_site_fract_x
 _atom_site_fract_y
 _atom_site_fract_z
 _atom_site_occupancy
  Tb  Tb0  1  0.815675  0.709199  0.525391  1
  Dy  Dy1  1  0.403065  0.210179  0.191651  1
  Dy  Dy2  1  0.981155  0.788558  0.191377  1
  Dy  Dy3  1  0.018063  0.212537  0.807161  1
  Tm  Tm4  1  0.184603  0.291516  0.475482  1
  Tm  Tm5  1  0.186464  0.708478  0.894280  1
  Tm  Tm6  1  0.816341  0.288624  0.105623  1
  Tm  Tm7  1  0.683001  0.379531  0.696139  1
  Tm  Tm8  1  0.315887  0.621394  0.305968  1
  Tm  Tm9  1  0.683044  0.988660  0.302950  1
  Tm  Tm10  1  0.318037  0.011615  0.696306  1
  Tm  Tm11  1  0.594945  0.789303  0.807335  1
  Co  Co12  1  0.621656  0.001415  0.623101  1
  Co  Co13  1  0.377978  0.999749  0.377049  1
  Co  Co14  1  0.115427  0.613032  0.500693  1
  Co  Co15  1  0.887833  0.385185  0.501004  1
  Co  Co16  1  0.997774  0.000548  0.000251  1
  Hg  Hg17  1  0.499052  0.500479  0.998237  1
