# generated using pymatgen
data_La7DyTe12
_symmetry_space_group_name_H-M   'P 1'
_cell_length_a   4.52640500
_cell_length_b   12.07163927
_cell_length_c   12.44667342
_cell_angle_alpha   89.86191848
_cell_angle_beta   90.00000000
_cell_angle_gamma   90.00000000
_symmetry_Int_Tables_number   1
_chemical_formula_structural   La7DyTe12
_chemical_formula_sum   'La7 Dy1 Te12'
_cell_volume   680.09830487
_cell_formula_units_Z   1
loop_
 _symmetry_equiv_pos_site_id
 _symmetry_equiv_pos_as_xyz
  1  'x, y, z'
loop_
 _atom_site_type_symbol
 _atom_site_label
 _atom_site_symmetry_multiplicity
 _atom_site_fract_x
 _atom_site_fract_y
 _atom_site_fract_z
 _atom_site_occupancy
  La  La0  1  0.250000  0.497912  0.697335  1
  La  La1  1  0.750000  0.499580  0.303910  1
  La  La2  1  0.750000  0.000844  0.805205  1
  La  La3  1  0.250000  0.002940  0.193505  1
  La  La4  1  0.250000  0.187095  0.513970  1
  La  La5  1  0.750000  0.813060  0.486032  1
  La  La6  1  0.750000  0.686834  0.986323  1
  Dy  Dy7  1  0.250000  0.313187  0.014102  1
  Te  Te8  1  0.250000  0.877166  0.955313  1
  Te  Te9  1  0.750000  0.132805  0.042452  1
  Te  Te10  1  0.750000  0.375770  0.545150  1
  Te  Te11  1  0.250000  0.623469  0.455022  1
  Te  Te12  1  0.250000  0.201683  0.777017  1
  Te  Te13  1  0.750000  0.799537  0.226625  1
  Te  Te14  1  0.750000  0.699002  0.727665  1
  Te  Te15  1  0.250000  0.298520  0.267828  1
  Te  Te16  1  0.250000  0.552463  0.117409  1
  Te  Te17  1  0.750000  0.437413  0.884965  1
  Te  Te18  1  0.750000  0.058773  0.378666  1
  Te  Te19  1  0.250000  0.941946  0.621509  1
