# generated using pymatgen
data_Tb4CdCuNi3Hg
_symmetry_space_group_name_H-M   'P 1'
_cell_length_a   7.41733782
_cell_length_b   7.42148686
_cell_length_c   3.66106800
_cell_angle_alpha   90.00000000
_cell_angle_beta   90.00000000
_cell_angle_gamma   89.73123882
_symmetry_Int_Tables_number   1
_chemical_formula_structural   Tb4CdCuNi3Hg
_chemical_formula_sum   'Tb4 Cd1 Cu1 Ni3 Hg1'
_cell_volume   201.53106487
_cell_formula_units_Z   1
loop_
 _symmetry_equiv_pos_site_id
 _symmetry_equiv_pos_as_xyz
  1  'x, y, z'
loop_
 _atom_site_type_symbol
 _atom_site_label
 _atom_site_symmetry_multiplicity
 _atom_site_fract_x
 _atom_site_fract_y
 _atom_site_fract_z
 _atom_site_occupancy
  Tb  Tb0  1  0.680795  0.175252  0.500000  1
  Tb  Tb1  1  0.331091  0.836373  0.500000  1
  Tb  Tb2  1  0.170364  0.309823  0.500000  1
  Tb  Tb3  1  0.815582  0.676680  0.500000  1
  Cd  Cd4  1  0.495955  0.498761  0.000000  1
  Cu  Cu5  1  0.119845  0.616261  0.000000  1
  Ni  Ni6  1  0.881090  0.384789  0.000000  1
  Ni  Ni7  1  0.619280  0.883001  0.000000  1
  Ni  Ni8  1  0.386805  0.122949  0.000000  1
  Hg  Hg9  1  0.999195  0.996112  0.000000  1
