# generated using pymatgen
data_Tb4HfZr3F28
_symmetry_space_group_name_H-M   'P 1'
_cell_length_a   5.75455599
_cell_length_b   9.12675552
_cell_length_c   12.27550531
_cell_angle_alpha   62.33057942
_cell_angle_beta   90.00486543
_cell_angle_gamma   89.99550365
_symmetry_Int_Tables_number   1
_chemical_formula_structural   Tb4HfZr3F28
_chemical_formula_sum   'Tb4 Hf1 Zr3 F28'
_cell_volume   570.98620147
_cell_formula_units_Z   1
loop_
 _symmetry_equiv_pos_site_id
 _symmetry_equiv_pos_as_xyz
  1  'x, y, z'
loop_
 _atom_site_type_symbol
 _atom_site_label
 _atom_site_symmetry_multiplicity
 _atom_site_fract_x
 _atom_site_fract_y
 _atom_site_fract_z
 _atom_site_occupancy
  Tb  Tb0  1  0.255915  0.814750  0.267823  1
  Tb  Tb1  1  0.743682  0.185353  0.733274  1
  Tb  Tb2  1  0.756651  0.183768  0.234972  1
  Tb  Tb3  1  0.243032  0.815126  0.764481  1
  Hf  Hf4  1  0.742852  0.726076  0.544616  1
  Zr  Zr5  1  0.755597  0.725864  0.044563  1
  Zr  Zr6  1  0.244582  0.273417  0.955742  1
  Zr  Zr7  1  0.256069  0.274294  0.455534  1
  F  F8  1  0.958663  0.711147  0.421915  1
  F  F9  1  0.038072  0.289451  0.580321  1
  F  F10  1  0.464521  0.289180  0.079646  1
  F  F11  1  0.534385  0.710664  0.920722  1
  F  F12  1  0.486150  0.733232  0.149895  1
  F  F13  1  0.516140  0.266829  0.851136  1
  F  F14  1  0.982128  0.266452  0.352873  1
  F  F15  1  0.012701  0.734694  0.645551  1
  F  F16  1  0.966844  0.747201  0.171839  1
  F  F17  1  0.035414  0.251903  0.828049  1
  F  F18  1  0.464697  0.255357  0.326652  1
  F  F19  1  0.537477  0.745323  0.671471  1
  F  F20  1  0.771925  0.474625  0.140634  1
  F  F21  1  0.226748  0.524741  0.858497  1
  F  F22  1  0.269788  0.525711  0.359863  1
  F  F23  1  0.731822  0.478547  0.639260  1
  F  F24  1  0.951558  0.276447  0.050152  1
  F  F25  1  0.047398  0.722848  0.949109  1
  F  F26  1  0.452939  0.720402  0.453420  1
  F  F27  1  0.550216  0.279846  0.548355  1
  F  F28  1  0.739267  0.973107  0.443201  1
  F  F29  1  0.261941  0.023652  0.556938  1
  F  F30  1  0.241794  0.023126  0.059496  1
  F  F31  1  0.757947  0.976304  0.940853  1
  F  F32  1  0.571383  0.972479  0.235445  1
  F  F33  1  0.428052  0.027117  0.763813  1
  F  F34  1  0.073814  0.027295  0.267230  1
  F  F35  1  0.927840  0.973674  0.732655  1
