# generated using pymatgen
data_ScMnCr(CoP)3
_symmetry_space_group_name_H-M   'P 1'
_cell_length_a   3.55239400
_cell_length_b   10.26294000
_cell_length_c   11.87060300
_cell_angle_alpha   90.00000000
_cell_angle_beta   90.00000000
_cell_angle_gamma   90.00000000
_symmetry_Int_Tables_number   1
_chemical_formula_structural   ScMnCr(CoP)3
_chemical_formula_sum   'Sc4 Mn4 Cr4 Co12 P12'
_cell_volume   432.77852108
_cell_formula_units_Z   4
loop_
 _symmetry_equiv_pos_site_id
 _symmetry_equiv_pos_as_xyz
  1  'x, y, z'
loop_
 _atom_site_type_symbol
 _atom_site_label
 _atom_site_symmetry_multiplicity
 _atom_site_fract_x
 _atom_site_fract_y
 _atom_site_fract_z
 _atom_site_occupancy
  Sc  Sc0  1  0.250000  0.582621  0.708530  1
  Sc  Sc1  1  0.250000  0.917379  0.208530  1
  Sc  Sc2  1  0.750000  0.417379  0.291470  1
  Sc  Sc3  1  0.750000  0.082621  0.791470  1
  Mn  Mn4  1  0.250000  0.407445  0.489578  1
  Mn  Mn5  1  0.250000  0.092555  0.989578  1
  Mn  Mn6  1  0.750000  0.592555  0.510422  1
  Mn  Mn7  1  0.750000  0.907445  0.010422  1
  Cr  Cr8  1  0.250000  0.711263  0.990240  1
  Cr  Cr9  1  0.250000  0.788737  0.490240  1
  Cr  Cr10  1  0.750000  0.288737  0.009760  1
  Cr  Cr11  1  0.750000  0.211263  0.509760  1
  Co  Co12  1  0.250000  0.222679  0.176954  1
  Co  Co13  1  0.250000  0.277322  0.676954  1
  Co  Co14  1  0.750000  0.777322  0.823046  1
  Co  Co15  1  0.750000  0.722678  0.323046  1
  Co  Co16  1  0.250000  0.884109  0.697894  1
  Co  Co17  1  0.250000  0.615891  0.197894  1
  Co  Co18  1  0.750000  0.115891  0.302106  1
  Co  Co19  1  0.750000  0.384109  0.802106  1
  Co  Co20  1  0.250000  0.464534  0.933483  1
  Co  Co21  1  0.250000  0.035466  0.433483  1
  Co  Co22  1  0.750000  0.535466  0.066517  1
  Co  Co23  1  0.750000  0.964534  0.566517  1
  P  P24  1  0.250000  0.419493  0.115409  1
  P  P25  1  0.250000  0.080507  0.615409  1
  P  P26  1  0.750000  0.580507  0.884591  1
  P  P27  1  0.750000  0.919493  0.384591  1
  P  P28  1  0.250000  0.264384  0.865582  1
  P  P29  1  0.250000  0.235616  0.365582  1
  P  P30  1  0.750000  0.735616  0.134418  1
  P  P31  1  0.750000  0.764384  0.634418  1
  P  P32  1  0.250000  0.595524  0.382940  1
  P  P33  1  0.250000  0.904476  0.882940  1
  P  P34  1  0.750000  0.404476  0.617060  1
  P  P35  1  0.750000  0.095524  0.117060  1
