# generated using pymatgen
data_Nd3Te4Cl
_symmetry_space_group_name_H-M   'P 1'
_cell_length_a   4.31235100
_cell_length_b   14.11909700
_cell_length_c   16.12290700
_cell_angle_alpha   90.00000000
_cell_angle_beta   90.00000000
_cell_angle_gamma   90.00000000
_symmetry_Int_Tables_number   1
_chemical_formula_structural   Nd3Te4Cl
_chemical_formula_sum   'Nd12 Te16 Cl4'
_cell_volume   981.66741038
_cell_formula_units_Z   4
loop_
 _symmetry_equiv_pos_site_id
 _symmetry_equiv_pos_as_xyz
  1  'x, y, z'
loop_
 _atom_site_type_symbol
 _atom_site_label
 _atom_site_symmetry_multiplicity
 _atom_site_fract_x
 _atom_site_fract_y
 _atom_site_fract_z
 _atom_site_occupancy
  Nd  Nd0  1  0.250000  0.905363  0.627090  1
  Nd  Nd1  1  0.250000  0.594637  0.127090  1
  Nd  Nd2  1  0.750000  0.094637  0.372910  1
  Nd  Nd3  1  0.750000  0.405363  0.872910  1
  Nd  Nd4  1  0.750000  0.252776  0.615579  1
  Nd  Nd5  1  0.750000  0.247224  0.115579  1
  Nd  Nd6  1  0.250000  0.747224  0.384421  1
  Nd  Nd7  1  0.250000  0.752776  0.884421  1
  Nd  Nd8  1  0.750000  0.578195  0.631652  1
  Nd  Nd9  1  0.750000  0.921805  0.131652  1
  Nd  Nd10  1  0.250000  0.421805  0.368348  1
  Nd  Nd11  1  0.250000  0.078195  0.868348  1
  Te  Te12  1  0.250000  0.420433  0.571006  1
  Te  Te13  1  0.250000  0.079567  0.071006  1
  Te  Te14  1  0.750000  0.579567  0.428994  1
  Te  Te15  1  0.750000  0.920433  0.928994  1
  Te  Te16  1  0.750000  0.049555  0.715172  1
  Te  Te17  1  0.750000  0.450445  0.215172  1
  Te  Te18  1  0.250000  0.950445  0.284828  1
  Te  Te19  1  0.250000  0.549555  0.784828  1
  Te  Te20  1  0.750000  0.776321  0.732891  1
  Te  Te21  1  0.750000  0.723679  0.232891  1
  Te  Te22  1  0.250000  0.223679  0.267109  1
  Te  Te23  1  0.250000  0.276321  0.767109  1
  Te  Te24  1  0.250000  0.111238  0.525179  1
  Te  Te25  1  0.250000  0.388762  0.025179  1
  Te  Te26  1  0.750000  0.888762  0.474821  1
  Te  Te27  1  0.750000  0.611238  0.974821  1
  Cl  Cl28  1  0.250000  0.701646  0.569067  1
  Cl  Cl29  1  0.250000  0.798354  0.069067  1
  Cl  Cl30  1  0.750000  0.298354  0.430933  1
  Cl  Cl31  1  0.750000  0.201646  0.930933  1
