# generated using pymatgen
data_Tb9Ho7(ErPb4)4
_symmetry_space_group_name_H-M   'P 1'
_cell_length_a   8.19752818
_cell_length_b   8.28139909
_cell_length_c   15.63277901
_cell_angle_alpha   90.00428783
_cell_angle_beta   90.01276129
_cell_angle_gamma   90.05332756
_symmetry_Int_Tables_number   1
_chemical_formula_structural   Tb9Ho7(ErPb4)4
_chemical_formula_sum   'Tb9 Ho7 Er4 Pb16'
_cell_volume   1061.26201762
_cell_formula_units_Z   1
loop_
 _symmetry_equiv_pos_site_id
 _symmetry_equiv_pos_as_xyz
  1  'x, y, z'
loop_
 _atom_site_type_symbol
 _atom_site_label
 _atom_site_symmetry_multiplicity
 _atom_site_fract_x
 _atom_site_fract_y
 _atom_site_fract_z
 _atom_site_occupancy
  Tb  Tb0  1  0.876719  0.659410  0.879509  1
  Tb  Tb1  1  0.534254  0.322785  0.900174  1
  Tb  Tb2  1  0.034441  0.176924  0.599722  1
  Tb  Tb3  1  0.465652  0.676990  0.400105  1
  Tb  Tb4  1  0.965566  0.823337  0.100283  1
  Tb  Tb5  1  0.465859  0.676788  0.099929  1
  Tb  Tb6  1  0.965581  0.823073  0.400082  1
  Tb  Tb7  1  0.534226  0.322936  0.599804  1
  Tb  Tb8  1  0.034422  0.176726  0.900033  1
  Ho  Ho9  1  0.376330  0.840852  0.879007  1
  Ho  Ho10  1  0.876377  0.658969  0.620817  1
  Ho  Ho11  1  0.623669  0.158959  0.379105  1
  Ho  Ho12  1  0.123507  0.341130  0.120816  1
  Ho  Ho13  1  0.623345  0.158930  0.121252  1
  Ho  Ho14  1  0.123578  0.340908  0.379083  1
  Ho  Ho15  1  0.376580  0.841032  0.620723  1
  Er  Er16  1  0.208324  0.504332  0.749806  1
  Er  Er17  1  0.707993  0.995736  0.749749  1
  Er  Er18  1  0.791800  0.495400  0.250147  1
  Er  Er19  1  0.291752  0.004379  0.249996  1
  Pb  Pb20  1  0.282385  0.034138  0.042742  1
  Pb  Pb21  1  0.782550  0.465853  0.457225  1
  Pb  Pb22  1  0.717484  0.965866  0.542695  1
  Pb  Pb23  1  0.218968  0.533660  0.957375  1
  Pb  Pb24  1  0.716720  0.967217  0.957370  1
  Pb  Pb25  1  0.217406  0.534167  0.542708  1
  Pb  Pb26  1  0.282459  0.034201  0.457198  1
  Pb  Pb27  1  0.782177  0.465195  0.043484  1
  Pb  Pb28  1  0.571035  0.627230  0.749666  1
  Pb  Pb29  1  0.071950  0.873420  0.749551  1
  Pb  Pb30  1  0.428448  0.372781  0.250068  1
  Pb  Pb31  1  0.928649  0.127267  0.250016  1
  Pb  Pb32  1  0.345463  0.152258  0.749952  1
  Pb  Pb33  1  0.845443  0.347159  0.749737  1
  Pb  Pb34  1  0.654447  0.847574  0.250034  1
  Pb  Pb35  1  0.154439  0.652417  0.250037  1
