# generated using pymatgen
data_Ho3Tc4SbF28
_symmetry_space_group_name_H-M   'P 1'
_cell_length_a   5.57528553
_cell_length_b   8.88700043
_cell_length_c   12.00895700
_cell_angle_alpha   62.63953844
_cell_angle_beta   89.97499668
_cell_angle_gamma   89.99647102
_symmetry_Int_Tables_number   1
_chemical_formula_structural   Ho3Tc4SbF28
_chemical_formula_sum   'Ho3 Tc4 Sb1 F28'
_cell_volume   528.45187298
_cell_formula_units_Z   1
loop_
 _symmetry_equiv_pos_site_id
 _symmetry_equiv_pos_as_xyz
  1  'x, y, z'
loop_
 _atom_site_type_symbol
 _atom_site_label
 _atom_site_symmetry_multiplicity
 _atom_site_fract_x
 _atom_site_fract_y
 _atom_site_fract_z
 _atom_site_occupancy
  Ho  Ho0  1  0.258510  0.192453  0.735967  1
  Ho  Ho1  1  0.241267  0.186398  0.234777  1
  Ho  Ho2  1  0.741945  0.815002  0.264202  1
  Tc  Tc3  1  0.757879  0.270578  0.958343  1
  Tc  Tc4  1  0.258259  0.727694  0.541066  1
  Tc  Tc5  1  0.241732  0.726852  0.044537  1
  Tc  Tc6  1  0.742029  0.274617  0.456246  1
  Sb  Sb7  1  0.764658  0.825392  0.760621  1
  F  F8  1  0.437463  0.704423  0.919442  1
  F  F9  1  0.944983  0.292902  0.582777  1
  F  F10  1  0.554598  0.291833  0.083229  1
  F  F11  1  0.055134  0.706404  0.415550  1
  F  F12  1  0.447266  0.275409  0.547807  1
  F  F13  1  0.943397  0.723675  0.957292  1
  F  F14  1  0.555414  0.722889  0.452633  1
  F  F15  1  0.053857  0.275255  0.046784  1
  F  F16  1  0.775812  0.513545  0.860915  1
  F  F17  1  0.274365  0.478349  0.639847  1
  F  F18  1  0.225877  0.478400  0.142365  1
  F  F19  1  0.725562  0.520683  0.359114  1
  F  F20  1  0.756230  0.022170  0.054675  1
  F  F21  1  0.256295  0.974840  0.445937  1
  F  F22  1  0.244941  0.974581  0.945182  1
  F  F23  1  0.744794  0.025141  0.552770  1
  F  F24  1  0.971618  0.726854  0.634953  1
  F  F25  1  0.474132  0.269546  0.860433  1
  F  F26  1  0.025392  0.271685  0.360840  1
  F  F27  1  0.526259  0.727994  0.140954  1
  F  F28  1  0.045665  0.746771  0.174502  1
  F  F29  1  0.544986  0.253596  0.328015  1
  F  F30  1  0.954064  0.251006  0.827638  1
  F  F31  1  0.447587  0.746748  0.671765  1
  F  F32  1  0.419050  0.971854  0.232285  1
  F  F33  1  0.919143  0.029985  0.267843  1
  F  F34  1  0.589261  0.030867  0.767882  1
  F  F35  1  0.080573  0.973607  0.730809  1
