# generated using pymatgen
data_Pr7Ho13Sn15Bi
_symmetry_space_group_name_H-M   'P 1'
_cell_length_a   8.15385020
_cell_length_b   8.27503082
_cell_length_c   15.60937525
_cell_angle_alpha   90.01393371
_cell_angle_beta   90.49172309
_cell_angle_gamma   89.90042553
_symmetry_Int_Tables_number   1
_chemical_formula_structural   Pr7Ho13Sn15Bi
_chemical_formula_sum   'Pr7 Ho13 Sn15 Bi1'
_cell_volume   1053.17661875
_cell_formula_units_Z   1
loop_
 _symmetry_equiv_pos_site_id
 _symmetry_equiv_pos_as_xyz
  1  'x, y, z'
loop_
 _atom_site_type_symbol
 _atom_site_label
 _atom_site_symmetry_multiplicity
 _atom_site_fract_x
 _atom_site_fract_y
 _atom_site_fract_z
 _atom_site_occupancy
  Pr  Pr0  1  0.015966  0.179668  0.598808  1
  Pr  Pr1  1  0.484400  0.678809  0.403003  1
  Pr  Pr2  1  0.978619  0.819404  0.097500  1
  Pr  Pr3  1  0.483779  0.675286  0.096779  1
  Pr  Pr4  1  0.984358  0.821176  0.402986  1
  Pr  Pr5  1  0.514763  0.321457  0.596602  1
  Pr  Pr6  1  0.014216  0.180723  0.901205  1
  Ho  Ho7  1  0.364938  0.833909  0.875942  1
  Ho  Ho8  1  0.862099  0.663264  0.623405  1
  Ho  Ho9  1  0.637241  0.163812  0.376926  1
  Ho  Ho10  1  0.132294  0.340406  0.122490  1
  Ho  Ho11  1  0.638962  0.164977  0.122323  1
  Ho  Ho12  1  0.137502  0.336355  0.377285  1
  Ho  Ho13  1  0.362842  0.836959  0.624231  1
  Ho  Ho14  1  0.864243  0.663515  0.877945  1
  Ho  Ho15  1  0.522244  0.323005  0.900471  1
  Ho  Ho16  1  0.197063  0.501902  0.750747  1
  Ho  Ho17  1  0.695855  0.996815  0.751387  1
  Ho  Ho18  1  0.803137  0.497009  0.250082  1
  Ho  Ho19  1  0.303606  0.002819  0.251802  1
  Sn  Sn20  1  0.802054  0.458984  0.457891  1
  Sn  Sn21  1  0.698206  0.959527  0.542599  1
  Sn  Sn22  1  0.206573  0.534960  0.956186  1
  Sn  Sn23  1  0.701231  0.963033  0.956519  1
  Sn  Sn24  1  0.197562  0.542154  0.542406  1
  Sn  Sn25  1  0.302123  0.040465  0.458251  1
  Sn  Sn26  1  0.795586  0.457215  0.040019  1
  Sn  Sn27  1  0.562349  0.622863  0.750583  1
  Sn  Sn28  1  0.062412  0.875248  0.750667  1
  Sn  Sn29  1  0.437249  0.374776  0.249056  1
  Sn  Sn30  1  0.937934  0.125342  0.249301  1
  Sn  Sn31  1  0.329268  0.144883  0.752451  1
  Sn  Sn32  1  0.822429  0.358452  0.750864  1
  Sn  Sn33  1  0.673939  0.858078  0.249733  1
  Sn  Sn34  1  0.174359  0.641922  0.249826  1
  Bi  Bi35  1  0.298601  0.040828  0.041726  1
