# generated using pymatgen
data_Nd2Mn3Co9As7
_symmetry_space_group_name_H-M   'P 1'
_cell_length_a   9.47406000
_cell_length_b   9.47406081
_cell_length_c   3.77164800
_cell_angle_alpha   90.00000000
_cell_angle_beta   90.00000000
_cell_angle_gamma   120.00000414
_symmetry_Int_Tables_number   1
_chemical_formula_structural   Nd2Mn3Co9As7
_chemical_formula_sum   'Nd2 Mn3 Co9 As7'
_cell_volume   293.17981518
_cell_formula_units_Z   1
loop_
 _symmetry_equiv_pos_site_id
 _symmetry_equiv_pos_as_xyz
  1  'x, y, z'
loop_
 _atom_site_type_symbol
 _atom_site_label
 _atom_site_symmetry_multiplicity
 _atom_site_fract_x
 _atom_site_fract_y
 _atom_site_fract_z
 _atom_site_occupancy
  Nd  Nd0  1  0.666667  0.333333  0.000000  1
  Nd  Nd1  1  0.333333  0.666667  0.500000  1
  Mn  Mn2  1  0.106515  0.220842  0.500000  1
  Mn  Mn3  1  0.779158  0.885674  0.500000  1
  Mn  Mn4  1  0.114326  0.893485  0.500000  1
  Co  Co5  1  0.058158  0.426985  0.000000  1
  Co  Co6  1  0.573015  0.631173  0.000000  1
  Co  Co7  1  0.368827  0.941842  0.000000  1
  Co  Co8  1  0.275352  0.156985  0.000000  1
  Co  Co9  1  0.843015  0.118367  0.000000  1
  Co  Co10  1  0.881633  0.724648  0.000000  1
  Co  Co11  1  0.433942  0.384205  0.500000  1
  Co  Co12  1  0.615795  0.049737  0.500000  1
  Co  Co13  1  0.950263  0.566058  0.500000  1
  As  As14  1  0.302113  0.412246  0.000000  1
  As  As15  1  0.587754  0.889867  0.000000  1
  As  As16  1  0.110133  0.697887  0.000000  1
  As  As17  1  0.404482  0.114410  0.500000  1
  As  As18  1  0.885590  0.290072  0.500000  1
  As  As19  1  0.709928  0.595518  0.500000  1
  As  As20  1  0.000000  0.000000  0.000000  1
