# generated using pymatgen
data_KTb(NbBr3)6
_symmetry_space_group_name_H-M   'P 1'
_cell_length_a   10.77604831
_cell_length_b   10.77604789
_cell_length_c   10.77604751
_cell_angle_alpha   55.39873813
_cell_angle_beta   55.39873912
_cell_angle_gamma   55.39874398
_symmetry_Int_Tables_number   1
_chemical_formula_structural   KTb(NbBr3)6
_chemical_formula_sum   'K1 Tb1 Nb6 Br18'
_cell_volume   790.26671333
_cell_formula_units_Z   1
loop_
 _symmetry_equiv_pos_site_id
 _symmetry_equiv_pos_as_xyz
  1  'x, y, z'
loop_
 _atom_site_type_symbol
 _atom_site_label
 _atom_site_symmetry_multiplicity
 _atom_site_fract_x
 _atom_site_fract_y
 _atom_site_fract_z
 _atom_site_occupancy
  K  K0  1  0.220993  0.220993  0.220993  1
  Tb  Tb1  1  0.498247  0.498247  0.498247  1
  Nb  Nb2  1  0.808112  0.142709  0.916792  1
  Nb  Nb3  1  0.916792  0.808112  0.142709  1
  Nb  Nb4  1  0.142709  0.916792  0.808112  1
  Nb  Nb5  1  0.192805  0.857707  0.082561  1
  Nb  Nb6  1  0.082561  0.192805  0.857707  1
  Nb  Nb7  1  0.857707  0.082561  0.192805  1
  Br  Br8  1  0.863372  0.411646  0.727106  1
  Br  Br9  1  0.727106  0.863372  0.411646  1
  Br  Br10  1  0.411646  0.727106  0.863372  1
  Br  Br11  1  0.136096  0.588098  0.275232  1
  Br  Br12  1  0.275232  0.136096  0.588098  1
  Br  Br13  1  0.588098  0.275232  0.136096  1
  Br  Br14  1  0.529425  0.341543  0.808071  1
  Br  Br15  1  0.808071  0.529425  0.341543  1
  Br  Br16  1  0.341543  0.808071  0.529425  1
  Br  Br17  1  0.466940  0.659850  0.194735  1
  Br  Br18  1  0.194735  0.466940  0.659850  1
  Br  Br19  1  0.659850  0.194735  0.466940  1
  Br  Br20  1  0.663368  0.937811  0.071913  1
  Br  Br21  1  0.071913  0.663368  0.937811  1
  Br  Br22  1  0.937811  0.071913  0.663368  1
  Br  Br23  1  0.338938  0.061469  0.925601  1
  Br  Br24  1  0.925601  0.338938  0.061469  1
  Br  Br25  1  0.061469  0.925601  0.338938  1
