# generated using pymatgen
data_Dy4SiBr6
_symmetry_space_group_name_H-M   'P 1'
_cell_length_a   4.05312700
_cell_length_b   13.21615000
_cell_length_c   13.99601000
_cell_angle_alpha   90.00000000
_cell_angle_beta   90.00000000
_cell_angle_gamma   90.00000000
_symmetry_Int_Tables_number   1
_chemical_formula_structural   Dy4SiBr6
_chemical_formula_sum   'Dy8 Si2 Br12'
_cell_volume   749.72055034
_cell_formula_units_Z   2
loop_
 _symmetry_equiv_pos_site_id
 _symmetry_equiv_pos_as_xyz
  1  'x, y, z'
loop_
 _atom_site_type_symbol
 _atom_site_label
 _atom_site_symmetry_multiplicity
 _atom_site_fract_x
 _atom_site_fract_y
 _atom_site_fract_z
 _atom_site_occupancy
  Dy  Dy0  1  0.500000  0.118376  0.340804  1
  Dy  Dy1  1  0.500000  0.881624  0.659196  1
  Dy  Dy2  1  0.500000  0.618376  0.159196  1
  Dy  Dy3  1  0.500000  0.381624  0.840804  1
  Dy  Dy4  1  0.000000  0.118172  0.578399  1
  Dy  Dy5  1  0.000000  0.881828  0.421601  1
  Dy  Dy6  1  0.000000  0.618172  0.921601  1
  Dy  Dy7  1  0.000000  0.381828  0.078399  1
  Si  Si8  1  0.500000  0.000000  0.500000  1
  Si  Si9  1  0.500000  0.500000  0.000000  1
  Br  Br10  1  0.500000  0.243572  0.162412  1
  Br  Br11  1  0.500000  0.756428  0.837588  1
  Br  Br12  1  0.500000  0.743572  0.337588  1
  Br  Br13  1  0.500000  0.256428  0.662412  1
  Br  Br14  1  0.000000  0.256055  0.411447  1
  Br  Br15  1  0.000000  0.743945  0.588553  1
  Br  Br16  1  0.000000  0.756055  0.088553  1
  Br  Br17  1  0.000000  0.243945  0.911447  1
  Br  Br18  1  0.000000  0.001279  0.242566  1
  Br  Br19  1  0.000000  0.998721  0.757434  1
  Br  Br20  1  0.000000  0.501279  0.257434  1
  Br  Br21  1  0.000000  0.498721  0.742566  1
