# generated using pymatgen
data_Cs4CrMo3N8
_symmetry_space_group_name_H-M   'P 1'
_cell_length_a   6.11344000
_cell_length_b   8.61804200
_cell_length_c   12.23884100
_cell_angle_alpha   90.00000000
_cell_angle_beta   90.00000000
_cell_angle_gamma   90.00000000
_symmetry_Int_Tables_number   1
_chemical_formula_structural   Cs4CrMo3N8
_chemical_formula_sum   'Cs8 Cr2 Mo6 N16'
_cell_volume   644.81414112
_cell_formula_units_Z   2
loop_
 _symmetry_equiv_pos_site_id
 _symmetry_equiv_pos_as_xyz
  1  'x, y, z'
loop_
 _atom_site_type_symbol
 _atom_site_label
 _atom_site_symmetry_multiplicity
 _atom_site_fract_x
 _atom_site_fract_y
 _atom_site_fract_z
 _atom_site_occupancy
  Cs  Cs0  1  0.750000  0.136321  0.000000  1
  Cs  Cs1  1  0.250000  0.863679  0.500000  1
  Cs  Cs2  1  0.250000  0.874729  0.000000  1
  Cs  Cs3  1  0.750000  0.125271  0.500000  1
  Cs  Cs4  1  0.719393  0.380894  0.256728  1
  Cs  Cs5  1  0.219393  0.619106  0.243272  1
  Cs  Cs6  1  0.280607  0.619106  0.756728  1
  Cs  Cs7  1  0.780607  0.380894  0.743272  1
  Cr  Cr8  1  0.250000  0.371985  0.000000  1
  Cr  Cr9  1  0.750000  0.628015  0.500000  1
  Mo  Mo10  1  0.750000  0.612855  0.000000  1
  Mo  Mo11  1  0.250000  0.387145  0.500000  1
  Mo  Mo12  1  0.229954  0.129439  0.247508  1
  Mo  Mo13  1  0.729954  0.870561  0.252492  1
  Mo  Mo14  1  0.770046  0.870561  0.747508  1
  Mo  Mo15  1  0.270046  0.129439  0.752492  1
  N  N16  1  0.962175  0.016636  0.250234  1
  N  N17  1  0.462175  0.983364  0.249766  1
  N  N18  1  0.037825  0.983364  0.750234  1
  N  N19  1  0.537825  0.016636  0.749766  1
  N  N20  1  0.248410  0.258770  0.372752  1
  N  N21  1  0.748410  0.741230  0.127248  1
  N  N22  1  0.751590  0.741230  0.872752  1
  N  N23  1  0.251590  0.258770  0.627248  1
  N  N24  1  0.753579  0.746840  0.621300  1
  N  N25  1  0.253579  0.253160  0.878700  1
  N  N26  1  0.246421  0.253160  0.121300  1
  N  N27  1  0.746421  0.746840  0.378700  1
  N  N28  1  0.505812  0.508928  0.500621  1
  N  N29  1  0.005812  0.491072  0.999379  1
  N  N30  1  0.494188  0.491072  0.000621  1
  N  N31  1  0.994188  0.508928  0.499379  1
