# generated using pymatgen
data_Er2FeIr3
_symmetry_space_group_name_H-M   'P 1'
_cell_length_a   5.15143881
_cell_length_b   5.44480881
_cell_length_c   5.44480900
_cell_angle_alpha   60.00000494
_cell_angle_beta   58.09755986
_cell_angle_gamma   58.09755882
_symmetry_Int_Tables_number   1
_chemical_formula_structural   Er2FeIr3
_chemical_formula_sum   'Er2 Fe1 Ir3'
_cell_volume   104.77863289
_cell_formula_units_Z   1
loop_
 _symmetry_equiv_pos_site_id
 _symmetry_equiv_pos_as_xyz
  1  'x, y, z'
loop_
 _atom_site_type_symbol
 _atom_site_label
 _atom_site_symmetry_multiplicity
 _atom_site_fract_x
 _atom_site_fract_y
 _atom_site_fract_z
 _atom_site_occupancy
  Er  Er0  1  0.244992  0.251669  0.251669  1
  Er  Er1  1  0.005008  0.998331  0.998331  1
  Fe  Fe2  1  0.125000  0.625000  0.625000  1
  Ir  Ir3  1  0.625000  0.125000  0.625000  1
  Ir  Ir4  1  0.625000  0.625000  0.125000  1
  Ir  Ir5  1  0.625000  0.625000  0.625000  1
