# generated using pymatgen
data_Sc2SnRh4Au
_symmetry_space_group_name_H-M   'P 1'
_cell_length_a   6.03433245
_cell_length_b   6.03156846
_cell_length_c   7.24841104
_cell_angle_alpha   90.01053534
_cell_angle_beta   90.00706201
_cell_angle_gamma   90.04345858
_symmetry_Int_Tables_number   1
_chemical_formula_structural   Sc2SnRh4Au
_chemical_formula_sum   'Sc4 Sn2 Rh8 Au2'
_cell_volume   263.81663231
_cell_formula_units_Z   2
loop_
 _symmetry_equiv_pos_site_id
 _symmetry_equiv_pos_as_xyz
  1  'x, y, z'
loop_
 _atom_site_type_symbol
 _atom_site_label
 _atom_site_symmetry_multiplicity
 _atom_site_fract_x
 _atom_site_fract_y
 _atom_site_fract_z
 _atom_site_occupancy
  Sc  Sc0  1  0.750099  0.250068  0.000003  1
  Sc  Sc1  1  0.249901  0.749931  0.999997  1
  Sc  Sc2  1  0.749855  0.250055  0.499988  1
  Sc  Sc3  1  0.250146  0.749944  0.500012  1
  Sn  Sn4  1  0.750350  0.750001  0.499984  1
  Sn  Sn5  1  0.249650  0.249998  0.500016  1
  Rh  Rh6  1  0.500015  0.000026  0.259193  1
  Rh  Rh7  1  0.499979  0.499994  0.259304  1
  Rh  Rh8  1  0.000001  0.999987  0.259257  1
  Rh  Rh9  1  0.000023  0.500014  0.259026  1
  Rh  Rh10  1  0.999999  0.000013  0.740743  1
  Rh  Rh11  1  0.999977  0.499985  0.740974  1
  Rh  Rh12  1  0.499984  0.999974  0.740807  1
  Rh  Rh13  1  0.500020  0.500006  0.740696  1
  Au  Au14  1  0.250058  0.249915  0.999996  1
  Au  Au15  1  0.749943  0.750084  0.000004  1
