# generated using pymatgen
data_Tb7Er9CdAg2HgPt4
_symmetry_space_group_name_H-M   'P 1'
_cell_length_a   9.60163618
_cell_length_b   9.60163582
_cell_length_c   9.58751700
_cell_angle_alpha   60.04863394
_cell_angle_beta   60.04863519
_cell_angle_gamma   60.05809706
_symmetry_Int_Tables_number   1
_chemical_formula_structural   Tb7Er9CdAg2HgPt4
_chemical_formula_sum   'Tb7 Er9 Cd1 Ag2 Hg1 Pt4'
_cell_volume   625.73592680
_cell_formula_units_Z   1
loop_
 _symmetry_equiv_pos_site_id
 _symmetry_equiv_pos_as_xyz
  1  'x, y, z'
loop_
 _atom_site_type_symbol
 _atom_site_label
 _atom_site_symmetry_multiplicity
 _atom_site_fract_x
 _atom_site_fract_y
 _atom_site_fract_z
 _atom_site_occupancy
  Tb  Tb0  1  0.811402  0.811003  0.188797  1
  Tb  Tb1  1  0.933363  0.563297  0.565512  1
  Tb  Tb2  1  0.562376  0.934616  0.937589  1
  Tb  Tb3  1  0.562376  0.934616  0.565419  1
  Tb  Tb4  1  0.933363  0.563297  0.937828  1
  Tb  Tb5  1  0.563194  0.563645  0.936581  1
  Tb  Tb6  1  0.934878  0.936819  0.564152  1
  Er  Er7  1  0.352673  0.352312  0.352508  1
  Er  Er8  1  0.352673  0.352312  0.942508  1
  Er  Er9  1  0.354364  0.939463  0.353087  1
  Er  Er10  1  0.936907  0.354810  0.354143  1
  Er  Er11  1  0.810890  0.190137  0.190213  1
  Er  Er12  1  0.190129  0.811279  0.809144  1
  Er  Er13  1  0.190129  0.811279  0.189448  1
  Er  Er14  1  0.810890  0.190137  0.808760  1
  Er  Er15  1  0.190161  0.189828  0.810005  1
  Cd  Cd16  1  0.258248  0.582073  0.579840  1
  Ag  Ag17  1  0.583298  0.584106  0.583233  1
  Ag  Ag18  1  0.583298  0.584106  0.249363  1
  Hg  Hg19  1  0.584810  0.250056  0.582567  1
  Pt  Pt20  1  0.143341  0.143602  0.144252  1
  Pt  Pt21  1  0.143341  0.143602  0.568805  1
  Pt  Pt22  1  0.144112  0.569509  0.143190  1
  Pt  Pt23  1  0.569788  0.144098  0.143057  1
