# generated using pymatgen
data_Na3Yb3(Si3Ir)8
_symmetry_space_group_name_H-M   'P 1'
_cell_length_a   10.09615861
_cell_length_b   10.09615868
_cell_length_c   8.17142802
_cell_angle_alpha   89.99118234
_cell_angle_beta   89.99117761
_cell_angle_gamma   132.24339669
_symmetry_Int_Tables_number   1
_chemical_formula_structural   Na3Yb3(Si3Ir)8
_chemical_formula_sum   'Na3 Yb3 Si24 Ir8'
_cell_volume   616.61691702
_cell_formula_units_Z   1
loop_
 _symmetry_equiv_pos_site_id
 _symmetry_equiv_pos_as_xyz
  1  'x, y, z'
loop_
 _atom_site_type_symbol
 _atom_site_label
 _atom_site_symmetry_multiplicity
 _atom_site_fract_x
 _atom_site_fract_y
 _atom_site_fract_z
 _atom_site_occupancy
  Na  Na0  1  0.499638  0.999447  0.750157  1
  Na  Na1  1  0.000553  0.500362  0.249843  1
  Na  Na2  1  0.000005  0.999995  0.000000  1
  Yb  Yb3  1  0.499389  0.999555  0.249503  1
  Yb  Yb4  1  0.000445  0.500611  0.750497  1
  Yb  Yb5  1  0.500074  0.499926  0.500000  1
  Si  Si6  1  0.389012  0.155805  0.998353  1
  Si  Si7  1  0.657126  0.890919  0.502876  1
  Si  Si8  1  0.109081  0.342874  0.497124  1
  Si  Si9  1  0.844195  0.610988  0.001647  1
  Si  Si10  1  0.610357  0.845105  0.998140  1
  Si  Si11  1  0.343794  0.108764  0.500599  1
  Si  Si12  1  0.891236  0.656206  0.499401  1
  Si  Si13  1  0.154895  0.389643  0.001860  1
  Si  Si14  1  0.618394  0.384106  0.225720  1
  Si  Si15  1  0.882510  0.116184  0.272347  1
  Si  Si16  1  0.883816  0.117490  0.727653  1
  Si  Si17  1  0.615894  0.381606  0.774280  1
  Si  Si18  1  0.384614  0.620249  0.773781  1
  Si  Si19  1  0.121856  0.886468  0.727873  1
  Si  Si20  1  0.705051  0.294949  0.000000  1
  Si  Si21  1  0.795134  0.204866  0.500000  1
  Si  Si22  1  0.294663  0.705337  0.000000  1
  Si  Si23  1  0.205188  0.794812  0.500000  1
  Si  Si24  1  0.170375  0.164627  0.330095  1
  Si  Si25  1  0.666175  0.672335  0.167830  1
  Si  Si26  1  0.327665  0.333825  0.832170  1
  Si  Si27  1  0.835373  0.829625  0.669905  1
  Si  Si28  1  0.379751  0.615386  0.226219  1
  Si  Si29  1  0.113532  0.878144  0.272127  1
  Ir  Ir30  1  0.627035  0.625957  0.874245  1
  Ir  Ir31  1  0.125524  0.126453  0.626658  1
  Ir  Ir32  1  0.873547  0.874476  0.373342  1
  Ir  Ir33  1  0.374043  0.372965  0.125755  1
  Ir  Ir34  1  0.332918  0.667082  0.500000  1
  Ir  Ir35  1  0.167449  0.832551  0.000000  1
  Ir  Ir36  1  0.667655  0.332345  0.500000  1
  Ir  Ir37  1  0.832035  0.167965  0.000000  1
