# generated using pymatgen
data_Er6TaCo17P12
_symmetry_space_group_name_H-M   'P 1'
_cell_length_a   3.67724400
_cell_length_b   10.51876600
_cell_length_c   12.19441200
_cell_angle_alpha   90.00000000
_cell_angle_beta   90.00000000
_cell_angle_gamma   90.00000000
_symmetry_Int_Tables_number   1
_chemical_formula_structural   Er6TaCo17P12
_chemical_formula_sum   'Er6 Ta1 Co17 P12'
_cell_volume   471.68069954
_cell_formula_units_Z   1
loop_
 _symmetry_equiv_pos_site_id
 _symmetry_equiv_pos_as_xyz
  1  'x, y, z'
loop_
 _atom_site_type_symbol
 _atom_site_label
 _atom_site_symmetry_multiplicity
 _atom_site_fract_x
 _atom_site_fract_y
 _atom_site_fract_z
 _atom_site_occupancy
  Er  Er0  1  0.750000  0.250000  0.472735  1
  Er  Er1  1  0.250000  0.750000  0.522993  1
  Er  Er2  1  0.250000  0.929905  0.792757  1
  Er  Er3  1  0.250000  0.570095  0.792757  1
  Er  Er4  1  0.750000  0.067509  0.203921  1
  Er  Er5  1  0.750000  0.432491  0.203921  1
  Ta  Ta6  1  0.250000  0.250000  0.845060  1
  Co  Co7  1  0.750000  0.750000  0.161985  1
  Co  Co8  1  0.250000  0.250000  0.298179  1
  Co  Co9  1  0.750000  0.750000  0.703220  1
  Co  Co10  1  0.750000  0.250000  0.014669  1
  Co  Co11  1  0.250000  0.750000  0.985741  1
  Co  Co12  1  0.250000  0.419895  0.010222  1
  Co  Co13  1  0.250000  0.080105  0.010222  1
  Co  Co14  1  0.750000  0.586125  0.996088  1
  Co  Co15  1  0.750000  0.913875  0.996088  1
  Co  Co16  1  0.250000  0.454586  0.567090  1
  Co  Co17  1  0.250000  0.045414  0.567090  1
  Co  Co18  1  0.750000  0.547956  0.430346  1
  Co  Co19  1  0.750000  0.952044  0.430346  1
  Co  Co20  1  0.250000  0.870756  0.292019  1
  Co  Co21  1  0.250000  0.629244  0.292019  1
  Co  Co22  1  0.750000  0.127084  0.706398  1
  Co  Co23  1  0.750000  0.372916  0.706398  1
  P  P24  1  0.250000  0.250000  0.119974  1
  P  P25  1  0.750000  0.750000  0.882461  1
  P  P26  1  0.250000  0.250000  0.642573  1
  P  P27  1  0.750000  0.750000  0.345324  1
  P  P28  1  0.250000  0.439389  0.382453  1
  P  P29  1  0.250000  0.060611  0.382453  1
  P  P30  1  0.750000  0.562362  0.614530  1
  P  P31  1  0.750000  0.937638  0.614530  1
  P  P32  1  0.250000  0.898985  0.110687  1
  P  P33  1  0.250000  0.601015  0.110687  1
  P  P34  1  0.750000  0.088319  0.896032  1
  P  P35  1  0.750000  0.411681  0.896032  1
