# generated using pymatgen
data_Tb2Er2HgPd3Pb2
_symmetry_space_group_name_H-M   'P 1'
_cell_length_a   8.07065668
_cell_length_b   8.07065774
_cell_length_c   3.63027600
_cell_angle_alpha   90.00000000
_cell_angle_beta   90.00000000
_cell_angle_gamma   90.00900920
_symmetry_Int_Tables_number   1
_chemical_formula_structural   Tb2Er2HgPd3Pb2
_chemical_formula_sum   'Tb2 Er2 Hg1 Pd3 Pb2'
_cell_volume   236.45986793
_cell_formula_units_Z   1
loop_
 _symmetry_equiv_pos_site_id
 _symmetry_equiv_pos_as_xyz
  1  'x, y, z'
loop_
 _atom_site_type_symbol
 _atom_site_label
 _atom_site_symmetry_multiplicity
 _atom_site_fract_x
 _atom_site_fract_y
 _atom_site_fract_z
 _atom_site_occupancy
  Tb  Tb0  1  0.690991  0.163819  0.500000  1
  Tb  Tb1  1  0.336181  0.809009  0.500000  1
  Er  Er2  1  0.150908  0.349092  0.500000  1
  Er  Er3  1  0.827941  0.672059  0.500000  1
  Hg  Hg4  1  0.373385  0.126615  0.000000  1
  Pd  Pd5  1  0.119009  0.628679  0.000000  1
  Pd  Pd6  1  0.625487  0.874513  0.000000  1
  Pd  Pd7  1  0.871321  0.380991  0.000000  1
  Pb  Pb8  1  0.999166  0.994391  0.000000  1
  Pb  Pb9  1  0.505609  0.500834  0.000000  1
