# generated using pymatgen
data_Y6Al24CuOs7
_symmetry_space_group_name_H-M   'P 1'
_cell_length_a   8.84650702
_cell_length_b   8.84650727
_cell_length_c   9.54097881
_cell_angle_alpha   89.63152649
_cell_angle_beta   90.36847511
_cell_angle_gamma   119.80224028
_symmetry_Int_Tables_number   1
_chemical_formula_structural   Y6Al24CuOs7
_chemical_formula_sum   'Y6 Al24 Cu1 Os7'
_cell_volume   647.91379775
_cell_formula_units_Z   1
loop_
 _symmetry_equiv_pos_site_id
 _symmetry_equiv_pos_as_xyz
  1  'x, y, z'
loop_
 _atom_site_type_symbol
 _atom_site_label
 _atom_site_symmetry_multiplicity
 _atom_site_fract_x
 _atom_site_fract_y
 _atom_site_fract_z
 _atom_site_occupancy
  Y  Y0  1  0.190353  0.385861  0.249863  1
  Y  Y1  1  0.809647  0.614139  0.750137  1
  Y  Y2  1  0.614139  0.809647  0.249863  1
  Y  Y3  1  0.385861  0.190353  0.750137  1
  Y  Y4  1  0.194334  0.805666  0.250851  1
  Y  Y5  1  0.805666  0.194334  0.749149  1
  Al  Al6  1  0.332117  0.667883  0.017787  1
  Al  Al7  1  0.667883  0.332117  0.982213  1
  Al  Al8  1  0.666437  0.333563  0.515788  1
  Al  Al9  1  0.333563  0.666437  0.484212  1
  Al  Al10  1  0.163210  0.326044  0.575072  1
  Al  Al11  1  0.836790  0.673956  0.424928  1
  Al  Al12  1  0.673956  0.836790  0.575072  1
  Al  Al13  1  0.842690  0.675441  0.078156  1
  Al  Al14  1  0.326044  0.163210  0.424928  1
  Al  Al15  1  0.157310  0.324559  0.921844  1
  Al  Al16  1  0.163137  0.836863  0.574585  1
  Al  Al17  1  0.324559  0.157310  0.078156  1
  Al  Al18  1  0.836863  0.163137  0.425415  1
  Al  Al19  1  0.675441  0.842690  0.921844  1
  Al  Al20  1  0.836432  0.163568  0.074971  1
  Al  Al21  1  0.163568  0.836432  0.925029  1
  Al  Al22  1  0.560890  0.121578  0.249063  1
  Al  Al23  1  0.439110  0.878422  0.750937  1
  Al  Al24  1  0.878422  0.439110  0.249063  1
  Al  Al25  1  0.121578  0.560890  0.750937  1
  Al  Al26  1  0.561300  0.438700  0.250242  1
  Al  Al27  1  0.438700  0.561300  0.749758  1
  Al  Al28  1  0.999407  0.000593  0.250474  1
  Al  Al29  1  0.000593  0.999407  0.749526  1
  Cu  Cu30  1  0.500000  0.500000  0.000000  1
  Os  Os31  1  0.500000  0.000000  0.000000  1
  Os  Os32  1  0.000000  0.500000  0.000000  1
  Os  Os33  1  0.500000  0.000000  0.500000  1
  Os  Os34  1  0.000000  0.500000  0.500000  1
  Os  Os35  1  0.500000  0.500000  0.500000  1
  Os  Os36  1  0.000000  0.000000  0.000000  1
  Os  Os37  1  0.000000  0.000000  0.500000  1
