# generated using pymatgen
data_Ho5Tl3C
_symmetry_space_group_name_H-M   'P 1'
_cell_length_a   6.50228700
_cell_length_b   9.05470369
_cell_length_c   9.05461701
_cell_angle_alpha   120.00031526
_cell_angle_beta   90.00000000
_cell_angle_gamma   90.00000000
_symmetry_Int_Tables_number   1
_chemical_formula_structural   Ho5Tl3C
_chemical_formula_sum   'Ho10 Tl6 C2'
_cell_volume   461.67856879
_cell_formula_units_Z   2
loop_
 _symmetry_equiv_pos_site_id
 _symmetry_equiv_pos_as_xyz
  1  'x, y, z'
loop_
 _atom_site_type_symbol
 _atom_site_label
 _atom_site_symmetry_multiplicity
 _atom_site_fract_x
 _atom_site_fract_y
 _atom_site_fract_z
 _atom_site_occupancy
  Ho  Ho0  1  0.499998  0.333340  0.666671  1
  Ho  Ho1  1  0.499998  0.666669  0.333329  1
  Ho  Ho2  1  0.999998  0.666660  0.333329  1
  Ho  Ho3  1  0.999998  0.333331  0.666671  1
  Ho  Ho4  1  0.749999  0.207587  0.000000  1
  Ho  Ho5  1  0.750005  0.792274  0.792433  1
  Ho  Ho6  1  0.750005  0.999841  0.207567  1
  Ho  Ho7  1  0.249999  0.792413  0.000000  1
  Ho  Ho8  1  0.250005  0.207726  0.207567  1
  Ho  Ho9  1  0.250005  0.000159  0.792433  1
  Tl  Tl10  1  0.750001  0.585835  0.000000  1
  Tl  Tl11  1  0.749997  0.414045  0.414043  1
  Tl  Tl12  1  0.749997  0.000002  0.585957  1
  Tl  Tl13  1  0.250001  0.414165  0.000000  1
  Tl  Tl14  1  0.249997  0.585955  0.585957  1
  Tl  Tl15  1  0.249997  0.999998  0.414043  1
  C  C16  1  0.500000  0.999999  0.000000  1
  C  C17  1  0.000000  0.000001  0.000000  1
