# generated using pymatgen
data_Lu3Hf5(Ta3Ge4)4
_symmetry_space_group_name_H-M   'P 1'
_cell_length_a   6.87662217
_cell_length_b   6.99147659
_cell_length_c   13.33884928
_cell_angle_alpha   90.07711220
_cell_angle_beta   90.06675214
_cell_angle_gamma   90.00298532
_symmetry_Int_Tables_number   1
_chemical_formula_structural   Lu3Hf5(Ta3Ge4)4
_chemical_formula_sum   'Lu3 Hf5 Ta12 Ge16'
_cell_volume   641.30074924
_cell_formula_units_Z   1
loop_
 _symmetry_equiv_pos_site_id
 _symmetry_equiv_pos_as_xyz
  1  'x, y, z'
loop_
 _atom_site_type_symbol
 _atom_site_label
 _atom_site_symmetry_multiplicity
 _atom_site_fract_x
 _atom_site_fract_y
 _atom_site_fract_z
 _atom_site_occupancy
  Lu  Lu0  1  0.489448  0.674924  0.589877  1
  Lu  Lu1  1  0.989315  0.825022  0.909508  1
  Lu  Lu2  1  0.511167  0.325092  0.091070  1
  Hf  Hf3  1  0.013521  0.175586  0.410178  1
  Hf  Hf4  1  0.515025  0.322877  0.408698  1
  Hf  Hf5  1  0.013030  0.176372  0.090886  1
  Hf  Hf6  1  0.487168  0.676798  0.908373  1
  Hf  Hf7  1  0.987093  0.825208  0.590383  1
  Ta  Ta8  1  0.659870  0.165303  0.624226  1
  Ta  Ta9  1  0.159843  0.334723  0.875395  1
  Ta  Ta10  1  0.339149  0.836273  0.124727  1
  Ta  Ta11  1  0.839707  0.664456  0.376012  1
  Ta  Ta12  1  0.337571  0.837706  0.374988  1
  Ta  Ta13  1  0.840443  0.664322  0.126174  1
  Ta  Ta14  1  0.659812  0.164582  0.874350  1
  Ta  Ta15  1  0.157606  0.333448  0.624289  1
  Ta  Ta16  1  0.836735  0.488906  0.748853  1
  Ta  Ta17  1  0.336257  0.010578  0.750041  1
  Ta  Ta18  1  0.162851  0.509216  0.251084  1
  Ta  Ta19  1  0.664292  0.989774  0.251527  1
  Ge  Ge20  1  0.684993  0.962970  0.458790  1
  Ge  Ge21  1  0.181316  0.538998  0.041281  1
  Ge  Ge22  1  0.319101  0.038775  0.958957  1
  Ge  Ge23  1  0.818760  0.459394  0.539777  1
  Ge  Ge24  1  0.314876  0.040118  0.540093  1
  Ge  Ge25  1  0.816275  0.460695  0.958894  1
  Ge  Ge26  1  0.683104  0.960258  0.041160  1
  Ge  Ge27  1  0.182792  0.538104  0.458566  1
  Ge  Ge28  1  0.460945  0.387288  0.750407  1
  Ge  Ge29  1  0.961130  0.112288  0.749547  1
  Ge  Ge30  1  0.538228  0.612948  0.250891  1
  Ge  Ge31  1  0.038245  0.888718  0.249898  1
  Ge  Ge32  1  0.692193  0.847788  0.750522  1
  Ge  Ge33  1  0.192340  0.651712  0.749252  1
  Ge  Ge34  1  0.306618  0.152539  0.250862  1
  Ge  Ge35  1  0.809184  0.346239  0.250464  1
