# generated using pymatgen
data_YbCe2Be2Rh5
_symmetry_space_group_name_H-M   'P 1'
_cell_length_a   9.82978600
_cell_length_b   9.82978600
_cell_length_c   3.33669400
_cell_angle_alpha   90.00000000
_cell_angle_beta   90.00000000
_cell_angle_gamma   90.00000000
_symmetry_Int_Tables_number   1
_chemical_formula_structural   YbCe2Be2Rh5
_chemical_formula_sum   'Yb2 Ce4 Be4 Rh10'
_cell_volume   322.40703274
_cell_formula_units_Z   2
loop_
 _symmetry_equiv_pos_site_id
 _symmetry_equiv_pos_as_xyz
  1  'x, y, z'
loop_
 _atom_site_type_symbol
 _atom_site_label
 _atom_site_symmetry_multiplicity
 _atom_site_fract_x
 _atom_site_fract_y
 _atom_site_fract_z
 _atom_site_occupancy
  Yb  Yb0  1  0.000000  0.000000  0.000000  1
  Yb  Yb1  1  0.500000  0.500000  0.000000  1
  Ce  Ce2  1  0.824312  0.324312  0.000000  1
  Ce  Ce3  1  0.324312  0.175688  0.000000  1
  Ce  Ce4  1  0.675688  0.824312  0.000000  1
  Ce  Ce5  1  0.175688  0.675688  0.000000  1
  Be  Be6  1  0.619747  0.119747  0.000000  1
  Be  Be7  1  0.119747  0.380253  0.000000  1
  Be  Be8  1  0.880253  0.619747  0.000000  1
  Be  Be9  1  0.380253  0.880253  0.000000  1
  Rh  Rh10  1  0.071943  0.221753  0.500000  1
  Rh  Rh11  1  0.221753  0.928057  0.500000  1
  Rh  Rh12  1  0.778247  0.071943  0.500000  1
  Rh  Rh13  1  0.928057  0.778247  0.500000  1
  Rh  Rh14  1  0.428057  0.721753  0.500000  1
  Rh  Rh15  1  0.571943  0.278247  0.500000  1
  Rh  Rh16  1  0.721753  0.571943  0.500000  1
  Rh  Rh17  1  0.278247  0.428057  0.500000  1
  Rh  Rh18  1  0.500000  0.000000  0.500000  1
  Rh  Rh19  1  0.000000  0.500000  0.500000  1
