# generated using pymatgen
data_Ca5Yb(Si3Os)8
_symmetry_space_group_name_H-M   'P 1'
_cell_length_a   10.18794559
_cell_length_b   10.18794522
_cell_length_c   8.19116200
_cell_angle_alpha   89.99998881
_cell_angle_beta   89.99998737
_cell_angle_gamma   132.55735204
_symmetry_Int_Tables_number   1
_chemical_formula_structural   Ca5Yb(Si3Os)8
_chemical_formula_sum   'Ca5 Yb1 Si24 Os8'
_cell_volume   626.25451304
_cell_formula_units_Z   1
loop_
 _symmetry_equiv_pos_site_id
 _symmetry_equiv_pos_as_xyz
  1  'x, y, z'
loop_
 _atom_site_type_symbol
 _atom_site_label
 _atom_site_symmetry_multiplicity
 _atom_site_fract_x
 _atom_site_fract_y
 _atom_site_fract_z
 _atom_site_occupancy
  Ca  Ca0  1  0.500655  0.000650  0.750022  1
  Ca  Ca1  1  0.999350  0.499345  0.249978  1
  Ca  Ca2  1  0.499345  0.999350  0.249978  1
  Ca  Ca3  1  0.000650  0.500655  0.750022  1
  Ca  Ca4  1  0.000000  0.000000  0.000000  1
  Yb  Yb5  1  0.500000  0.500000  0.500000  1
  Si  Si6  1  0.794548  0.205452  0.500000  1
  Si  Si7  1  0.705410  0.294590  0.000000  1
  Si  Si8  1  0.205452  0.794548  0.500000  1
  Si  Si9  1  0.294590  0.705410  0.000000  1
  Si  Si10  1  0.667665  0.667665  0.167707  1
  Si  Si11  1  0.167956  0.167956  0.332565  1
  Si  Si12  1  0.832044  0.832044  0.667435  1
  Si  Si13  1  0.332335  0.332335  0.832293  1
  Si  Si14  1  0.847436  0.613541  0.991792  1
  Si  Si15  1  0.113792  0.347508  0.508226  1
  Si  Si16  1  0.652492  0.886208  0.491774  1
  Si  Si17  1  0.386459  0.152564  0.008208  1
  Si  Si18  1  0.152564  0.386459  0.008208  1
  Si  Si19  1  0.886208  0.652492  0.491774  1
  Si  Si20  1  0.125759  0.892402  0.731050  1
  Si  Si21  1  0.392497  0.625690  0.768829  1
  Si  Si22  1  0.374310  0.607503  0.231171  1
  Si  Si23  1  0.107598  0.874241  0.268950  1
  Si  Si24  1  0.874241  0.107598  0.268950  1
  Si  Si25  1  0.607503  0.374310  0.231171  1
  Si  Si26  1  0.625690  0.392497  0.768829  1
  Si  Si27  1  0.892402  0.125759  0.731050  1
  Si  Si28  1  0.613541  0.847436  0.991792  1
  Si  Si29  1  0.347508  0.113792  0.508226  1
  Os  Os30  1  0.625561  0.625561  0.874592  1
  Os  Os31  1  0.126053  0.126053  0.624913  1
  Os  Os32  1  0.374439  0.374439  0.125408  1
  Os  Os33  1  0.873947  0.873947  0.375087  1
  Os  Os34  1  0.169681  0.830319  0.000000  1
  Os  Os35  1  0.330494  0.669506  0.500000  1
  Os  Os36  1  0.830319  0.169681  0.000000  1
  Os  Os37  1  0.669506  0.330494  0.500000  1
