# generated using pymatgen
data_Y5Co16(ReP4)3
_symmetry_space_group_name_H-M   'P 1'
_cell_length_a   12.00869400
_cell_length_b   12.00869531
_cell_length_c   3.71115900
_cell_angle_alpha   90.00000000
_cell_angle_beta   90.00000000
_cell_angle_gamma   120.00000191
_symmetry_Int_Tables_number   1
_chemical_formula_structural   Y5Co16(ReP4)3
_chemical_formula_sum   'Y5 Co16 Re3 P12'
_cell_volume   463.48084387
_cell_formula_units_Z   1
loop_
 _symmetry_equiv_pos_site_id
 _symmetry_equiv_pos_as_xyz
  1  'x, y, z'
loop_
 _atom_site_type_symbol
 _atom_site_label
 _atom_site_symmetry_multiplicity
 _atom_site_fract_x
 _atom_site_fract_y
 _atom_site_fract_z
 _atom_site_occupancy
  Y  Y0  1  0.666667  0.333333  0.000000  1
  Y  Y1  1  0.333333  0.666667  0.000000  1
  Y  Y2  1  0.815236  0.815236  0.500000  1
  Y  Y3  1  0.184764  0.000000  0.500000  1
  Y  Y4  1  0.000000  0.184764  0.500000  1
  Co  Co5  1  0.874189  0.357569  0.500000  1
  Co  Co6  1  0.642431  0.516620  0.500000  1
  Co  Co7  1  0.483380  0.125811  0.500000  1
  Co  Co8  1  0.357569  0.874189  0.500000  1
  Co  Co9  1  0.516620  0.642431  0.500000  1
  Co  Co10  1  0.125811  0.483380  0.500000  1
  Co  Co11  1  0.802524  0.178525  0.000000  1
  Co  Co12  1  0.821475  0.623997  0.000000  1
  Co  Co13  1  0.376003  0.197476  0.000000  1
  Co  Co14  1  0.178525  0.802524  0.000000  1
  Co  Co15  1  0.623997  0.821475  0.000000  1
  Co  Co16  1  0.197476  0.376003  0.000000  1
  Co  Co17  1  0.282675  0.282675  0.500000  1
  Co  Co18  1  0.717325  0.000000  0.500000  1
  Co  Co19  1  0.000000  0.717325  0.500000  1
  Co  Co20  1  0.000000  0.000000  0.000000  1
  Re  Re21  1  0.445720  0.445720  0.000000  1
  Re  Re22  1  0.554280  0.000000  0.000000  1
  Re  Re23  1  0.000000  0.554280  0.000000  1
  P  P24  1  0.686179  0.165094  0.500000  1
  P  P25  1  0.834906  0.521085  0.500000  1
  P  P26  1  0.478915  0.313821  0.500000  1
  P  P27  1  0.165094  0.686179  0.500000  1
  P  P28  1  0.521085  0.834906  0.500000  1
  P  P29  1  0.313821  0.478915  0.500000  1
  P  P30  1  0.178329  0.178329  0.000000  1
  P  P31  1  0.821671  0.000000  0.000000  1
  P  P32  1  0.000000  0.821671  0.000000  1
  P  P33  1  0.637954  0.637954  0.000000  1
  P  P34  1  0.362046  0.000000  0.000000  1
  P  P35  1  0.000000  0.362046  0.000000  1
