# generated using pymatgen
data_YTmLu2(Ga2Ag)4
_symmetry_space_group_name_H-M   'P 1'
_cell_length_a   4.36041300
_cell_length_b   6.89766372
_cell_length_c   10.20838864
_cell_angle_alpha   90.32602850
_cell_angle_beta   90.00000000
_cell_angle_gamma   90.00000000
_symmetry_Int_Tables_number   1
_chemical_formula_structural   YTmLu2(Ga2Ag)4
_chemical_formula_sum   'Y1 Tm1 Lu2 Ga8 Ag4'
_cell_volume   307.02928958
_cell_formula_units_Z   1
loop_
 _symmetry_equiv_pos_site_id
 _symmetry_equiv_pos_as_xyz
  1  'x, y, z'
loop_
 _atom_site_type_symbol
 _atom_site_label
 _atom_site_symmetry_multiplicity
 _atom_site_fract_x
 _atom_site_fract_y
 _atom_site_fract_z
 _atom_site_occupancy
  Y  Y0  1  0.750000  0.721759  0.322719  1
  Tm  Tm1  1  0.250000  0.278054  0.677110  1
  Lu  Lu2  1  0.250000  0.778696  0.823493  1
  Lu  Lu3  1  0.750000  0.222060  0.175572  1
  Ga  Ga4  1  0.250000  0.699872  0.536801  1
  Ga  Ga5  1  0.750000  0.297854  0.464285  1
  Ga  Ga6  1  0.750000  0.802243  0.033704  1
  Ga  Ga7  1  0.250000  0.198725  0.964869  1
  Ga  Ga8  1  0.250000  0.932806  0.155571  1
  Ga  Ga9  1  0.750000  0.069279  0.844228  1
  Ga  Ga10  1  0.750000  0.569504  0.656223  1
  Ga  Ga11  1  0.250000  0.427399  0.343413  1
  Ag  Ag12  1  0.250000  0.546278  0.093889  1
  Ag  Ag13  1  0.750000  0.454352  0.905251  1
  Ag  Ag14  1  0.750000  0.954708  0.596876  1
  Ag  Ag15  1  0.250000  0.046413  0.405995  1
