# generated using pymatgen
data_Nd5ErTi2(Co4P3)4
_symmetry_space_group_name_H-M   'P 1'
_cell_length_a   3.75317300
_cell_length_b   10.73064736
_cell_length_c   12.45566843
_cell_angle_alpha   89.97023605
_cell_angle_beta   90.00000000
_cell_angle_gamma   90.00000000
_symmetry_Int_Tables_number   1
_chemical_formula_structural   Nd5ErTi2(Co4P3)4
_chemical_formula_sum   'Nd5 Er1 Ti2 Co16 P12'
_cell_volume   501.63922273
_cell_formula_units_Z   1
loop_
 _symmetry_equiv_pos_site_id
 _symmetry_equiv_pos_as_xyz
  1  'x, y, z'
loop_
 _atom_site_type_symbol
 _atom_site_label
 _atom_site_symmetry_multiplicity
 _atom_site_fract_x
 _atom_site_fract_y
 _atom_site_fract_z
 _atom_site_occupancy
  Nd  Nd0  1  0.000000  0.500283  0.524874  1
  Nd  Nd1  1  0.500000  0.999524  0.474074  1
  Nd  Nd2  1  0.500000  0.179222  0.204968  1
  Nd  Nd3  1  0.000000  0.680580  0.794484  1
  Nd  Nd4  1  0.000000  0.319853  0.796202  1
  Er  Er5  1  0.500000  0.818956  0.203478  1
  Ti  Ti6  1  0.500000  0.501188  0.151793  1
  Ti  Ti7  1  0.000000  0.999689  0.848681  1
  Co  Co8  1  0.500000  0.500786  0.704317  1
  Co  Co9  1  0.000000  0.995161  0.294076  1
  Co  Co10  1  0.000000  0.501736  0.990014  1
  Co  Co11  1  0.500000  0.998047  0.013424  1
  Co  Co12  1  0.500000  0.332520  0.995811  1
  Co  Co13  1  0.500000  0.669122  0.997015  1
  Co  Co14  1  0.000000  0.166125  0.006456  1
  Co  Co15  1  0.000000  0.831677  0.007233  1
  Co  Co16  1  0.500000  0.295705  0.431611  1
  Co  Co17  1  0.500000  0.704813  0.428250  1
  Co  Co18  1  0.000000  0.203735  0.568437  1
  Co  Co19  1  0.000000  0.796286  0.565849  1
  Co  Co20  1  0.500000  0.880901  0.705491  1
  Co  Co21  1  0.500000  0.119620  0.707155  1
  Co  Co22  1  0.000000  0.622015  0.290889  1
  Co  Co23  1  0.000000  0.381172  0.293766  1
  P  P24  1  0.500000  0.501093  0.888389  1
  P  P25  1  0.000000  0.996266  0.115247  1
  P  P26  1  0.500000  0.499892  0.348648  1
  P  P27  1  0.000000  0.000232  0.650895  1
  P  P28  1  0.500000  0.306223  0.614553  1
  P  P29  1  0.500000  0.694986  0.612219  1
  P  P30  1  0.000000  0.193369  0.385794  1
  P  P31  1  0.000000  0.807019  0.380771  1
  P  P32  1  0.500000  0.844491  0.894661  1
  P  P33  1  0.500000  0.154671  0.896157  1
  P  P34  1  0.000000  0.658274  0.108411  1
  P  P35  1  0.000000  0.344769  0.105910  1
