# generated using pymatgen
data_Cu5Te8Se
_symmetry_space_group_name_H-M   'P 1'
_cell_length_a   11.94515908
_cell_length_b   11.94515872
_cell_length_c   9.82024186
_cell_angle_alpha   93.30035685
_cell_angle_beta   93.30035729
_cell_angle_gamma   14.47644539
_symmetry_Int_Tables_number   1
_chemical_formula_structural   Cu5Te8Se
_chemical_formula_sum   'Cu5 Te8 Se1'
_cell_volume   349.68917987
_cell_formula_units_Z   1
loop_
 _symmetry_equiv_pos_site_id
 _symmetry_equiv_pos_as_xyz
  1  'x, y, z'
loop_
 _atom_site_type_symbol
 _atom_site_label
 _atom_site_symmetry_multiplicity
 _atom_site_fract_x
 _atom_site_fract_y
 _atom_site_fract_z
 _atom_site_occupancy
  Cu  Cu0  1  0.281409  0.281409  0.411389  1
  Cu  Cu1  1  0.655187  0.655187  0.941452  1
  Cu  Cu2  1  0.351649  0.351649  0.062796  1
  Cu  Cu3  1  0.659675  0.659675  0.673852  1
  Cu  Cu4  1  0.994575  0.994575  0.007837  1
  Te  Te5  1  0.770155  0.770155  0.171184  1
  Te  Te6  1  0.236325  0.236325  0.824658  1
  Te  Te7  1  0.447344  0.447344  0.210819  1
  Te  Te8  1  0.554625  0.554625  0.758748  1
  Te  Te9  1  0.898115  0.898115  0.856986  1
  Te  Te10  1  0.098368  0.098368  0.114008  1
  Te  Te11  1  0.866367  0.866367  0.519463  1
  Te  Te12  1  0.173643  0.173643  0.450837  1
  Se  Se13  1  0.512561  0.512561  0.495970  1
