# generated using pymatgen
data_Y4Al4PdRuPtRh
_symmetry_space_group_name_H-M   'P 1'
_cell_length_a   4.35078800
_cell_length_b   6.90639385
_cell_length_c   7.87650200
_cell_angle_alpha   89.84630722
_cell_angle_beta   90.00000000
_cell_angle_gamma   90.00000000
_symmetry_Int_Tables_number   1
_chemical_formula_structural   Y4Al4PdRuPtRh
_chemical_formula_sum   'Y4 Al4 Pd1 Ru1 Pt1 Rh1'
_cell_volume   236.67429285
_cell_formula_units_Z   1
loop_
 _symmetry_equiv_pos_site_id
 _symmetry_equiv_pos_as_xyz
  1  'x, y, z'
loop_
 _atom_site_type_symbol
 _atom_site_label
 _atom_site_symmetry_multiplicity
 _atom_site_fract_x
 _atom_site_fract_y
 _atom_site_fract_z
 _atom_site_occupancy
  Y  Y0  1  0.250000  0.023648  0.320623  1
  Y  Y1  1  0.250000  0.539048  0.182254  1
  Y  Y2  1  0.750000  0.965261  0.678940  1
  Y  Y3  1  0.750000  0.472291  0.818658  1
  Al  Al4  1  0.250000  0.136765  0.935319  1
  Al  Al5  1  0.250000  0.643256  0.560609  1
  Al  Al6  1  0.750000  0.856257  0.062473  1
  Al  Al7  1  0.750000  0.363404  0.438301  1
  Pd  Pd8  1  0.750000  0.227423  0.118839  1
  Ru  Ru9  1  0.750000  0.734191  0.381419  1
  Pt  Pt10  1  0.250000  0.270853  0.620436  1
  Rh  Rh11  1  0.250000  0.767604  0.882129  1
