# generated using pymatgen
data_Yb4CrFe3B16
_symmetry_space_group_name_H-M   'P 1'
_cell_length_a   3.34861000
_cell_length_b   5.91208792
_cell_length_c   11.44512778
_cell_angle_alpha   90.06396511
_cell_angle_beta   90.00000000
_cell_angle_gamma   90.00000000
_symmetry_Int_Tables_number   1
_chemical_formula_structural   Yb4CrFe3B16
_chemical_formula_sum   'Yb4 Cr1 Fe3 B16'
_cell_volume   226.58222077
_cell_formula_units_Z   1
loop_
 _symmetry_equiv_pos_site_id
 _symmetry_equiv_pos_as_xyz
  1  'x, y, z'
loop_
 _atom_site_type_symbol
 _atom_site_label
 _atom_site_symmetry_multiplicity
 _atom_site_fract_x
 _atom_site_fract_y
 _atom_site_fract_z
 _atom_site_occupancy
  Yb  Yb0  1  0.000000  0.126012  0.649452  1
  Yb  Yb1  1  0.000000  0.873409  0.349634  1
  Yb  Yb2  1  0.000000  0.624882  0.847559  1
  Yb  Yb3  1  0.000000  0.375706  0.152931  1
  Cr  Cr4  1  0.000000  0.123593  0.919316  1
  Fe  Fe5  1  0.000000  0.877906  0.081275  1
  Fe  Fe6  1  0.000000  0.626913  0.581245  1
  Fe  Fe7  1  0.000000  0.373276  0.417419  1
  B  B8  1  0.500000  0.362878  0.967874  1
  B  B9  1  0.500000  0.638711  0.033552  1
  B  B10  1  0.500000  0.860739  0.532092  1
  B  B11  1  0.500000  0.138963  0.467506  1
  B  B12  1  0.500000  0.475871  0.689667  1
  B  B13  1  0.500000  0.524893  0.310096  1
  B  B14  1  0.500000  0.975044  0.808700  1
  B  B15  1  0.500000  0.023064  0.191005  1
  B  B16  1  0.500000  0.281992  0.815493  1
  B  B17  1  0.500000  0.721274  0.182568  1
  B  B18  1  0.500000  0.777938  0.681630  1
  B  B19  1  0.500000  0.221438  0.317971  1
  B  B20  1  0.500000  0.388216  0.546239  1
  B  B21  1  0.500000  0.611855  0.453510  1
  B  B22  1  0.500000  0.884372  0.954866  1
  B  B23  1  0.500000  0.111056  0.048402  1
