# generated using pymatgen
data_Nd12Tc3Hg2
_symmetry_space_group_name_H-M   'P 1'
_cell_length_a   8.70894031
_cell_length_b   8.70894036
_cell_length_c   8.70893977
_cell_angle_alpha   109.71560248
_cell_angle_beta   109.71561165
_cell_angle_gamma   108.98353830
_symmetry_Int_Tables_number   1
_chemical_formula_structural   Nd12Tc3Hg2
_chemical_formula_sum   'Nd12 Tc3 Hg2'
_cell_volume   508.45262280
_cell_formula_units_Z   1
loop_
 _symmetry_equiv_pos_site_id
 _symmetry_equiv_pos_as_xyz
  1  'x, y, z'
loop_
 _atom_site_type_symbol
 _atom_site_label
 _atom_site_symmetry_multiplicity
 _atom_site_fract_x
 _atom_site_fract_y
 _atom_site_fract_z
 _atom_site_occupancy
  Nd  Nd0  1  0.184880  0.429831  0.244950  1
  Nd  Nd1  1  0.815120  0.570169  0.755050  1
  Nd  Nd2  1  0.184880  0.939931  0.755050  1
  Nd  Nd3  1  0.939931  0.184880  0.755050  1
  Nd  Nd4  1  0.815120  0.060069  0.244950  1
  Nd  Nd5  1  0.060069  0.815120  0.244950  1
  Nd  Nd6  1  0.429831  0.184880  0.244950  1
  Nd  Nd7  1  0.570169  0.815120  0.755050  1
  Nd  Nd8  1  0.319318  0.319318  0.638637  1
  Nd  Nd9  1  0.680682  0.680682  0.361363  1
  Nd  Nd10  1  0.680682  0.319318  0.000000  1
  Nd  Nd11  1  0.319318  0.680682  0.000000  1
  Tc  Tc12  1  0.337608  0.337608  0.000000  1
  Tc  Tc13  1  0.662392  0.662392  0.000000  1
  Tc  Tc14  1  0.000000  0.000000  0.000000  1
  Hg  Hg15  1  0.000000  0.500000  0.500000  1
  Hg  Hg16  1  0.500000  0.000000  0.500000  1
