# generated using pymatgen
data_NdEr2Cd3Sn2Au
_symmetry_space_group_name_H-M   'P 1'
_cell_length_a   7.51078315
_cell_length_b   7.51078275
_cell_length_c   4.58858900
_cell_angle_alpha   90.00000000
_cell_angle_beta   90.00000000
_cell_angle_gamma   120.68997256
_symmetry_Int_Tables_number   1
_chemical_formula_structural   NdEr2Cd3Sn2Au
_chemical_formula_sum   'Nd1 Er2 Cd3 Sn2 Au1'
_cell_volume   222.59661003
_cell_formula_units_Z   1
loop_
 _symmetry_equiv_pos_site_id
 _symmetry_equiv_pos_as_xyz
  1  'x, y, z'
loop_
 _atom_site_type_symbol
 _atom_site_label
 _atom_site_symmetry_multiplicity
 _atom_site_fract_x
 _atom_site_fract_y
 _atom_site_fract_z
 _atom_site_occupancy
  Nd  Nd0  1  0.410097  0.410097  0.000000  1
  Er  Er1  1  0.594248  0.000709  0.000000  1
  Er  Er2  1  0.000709  0.594248  0.000000  1
  Cd  Cd3  1  0.238309  0.999463  0.500000  1
  Cd  Cd4  1  0.999463  0.238309  0.500000  1
  Cd  Cd5  1  0.761551  0.761551  0.500000  1
  Sn  Sn6  1  0.331373  0.670592  0.500000  1
  Sn  Sn7  1  0.670592  0.331373  0.500000  1
  Au  Au8  1  0.993658  0.993658  0.000000  1
