# generated using pymatgen
data_BiPd3PbS2
_symmetry_space_group_name_H-M   'P 1'
_cell_length_a   7.34331586
_cell_length_b   7.35536534
_cell_length_c   7.34331577
_cell_angle_alpha   109.31038990
_cell_angle_beta   109.51045444
_cell_angle_gamma   109.52660713
_symmetry_Int_Tables_number   1
_chemical_formula_structural   BiPd3PbS2
_chemical_formula_sum   'Bi2 Pd6 Pb2 S4'
_cell_volume   305.57632158
_cell_formula_units_Z   2
loop_
 _symmetry_equiv_pos_site_id
 _symmetry_equiv_pos_as_xyz
  1  'x, y, z'
loop_
 _atom_site_type_symbol
 _atom_site_label
 _atom_site_symmetry_multiplicity
 _atom_site_fract_x
 _atom_site_fract_y
 _atom_site_fract_z
 _atom_site_occupancy
  Bi  Bi0  1  0.494134  0.497418  0.000623  1
  Bi  Bi1  1  0.503204  0.002582  0.496715  1
  Pd  Pd2  1  0.971411  0.223916  0.749833  1
  Pd  Pd3  1  0.746224  0.967686  0.223209  1
  Pd  Pd4  1  0.227501  0.750000  0.977501  1
  Pd  Pd5  1  0.525917  0.276084  0.247495  1
  Pd  Pd6  1  0.255523  0.532314  0.278538  1
  Pd  Pd7  1  0.284703  0.250000  0.534703  1
  Pb  Pb8  1  0.985963  0.984475  0.987402  1
  Pb  Pb9  1  0.002927  0.515525  0.501488  1
  S  S10  1  0.501178  0.999895  0.950638  1
  S  S11  1  0.549214  0.547230  0.548588  1
  S  S12  1  0.001358  0.952770  0.501984  1
  S  S13  1  0.950743  0.500105  0.001283  1
