# generated using pymatgen
data_Ba2Si(GeRh2)3
_symmetry_space_group_name_H-M   'P 1'
_cell_length_a   5.94081181
_cell_length_b   6.96984448
_cell_length_c   6.96984422
_cell_angle_alpha   63.07352587
_cell_angle_beta   64.72767927
_cell_angle_gamma   64.72768190
_symmetry_Int_Tables_number   1
_chemical_formula_structural   Ba2Si(GeRh2)3
_chemical_formula_sum   'Ba2 Si1 Ge3 Rh6'
_cell_volume   222.70269672
_cell_formula_units_Z   1
loop_
 _symmetry_equiv_pos_site_id
 _symmetry_equiv_pos_as_xyz
  1  'x, y, z'
loop_
 _atom_site_type_symbol
 _atom_site_label
 _atom_site_symmetry_multiplicity
 _atom_site_fract_x
 _atom_site_fract_y
 _atom_site_fract_z
 _atom_site_occupancy
  Ba  Ba0  1  0.514920  0.749579  0.749579  1
  Ba  Ba1  1  0.480084  0.250200  0.250200  1
  Si  Si2  1  0.857152  0.922686  0.922686  1
  Ge  Ge3  1  0.210139  0.572688  0.572688  1
  Ge  Ge4  1  0.808525  0.413068  0.413068  1
  Ge  Ge5  1  0.131926  0.092061  0.092061  1
  Rh  Rh6  1  0.505114  0.219759  0.776770  1
  Rh  Rh7  1  0.996352  0.736391  0.262671  1
  Rh  Rh8  1  0.505114  0.776770  0.219759  1
  Rh  Rh9  1  0.996352  0.262671  0.736391  1
  Rh  Rh10  1  0.997162  0.521682  0.982447  1
  Rh  Rh11  1  0.997162  0.982447  0.521682  1
