# generated using pymatgen
data_Pr5Nd11Cd4Ir3Pt
_symmetry_space_group_name_H-M   'P 1'
_cell_length_a   9.98680815
_cell_length_b   9.98836933
_cell_length_c   9.98837012
_cell_angle_alpha   60.20831620
_cell_angle_beta   60.19385104
_cell_angle_gamma   60.19385309
_symmetry_Int_Tables_number   1
_chemical_formula_structural   Pr5Nd11Cd4Ir3Pt
_chemical_formula_sum   'Pr5 Nd11 Cd4 Ir3 Pt1'
_cell_volume   707.70181593
_cell_formula_units_Z   1
loop_
 _symmetry_equiv_pos_site_id
 _symmetry_equiv_pos_as_xyz
  1  'x, y, z'
loop_
 _atom_site_type_symbol
 _atom_site_label
 _atom_site_symmetry_multiplicity
 _atom_site_fract_x
 _atom_site_fract_y
 _atom_site_fract_z
 _atom_site_occupancy
  Pr  Pr0  1  0.561616  0.939059  0.939059  1
  Pr  Pr1  1  0.561932  0.940163  0.561632  1
  Pr  Pr2  1  0.939040  0.561626  0.938777  1
  Pr  Pr3  1  0.561932  0.561632  0.940163  1
  Pr  Pr4  1  0.939040  0.938777  0.561626  1
  Nd  Nd5  1  0.346929  0.347145  0.347145  1
  Nd  Nd6  1  0.351176  0.351277  0.952185  1
  Nd  Nd7  1  0.351176  0.952185  0.351277  1
  Nd  Nd8  1  0.952128  0.351309  0.351309  1
  Nd  Nd9  1  0.806038  0.190135  0.190135  1
  Nd  Nd10  1  0.188347  0.809798  0.809798  1
  Nd  Nd11  1  0.190030  0.805938  0.190343  1
  Nd  Nd12  1  0.809837  0.188540  0.809655  1
  Nd  Nd13  1  0.190030  0.190343  0.805938  1
  Nd  Nd14  1  0.809837  0.809655  0.188540  1
  Nd  Nd15  1  0.940529  0.561498  0.561498  1
  Cd  Cd16  1  0.580173  0.579872  0.579872  1
  Cd  Cd17  1  0.579764  0.579787  0.260514  1
  Cd  Cd18  1  0.579764  0.260514  0.579787  1
  Cd  Cd19  1  0.260211  0.579763  0.579763  1
  Ir  Ir20  1  0.141716  0.142139  0.574330  1
  Ir  Ir21  1  0.141716  0.574330  0.142139  1
  Ir  Ir22  1  0.574350  0.141851  0.141851  1
  Pt  Pt23  1  0.142691  0.142662  0.142662  1
