# generated using pymatgen
data_SmEu3(MoO4)6
_symmetry_space_group_name_H-M   'P 1'
_cell_length_a   7.57457408
_cell_length_b   7.57457350
_cell_length_c   10.81920700
_cell_angle_alpha   89.99173230
_cell_angle_beta   90.00826770
_cell_angle_gamma   89.75824784
_symmetry_Int_Tables_number   1
_chemical_formula_structural   SmEu3(MoO4)6
_chemical_formula_sum   'Sm1 Eu3 Mo6 O24'
_cell_volume   620.73746289
_cell_formula_units_Z   1
loop_
 _symmetry_equiv_pos_site_id
 _symmetry_equiv_pos_as_xyz
  1  'x, y, z'
loop_
 _atom_site_type_symbol
 _atom_site_label
 _atom_site_symmetry_multiplicity
 _atom_site_fract_x
 _atom_site_fract_y
 _atom_site_fract_z
 _atom_site_occupancy
  Sm  Sm0  1  0.312598  0.187402  0.737696  1
  Eu  Eu1  1  0.188892  0.687844  0.263639  1
  Eu  Eu2  1  0.812156  0.311108  0.263639  1
  Eu  Eu3  1  0.688372  0.811628  0.737082  1
  Mo  Mo4  1  0.207869  0.707719  0.646529  1
  Mo  Mo5  1  0.792281  0.292131  0.646529  1
  Mo  Mo6  1  0.707549  0.792451  0.353165  1
  Mo  Mo7  1  0.292692  0.207308  0.354713  1
  Mo  Mo8  1  0.000367  0.000980  0.999656  1
  Mo  Mo9  1  0.499020  0.499633  0.999656  1
  O  O10  1  0.194898  0.696320  0.482191  1
  O  O11  1  0.803680  0.305102  0.482191  1
  O  O12  1  0.694865  0.805135  0.517714  1
  O  O13  1  0.304367  0.195633  0.519052  1
  O  O14  1  0.626098  0.129413  0.691346  1
  O  O15  1  0.370587  0.873902  0.691346  1
  O  O16  1  0.127784  0.372216  0.310039  1
  O  O17  1  0.872225  0.627775  0.307980  1
  O  O18  1  0.774479  0.001531  0.293892  1
  O  O19  1  0.226254  0.997777  0.296046  1
  O  O20  1  0.502223  0.273746  0.296046  1
  O  O21  1  0.498469  0.725521  0.293892  1
  O  O22  1  0.002610  0.223794  0.704122  1
  O  O23  1  0.998118  0.772315  0.705894  1
  O  O24  1  0.727685  0.501882  0.705894  1
  O  O25  1  0.276206  0.497390  0.704122  1
  O  O26  1  0.810377  0.959006  0.905343  1
  O  O27  1  0.187499  0.044094  0.903107  1
  O  O28  1  0.455906  0.312501  0.903107  1
  O  O29  1  0.540994  0.689623  0.905343  1
  O  O30  1  0.959132  0.189703  0.095224  1
  O  O31  1  0.045752  0.812303  0.094291  1
  O  O32  1  0.687697  0.454248  0.094291  1
  O  O33  1  0.310297  0.540868  0.095224  1
