# generated using pymatgen
data_Dy4Tm5Lu11(CoSb2)4
_symmetry_space_group_name_H-M   'P 1'
_cell_length_a   7.71327021
_cell_length_b   8.72474600
_cell_length_c   11.98845832
_cell_angle_alpha   90.00000000
_cell_angle_beta   90.02655573
_cell_angle_gamma   90.00000000
_symmetry_Int_Tables_number   1
_chemical_formula_structural   Dy4Tm5Lu11(CoSb2)4
_chemical_formula_sum   'Dy4 Tm5 Lu11 Co4 Sb8'
_cell_volume   806.77908148
_cell_formula_units_Z   1
loop_
 _symmetry_equiv_pos_site_id
 _symmetry_equiv_pos_as_xyz
  1  'x, y, z'
loop_
 _atom_site_type_symbol
 _atom_site_label
 _atom_site_symmetry_multiplicity
 _atom_site_fract_x
 _atom_site_fract_y
 _atom_site_fract_z
 _atom_site_occupancy
  Dy  Dy0  1  0.621978  0.750000  0.307755  1
  Dy  Dy1  1  0.877962  0.750000  0.807625  1
  Dy  Dy2  1  0.378042  0.250000  0.692206  1
  Dy  Dy3  1  0.121963  0.250000  0.192339  1
  Tm  Tm4  1  0.154968  0.750000  0.204175  1
  Tm  Tm5  1  0.344856  0.750000  0.703844  1
  Tm  Tm6  1  0.844831  0.250000  0.795993  1
  Tm  Tm7  1  0.655119  0.250000  0.296015  1
  Tm  Tm8  1  0.447966  0.750000  0.997751  1
  Lu  Lu9  1  0.052368  0.750000  0.497691  1
  Lu  Lu10  1  0.552384  0.250000  0.002299  1
  Lu  Lu11  1  0.947661  0.250000  0.502323  1
  Lu  Lu12  1  0.824037  0.536960  0.065204  1
  Lu  Lu13  1  0.676232  0.962868  0.565200  1
  Lu  Lu14  1  0.175865  0.037553  0.934721  1
  Lu  Lu15  1  0.323781  0.462855  0.434807  1
  Lu  Lu16  1  0.175865  0.462447  0.934721  1
  Lu  Lu17  1  0.323781  0.037145  0.434807  1
  Lu  Lu18  1  0.824037  0.963040  0.065204  1
  Lu  Lu19  1  0.676232  0.537132  0.565200  1
  Co  Co20  1  0.431992  0.750000  0.491500  1
  Co  Co21  1  0.067670  0.750000  0.991574  1
  Co  Co22  1  0.567965  0.250000  0.508485  1
  Co  Co23  1  0.932052  0.250000  0.008469  1
  Sb  Sb24  1  0.931001  0.508534  0.329176  1
  Sb  Sb25  1  0.569223  0.991724  0.828853  1
  Sb  Sb26  1  0.068996  0.008601  0.670832  1
  Sb  Sb27  1  0.430974  0.491104  0.171183  1
  Sb  Sb28  1  0.068996  0.491399  0.670832  1
  Sb  Sb29  1  0.430974  0.008896  0.171183  1
  Sb  Sb30  1  0.931001  0.991466  0.329176  1
  Sb  Sb31  1  0.569223  0.508276  0.828853  1
