# generated using pymatgen
data_Ce2Pr(SnRh)3
_symmetry_space_group_name_H-M   'P 1'
_cell_length_a   7.56972365
_cell_length_b   7.51547228
_cell_length_c   4.08089400
_cell_angle_alpha   90.00000000
_cell_angle_beta   90.00000000
_cell_angle_gamma   119.76320725
_symmetry_Int_Tables_number   1
_chemical_formula_structural   Ce2Pr(SnRh)3
_chemical_formula_sum   'Ce2 Pr1 Sn3 Rh3'
_cell_volume   201.53643516
_cell_formula_units_Z   1
loop_
 _symmetry_equiv_pos_site_id
 _symmetry_equiv_pos_as_xyz
  1  'x, y, z'
loop_
 _atom_site_type_symbol
 _atom_site_label
 _atom_site_symmetry_multiplicity
 _atom_site_fract_x
 _atom_site_fract_y
 _atom_site_fract_z
 _atom_site_occupancy
  Ce  Ce0  1  0.585978  0.585909  0.000000  1
  Ce  Ce1  1  0.414022  0.999931  0.000000  1
  Pr  Pr2  1  0.000000  0.411194  0.000000  1
  Sn  Sn3  1  0.250185  0.252043  0.500000  1
  Sn  Sn4  1  0.000000  0.745431  0.500000  1
  Sn  Sn5  1  0.749815  0.001858  0.500000  1
  Rh  Rh6  1  0.651351  0.330725  0.500000  1
  Rh  Rh7  1  0.348649  0.679375  0.500000  1
  Rh  Rh8  1  0.000000  0.993533  0.000000  1
