# generated using pymatgen
data_Ba(Tl2Au3)2
_symmetry_space_group_name_H-M   'P 1'
_cell_length_a   15.98675071
_cell_length_b   15.98675150
_cell_length_c   4.39255500
_cell_angle_alpha   90.00000000
_cell_angle_beta   90.00000000
_cell_angle_gamma   165.00170273
_symmetry_Int_Tables_number   1
_chemical_formula_structural   Ba(Tl2Au3)2
_chemical_formula_sum   'Ba1 Tl4 Au6'
_cell_volume   290.52646189
_cell_formula_units_Z   1
loop_
 _symmetry_equiv_pos_site_id
 _symmetry_equiv_pos_as_xyz
  1  'x, y, z'
loop_
 _atom_site_type_symbol
 _atom_site_label
 _atom_site_symmetry_multiplicity
 _atom_site_fract_x
 _atom_site_fract_y
 _atom_site_fract_z
 _atom_site_occupancy
  Ba  Ba0  1  0.000000  0.000000  0.000000  1
  Tl  Tl1  1  0.623684  0.376316  0.000000  1
  Tl  Tl2  1  0.376316  0.623684  0.000000  1
  Tl  Tl3  1  0.801946  0.198053  0.500000  1
  Tl  Tl4  1  0.198053  0.801946  0.500000  1
  Au  Au5  1  0.718345  0.281655  0.000000  1
  Au  Au6  1  0.281655  0.718345  0.000000  1
  Au  Au7  1  0.897089  0.102911  0.500000  1
  Au  Au8  1  0.544172  0.455827  0.500000  1
  Au  Au9  1  0.455827  0.544172  0.500000  1
  Au  Au10  1  0.102911  0.897089  0.500000  1
