# generated using pymatgen
data_Tm2MgNi7B2
_symmetry_space_group_name_H-M   'P 1'
_cell_length_a   4.96203700
_cell_length_b   4.96203717
_cell_length_c   14.15240700
_cell_angle_alpha   90.00000000
_cell_angle_beta   90.00000000
_cell_angle_gamma   120.00000556
_symmetry_Int_Tables_number   1
_chemical_formula_structural   Tm2MgNi7B2
_chemical_formula_sum   'Tm4 Mg2 Ni14 B4'
_cell_volume   301.77338073
_cell_formula_units_Z   2
loop_
 _symmetry_equiv_pos_site_id
 _symmetry_equiv_pos_as_xyz
  1  'x, y, z'
loop_
 _atom_site_type_symbol
 _atom_site_label
 _atom_site_symmetry_multiplicity
 _atom_site_fract_x
 _atom_site_fract_y
 _atom_site_fract_z
 _atom_site_occupancy
  Tm  Tm0  1  0.666667  0.333333  0.469744  1
  Tm  Tm1  1  0.333333  0.666667  0.969744  1
  Tm  Tm2  1  0.333333  0.666667  0.745072  1
  Tm  Tm3  1  0.666667  0.333333  0.245072  1
  Mg  Mg4  1  0.333333  0.666667  0.533284  1
  Mg  Mg5  1  0.666667  0.333333  0.033284  1
  Ni  Ni6  1  0.000000  0.000000  0.001003  1
  Ni  Ni7  1  0.000000  0.000000  0.501003  1
  Ni  Ni8  1  0.165808  0.331616  0.146546  1
  Ni  Ni9  1  0.834192  0.668384  0.646546  1
  Ni  Ni10  1  0.668384  0.834192  0.146546  1
  Ni  Ni11  1  0.165808  0.834192  0.146546  1
  Ni  Ni12  1  0.834192  0.165808  0.646546  1
  Ni  Ni13  1  0.331616  0.165808  0.646546  1
  Ni  Ni14  1  0.833688  0.667376  0.853048  1
  Ni  Ni15  1  0.833688  0.166312  0.853048  1
  Ni  Ni16  1  0.332624  0.166312  0.853048  1
  Ni  Ni17  1  0.667376  0.833688  0.353048  1
  Ni  Ni18  1  0.166312  0.833688  0.353048  1
  Ni  Ni19  1  0.166312  0.332624  0.353048  1
  B  B20  1  0.333333  0.666667  0.250142  1
  B  B21  1  0.666667  0.333333  0.750142  1
  B  B22  1  0.000000  0.000000  0.251973  1
  B  B23  1  0.000000  0.000000  0.751973  1
