# generated using pymatgen
data_Eu2Mg2IrRh
_symmetry_space_group_name_H-M   'P 1'
_cell_length_a   4.25539600
_cell_length_b   7.30613800
_cell_length_c   8.62775500
_cell_angle_alpha   90.00000000
_cell_angle_beta   90.00000000
_cell_angle_gamma   90.00000000
_symmetry_Int_Tables_number   1
_chemical_formula_structural   Eu2Mg2IrRh
_chemical_formula_sum   'Eu4 Mg4 Ir2 Rh2'
_cell_volume   268.24130673
_cell_formula_units_Z   2
loop_
 _symmetry_equiv_pos_site_id
 _symmetry_equiv_pos_as_xyz
  1  'x, y, z'
loop_
 _atom_site_type_symbol
 _atom_site_label
 _atom_site_symmetry_multiplicity
 _atom_site_fract_x
 _atom_site_fract_y
 _atom_site_fract_z
 _atom_site_occupancy
  Eu  Eu0  1  0.250000  0.031522  0.326951  1
  Eu  Eu1  1  0.250000  0.531522  0.173049  1
  Eu  Eu2  1  0.750000  0.970293  0.677550  1
  Eu  Eu3  1  0.750000  0.470293  0.822450  1
  Mg  Mg4  1  0.250000  0.136222  0.940434  1
  Mg  Mg5  1  0.250000  0.636222  0.559566  1
  Mg  Mg6  1  0.750000  0.863251  0.056102  1
  Mg  Mg7  1  0.750000  0.363251  0.443898  1
  Ir  Ir8  1  0.250000  0.265125  0.630521  1
  Ir  Ir9  1  0.250000  0.765125  0.869479  1
  Rh  Rh10  1  0.750000  0.733587  0.368207  1
  Rh  Rh11  1  0.750000  0.233587  0.131793  1
