# generated using pymatgen
data_Dy4Sc16GaBi11
_symmetry_space_group_name_H-M   'P 1'
_cell_length_a   7.83360937
_cell_length_b   9.02982800
_cell_length_c   11.51722300
_cell_angle_alpha   90.00000000
_cell_angle_beta   90.24456952
_cell_angle_gamma   90.00000000
_symmetry_Int_Tables_number   1
_chemical_formula_structural   Dy4Sc16GaBi11
_chemical_formula_sum   'Dy4 Sc16 Ga1 Bi11'
_cell_volume   814.67653640
_cell_formula_units_Z   1
loop_
 _symmetry_equiv_pos_site_id
 _symmetry_equiv_pos_as_xyz
  1  'x, y, z'
loop_
 _atom_site_type_symbol
 _atom_site_label
 _atom_site_symmetry_multiplicity
 _atom_site_fract_x
 _atom_site_fract_y
 _atom_site_fract_z
 _atom_site_occupancy
  Dy  Dy0  1  0.316410  0.250000  0.219717  1
  Dy  Dy1  1  0.814921  0.250000  0.280734  1
  Dy  Dy2  1  0.673095  0.750000  0.788902  1
  Dy  Dy3  1  0.188041  0.750000  0.723421  1
  Sc  Sc4  1  0.351106  0.750000  0.209268  1
  Sc  Sc5  1  0.848219  0.750000  0.280138  1
  Sc  Sc6  1  0.653667  0.250000  0.779300  1
  Sc  Sc7  1  0.152461  0.250000  0.721139  1
  Sc  Sc8  1  0.682645  0.574441  0.058875  1
  Sc  Sc9  1  0.192820  0.932711  0.436336  1
  Sc  Sc10  1  0.309740  0.052293  0.939175  1
  Sc  Sc11  1  0.807306  0.433147  0.562242  1
  Sc  Sc12  1  0.309740  0.447707  0.939175  1
  Sc  Sc13  1  0.807306  0.066853  0.562242  1
  Sc  Sc14  1  0.682645  0.925559  0.058875  1
  Sc  Sc15  1  0.192820  0.567289  0.436336  1
  Sc  Sc16  1  0.482785  0.250000  0.489196  1
  Sc  Sc17  1  0.985678  0.250000  0.009980  1
  Sc  Sc18  1  0.517815  0.750000  0.511201  1
  Sc  Sc19  1  0.030089  0.750000  0.989063  1
  Ga  Ga20  1  0.402533  0.750000  0.968152  1
  Bi  Bi21  1  0.902781  0.750000  0.535623  1
  Bi  Bi22  1  0.597596  0.250000  0.032811  1
  Bi  Bi23  1  0.098583  0.250000  0.466928  1
  Bi  Bi24  1  0.563366  0.989244  0.328490  1
  Bi  Bi25  1  0.062743  0.509978  0.171614  1
  Bi  Bi26  1  0.436699  0.489951  0.672331  1
  Bi  Bi27  1  0.936792  0.008915  0.828150  1
  Bi  Bi28  1  0.436699  0.010049  0.672331  1
  Bi  Bi29  1  0.936792  0.491085  0.828150  1
  Bi  Bi30  1  0.563366  0.510756  0.328490  1
  Bi  Bi31  1  0.062743  0.990022  0.171614  1
