# generated using pymatgen
data_Na4Ga4SnAu3
_symmetry_space_group_name_H-M   'P 1'
_cell_length_a   4.52492200
_cell_length_b   7.52222352
_cell_length_c   7.84045709
_cell_angle_alpha   89.04350537
_cell_angle_beta   90.00000000
_cell_angle_gamma   90.00000000
_symmetry_Int_Tables_number   1
_chemical_formula_structural   Na4Ga4SnAu3
_chemical_formula_sum   'Na4 Ga4 Sn1 Au3'
_cell_volume   266.83217372
_cell_formula_units_Z   1
loop_
 _symmetry_equiv_pos_site_id
 _symmetry_equiv_pos_as_xyz
  1  'x, y, z'
loop_
 _atom_site_type_symbol
 _atom_site_label
 _atom_site_symmetry_multiplicity
 _atom_site_fract_x
 _atom_site_fract_y
 _atom_site_fract_z
 _atom_site_occupancy
  Na  Na0  1  0.250000  0.997208  0.311900  1
  Na  Na1  1  0.250000  0.510554  0.181047  1
  Na  Na2  1  0.750000  0.983707  0.684425  1
  Na  Na3  1  0.750000  0.505102  0.822318  1
  Ga  Ga4  1  0.250000  0.159501  0.939473  1
  Ga  Ga5  1  0.250000  0.678986  0.580281  1
  Ga  Ga6  1  0.750000  0.835229  0.076713  1
  Ga  Ga7  1  0.750000  0.333920  0.403087  1
  Sn  Sn8  1  0.250000  0.300090  0.605848  1
  Au  Au9  1  0.250000  0.799959  0.898300  1
  Au  Au10  1  0.750000  0.697410  0.396442  1
  Au  Au11  1  0.750000  0.198334  0.100166  1
