# generated using pymatgen
data_Zr6Be2Si3AsRu6
_symmetry_space_group_name_H-M   'P 1'
_cell_length_a   7.63600358
_cell_length_b   7.63608918
_cell_length_c   7.63598958
_cell_angle_alpha   127.50947887
_cell_angle_beta   124.40982380
_cell_angle_gamma   79.97874260
_symmetry_Int_Tables_number   1
_chemical_formula_structural   Zr6Be2Si3AsRu6
_chemical_formula_sum   'Zr6 Be2 Si3 As1 Ru6'
_cell_volume   281.37949535
_cell_formula_units_Z   1
loop_
 _symmetry_equiv_pos_site_id
 _symmetry_equiv_pos_as_xyz
  1  'x, y, z'
loop_
 _atom_site_type_symbol
 _atom_site_label
 _atom_site_symmetry_multiplicity
 _atom_site_fract_x
 _atom_site_fract_y
 _atom_site_fract_z
 _atom_site_occupancy
  Zr  Zr0  1  0.446685  0.652160  0.702157  1
  Zr  Zr1  1  0.548900  0.251004  0.198792  1
  Zr  Zr2  1  0.749265  0.857072  0.604238  1
  Zr  Zr3  1  0.253003  0.857232  0.107806  1
  Zr  Zr4  1  0.052546  0.250990  0.701769  1
  Zr  Zr5  1  0.949647  0.651472  0.205137  1
  Be  Be6  1  0.250578  0.253824  0.503621  1
  Be  Be7  1  0.749374  0.253044  0.003233  1
  Si  Si8  1  0.333306  0.586479  0.253006  1
  Si  Si9  1  0.667020  0.919796  0.253057  1
  Si  Si10  1  0.166312  0.919978  0.753408  1
  As  As11  1  0.833410  0.586480  0.753320  1
  Ru  Ru12  1  0.500390  0.495565  0.995141  1
  Ru  Ru13  1  0.002745  0.495784  0.493064  1
  Ru  Ru14  1  0.120191  0.252498  0.131320  1
  Ru  Ru15  1  0.879389  0.016098  0.137665  1
  Ru  Ru16  1  0.378340  0.012286  0.633000  1
  Ru  Ru17  1  0.618900  0.247837  0.629869  1
