# generated using pymatgen
data_Tb5Th3(HgRu)2
_symmetry_space_group_name_H-M   'P 1'
_cell_length_a   9.67989039
_cell_length_b   9.77730681
_cell_length_c   9.77730830
_cell_angle_alpha   59.34189688
_cell_angle_beta   60.32904177
_cell_angle_gamma   60.32904426
_symmetry_Int_Tables_number   1
_chemical_formula_structural   Tb5Th3(HgRu)2
_chemical_formula_sum   'Tb10 Th6 Hg4 Ru4'
_cell_volume   654.19700544
_cell_formula_units_Z   2
loop_
 _symmetry_equiv_pos_site_id
 _symmetry_equiv_pos_as_xyz
  1  'x, y, z'
loop_
 _atom_site_type_symbol
 _atom_site_label
 _atom_site_symmetry_multiplicity
 _atom_site_fract_x
 _atom_site_fract_y
 _atom_site_fract_z
 _atom_site_occupancy
  Tb  Tb0  1  0.441319  0.058681  0.441319  1
  Tb  Tb1  1  0.058681  0.441319  0.058681  1
  Tb  Tb2  1  0.441319  0.441319  0.058681  1
  Tb  Tb3  1  0.058681  0.058681  0.441319  1
  Tb  Tb4  1  0.184507  0.815493  0.815493  1
  Tb  Tb5  1  0.815493  0.184507  0.184507  1
  Tb  Tb6  1  0.812033  0.187967  0.812033  1
  Tb  Tb7  1  0.187967  0.812033  0.187967  1
  Tb  Tb8  1  0.812033  0.812033  0.187967  1
  Tb  Tb9  1  0.187967  0.187967  0.812033  1
  Th  Th10  1  0.593810  0.601235  0.601235  1
  Th  Th11  1  0.601235  0.593810  0.203723  1
  Th  Th12  1  0.601235  0.203723  0.593810  1
  Th  Th13  1  0.203723  0.601235  0.601235  1
  Th  Th14  1  0.065135  0.434865  0.434865  1
  Th  Th15  1  0.434865  0.065135  0.065135  1
  Hg  Hg16  1  0.838184  0.834718  0.834718  1
  Hg  Hg17  1  0.834718  0.838184  0.492379  1
  Hg  Hg18  1  0.834718  0.492379  0.838184  1
  Hg  Hg19  1  0.492379  0.834718  0.834718  1
  Ru  Ru20  1  0.378060  0.399109  0.399109  1
  Ru  Ru21  1  0.399109  0.378060  0.823722  1
  Ru  Ru22  1  0.399109  0.823722  0.378060  1
  Ru  Ru23  1  0.823722  0.399109  0.399109  1
