# generated using pymatgen
data_Ca2SmDy(FeO3)4
_symmetry_space_group_name_H-M   'P 1'
_cell_length_a   5.39180114
_cell_length_b   5.56232185
_cell_length_c   7.68589000
_cell_angle_alpha   90.00000000
_cell_angle_beta   90.00000000
_cell_angle_gamma   89.81311078
_symmetry_Int_Tables_number   1
_chemical_formula_structural   Ca2SmDy(FeO3)4
_chemical_formula_sum   'Ca2 Sm1 Dy1 Fe4 O12'
_cell_volume   230.50578793
_cell_formula_units_Z   1
loop_
 _symmetry_equiv_pos_site_id
 _symmetry_equiv_pos_as_xyz
  1  'x, y, z'
loop_
 _atom_site_type_symbol
 _atom_site_label
 _atom_site_symmetry_multiplicity
 _atom_site_fract_x
 _atom_site_fract_y
 _atom_site_fract_z
 _atom_site_occupancy
  Ca  Ca0  1  0.489186  0.451613  0.250000  1
  Ca  Ca1  1  0.012554  0.948620  0.250000  1
  Sm  Sm2  1  0.987045  0.057421  0.750000  1
  Dy  Dy3  1  0.514651  0.563589  0.750000  1
  Fe  Fe4  1  0.496996  0.002243  0.495532  1
  Fe  Fe5  1  0.496996  0.002243  0.004468  1
  Fe  Fe6  1  0.002839  0.501003  0.003878  1
  Fe  Fe7  1  0.002839  0.501003  0.496122  1
  O  O8  1  0.197063  0.197775  0.038027  1
  O  O9  1  0.197063  0.197775  0.461973  1
  O  O10  1  0.705550  0.296418  0.943256  1
  O  O11  1  0.788032  0.789144  0.554204  1
  O  O12  1  0.300676  0.699325  0.463328  1
  O  O13  1  0.788032  0.789144  0.945796  1
  O  O14  1  0.413321  0.972629  0.750000  1
  O  O15  1  0.916088  0.527066  0.250000  1
  O  O16  1  0.099159  0.478268  0.750000  1
  O  O17  1  0.705550  0.296418  0.556744  1
  O  O18  1  0.300676  0.699325  0.036672  1
  O  O19  1  0.585684  0.028976  0.250000  1
