# generated using pymatgen
data_NdMg(NbSe2)8
_symmetry_space_group_name_H-M   'P 1'
_cell_length_a   7.01907400
_cell_length_b   7.01907589
_cell_length_c   14.35568900
_cell_angle_alpha   90.00000000
_cell_angle_beta   90.00000000
_cell_angle_gamma   120.00000052
_symmetry_Int_Tables_number   1
_chemical_formula_structural   NdMg(NbSe2)8
_chemical_formula_sum   'Nd1 Mg1 Nb8 Se16'
_cell_volume   612.51175768
_cell_formula_units_Z   1
loop_
 _symmetry_equiv_pos_site_id
 _symmetry_equiv_pos_as_xyz
  1  'x, y, z'
loop_
 _atom_site_type_symbol
 _atom_site_label
 _atom_site_symmetry_multiplicity
 _atom_site_fract_x
 _atom_site_fract_y
 _atom_site_fract_z
 _atom_site_occupancy
  Nd  Nd0  1  0.000000  0.000000  0.000000  1
  Mg  Mg1  1  0.000000  0.000000  0.500000  1
  Nb  Nb2  1  0.000000  0.000000  0.256232  1
  Nb  Nb3  1  0.000000  0.000000  0.743768  1
  Nb  Nb4  1  0.506763  0.013525  0.259581  1
  Nb  Nb5  1  0.493237  0.986475  0.740419  1
  Nb  Nb6  1  0.986475  0.493237  0.259581  1
  Nb  Nb7  1  0.013525  0.506763  0.740419  1
  Nb  Nb8  1  0.506763  0.493237  0.259581  1
  Nb  Nb9  1  0.493237  0.506763  0.740419  1
  Se  Se10  1  0.333333  0.666667  0.621094  1
  Se  Se11  1  0.666667  0.333333  0.378906  1
  Se  Se12  1  0.666667  0.333333  0.138599  1
  Se  Se13  1  0.333333  0.666667  0.861401  1
  Se  Se14  1  0.170910  0.341821  0.143303  1
  Se  Se15  1  0.829090  0.658179  0.856697  1
  Se  Se16  1  0.658179  0.829090  0.143303  1
  Se  Se17  1  0.833063  0.666125  0.626205  1
  Se  Se18  1  0.341821  0.170910  0.856697  1
  Se  Se19  1  0.166937  0.333875  0.373795  1
  Se  Se20  1  0.170910  0.829090  0.143303  1
  Se  Se21  1  0.333875  0.166937  0.626205  1
  Se  Se22  1  0.829090  0.170910  0.856697  1
  Se  Se23  1  0.666125  0.833063  0.373795  1
  Se  Se24  1  0.833063  0.166937  0.626205  1
  Se  Se25  1  0.166937  0.833063  0.373795  1
