# generated using pymatgen
data_Pr3Co(P3Rh4)2
_symmetry_space_group_name_H-M   'P 1'
_cell_length_a   3.94604600
_cell_length_b   11.28948500
_cell_length_c   12.96439100
_cell_angle_alpha   90.00000000
_cell_angle_beta   90.00000000
_cell_angle_gamma   90.00000000
_symmetry_Int_Tables_number   1
_chemical_formula_structural   Pr3Co(P3Rh4)2
_chemical_formula_sum   'Pr6 Co2 P12 Rh16'
_cell_volume   577.54841346
_cell_formula_units_Z   2
loop_
 _symmetry_equiv_pos_site_id
 _symmetry_equiv_pos_as_xyz
  1  'x, y, z'
loop_
 _atom_site_type_symbol
 _atom_site_label
 _atom_site_symmetry_multiplicity
 _atom_site_fract_x
 _atom_site_fract_y
 _atom_site_fract_z
 _atom_site_occupancy
  Pr  Pr0  1  0.000000  0.500000  0.520351  1
  Pr  Pr1  1  0.500000  0.000000  0.479649  1
  Pr  Pr2  1  0.500000  0.816299  0.201503  1
  Pr  Pr3  1  0.500000  0.183701  0.201503  1
  Pr  Pr4  1  0.000000  0.683701  0.798497  1
  Pr  Pr5  1  0.000000  0.316299  0.798497  1
  Co  Co6  1  0.000000  0.500000  0.984343  1
  Co  Co7  1  0.500000  0.000000  0.015657  1
  P  P8  1  0.500000  0.500000  0.885874  1
  P  P9  1  0.000000  0.000000  0.114126  1
  P  P10  1  0.500000  0.500000  0.345798  1
  P  P11  1  0.000000  0.000000  0.654202  1
  P  P12  1  0.500000  0.312593  0.617961  1
  P  P13  1  0.500000  0.687407  0.617961  1
  P  P14  1  0.000000  0.187407  0.382039  1
  P  P15  1  0.000000  0.812593  0.382039  1
  P  P16  1  0.500000  0.853965  0.896906  1
  P  P17  1  0.500000  0.146035  0.896906  1
  P  P18  1  0.000000  0.646035  0.103094  1
  P  P19  1  0.000000  0.353965  0.103094  1
  Rh  Rh20  1  0.500000  0.500000  0.166543  1
  Rh  Rh21  1  0.000000  0.000000  0.833457  1
  Rh  Rh22  1  0.500000  0.500000  0.704494  1
  Rh  Rh23  1  0.000000  0.000000  0.295506  1
  Rh  Rh24  1  0.500000  0.337004  0.996648  1
  Rh  Rh25  1  0.500000  0.662996  0.996648  1
  Rh  Rh26  1  0.000000  0.162996  0.003352  1
  Rh  Rh27  1  0.000000  0.837004  0.003352  1
  Rh  Rh28  1  0.500000  0.292712  0.429803  1
  Rh  Rh29  1  0.500000  0.707288  0.429803  1
  Rh  Rh30  1  0.000000  0.207288  0.570197  1
  Rh  Rh31  1  0.000000  0.792712  0.570197  1
  Rh  Rh32  1  0.500000  0.875534  0.712019  1
  Rh  Rh33  1  0.500000  0.124466  0.712019  1
  Rh  Rh34  1  0.000000  0.624466  0.287981  1
  Rh  Rh35  1  0.000000  0.375534  0.287981  1
