# generated using pymatgen
data_Er8Ga12Ag3Au
_symmetry_space_group_name_H-M   'P 1'
_cell_length_a   7.06125000
_cell_length_b   8.96278928
_cell_length_c   8.96278900
_cell_angle_alpha   120.00000265
_cell_angle_beta   90.00000000
_cell_angle_gamma   90.00000000
_symmetry_Int_Tables_number   1
_chemical_formula_structural   Er8Ga12Ag3Au
_chemical_formula_sum   'Er8 Ga12 Ag3 Au1'
_cell_volume   491.24547894
_cell_formula_units_Z   1
loop_
 _symmetry_equiv_pos_site_id
 _symmetry_equiv_pos_as_xyz
  1  'x, y, z'
loop_
 _atom_site_type_symbol
 _atom_site_label
 _atom_site_symmetry_multiplicity
 _atom_site_fract_x
 _atom_site_fract_y
 _atom_site_fract_z
 _atom_site_occupancy
  Er  Er0  1  0.750059  0.000000  0.000000  1
  Er  Er1  1  0.250698  0.000000  0.000000  1
  Er  Er2  1  0.748797  0.488550  0.511450  1
  Er  Er3  1  0.250006  0.514341  0.485659  1
  Er  Er4  1  0.748797  0.022900  0.511450  1
  Er  Er5  1  0.250006  0.971320  0.485659  1
  Er  Er6  1  0.748797  0.488550  0.977100  1
  Er  Er7  1  0.250006  0.514341  0.028680  1
  Ga  Ga8  1  0.967464  0.835537  0.164463  1
  Ga  Ga9  1  0.036110  0.165252  0.834748  1
  Ga  Ga10  1  0.967464  0.328928  0.164463  1
  Ga  Ga11  1  0.463948  0.165459  0.834541  1
  Ga  Ga12  1  0.036110  0.669495  0.834748  1
  Ga  Ga13  1  0.538167  0.835752  0.164248  1
  Ga  Ga14  1  0.967464  0.835537  0.671072  1
  Ga  Ga15  1  0.463948  0.669081  0.834541  1
  Ga  Ga16  1  0.036110  0.165252  0.330505  1
  Ga  Ga17  1  0.538167  0.328499  0.164248  1
  Ga  Ga18  1  0.463948  0.165459  0.330919  1
  Ga  Ga19  1  0.538167  0.835752  0.671501  1
  Ag  Ag20  1  0.959981  0.666667  0.333333  1
  Ag  Ag21  1  0.032338  0.333333  0.666667  1
  Ag  Ag22  1  0.466872  0.333333  0.666667  1
  Au  Au23  1  0.526578  0.666667  0.333333  1
