# generated using pymatgen
data_Tm4Zn3In2Co
_symmetry_space_group_name_H-M   'P 1'
_cell_length_a   7.69526411
_cell_length_b   7.69526411
_cell_length_c   3.60313300
_cell_angle_alpha   90.00000000
_cell_angle_beta   90.00000000
_cell_angle_gamma   89.93838030
_symmetry_Int_Tables_number   1
_chemical_formula_structural   Tm4Zn3In2Co
_chemical_formula_sum   'Tm4 Zn3 In2 Co1'
_cell_volume   213.36692689
_cell_formula_units_Z   1
loop_
 _symmetry_equiv_pos_site_id
 _symmetry_equiv_pos_as_xyz
  1  'x, y, z'
loop_
 _atom_site_type_symbol
 _atom_site_label
 _atom_site_symmetry_multiplicity
 _atom_site_fract_x
 _atom_site_fract_y
 _atom_site_fract_z
 _atom_site_occupancy
  Tm  Tm0  1  0.353943  0.178089  0.500000  1
  Tm  Tm1  1  0.805183  0.305183  0.500000  1
  Tm  Tm2  1  0.171102  0.671103  0.500000  1
  Tm  Tm3  1  0.678090  0.853943  0.500000  1
  Zn  Zn4  1  0.114465  0.372417  0.000000  1
  Zn  Zn5  1  0.872417  0.614465  0.000000  1
  Zn  Zn6  1  0.382672  0.882672  0.000000  1
  In  In7  1  0.001877  0.002231  0.000000  1
  In  In8  1  0.502231  0.501877  0.000000  1
  Co  Co9  1  0.618023  0.118023  0.000000  1
