# generated using pymatgen
data_Sc10(TlBi)3
_symmetry_space_group_name_H-M   'P 1'
_cell_length_a   6.17386200
_cell_length_b   8.56363624
_cell_length_c   8.56504300
_cell_angle_alpha   119.99456040
_cell_angle_beta   89.99863578
_cell_angle_gamma   90.00272263
_symmetry_Int_Tables_number   1
_chemical_formula_structural   Sc10(TlBi)3
_chemical_formula_sum   'Sc10 Tl3 Bi3'
_cell_volume   392.19234284
_cell_formula_units_Z   1
loop_
 _symmetry_equiv_pos_site_id
 _symmetry_equiv_pos_as_xyz
  1  'x, y, z'
loop_
 _atom_site_type_symbol
 _atom_site_label
 _atom_site_symmetry_multiplicity
 _atom_site_fract_x
 _atom_site_fract_y
 _atom_site_fract_z
 _atom_site_occupancy
  Sc  Sc0  1  0.492557  0.333325  0.666655  1
  Sc  Sc1  1  0.492557  0.666669  0.333345  1
  Sc  Sc2  1  0.007465  0.666661  0.333372  1
  Sc  Sc3  1  0.007465  0.333290  0.666628  1
  Sc  Sc4  1  0.749989  0.233668  0.000000  1
  Sc  Sc5  1  0.750000  0.766163  0.766250  1
  Sc  Sc6  1  0.750000  0.999912  0.233750  1
  Sc  Sc7  1  0.249998  0.764546  0.000000  1
  Sc  Sc8  1  0.249975  0.235609  0.235516  1
  Sc  Sc9  1  0.249975  0.000094  0.764484  1
  Tl  Tl10  1  0.250009  0.391753  0.000000  1
  Tl  Tl11  1  0.250000  0.608386  0.608334  1
  Tl  Tl12  1  0.250000  0.000051  0.391666  1
  Bi  Bi13  1  0.750013  0.604588  0.000000  1
  Bi  Bi14  1  0.749997  0.395286  0.395283  1
  Bi  Bi15  1  0.749997  0.000004  0.604717  1
