# generated using pymatgen
data_Yb2Hg13(As2Cl3)4
_symmetry_space_group_name_H-M   'P 1'
_cell_length_a   12.51251800
_cell_length_b   12.51232735
_cell_length_c   12.51261900
_cell_angle_alpha   89.94701927
_cell_angle_beta   90.00000000
_cell_angle_gamma   90.00000000
_symmetry_Int_Tables_number   1
_chemical_formula_structural   Yb2Hg13(As2Cl3)4
_chemical_formula_sum   'Yb4 Hg26 As16 Cl24'
_cell_volume   1958.98381698
_cell_formula_units_Z   2
loop_
 _symmetry_equiv_pos_site_id
 _symmetry_equiv_pos_as_xyz
  1  'x, y, z'
loop_
 _atom_site_type_symbol
 _atom_site_label
 _atom_site_symmetry_multiplicity
 _atom_site_fract_x
 _atom_site_fract_y
 _atom_site_fract_z
 _atom_site_occupancy
  Yb  Yb0  1  0.500000  0.500000  0.500000  1
  Yb  Yb1  1  0.000000  0.500000  0.000000  1
  Yb  Yb2  1  0.500000  0.000000  0.000000  1
  Yb  Yb3  1  0.000000  0.000000  0.500000  1
  Hg  Hg4  1  0.000000  0.500000  0.500000  1
  Hg  Hg5  1  0.500000  0.500000  0.000000  1
  Hg  Hg6  1  0.781059  0.292018  0.471784  1
  Hg  Hg7  1  0.281060  0.707981  0.028216  1
  Hg  Hg8  1  0.219358  0.207584  0.971856  1
  Hg  Hg9  1  0.719359  0.792416  0.528142  1
  Hg  Hg10  1  0.292666  0.471560  0.781117  1
  Hg  Hg11  1  0.708217  0.027955  0.280609  1
  Hg  Hg12  1  0.208217  0.972044  0.219392  1
  Hg  Hg13  1  0.792665  0.528440  0.718883  1
  Hg  Hg14  1  0.471879  0.780951  0.292094  1
  Hg  Hg15  1  0.028274  0.280743  0.707664  1
  Hg  Hg16  1  0.971880  0.219049  0.207907  1
  Hg  Hg17  1  0.528273  0.719256  0.792335  1
  Hg  Hg18  1  0.218941  0.707982  0.528216  1
  Hg  Hg19  1  0.718940  0.292019  0.971784  1
  Hg  Hg20  1  0.780642  0.792416  0.028144  1
  Hg  Hg21  1  0.280641  0.207584  0.471858  1
  Hg  Hg22  1  0.707334  0.528440  0.218883  1
  Hg  Hg23  1  0.291783  0.972045  0.719391  1
  Hg  Hg24  1  0.791783  0.027956  0.780608  1
  Hg  Hg25  1  0.207335  0.471560  0.281117  1
  Hg  Hg26  1  0.528121  0.219049  0.707906  1
  Hg  Hg27  1  0.971726  0.719257  0.292336  1
  Hg  Hg28  1  0.028120  0.780951  0.792093  1
  Hg  Hg29  1  0.471727  0.280744  0.207665  1
  As  As30  1  0.833884  0.333917  0.666097  1
  As  As31  1  0.333884  0.666084  0.833902  1
  As  As32  1  0.165982  0.166035  0.166028  1
  As  As33  1  0.665982  0.833965  0.333973  1
  As  As34  1  0.166116  0.666083  0.333903  1
  As  As35  1  0.666116  0.333916  0.166098  1
  As  As36  1  0.834018  0.833965  0.833972  1
  As  As37  1  0.334018  0.166035  0.666027  1
  As  As38  1  0.779350  0.220601  0.279321  1
  As  As39  1  0.279350  0.779399  0.220679  1
  As  As40  1  0.221101  0.278822  0.778950  1
  As  As41  1  0.721101  0.721178  0.721050  1
  As  As42  1  0.220650  0.779399  0.720679  1
  As  As43  1  0.720650  0.220601  0.779321  1
  As  As44  1  0.778899  0.721178  0.221050  1
  As  As45  1  0.278899  0.278822  0.278950  1
  Cl  Cl46  1  0.540750  0.287789  0.464430  1
  Cl  Cl47  1  0.040750  0.712212  0.035568  1
  Cl  Cl48  1  0.458697  0.210655  0.964127  1
  Cl  Cl49  1  0.958698  0.789344  0.535873  1
  Cl  Cl50  1  0.289328  0.463972  0.541267  1
  Cl  Cl51  1  0.712190  0.035401  0.040788  1
  Cl  Cl52  1  0.212190  0.964599  0.459212  1
  Cl  Cl53  1  0.789329  0.536029  0.958733  1
  Cl  Cl54  1  0.463811  0.541104  0.289276  1
  Cl  Cl55  1  0.035243  0.040955  0.712134  1
  Cl  Cl56  1  0.963811  0.458898  0.210725  1
  Cl  Cl57  1  0.535242  0.959045  0.787866  1
  Cl  Cl58  1  0.459250  0.712211  0.535570  1
  Cl  Cl59  1  0.959250  0.287788  0.964432  1
  Cl  Cl60  1  0.541303  0.789345  0.035873  1
  Cl  Cl61  1  0.041302  0.210656  0.464127  1
  Cl  Cl62  1  0.710672  0.536028  0.458733  1
  Cl  Cl63  1  0.287810  0.964599  0.959212  1
  Cl  Cl64  1  0.787810  0.035401  0.540788  1
  Cl  Cl65  1  0.210671  0.463971  0.041267  1
  Cl  Cl66  1  0.536189  0.458896  0.710724  1
  Cl  Cl67  1  0.964757  0.959045  0.287866  1
  Cl  Cl68  1  0.036189  0.541102  0.789275  1
  Cl  Cl69  1  0.464758  0.040955  0.212134  1
