# generated using pymatgen
data_Nd12Al4Ge4Ru5Rh3
_symmetry_space_group_name_H-M   'P 1'
_cell_length_a   5.73730080
_cell_length_b   8.00701539
_cell_length_c   13.83340375
_cell_angle_alpha   90.17953600
_cell_angle_beta   90.09705282
_cell_angle_gamma   90.32871256
_symmetry_Int_Tables_number   1
_chemical_formula_structural   Nd12Al4Ge4Ru5Rh3
_chemical_formula_sum   'Nd12 Al4 Ge4 Ru5 Rh3'
_cell_volume   635.47346456
_cell_formula_units_Z   1
loop_
 _symmetry_equiv_pos_site_id
 _symmetry_equiv_pos_as_xyz
  1  'x, y, z'
loop_
 _atom_site_type_symbol
 _atom_site_label
 _atom_site_symmetry_multiplicity
 _atom_site_fract_x
 _atom_site_fract_y
 _atom_site_fract_z
 _atom_site_occupancy
  Nd  Nd0  1  0.626266  0.258814  0.252781  1
  Nd  Nd1  1  0.370547  0.744959  0.749316  1
  Nd  Nd2  1  0.366487  0.763285  0.250567  1
  Nd  Nd3  1  0.634248  0.235010  0.750029  1
  Nd  Nd4  1  0.143102  0.394417  0.100491  1
  Nd  Nd5  1  0.855503  0.605055  0.899336  1
  Nd  Nd6  1  0.854431  0.602277  0.599213  1
  Nd  Nd7  1  0.851893  0.900157  0.400365  1
  Nd  Nd8  1  0.143745  0.401097  0.398915  1
  Nd  Nd9  1  0.148378  0.097156  0.598699  1
  Nd  Nd10  1  0.148947  0.096829  0.900866  1
  Nd  Nd11  1  0.852563  0.904365  0.099839  1
  Al  Al12  1  0.619820  0.248794  0.999232  1
  Al  Al13  1  0.380054  0.751505  0.000221  1
  Al  Al14  1  0.384608  0.749688  0.499552  1
  Al  Al15  1  0.617516  0.249174  0.500356  1
  Ge  Ge16  1  0.130638  0.112145  0.250892  1
  Ge  Ge17  1  0.869236  0.887955  0.749488  1
  Ge  Ge18  1  0.861399  0.612002  0.248911  1
  Ge  Ge19  1  0.137801  0.389036  0.750573  1
  Ru  Ru20  1  0.357968  0.032149  0.091886  1
  Ru  Ru21  1  0.643300  0.967321  0.908154  1
  Ru  Ru22  1  0.642463  0.970267  0.592135  1
  Ru  Ru23  1  0.637765  0.526427  0.407835  1
  Ru  Ru24  1  0.357855  0.029357  0.408260  1
  Rh  Rh25  1  0.363751  0.470859  0.592565  1
  Rh  Rh26  1  0.365082  0.471580  0.908920  1
  Rh  Rh27  1  0.634633  0.528317  0.090602  1
