# generated using pymatgen
data_La3GeTe2
_symmetry_space_group_name_H-M   'P 1'
_cell_length_a   7.89285388
_cell_length_b   7.89285233
_cell_length_c   7.89285400
_cell_angle_alpha   146.49404709
_cell_angle_beta   132.06959651
_cell_angle_gamma   59.74421477
_symmetry_Int_Tables_number   1
_chemical_formula_structural   La3GeTe2
_chemical_formula_sum   'La3 Ge1 Te2'
_cell_volume   199.68004919
_cell_formula_units_Z   1
loop_
 _symmetry_equiv_pos_site_id
 _symmetry_equiv_pos_as_xyz
  1  'x, y, z'
loop_
 _atom_site_type_symbol
 _atom_site_label
 _atom_site_symmetry_multiplicity
 _atom_site_fract_x
 _atom_site_fract_y
 _atom_site_fract_z
 _atom_site_occupancy
  La  La0  1  0.348553  0.348553  0.000000  1
  La  La1  1  0.999913  0.999913  0.000000  1
  La  La2  1  0.651772  0.651772  0.000000  1
  Ge  Ge3  1  0.500014  0.000014  0.500000  1
  Te  Te4  1  0.170876  0.670876  0.500000  1
  Te  Te5  1  0.828873  0.328873  0.500000  1
