# generated using pymatgen
data_Tb2Sm2PBr6
_symmetry_space_group_name_H-M   'P 1'
_cell_length_a   4.06297800
_cell_length_b   13.34147600
_cell_length_c   14.05053500
_cell_angle_alpha   90.00000000
_cell_angle_beta   90.00000000
_cell_angle_gamma   90.00000000
_symmetry_Int_Tables_number   1
_chemical_formula_structural   Tb2Sm2PBr6
_chemical_formula_sum   'Tb4 Sm4 P2 Br12'
_cell_volume   761.62503511
_cell_formula_units_Z   2
loop_
 _symmetry_equiv_pos_site_id
 _symmetry_equiv_pos_as_xyz
  1  'x, y, z'
loop_
 _atom_site_type_symbol
 _atom_site_label
 _atom_site_symmetry_multiplicity
 _atom_site_fract_x
 _atom_site_fract_y
 _atom_site_fract_z
 _atom_site_occupancy
  Tb  Tb0  1  0.500000  0.116611  0.343650  1
  Tb  Tb1  1  0.500000  0.883389  0.656350  1
  Tb  Tb2  1  0.500000  0.616611  0.156350  1
  Tb  Tb3  1  0.500000  0.383389  0.843650  1
  Sm  Sm4  1  0.000000  0.116595  0.577910  1
  Sm  Sm5  1  0.000000  0.883405  0.422090  1
  Sm  Sm6  1  0.000000  0.616595  0.922090  1
  Sm  Sm7  1  0.000000  0.383405  0.077910  1
  P  P8  1  0.500000  0.000000  0.500000  1
  P  P9  1  0.500000  0.500000  0.000000  1
  Br  Br10  1  0.500000  0.240338  0.165747  1
  Br  Br11  1  0.500000  0.759662  0.834253  1
  Br  Br12  1  0.500000  0.740338  0.334253  1
  Br  Br13  1  0.500000  0.259662  0.665747  1
  Br  Br14  1  0.000000  0.254778  0.409915  1
  Br  Br15  1  0.000000  0.745222  0.590085  1
  Br  Br16  1  0.000000  0.754778  0.090085  1
  Br  Br17  1  0.000000  0.245222  0.909915  1
  Br  Br18  1  0.000000  0.003794  0.242576  1
  Br  Br19  1  0.000000  0.996206  0.757424  1
  Br  Br20  1  0.000000  0.503794  0.257424  1
  Br  Br21  1  0.000000  0.496206  0.742576  1
