# generated using pymatgen
data_Tm7VO12
_symmetry_space_group_name_H-M   'P 1'
_cell_length_a   6.47766136
_cell_length_b   6.47766061
_cell_length_c   6.47766200
_cell_angle_alpha   92.51659533
_cell_angle_beta   92.51658619
_cell_angle_gamma   92.51660965
_symmetry_Int_Tables_number   1
_chemical_formula_structural   Tm7VO12
_chemical_formula_sum   'Tm7 V1 O12'
_cell_volume   270.99302781
_cell_formula_units_Z   1
loop_
 _symmetry_equiv_pos_site_id
 _symmetry_equiv_pos_as_xyz
  1  'x, y, z'
loop_
 _atom_site_type_symbol
 _atom_site_label
 _atom_site_symmetry_multiplicity
 _atom_site_fract_x
 _atom_site_fract_y
 _atom_site_fract_z
 _atom_site_occupancy
  Tm  Tm0  1  0.741183  0.926179  0.436748  1
  Tm  Tm1  1  0.926179  0.436748  0.741183  1
  Tm  Tm2  1  0.436748  0.741183  0.926179  1
  Tm  Tm3  1  0.258817  0.073821  0.563252  1
  Tm  Tm4  1  0.073821  0.563252  0.258817  1
  Tm  Tm5  1  0.563252  0.258817  0.073821  1
  Tm  Tm6  1  0.000000  0.000000  0.000000  1
  V  V7  1  0.500000  0.500000  0.500000  1
  O  O8  1  0.590743  0.462454  0.803439  1
  O  O9  1  0.462454  0.803439  0.590743  1
  O  O10  1  0.803439  0.590743  0.462454  1
  O  O11  1  0.409257  0.537546  0.196561  1
  O  O12  1  0.537546  0.196561  0.409257  1
  O  O13  1  0.196561  0.409257  0.537546  1
  O  O14  1  0.071275  0.907594  0.318426  1
  O  O15  1  0.907594  0.318426  0.071275  1
  O  O16  1  0.681574  0.928725  0.092406  1
  O  O17  1  0.092406  0.681574  0.928725  1
  O  O18  1  0.928725  0.092406  0.681574  1
  O  O19  1  0.318426  0.071275  0.907594  1
