# generated using pymatgen
data_La4Al18CuIr5
_symmetry_space_group_name_H-M   'P 1'
_cell_length_a   7.67863850
_cell_length_b   7.67863904
_cell_length_c   9.65681007
_cell_angle_alpha   90.02702351
_cell_angle_beta   90.02702650
_cell_angle_gamma   119.49114183
_symmetry_Int_Tables_number   1
_chemical_formula_structural   La4Al18CuIr5
_chemical_formula_sum   'La4 Al18 Cu1 Ir5'
_cell_volume   495.60620054
_cell_formula_units_Z   1
loop_
 _symmetry_equiv_pos_site_id
 _symmetry_equiv_pos_as_xyz
  1  'x, y, z'
loop_
 _atom_site_type_symbol
 _atom_site_label
 _atom_site_symmetry_multiplicity
 _atom_site_fract_x
 _atom_site_fract_y
 _atom_site_fract_z
 _atom_site_occupancy
  La  La0  1  0.995438  0.670326  0.249585  1
  La  La1  1  0.004562  0.329674  0.750415  1
  La  La2  1  0.670326  0.995438  0.249585  1
  La  La3  1  0.329674  0.004562  0.750415  1
  Al  Al4  1  0.133280  0.133280  0.252858  1
  Al  Al5  1  0.866720  0.866720  0.747142  1
  Al  Al6  1  0.004041  0.338562  0.074446  1
  Al  Al7  1  0.995959  0.661438  0.925554  1
  Al  Al8  1  0.997126  0.665428  0.571367  1
  Al  Al9  1  0.334572  0.002874  0.428633  1
  Al  Al10  1  0.002874  0.334572  0.428633  1
  Al  Al11  1  0.665428  0.997126  0.571367  1
  Al  Al12  1  0.661438  0.995959  0.925554  1
  Al  Al13  1  0.338562  0.004041  0.074446  1
  Al  Al14  1  0.334944  0.334944  0.546175  1
  Al  Al15  1  0.665056  0.665056  0.453825  1
  Al  Al16  1  0.660680  0.660680  0.049234  1
  Al  Al17  1  0.339320  0.339320  0.950766  1
  Al  Al18  1  0.339873  0.544918  0.250366  1
  Al  Al19  1  0.660127  0.455082  0.749634  1
  Al  Al20  1  0.544918  0.339873  0.250366  1
  Al  Al21  1  0.455082  0.660127  0.749634  1
  Cu  Cu22  1  0.000000  0.000000  0.000000  1
  Ir  Ir23  1  0.670810  0.329190  0.000000  1
  Ir  Ir24  1  0.329190  0.670810  0.000000  1
  Ir  Ir25  1  0.329189  0.670811  0.500000  1
  Ir  Ir26  1  0.670811  0.329189  0.500000  1
  Ir  Ir27  1  0.000000  0.000000  0.500000  1
