# generated using pymatgen
data_Dy6Er2Sc12Si15Rh
_symmetry_space_group_name_H-M   'P 1'
_cell_length_a   7.07706403
_cell_length_b   7.43549231
_cell_length_c   13.95652655
_cell_angle_alpha   89.96892401
_cell_angle_beta   89.99168891
_cell_angle_gamma   90.19105463
_symmetry_Int_Tables_number   1
_chemical_formula_structural   Dy6Er2Sc12Si15Rh
_chemical_formula_sum   'Dy6 Er2 Sc12 Si15 Rh1'
_cell_volume   734.40853702
_cell_formula_units_Z   1
loop_
 _symmetry_equiv_pos_site_id
 _symmetry_equiv_pos_as_xyz
  1  'x, y, z'
loop_
 _atom_site_type_symbol
 _atom_site_label
 _atom_site_symmetry_multiplicity
 _atom_site_fract_x
 _atom_site_fract_y
 _atom_site_fract_z
 _atom_site_occupancy
  Dy  Dy0  1  0.489097  0.676878  0.904416  1
  Dy  Dy1  1  0.991039  0.824681  0.595316  1
  Dy  Dy2  1  0.511311  0.322928  0.096366  1
  Dy  Dy3  1  0.011298  0.178156  0.403965  1
  Dy  Dy4  1  0.511139  0.322976  0.403548  1
  Dy  Dy5  1  0.489236  0.676798  0.595725  1
  Er  Er6  1  0.011231  0.178434  0.096249  1
  Er  Er7  1  0.991091  0.824623  0.904436  1
  Sc  Sc8  1  0.158868  0.503792  0.750070  1
  Sc  Sc9  1  0.837987  0.495994  0.249920  1
  Sc  Sc10  1  0.338680  0.004756  0.249928  1
  Sc  Sc11  1  0.668776  0.998916  0.750073  1
  Sc  Sc12  1  0.320332  0.172676  0.626945  1
  Sc  Sc13  1  0.671192  0.825255  0.373946  1
  Sc  Sc14  1  0.170660  0.677352  0.374230  1
  Sc  Sc15  1  0.671259  0.825387  0.125954  1
  Sc  Sc16  1  0.834047  0.322159  0.626599  1
  Sc  Sc17  1  0.319872  0.172444  0.873143  1
  Sc  Sc18  1  0.834228  0.321927  0.873449  1
  Sc  Sc19  1  0.170552  0.677517  0.125636  1
  Si  Si20  1  0.968525  0.884767  0.249839  1
  Si  Si21  1  0.468062  0.615091  0.249971  1
  Si  Si22  1  0.530666  0.387285  0.750056  1
  Si  Si23  1  0.287425  0.868468  0.750212  1
  Si  Si24  1  0.713758  0.129136  0.249767  1
  Si  Si25  1  0.212932  0.371571  0.249748  1
  Si  Si26  1  0.781066  0.626785  0.750208  1
  Si  Si27  1  0.159355  0.467174  0.537958  1
  Si  Si28  1  0.842853  0.535764  0.461240  1
  Si  Si29  1  0.344581  0.965720  0.460538  1
  Si  Si30  1  0.843133  0.535720  0.038763  1
  Si  Si31  1  0.657606  0.034753  0.538667  1
  Si  Si32  1  0.159113  0.467246  0.962067  1
  Si  Si33  1  0.658365  0.034401  0.961261  1
  Si  Si34  1  0.343764  0.966016  0.039522  1
  Rh  Rh35  1  0.026895  0.106453  0.750268  1
