# generated using pymatgen
data_Sr2YTm3Se8
_symmetry_space_group_name_H-M   'P 1'
_cell_length_a   4.12768200
_cell_length_b   12.58230800
_cell_length_c   14.89771100
_cell_angle_alpha   90.00000000
_cell_angle_beta   90.00000000
_cell_angle_gamma   90.00000000
_symmetry_Int_Tables_number   1
_chemical_formula_structural   Sr2YTm3Se8
_chemical_formula_sum   'Sr4 Y2 Tm6 Se16'
_cell_volume   773.72403616
_cell_formula_units_Z   2
loop_
 _symmetry_equiv_pos_site_id
 _symmetry_equiv_pos_as_xyz
  1  'x, y, z'
loop_
 _atom_site_type_symbol
 _atom_site_label
 _atom_site_symmetry_multiplicity
 _atom_site_fract_x
 _atom_site_fract_y
 _atom_site_fract_z
 _atom_site_occupancy
  Sr  Sr0  1  0.750000  0.741262  0.165431  1
  Sr  Sr1  1  0.750000  0.241262  0.334569  1
  Sr  Sr2  1  0.250000  0.258515  0.835520  1
  Sr  Sr3  1  0.250000  0.758515  0.664480  1
  Y  Y4  1  0.250000  0.936010  0.889469  1
  Y  Y5  1  0.250000  0.436011  0.610531  1
  Tm  Tm6  1  0.750000  0.081717  0.597631  1
  Tm  Tm7  1  0.750000  0.581717  0.902369  1
  Tm  Tm8  1  0.250000  0.918273  0.402218  1
  Tm  Tm9  1  0.250000  0.418273  0.097782  1
  Tm  Tm10  1  0.750000  0.062977  0.111763  1
  Tm  Tm11  1  0.750000  0.562977  0.388237  1
  Se  Se12  1  0.750000  0.292014  0.672507  1
  Se  Se13  1  0.750000  0.792014  0.827493  1
  Se  Se14  1  0.250000  0.706049  0.329335  1
  Se  Se15  1  0.250000  0.206049  0.170665  1
  Se  Se16  1  0.750000  0.371540  0.971207  1
  Se  Se17  1  0.750000  0.871540  0.528793  1
  Se  Se18  1  0.250000  0.629099  0.028925  1
  Se  Se19  1  0.250000  0.129099  0.471075  1
  Se  Se20  1  0.750000  0.973965  0.285349  1
  Se  Se21  1  0.750000  0.473965  0.214651  1
  Se  Se22  1  0.250000  0.026681  0.714386  1
  Se  Se23  1  0.250000  0.526681  0.785614  1
  Se  Se24  1  0.750000  0.089936  0.924248  1
  Se  Se25  1  0.750000  0.589936  0.575752  1
  Se  Se26  1  0.250000  0.911964  0.079232  1
  Se  Se27  1  0.250000  0.411964  0.420768  1
