# generated using pymatgen
data_Ba10Si4SnAs
_symmetry_space_group_name_H-M   'P 1'
_cell_length_a   10.40269640
_cell_length_b   10.40269654
_cell_length_c   10.40269700
_cell_angle_alpha   131.41103943
_cell_angle_beta   131.41104015
_cell_angle_gamma   71.16083087
_symmetry_Int_Tables_number   1
_chemical_formula_structural   Ba10Si4SnAs
_chemical_formula_sum   'Ba10 Si4 Sn1 As1'
_cell_volume   619.91626810
_cell_formula_units_Z   1
loop_
 _symmetry_equiv_pos_site_id
 _symmetry_equiv_pos_as_xyz
  1  'x, y, z'
loop_
 _atom_site_type_symbol
 _atom_site_label
 _atom_site_symmetry_multiplicity
 _atom_site_fract_x
 _atom_site_fract_y
 _atom_site_fract_z
 _atom_site_occupancy
  Ba  Ba0  1  0.048152  0.190292  0.521913  1
  Ba  Ba1  1  0.526239  0.048152  0.857860  1
  Ba  Ba2  1  0.190292  0.668379  0.142140  1
  Ba  Ba3  1  0.451848  0.973761  0.142140  1
  Ba  Ba4  1  0.668379  0.526239  0.478087  1
  Ba  Ba5  1  0.973761  0.831621  0.521913  1
  Ba  Ba6  1  0.309708  0.451848  0.478087  1
  Ba  Ba7  1  0.831621  0.309708  0.857860  1
  Ba  Ba8  1  0.520923  0.520923  0.000000  1
  Ba  Ba9  1  0.979077  0.979077  0.000000  1
  Si  Si10  1  0.101024  0.601024  0.702048  1
  Si  Si11  1  0.601024  0.898976  0.500000  1
  Si  Si12  1  0.398976  0.101024  0.500000  1
  Si  Si13  1  0.898976  0.398976  0.297952  1
  Sn  Sn14  1  0.750000  0.750000  0.000000  1
  As  As15  1  0.250000  0.250000  0.000000  1
