# generated using pymatgen
data_Tb2PrNd(Mo2O7)2
_symmetry_space_group_name_H-M   'P 1'
_cell_length_a   7.48520419
_cell_length_b   7.55291903
_cell_length_c   7.48527089
_cell_angle_alpha   59.30136722
_cell_angle_beta   59.04180529
_cell_angle_gamma   59.30262659
_symmetry_Int_Tables_number   1
_chemical_formula_structural   Tb2PrNd(Mo2O7)2
_chemical_formula_sum   'Tb2 Pr1 Nd1 Mo4 O14'
_cell_volume   293.88036682
_cell_formula_units_Z   1
loop_
 _symmetry_equiv_pos_site_id
 _symmetry_equiv_pos_as_xyz
  1  'x, y, z'
loop_
 _atom_site_type_symbol
 _atom_site_label
 _atom_site_symmetry_multiplicity
 _atom_site_fract_x
 _atom_site_fract_y
 _atom_site_fract_z
 _atom_site_occupancy
  Tb  Tb0  1  0.625000  0.125000  0.125000  1
  Tb  Tb1  1  0.125000  0.125000  0.625000  1
  Pr  Pr2  1  0.125000  0.125000  0.125000  1
  Nd  Nd3  1  0.125000  0.625000  0.125000  1
  Mo  Mo4  1  0.625000  0.625000  0.625000  1
  Mo  Mo5  1  0.125000  0.625000  0.625000  1
  Mo  Mo6  1  0.625000  0.625000  0.125000  1
  Mo  Mo7  1  0.625000  0.125000  0.625000  1
  O  O8  1  0.996089  0.003942  0.996091  1
  O  O9  1  0.253911  0.246058  0.253909  1
  O  O10  1  0.289295  0.291157  0.702846  1
  O  O11  1  0.545429  0.532044  0.960790  1
  O  O12  1  0.715004  0.283204  0.715063  1
  O  O13  1  0.702790  0.291263  0.289204  1
  O  O14  1  0.289159  0.718055  0.704463  1
  O  O15  1  0.290347  0.706407  0.290394  1
  O  O16  1  0.704571  0.717956  0.289210  1
  O  O17  1  0.960841  0.531945  0.545537  1
  O  O18  1  0.547210  0.958737  0.960796  1
  O  O19  1  0.960705  0.958843  0.547154  1
  O  O20  1  0.959653  0.543593  0.959606  1
  O  O21  1  0.534996  0.966796  0.534937  1
