# generated using pymatgen
data_Yb2AlOsO6
_symmetry_space_group_name_H-M   'P 1'
_cell_length_a   5.29723814
_cell_length_b   5.41473500
_cell_length_c   7.52923563
_cell_angle_alpha   90.00000000
_cell_angle_beta   89.95054211
_cell_angle_gamma   90.00000000
_symmetry_Int_Tables_number   1
_chemical_formula_structural   Yb2AlOsO6
_chemical_formula_sum   'Yb4 Al2 Os2 O12'
_cell_volume   215.96204522
_cell_formula_units_Z   2
loop_
 _symmetry_equiv_pos_site_id
 _symmetry_equiv_pos_as_xyz
  1  'x, y, z'
loop_
 _atom_site_type_symbol
 _atom_site_label
 _atom_site_symmetry_multiplicity
 _atom_site_fract_x
 _atom_site_fract_y
 _atom_site_fract_z
 _atom_site_occupancy
  Yb  Yb0  1  0.511924  0.550921  0.249039  1
  Yb  Yb1  1  0.988076  0.050921  0.250961  1
  Yb  Yb2  1  0.488076  0.449079  0.750961  1
  Yb  Yb3  1  0.011924  0.949079  0.749039  1
  Al  Al4  1  0.000000  0.500000  0.500000  1
  Al  Al5  1  0.500000  0.000000  0.000000  1
  Os  Os6  1  0.000000  0.500000  0.000000  1
  Os  Os7  1  0.500000  0.000000  0.500000  1
  O  O8  1  0.416148  0.979021  0.244790  1
  O  O9  1  0.083852  0.479021  0.255210  1
  O  O10  1  0.583852  0.020979  0.755210  1
  O  O11  1  0.916148  0.520979  0.744790  1
  O  O12  1  0.789521  0.796628  0.043827  1
  O  O13  1  0.710479  0.296628  0.456173  1
  O  O14  1  0.201265  0.212238  0.543879  1
  O  O15  1  0.298735  0.712238  0.956121  1
  O  O16  1  0.210479  0.203372  0.956173  1
  O  O17  1  0.289521  0.703372  0.543827  1
  O  O18  1  0.798735  0.787762  0.456121  1
  O  O19  1  0.701265  0.287762  0.043879  1
