# generated using pymatgen
data_Tb2Dy2CdPt
_symmetry_space_group_name_H-M   'P 1'
_cell_length_a   9.70701349
_cell_length_b   9.70701244
_cell_length_c   9.72125900
_cell_angle_alpha   59.95144182
_cell_angle_beta   59.95144541
_cell_angle_gamma   60.09712384
_symmetry_Int_Tables_number   1
_chemical_formula_structural   Tb2Dy2CdPt
_chemical_formula_sum   'Tb8 Dy8 Cd4 Pt4'
_cell_volume   647.70447553
_cell_formula_units_Z   4
loop_
 _symmetry_equiv_pos_site_id
 _symmetry_equiv_pos_as_xyz
  1  'x, y, z'
loop_
 _atom_site_type_symbol
 _atom_site_label
 _atom_site_symmetry_multiplicity
 _atom_site_fract_x
 _atom_site_fract_y
 _atom_site_fract_z
 _atom_site_occupancy
  Tb  Tb0  1  0.189545  0.189545  0.810455  1
  Tb  Tb1  1  0.810455  0.810455  0.189545  1
  Tb  Tb2  1  0.935657  0.564343  0.564343  1
  Tb  Tb3  1  0.564343  0.935657  0.935657  1
  Tb  Tb4  1  0.564343  0.935657  0.564343  1
  Tb  Tb5  1  0.935657  0.564343  0.935657  1
  Tb  Tb6  1  0.564099  0.564099  0.935901  1
  Tb  Tb7  1  0.935901  0.935901  0.564099  1
  Dy  Dy8  1  0.352177  0.352177  0.352022  1
  Dy  Dy9  1  0.352177  0.352177  0.943625  1
  Dy  Dy10  1  0.352022  0.943625  0.352177  1
  Dy  Dy11  1  0.943625  0.352022  0.352177  1
  Dy  Dy12  1  0.810436  0.189564  0.189564  1
  Dy  Dy13  1  0.189564  0.810436  0.810436  1
  Dy  Dy14  1  0.189564  0.810436  0.189564  1
  Dy  Dy15  1  0.810436  0.189564  0.810436  1
  Cd  Cd16  1  0.581835  0.581835  0.581892  1
  Cd  Cd17  1  0.581835  0.581835  0.254438  1
  Cd  Cd18  1  0.581892  0.254438  0.581835  1
  Cd  Cd19  1  0.254438  0.581892  0.581835  1
  Pt  Pt20  1  0.142997  0.142997  0.144298  1
  Pt  Pt21  1  0.142997  0.142997  0.569708  1
  Pt  Pt22  1  0.144298  0.569708  0.142997  1
  Pt  Pt23  1  0.569708  0.144298  0.142997  1
