# generated using pymatgen
data_Ho20Bi12P
_symmetry_space_group_name_H-M   'P 1'
_cell_length_a   6.34889400
_cell_length_b   9.18425386
_cell_length_c   15.79952800
_cell_angle_alpha   90.00000624
_cell_angle_beta   90.00000000
_cell_angle_gamma   89.93525081
_symmetry_Int_Tables_number   1
_chemical_formula_structural   Ho20Bi12P
_chemical_formula_sum   'Ho20 Bi12 P1'
_cell_volume   921.26758671
_cell_formula_units_Z   1
loop_
 _symmetry_equiv_pos_site_id
 _symmetry_equiv_pos_as_xyz
  1  'x, y, z'
loop_
 _atom_site_type_symbol
 _atom_site_label
 _atom_site_symmetry_multiplicity
 _atom_site_fract_x
 _atom_site_fract_y
 _atom_site_fract_z
 _atom_site_occupancy
  Ho  Ho0  1  0.499997  0.999989  0.333934  1
  Ho  Ho1  1  0.500005  0.500004  0.832978  1
  Ho  Ho2  1  0.500005  0.500004  0.167022  1
  Ho  Ho3  1  0.499997  0.999989  0.666066  1
  Ho  Ho4  1  0.000000  0.500005  0.166668  1
  Ho  Ho5  1  0.999998  0.000001  0.665778  1
  Ho  Ho6  1  0.999998  0.000001  0.334222  1
  Ho  Ho7  1  0.000000  0.500005  0.833332  1
  Ho  Ho8  1  0.750804  0.244848  0.000000  1
  Ho  Ho9  1  0.749765  0.743908  0.500000  1
  Ho  Ho10  1  0.749949  0.380644  0.379808  1
  Ho  Ho11  1  0.749723  0.878963  0.877188  1
  Ho  Ho12  1  0.749723  0.878963  0.122812  1
  Ho  Ho13  1  0.749949  0.380644  0.620192  1
  Ho  Ho14  1  0.249206  0.755158  0.000000  1
  Ho  Ho15  1  0.250230  0.256067  0.500000  1
  Ho  Ho16  1  0.250279  0.121045  0.122819  1
  Ho  Ho17  1  0.250051  0.619354  0.620189  1
  Ho  Ho18  1  0.250051  0.619354  0.379811  1
  Ho  Ho19  1  0.250279  0.121045  0.877181  1
  Bi  Bi20  1  0.749104  0.609786  0.000000  1
  Bi  Bi21  1  0.750859  0.111759  0.500000  1
  Bi  Bi22  1  0.751406  0.196773  0.197746  1
  Bi  Bi23  1  0.749747  0.694354  0.694357  1
  Bi  Bi24  1  0.749747  0.694354  0.305643  1
  Bi  Bi25  1  0.751406  0.196773  0.802254  1
  Bi  Bi26  1  0.250897  0.390216  0.000000  1
  Bi  Bi27  1  0.249135  0.888234  0.500000  1
  Bi  Bi28  1  0.250260  0.305649  0.305643  1
  Bi  Bi29  1  0.248588  0.803229  0.802256  1
  Bi  Bi30  1  0.248588  0.803229  0.197744  1
  Bi  Bi31  1  0.250260  0.305649  0.694357  1
  P  P32  1  0.499995  0.000007  0.000000  1
