# generated using pymatgen
data_SmAlZnCu3
_symmetry_space_group_name_H-M   'P 1'
_cell_length_a   5.08304731
_cell_length_b   5.16927934
_cell_length_c   4.19667400
_cell_angle_alpha   90.00000000
_cell_angle_beta   90.00000000
_cell_angle_gamma   118.47814340
_symmetry_Int_Tables_number   1
_chemical_formula_structural   SmAlZnCu3
_chemical_formula_sum   'Sm1 Al1 Zn1 Cu3'
_cell_volume   96.92767672
_cell_formula_units_Z   1
loop_
 _symmetry_equiv_pos_site_id
 _symmetry_equiv_pos_as_xyz
  1  'x, y, z'
loop_
 _atom_site_type_symbol
 _atom_site_label
 _atom_site_symmetry_multiplicity
 _atom_site_fract_x
 _atom_site_fract_y
 _atom_site_fract_z
 _atom_site_occupancy
  Sm  Sm0  1  0.500000  0.500000  0.000000  1
  Al  Al1  1  0.500000  0.000000  0.500000  1
  Zn  Zn2  1  0.000000  0.500000  0.500000  1
  Cu  Cu3  1  0.169551  0.842857  0.000000  1
  Cu  Cu4  1  0.830449  0.157143  0.000000  1
  Cu  Cu5  1  0.000000  0.000000  0.500000  1
