# generated using pymatgen
data_Pr2Nd4PtI10
_symmetry_space_group_name_H-M   'P 1'
_cell_length_a   7.98608702
_cell_length_b   10.06699805
_cell_length_c   10.11542044
_cell_angle_alpha   107.37166634
_cell_angle_beta   97.19651451
_cell_angle_gamma   105.21076585
_symmetry_Int_Tables_number   1
_chemical_formula_structural   Pr2Nd4PtI10
_chemical_formula_sum   'Pr2 Nd4 Pt1 I10'
_cell_volume   730.42151272
_cell_formula_units_Z   1
loop_
 _symmetry_equiv_pos_site_id
 _symmetry_equiv_pos_as_xyz
  1  'x, y, z'
loop_
 _atom_site_type_symbol
 _atom_site_label
 _atom_site_symmetry_multiplicity
 _atom_site_fract_x
 _atom_site_fract_y
 _atom_site_fract_z
 _atom_site_occupancy
  Pr  Pr0  1  0.618324  0.542538  0.255281  1
  Pr  Pr1  1  0.381676  0.457462  0.744719  1
  Nd  Nd2  1  0.530918  0.210205  0.413004  1
  Nd  Nd3  1  0.469082  0.789795  0.586996  1
  Nd  Nd4  1  0.145352  0.370487  0.330024  1
  Nd  Nd5  1  0.854648  0.629513  0.669976  1
  Pt  Pt6  1  0.500000  0.500000  0.500000  1
  I  I7  1  0.144983  0.045266  0.226366  1
  I  I8  1  0.855017  0.954734  0.773634  1
  I  I9  1  0.235707  0.410929  0.039225  1
  I  I10  1  0.764293  0.589071  0.960775  1
  I  I11  1  0.712306  0.238672  0.151305  1
  I  I12  1  0.287694  0.761328  0.848695  1
  I  I13  1  0.047861  0.681972  0.410506  1
  I  I14  1  0.952139  0.318028  0.589494  1
  I  I15  1  0.413918  0.128494  0.678642  1
  I  I16  1  0.586082  0.871506  0.321358  1
