# generated using pymatgen
data_La7Dy(SiI6)2
_symmetry_space_group_name_H-M   'P 1'
_cell_length_a   4.41932000
_cell_length_b   14.67564621
_cell_length_c   15.46011277
_cell_angle_alpha   90.54142039
_cell_angle_beta   90.00000000
_cell_angle_gamma   90.00000000
_symmetry_Int_Tables_number   1
_chemical_formula_structural   La7Dy(SiI6)2
_chemical_formula_sum   'La7 Dy1 Si2 I12'
_cell_volume   1002.64213264
_cell_formula_units_Z   1
loop_
 _symmetry_equiv_pos_site_id
 _symmetry_equiv_pos_as_xyz
  1  'x, y, z'
loop_
 _atom_site_type_symbol
 _atom_site_label
 _atom_site_symmetry_multiplicity
 _atom_site_fract_x
 _atom_site_fract_y
 _atom_site_fract_z
 _atom_site_occupancy
  La  La0  1  0.500000  0.116083  0.345610  1
  La  La1  1  0.500000  0.885159  0.655518  1
  La  La2  1  0.500000  0.614346  0.153520  1
  La  La3  1  0.000000  0.117311  0.579021  1
  La  La4  1  0.000000  0.886302  0.424098  1
  La  La5  1  0.000000  0.612594  0.921982  1
  La  La6  1  0.000000  0.384178  0.073650  1
  Dy  Dy7  1  0.500000  0.387550  0.848750  1
  Si  Si8  1  0.500000  0.001841  0.501345  1
  Si  Si9  1  0.500000  0.497986  0.997247  1
  I  I10  1  0.500000  0.242299  0.160417  1
  I  I11  1  0.500000  0.755787  0.837327  1
  I  I12  1  0.500000  0.742744  0.337656  1
  I  I13  1  0.500000  0.259516  0.669002  1
  I  I14  1  0.000000  0.260263  0.415627  1
  I  I15  1  0.000000  0.740811  0.585529  1
  I  I16  1  0.000000  0.758143  0.085485  1
  I  I17  1  0.000000  0.249917  0.903677  1
  I  I18  1  0.000000  0.997568  0.240196  1
  I  I19  1  0.000000  0.002841  0.761482  1
  I  I20  1  0.000000  0.497502  0.258502  1
  I  I21  1  0.000000  0.489260  0.744362  1
