# generated using pymatgen
data_Ho4Er2C2I11
_symmetry_space_group_name_H-M   'P 1'
_cell_length_a   9.50589959
_cell_length_b   10.80545611
_cell_length_c   15.11429979
_cell_angle_alpha   90.50571434
_cell_angle_beta   104.15716036
_cell_angle_gamma   109.82589174
_symmetry_Int_Tables_number   1
_chemical_formula_structural   Ho4Er2C2I11
_chemical_formula_sum   'Ho8 Er4 C4 I22'
_cell_volume   1408.91243206
_cell_formula_units_Z   2
loop_
 _symmetry_equiv_pos_site_id
 _symmetry_equiv_pos_as_xyz
  1  'x, y, z'
loop_
 _atom_site_type_symbol
 _atom_site_label
 _atom_site_symmetry_multiplicity
 _atom_site_fract_x
 _atom_site_fract_y
 _atom_site_fract_z
 _atom_site_occupancy
  Ho  Ho0  1  0.386231  0.479273  0.119873  1
  Ho  Ho1  1  0.613769  0.520727  0.880127  1
  Ho  Ho2  1  0.427227  0.780583  0.266707  1
  Ho  Ho3  1  0.572773  0.219417  0.733293  1
  Ho  Ho4  1  0.626053  0.583762  0.358481  1
  Ho  Ho5  1  0.373947  0.416238  0.641519  1
  Ho  Ho6  1  0.831572  0.649587  0.201170  1
  Ho  Ho7  1  0.168428  0.350413  0.798830  1
  Er  Er8  1  0.630008  0.840375  0.106815  1
  Er  Er9  1  0.369992  0.159625  0.893185  1
  Er  Er10  1  0.859844  0.945130  0.347641  1
  Er  Er11  1  0.140156  0.054870  0.652359  1
  C  C12  1  0.431139  0.344507  0.797340  1
  C  C13  1  0.568861  0.655493  0.202660  1
  C  C14  1  0.315086  0.231635  0.739894  1
  C  C15  1  0.684914  0.768365  0.260106  1
  I  I16  1  0.386860  0.311169  0.272595  1
  I  I17  1  0.613140  0.688831  0.727405  1
  I  I18  1  0.122526  0.557985  0.150424  1
  I  I19  1  0.877474  0.442015  0.849576  1
  I  I20  1  0.626778  0.376713  0.061888  1
  I  I21  1  0.373222  0.623287  0.938112  1
  I  I22  1  0.120728  0.205563  0.481880  1
  I  I23  1  0.879272  0.794437  0.518120  1
  I  I24  1  0.618588  0.034435  0.391284  1
  I  I25  1  0.381412  0.965565  0.608716  1
  I  I26  1  0.127161  0.870506  0.306305  1
  I  I27  1  0.872839  0.129494  0.693695  1
  I  I28  1  0.130845  0.528191  0.653055  1
  I  I29  1  0.869155  0.471809  0.346945  1
  I  I30  1  0.616485  0.367210  0.565695  1
  I  I31  1  0.383515  0.632790  0.434305  1
  I  I32  1  0.141099  0.220418  0.977744  1
  I  I33  1  0.858901  0.779582  0.022256  1
  I  I34  1  0.623135  0.057452  0.896814  1
  I  I35  1  0.376865  0.942548  0.103186  1
  I  I36  1  0.129620  0.894731  0.814593  1
  I  I37  1  0.870380  0.105269  0.185407  1
