# generated using pymatgen
data_Lu3Al3Co2Pd
_symmetry_space_group_name_H-M   'P 1'
_cell_length_a   6.95675700
_cell_length_b   6.95675773
_cell_length_c   3.82504500
_cell_angle_alpha   90.00000000
_cell_angle_beta   90.00000000
_cell_angle_gamma   119.99998226
_symmetry_Int_Tables_number   1
_chemical_formula_structural   Lu3Al3Co2Pd
_chemical_formula_sum   'Lu3 Al3 Co2 Pd1'
_cell_volume   160.31751451
_cell_formula_units_Z   1
loop_
 _symmetry_equiv_pos_site_id
 _symmetry_equiv_pos_as_xyz
  1  'x, y, z'
loop_
 _atom_site_type_symbol
 _atom_site_label
 _atom_site_symmetry_multiplicity
 _atom_site_fract_x
 _atom_site_fract_y
 _atom_site_fract_z
 _atom_site_occupancy
  Lu  Lu0  1  0.581958  0.984134  0.000000  1
  Lu  Lu1  1  0.015866  0.597824  0.000000  1
  Lu  Lu2  1  0.402176  0.418042  0.000000  1
  Al  Al3  1  0.230920  0.989975  0.500000  1
  Al  Al4  1  0.010025  0.240946  0.500000  1
  Al  Al5  1  0.759054  0.769080  0.500000  1
  Co  Co6  1  0.000000  0.000000  0.000000  1
  Co  Co7  1  0.333333  0.666667  0.500000  1
  Pd  Pd8  1  0.666667  0.333333  0.500000  1
