# generated using pymatgen
data_Tb12RuRh3
_symmetry_space_group_name_H-M   'P 1'
_cell_length_a   6.30172252
_cell_length_b   7.23631254
_cell_length_c   9.47891400
_cell_angle_alpha   90.00000000
_cell_angle_beta   90.00000000
_cell_angle_gamma   89.95446112
_symmetry_Int_Tables_number   1
_chemical_formula_structural   Tb12RuRh3
_chemical_formula_sum   'Tb12 Ru1 Rh3'
_cell_volume   432.25003635
_cell_formula_units_Z   1
loop_
 _symmetry_equiv_pos_site_id
 _symmetry_equiv_pos_as_xyz
  1  'x, y, z'
loop_
 _atom_site_type_symbol
 _atom_site_label
 _atom_site_symmetry_multiplicity
 _atom_site_fract_x
 _atom_site_fract_y
 _atom_site_fract_z
 _atom_site_occupancy
  Tb  Tb0  1  0.327123  0.678994  0.064775  1
  Tb  Tb1  1  0.170901  0.175997  0.434450  1
  Tb  Tb2  1  0.670113  0.322515  0.563519  1
  Tb  Tb3  1  0.831572  0.822229  0.938303  1
  Tb  Tb4  1  0.670113  0.322515  0.936481  1
  Tb  Tb5  1  0.831572  0.822229  0.561697  1
  Tb  Tb6  1  0.327123  0.678994  0.435225  1
  Tb  Tb7  1  0.170901  0.175997  0.065550  1
  Tb  Tb8  1  0.863351  0.538111  0.250000  1
  Tb  Tb9  1  0.639029  0.034034  0.250000  1
  Tb  Tb10  1  0.139007  0.463638  0.750000  1
  Tb  Tb11  1  0.363499  0.965073  0.750000  1
  Ru  Ru12  1  0.052446  0.881265  0.250000  1
  Rh  Rh13  1  0.444297  0.381242  0.250000  1
  Rh  Rh14  1  0.940715  0.118588  0.750000  1
  Rh  Rh15  1  0.558238  0.618578  0.750000  1
