# generated using pymatgen
data_Er8Tm7Lu5Pb16
_symmetry_space_group_name_H-M   'P 1'
_cell_length_a   8.12785738
_cell_length_b   15.47409701
_cell_length_c   8.20093500
_cell_angle_alpha   89.99787836
_cell_angle_beta   89.98254591
_cell_angle_gamma   89.99915144
_symmetry_Int_Tables_number   1
_chemical_formula_structural   Er8Tm7Lu5Pb16
_chemical_formula_sum   'Er8 Tm7 Lu5 Pb16'
_cell_volume   1031.44182660
_cell_formula_units_Z   1
loop_
 _symmetry_equiv_pos_site_id
 _symmetry_equiv_pos_as_xyz
  1  'x, y, z'
loop_
 _atom_site_type_symbol
 _atom_site_label
 _atom_site_symmetry_multiplicity
 _atom_site_fract_x
 _atom_site_fract_y
 _atom_site_fract_z
 _atom_site_occupancy
  Er  Er0  1  0.463435  0.599582  0.676371  1
  Er  Er1  1  0.963650  0.900465  0.823541  1
  Er  Er2  1  0.536345  0.099460  0.323585  1
  Er  Er3  1  0.036321  0.400853  0.176670  1
  Er  Er4  1  0.536583  0.400524  0.323475  1
  Er  Er5  1  0.036348  0.099412  0.176517  1
  Er  Er6  1  0.463487  0.900444  0.676420  1
  Er  Er7  1  0.963617  0.599451  0.823426  1
  Tm  Tm8  1  0.623479  0.621330  0.158194  1
  Tm  Tm9  1  0.123579  0.878643  0.341767  1
  Tm  Tm10  1  0.376482  0.121432  0.841649  1
  Tm  Tm11  1  0.876369  0.378583  0.658399  1
  Tm  Tm12  1  0.376295  0.378707  0.841735  1
  Tm  Tm13  1  0.876417  0.121366  0.658271  1
  Tm  Tm14  1  0.623655  0.878533  0.158307  1
  Lu  Lu15  1  0.123651  0.621439  0.341868  1
  Lu  Lu16  1  0.792018  0.749925  0.495414  1
  Lu  Lu17  1  0.291737  0.749884  0.004720  1
  Lu  Lu18  1  0.208048  0.250083  0.504382  1
  Lu  Lu19  1  0.708040  0.250017  0.995564  1
  Pb  Pb20  1  0.718188  0.457060  0.966054  1
  Pb  Pb21  1  0.217681  0.042886  0.534028  1
  Pb  Pb22  1  0.282342  0.957066  0.034214  1
  Pb  Pb23  1  0.782779  0.543251  0.465632  1
  Pb  Pb24  1  0.281658  0.543213  0.034612  1
  Pb  Pb25  1  0.782300  0.957109  0.465868  1
  Pb  Pb26  1  0.717778  0.042894  0.966017  1
  Pb  Pb27  1  0.217506  0.457514  0.533676  1
  Pb  Pb28  1  0.429179  0.749763  0.372135  1
  Pb  Pb29  1  0.929778  0.749740  0.128228  1
  Pb  Pb30  1  0.570900  0.249946  0.627204  1
  Pb  Pb31  1  0.070855  0.249924  0.872537  1
  Pb  Pb32  1  0.651614  0.749841  0.844650  1
  Pb  Pb33  1  0.151400  0.749867  0.654988  1
  Pb  Pb34  1  0.348393  0.249778  0.155360  1
  Pb  Pb35  1  0.848090  0.250015  0.344519  1
