# generated using pymatgen
data_Na11Zn2Sb5
_symmetry_space_group_name_H-M   'P 1'
_cell_length_a   9.01982681
_cell_length_b   10.78614399
_cell_length_c   11.53503935
_cell_angle_alpha   103.51274774
_cell_angle_beta   96.71411902
_cell_angle_gamma   107.45727968
_symmetry_Int_Tables_number   1
_chemical_formula_structural   Na11Zn2Sb5
_chemical_formula_sum   'Na22 Zn4 Sb10'
_cell_volume   1019.53311331
_cell_formula_units_Z   2
loop_
 _symmetry_equiv_pos_site_id
 _symmetry_equiv_pos_as_xyz
  1  'x, y, z'
loop_
 _atom_site_type_symbol
 _atom_site_label
 _atom_site_symmetry_multiplicity
 _atom_site_fract_x
 _atom_site_fract_y
 _atom_site_fract_z
 _atom_site_occupancy
  Na  Na0  1  0.856690  0.573652  0.962902  1
  Na  Na1  1  0.143310  0.426348  0.037098  1
  Na  Na2  1  0.306080  0.894157  0.776302  1
  Na  Na3  1  0.693920  0.105843  0.223698  1
  Na  Na4  1  0.630902  0.165252  0.530014  1
  Na  Na5  1  0.369098  0.834748  0.469986  1
  Na  Na6  1  0.632185  0.673037  0.559495  1
  Na  Na7  1  0.367815  0.326963  0.440505  1
  Na  Na8  1  0.204524  0.557983  0.571783  1
  Na  Na9  1  0.795476  0.442017  0.428217  1
  Na  Na10  1  0.049381  0.705261  0.266946  1
  Na  Na11  1  0.950619  0.294739  0.733054  1
  Na  Na12  1  0.203853  0.079511  0.570995  1
  Na  Na13  1  0.796147  0.920489  0.429005  1
  Na  Na14  1  0.874642  0.094692  0.981855  1
  Na  Na15  1  0.125358  0.905308  0.018145  1
  Na  Na16  1  0.585546  0.226921  0.862295  1
  Na  Na17  1  0.414454  0.773079  0.137705  1
  Na  Na18  1  0.395309  0.248644  0.142287  1
  Na  Na19  1  0.604691  0.751356  0.857713  1
  Na  Na20  1  0.348840  0.412043  0.790461  1
  Na  Na21  1  0.651160  0.587957  0.209539  1
  Zn  Zn22  1  0.946111  0.958513  0.717573  1
  Zn  Zn23  1  0.053889  0.041487  0.282427  1
  Zn  Zn24  1  0.945773  0.623631  0.714893  1
  Zn  Zn25  1  0.054227  0.376369  0.285107  1
  Sb  Sb26  1  0.004355  0.763823  0.545693  1
  Sb  Sb27  1  0.995645  0.236177  0.454307  1
  Sb  Sb28  1  0.653102  0.451336  0.691428  1
  Sb  Sb29  1  0.346898  0.548664  0.308572  1
  Sb  Sb30  1  0.654652  0.972754  0.699706  1
  Sb  Sb31  1  0.345348  0.027246  0.300294  1
  Sb  Sb32  1  0.198120  0.151711  0.871256  1
  Sb  Sb33  1  0.801880  0.848289  0.128744  1
  Sb  Sb34  1  0.196521  0.633100  0.869882  1
  Sb  Sb35  1  0.803479  0.366900  0.130118  1
