# generated using pymatgen
data_Pa8Mn(CoO8)3
_symmetry_space_group_name_H-M   'P 1'
_cell_length_a   5.39021700
_cell_length_b   5.36802483
_cell_length_c   15.68408388
_cell_angle_alpha   87.85320956
_cell_angle_beta   90.00000000
_cell_angle_gamma   90.00000000
_symmetry_Int_Tables_number   1
_chemical_formula_structural   Pa8Mn(CoO8)3
_chemical_formula_sum   'Pa8 Mn1 Co3 O24'
_cell_volume   453.49760632
_cell_formula_units_Z   1
loop_
 _symmetry_equiv_pos_site_id
 _symmetry_equiv_pos_as_xyz
  1  'x, y, z'
loop_
 _atom_site_type_symbol
 _atom_site_label
 _atom_site_symmetry_multiplicity
 _atom_site_fract_x
 _atom_site_fract_y
 _atom_site_fract_z
 _atom_site_occupancy
  Pa  Pa0  1  0.256109  0.456427  0.660351  1
  Pa  Pa1  1  0.241298  0.938723  0.846210  1
  Pa  Pa2  1  0.241298  0.061277  0.153790  1
  Pa  Pa3  1  0.256109  0.543573  0.339649  1
  Pa  Pa4  1  0.743719  0.041863  0.339757  1
  Pa  Pa5  1  0.755702  0.560531  0.153897  1
  Pa  Pa6  1  0.755702  0.439469  0.846103  1
  Pa  Pa7  1  0.743719  0.958137  0.660243  1
  Mn  Mn8  1  0.787902  0.500000  0.500000  1
  Co  Co9  1  0.314483  0.500000  0.000000  1
  Co  Co10  1  0.210612  0.000000  0.500000  1
  Co  Co11  1  0.683129  0.000000  0.000000  1
  O  O12  1  0.066032  0.621773  0.913499  1
  O  O13  1  0.447650  0.153387  0.589077  1
  O  O14  1  0.447650  0.846613  0.410923  1
  O  O15  1  0.066032  0.378227  0.086501  1
  O  O16  1  0.931626  0.877043  0.086185  1
  O  O17  1  0.555986  0.346828  0.406068  1
  O  O18  1  0.555986  0.653172  0.593932  1
  O  O19  1  0.931626  0.122957  0.913815  1
  O  O20  1  0.021871  0.789499  0.245883  1
  O  O21  1  0.477057  0.290192  0.245785  1
  O  O22  1  0.477057  0.709808  0.754215  1
  O  O23  1  0.021871  0.210501  0.754117  1
  O  O24  1  0.976267  0.710038  0.752829  1
  O  O25  1  0.520893  0.210169  0.751935  1
  O  O26  1  0.520893  0.789831  0.248065  1
  O  O27  1  0.976267  0.289962  0.247171  1
  O  O28  1  0.049804  0.746690  0.586326  1
  O  O29  1  0.448421  0.205733  0.918458  1
  O  O30  1  0.448421  0.794267  0.081542  1
  O  O31  1  0.049804  0.253310  0.413674  1
  O  O32  1  0.959254  0.758315  0.410840  1
  O  O33  1  0.550250  0.295044  0.080628  1
  O  O34  1  0.550250  0.704956  0.919372  1
  O  O35  1  0.959254  0.241685  0.589160  1
