# generated using pymatgen
data_Sr3Ca2Nd3(Si3Pd)4
_symmetry_space_group_name_H-M   'P 1'
_cell_length_a   8.34072600
_cell_length_b   8.34012793
_cell_length_c   8.65858300
_cell_angle_alpha   90.00000000
_cell_angle_beta   90.00000000
_cell_angle_gamma   120.00237218
_symmetry_Int_Tables_number   1
_chemical_formula_structural   Sr3Ca2Nd3(Si3Pd)4
_chemical_formula_sum   'Sr3 Ca2 Nd3 Si12 Pd4'
_cell_volume   521.60727637
_cell_formula_units_Z   1
loop_
 _symmetry_equiv_pos_site_id
 _symmetry_equiv_pos_as_xyz
  1  'x, y, z'
loop_
 _atom_site_type_symbol
 _atom_site_label
 _atom_site_symmetry_multiplicity
 _atom_site_fract_x
 _atom_site_fract_y
 _atom_site_fract_z
 _atom_site_occupancy
  Sr  Sr0  1  0.499683  0.500346  0.750000  1
  Sr  Sr1  1  0.000662  0.500346  0.750000  1
  Sr  Sr2  1  0.499619  0.999238  0.750000  1
  Ca  Ca3  1  0.500450  0.499702  0.250000  1
  Ca  Ca4  1  0.999252  0.499702  0.250000  1
  Nd  Nd5  1  0.500382  0.000764  0.250000  1
  Nd  Nd6  1  0.000017  0.000034  0.750000  1
  Nd  Nd7  1  0.999990  0.999979  0.250000  1
  Si  Si8  1  0.836642  0.164250  0.006529  1
  Si  Si9  1  0.163368  0.835729  0.007278  1
  Si  Si10  1  0.327608  0.164250  0.006529  1
  Si  Si11  1  0.163368  0.835729  0.492722  1
  Si  Si12  1  0.672361  0.835729  0.007278  1
  Si  Si13  1  0.836642  0.164250  0.493471  1
  Si  Si14  1  0.835460  0.670921  0.006155  1
  Si  Si15  1  0.672361  0.835729  0.492722  1
  Si  Si16  1  0.164554  0.329109  0.006808  1
  Si  Si17  1  0.327608  0.164250  0.493471  1
  Si  Si18  1  0.164554  0.329109  0.493192  1
  Si  Si19  1  0.835460  0.670921  0.493845  1
  Pd  Pd20  1  0.666367  0.332732  0.012124  1
  Pd  Pd21  1  0.333612  0.667226  0.013713  1
  Pd  Pd22  1  0.333612  0.667226  0.486287  1
  Pd  Pd23  1  0.666367  0.332732  0.487876  1
