# generated using pymatgen
data_RbCrAs2O7
_symmetry_space_group_name_H-M   'P 1'
_cell_length_a   6.49967518
_cell_length_b   6.58133092
_cell_length_c   8.46539071
_cell_angle_alpha   96.36805552
_cell_angle_beta   103.66069691
_cell_angle_gamma   103.69938760
_symmetry_Int_Tables_number   1
_chemical_formula_structural   RbCrAs2O7
_chemical_formula_sum   'Rb2 Cr2 As4 O14'
_cell_volume   336.48442837
_cell_formula_units_Z   2
loop_
 _symmetry_equiv_pos_site_id
 _symmetry_equiv_pos_as_xyz
  1  'x, y, z'
loop_
 _atom_site_type_symbol
 _atom_site_label
 _atom_site_symmetry_multiplicity
 _atom_site_fract_x
 _atom_site_fract_y
 _atom_site_fract_z
 _atom_site_occupancy
  Rb  Rb0  1  0.000000  0.500000  0.500000  1
  Rb  Rb1  1  0.000000  0.500000  0.000000  1
  Cr  Cr2  1  0.375873  0.187585  0.728522  1
  Cr  Cr3  1  0.624127  0.812415  0.271478  1
  As  As4  1  0.821975  0.031749  0.687419  1
  As  As5  1  0.488627  0.745559  0.834788  1
  As  As6  1  0.178025  0.968251  0.312581  1
  As  As7  1  0.511373  0.254441  0.165212  1
  O  O8  1  0.230116  0.121354  0.153325  1
  O  O9  1  0.318635  0.874479  0.724832  1
  O  O10  1  0.573310  0.498340  0.281331  1
  O  O11  1  0.915113  0.813506  0.224929  1
  O  O12  1  0.681365  0.125521  0.275168  1
  O  O13  1  0.769884  0.878646  0.846675  1
  O  O14  1  0.331540  0.789871  0.323226  1
  O  O15  1  0.457830  0.742737  0.028657  1
  O  O16  1  0.426690  0.501660  0.718669  1
  O  O17  1  0.217714  0.148882  0.483595  1
  O  O18  1  0.782286  0.851118  0.516405  1
  O  O19  1  0.084887  0.186494  0.775071  1
  O  O20  1  0.542170  0.257263  0.971343  1
  O  O21  1  0.668460  0.210129  0.676774  1
