# generated using pymatgen
data_LiTbTm4(P2Ru3)6
_symmetry_space_group_name_H-M   'P 1'
_cell_length_a   12.60526100
_cell_length_b   12.40785503
_cell_length_c   3.96615000
_cell_angle_alpha   90.00000000
_cell_angle_beta   90.00000000
_cell_angle_gamma   119.48486847
_symmetry_Int_Tables_number   1
_chemical_formula_structural   LiTbTm4(P2Ru3)6
_chemical_formula_sum   'Li1 Tb1 Tm4 P12 Ru18'
_cell_volume   539.98206500
_cell_formula_units_Z   1
loop_
 _symmetry_equiv_pos_site_id
 _symmetry_equiv_pos_as_xyz
  1  'x, y, z'
loop_
 _atom_site_type_symbol
 _atom_site_label
 _atom_site_symmetry_multiplicity
 _atom_site_fract_x
 _atom_site_fract_y
 _atom_site_fract_z
 _atom_site_occupancy
  Li  Li0  1  0.999839  0.561240  0.000000  1
  Tb  Tb1  1  0.182708  0.998571  0.500000  1
  Tm  Tm2  1  0.000003  0.181559  0.500000  1
  Tm  Tm3  1  0.817541  0.816565  0.500000  1
  Tm  Tm4  1  0.658454  0.328478  0.000000  1
  Tm  Tm5  1  0.341943  0.670132  0.000000  1
  P  P6  1  0.999520  0.807822  0.000000  1
  P  P7  1  0.180306  0.182995  0.000000  1
  P  P8  1  0.819135  0.002194  0.000000  1
  P  P9  1  0.691761  0.173383  0.500000  1
  P  P10  1  0.818550  0.517495  0.500000  1
  P  P11  1  0.473187  0.306674  0.500000  1
  P  P12  1  0.181173  0.698815  0.500000  1
  P  P13  1  0.527094  0.833531  0.500000  1
  P  P14  1  0.308501  0.482156  0.500000  1
  P  P15  1  0.999887  0.367176  0.000000  1
  P  P16  1  0.626517  0.625525  0.000000  1
  P  P17  1  0.373897  0.999060  0.000000  1
  Ru  Ru18  1  0.443720  0.445225  0.000000  1
  Ru  Ru19  1  0.556445  0.001110  0.000000  1
  Ru  Ru20  1  0.999450  0.710690  0.500000  1
  Ru  Ru21  1  0.279299  0.283307  0.500000  1
  Ru  Ru22  1  0.720966  0.003426  0.500000  1
  Ru  Ru23  1  0.806665  0.187238  0.000000  1
  Ru  Ru24  1  0.812157  0.618512  0.000000  1
  Ru  Ru25  1  0.372379  0.189172  0.000000  1
  Ru  Ru26  1  0.187314  0.804648  0.000000  1
  Ru  Ru27  1  0.629016  0.816477  0.000000  1
  Ru  Ru28  1  0.193160  0.380745  0.000000  1
  Ru  Ru29  1  0.875634  0.367427  0.500000  1
  Ru  Ru30  1  0.630550  0.507951  0.500000  1
  Ru  Ru31  1  0.493106  0.129245  0.500000  1
  Ru  Ru32  1  0.369647  0.877284  0.500000  1
  Ru  Ru33  1  0.507338  0.636615  0.500000  1
  Ru  Ru34  1  0.124464  0.491960  0.500000  1
  Ru  Ru35  1  0.998674  0.995603  0.000000  1
