# generated using pymatgen
data_Ho3ErTi4(SiO9)2
_symmetry_space_group_name_H-M   'P 1'
_cell_length_a   11.20629600
_cell_length_b   4.89806395
_cell_length_c   12.34825534
_cell_angle_alpha   84.21176695
_cell_angle_beta   90.00000000
_cell_angle_gamma   90.00000000
_symmetry_Int_Tables_number   1
_chemical_formula_structural   Ho3ErTi4(SiO9)2
_chemical_formula_sum   'Ho6 Er2 Ti8 Si4 O36'
_cell_volume   674.32956645
_cell_formula_units_Z   2
loop_
 _symmetry_equiv_pos_site_id
 _symmetry_equiv_pos_as_xyz
  1  'x, y, z'
loop_
 _atom_site_type_symbol
 _atom_site_label
 _atom_site_symmetry_multiplicity
 _atom_site_fract_x
 _atom_site_fract_y
 _atom_site_fract_z
 _atom_site_occupancy
  Ho  Ho0  1  0.358710  0.696421  0.931273  1
  Ho  Ho1  1  0.858710  0.303579  0.068727  1
  Ho  Ho2  1  0.638042  0.736939  0.421881  1
  Ho  Ho3  1  0.138042  0.263061  0.578119  1
  Ho  Ho4  1  0.361955  0.763081  0.577834  1
  Ho  Ho5  1  0.861955  0.236919  0.422166  1
  Er  Er6  1  0.641278  0.805236  0.068923  1
  Er  Er7  1  0.141278  0.194764  0.931077  1
  Ti  Ti8  1  0.837456  0.949680  0.850314  1
  Ti  Ti9  1  0.337456  0.050320  0.149686  1
  Ti  Ti10  1  0.162632  0.550183  0.149388  1
  Ti  Ti11  1  0.662632  0.449817  0.850612  1
  Ti  Ti12  1  0.836423  0.583745  0.638991  1
  Ti  Ti13  1  0.336423  0.416255  0.361009  1
  Ti  Ti14  1  0.163407  0.916229  0.361035  1
  Ti  Ti15  1  0.663407  0.083771  0.638965  1
  Si  Si16  1  0.595440  0.320834  0.247339  1
  Si  Si17  1  0.095440  0.679166  0.752661  1
  Si  Si18  1  0.404431  0.179033  0.752478  1
  Si  Si19  1  0.904431  0.820967  0.247522  1
  O  O20  1  0.839778  0.753394  0.133759  1
  O  O21  1  0.339778  0.246606  0.866241  1
  O  O22  1  0.159618  0.748983  0.866235  1
  O  O23  1  0.659618  0.251017  0.133765  1
  O  O24  1  0.788334  0.917331  0.552194  1
  O  O25  1  0.288334  0.082669  0.447806  1
  O  O26  1  0.211543  0.582649  0.447842  1
  O  O27  1  0.711543  0.417351  0.552158  1
  O  O28  1  0.949669  0.080146  0.933963  1
  O  O29  1  0.449669  0.919854  0.066037  1
  O  O30  1  0.051235  0.418928  0.065131  1
  O  O31  1  0.551235  0.581072  0.934869  1
  O  O32  1  0.600481  0.656736  0.245768  1
  O  O33  1  0.100481  0.343264  0.754232  1
  O  O34  1  0.399903  0.843229  0.753487  1
  O  O35  1  0.899903  0.156771  0.246513  1
  O  O36  1  0.950364  0.770426  0.745928  1
  O  O37  1  0.450364  0.229574  0.254072  1
  O  O38  1  0.049438  0.729151  0.253833  1
  O  O39  1  0.549438  0.270849  0.746167  1
  O  O40  1  0.788548  0.617115  0.936120  1
  O  O41  1  0.288548  0.382885  0.063880  1
  O  O42  1  0.211544  0.883434  0.063637  1
  O  O43  1  0.711544  0.116566  0.936363  1
  O  O44  1  0.952850  0.443666  0.562269  1
  O  O45  1  0.452850  0.556334  0.437731  1
  O  O46  1  0.047168  0.056107  0.437979  1
  O  O47  1  0.547168  0.943893  0.562021  1
  O  O48  1  0.835306  0.683644  0.356957  1
  O  O49  1  0.335306  0.316356  0.643043  1
  O  O50  1  0.164583  0.816041  0.643120  1
  O  O51  1  0.664583  0.183959  0.356880  1
  O  O52  1  0.707442  0.767793  0.744541  1
  O  O53  1  0.207442  0.232207  0.255459  1
  O  O54  1  0.292422  0.732188  0.255412  1
  O  O55  1  0.792422  0.267812  0.744588  1
