# generated using pymatgen
data_Nb7Fe8Si14Mo
_symmetry_space_group_name_H-M   'P 1'
_cell_length_a   9.26036781
_cell_length_b   9.26036831
_cell_length_c   9.24827618
_cell_angle_alpha   94.21242879
_cell_angle_beta   94.21242512
_cell_angle_gamma   148.57054561
_symmetry_Int_Tables_number   1
_chemical_formula_structural   Nb7Fe8Si14Mo
_chemical_formula_sum   'Nb7 Fe8 Si14 Mo1'
_cell_volume   398.05166939
_cell_formula_units_Z   1
loop_
 _symmetry_equiv_pos_site_id
 _symmetry_equiv_pos_as_xyz
  1  'x, y, z'
loop_
 _atom_site_type_symbol
 _atom_site_label
 _atom_site_symmetry_multiplicity
 _atom_site_fract_x
 _atom_site_fract_y
 _atom_site_fract_z
 _atom_site_occupancy
  Nb  Nb0  1  0.865337  0.865337  0.730674  1
  Nb  Nb1  1  0.864129  0.133786  0.997915  1
  Nb  Nb2  1  0.133786  0.864129  0.997915  1
  Nb  Nb3  1  0.501460  0.691943  0.193403  1
  Nb  Nb4  1  0.499075  0.309417  0.808492  1
  Nb  Nb5  1  0.309417  0.499075  0.808492  1
  Nb  Nb6  1  0.691943  0.501460  0.193403  1
  Fe  Fe7  1  0.399362  0.899362  0.798724  1
  Fe  Fe8  1  0.101202  0.601202  0.202405  1
  Fe  Fe9  1  0.100451  0.900291  0.499113  1
  Fe  Fe10  1  0.398662  0.598822  0.499113  1
  Fe  Fe11  1  0.598822  0.398662  0.499113  1
  Fe  Fe12  1  0.900291  0.100451  0.499113  1
  Fe  Fe13  1  0.899362  0.399362  0.798724  1
  Fe  Fe14  1  0.601202  0.101202  0.202405  1
  Si  Si15  1  0.289989  0.289989  0.579979  1
  Si  Si16  1  0.709253  0.709253  0.418505  1
  Si  Si17  1  0.708295  0.291701  0.999996  1
  Si  Si18  1  0.291701  0.708295  0.999996  1
  Si  Si19  1  0.003084  0.293463  0.296546  1
  Si  Si20  1  0.998213  0.702098  0.700311  1
  Si  Si21  1  0.702098  0.998213  0.700311  1
  Si  Si22  1  0.293463  0.003084  0.296546  1
  Si  Si23  1  0.501794  0.906354  0.408148  1
  Si  Si24  1  0.498434  0.094738  0.593172  1
  Si  Si25  1  0.094738  0.498434  0.593172  1
  Si  Si26  1  0.906354  0.501794  0.408148  1
  Si  Si27  1  0.752775  0.752775  0.003066  1
  Si  Si28  1  0.250291  0.250291  0.003066  1
  Mo  Mo29  1  0.135017  0.135017  0.270033  1
