# generated using pymatgen
data_Zr12Al5Zn7N2
_symmetry_space_group_name_H-M   'P 1'
_cell_length_a   8.60423021
_cell_length_b   8.59820320
_cell_length_c   8.60559784
_cell_angle_alpha   60.04505835
_cell_angle_beta   60.00526087
_cell_angle_gamma   59.97680075
_symmetry_Int_Tables_number   1
_chemical_formula_structural   Zr12Al5Zn7N2
_chemical_formula_sum   'Zr12 Al5 Zn7 N2'
_cell_volume   450.27150321
_cell_formula_units_Z   1
loop_
 _symmetry_equiv_pos_site_id
 _symmetry_equiv_pos_as_xyz
  1  'x, y, z'
loop_
 _atom_site_type_symbol
 _atom_site_label
 _atom_site_symmetry_multiplicity
 _atom_site_fract_x
 _atom_site_fract_y
 _atom_site_fract_z
 _atom_site_occupancy
  Zr  Zr0  1  0.188545  0.810325  0.190459  1
  Zr  Zr1  1  0.439286  0.061512  0.439221  1
  Zr  Zr2  1  0.439701  0.061279  0.059319  1
  Zr  Zr3  1  0.439296  0.439014  0.060658  1
  Zr  Zr4  1  0.189612  0.810435  0.810341  1
  Zr  Zr5  1  0.061031  0.439014  0.060658  1
  Zr  Zr6  1  0.810671  0.810325  0.190459  1
  Zr  Zr7  1  0.061079  0.438923  0.438920  1
  Zr  Zr8  1  0.188564  0.189938  0.810661  1
  Zr  Zr9  1  0.810770  0.189037  0.189424  1
  Zr  Zr10  1  0.810837  0.189938  0.810661  1
  Zr  Zr11  1  0.059981  0.061512  0.439221  1
  Al  Al12  1  0.831502  0.504448  0.832550  1
  Al  Al13  1  0.417302  0.418250  0.747145  1
  Al  Al14  1  0.746908  0.418408  0.417219  1
  Al  Al15  1  0.417463  0.418408  0.417219  1
  Al  Al16  1  0.831719  0.832290  0.504272  1
  Zn  Zn17  1  0.418276  0.745242  0.418205  1
  Zn  Zn18  1  0.831445  0.831617  0.831807  1
  Zn  Zn19  1  0.505132  0.831617  0.831807  1
  Zn  Zn20  1  0.624959  0.124480  0.625602  1
  Zn  Zn21  1  0.624916  0.625787  0.124381  1
  Zn  Zn22  1  0.124491  0.625649  0.625154  1
  Zn  Zn23  1  0.624706  0.625649  0.625154  1
  N  N24  1  0.001029  0.998559  0.999382  1
  N  N25  1  0.250778  0.248344  0.250100  1
