# generated using pymatgen
data_YbDy3Al16(SiIr3)2
_symmetry_space_group_name_H-M   'P 1'
_cell_length_a   7.54535505
_cell_length_b   7.54865714
_cell_length_c   9.36868200
_cell_angle_alpha   90.00000000
_cell_angle_beta   90.00000000
_cell_angle_gamma   119.66967853
_symmetry_Int_Tables_number   1
_chemical_formula_structural   YbDy3Al16(SiIr3)2
_chemical_formula_sum   'Yb1 Dy3 Al16 Si2 Ir6'
_cell_volume   463.65449472
_cell_formula_units_Z   1
loop_
 _symmetry_equiv_pos_site_id
 _symmetry_equiv_pos_as_xyz
  1  'x, y, z'
loop_
 _atom_site_type_symbol
 _atom_site_label
 _atom_site_symmetry_multiplicity
 _atom_site_fract_x
 _atom_site_fract_y
 _atom_site_fract_z
 _atom_site_occupancy
  Yb  Yb0  1  0.994909  0.674810  0.750000  1
  Dy  Dy1  1  0.004282  0.325373  0.250000  1
  Dy  Dy2  1  0.675366  0.995236  0.750000  1
  Dy  Dy3  1  0.324015  0.002872  0.250000  1
  Al  Al4  1  0.001540  0.337926  0.576901  1
  Al  Al5  1  0.998373  0.663686  0.425735  1
  Al  Al6  1  0.998373  0.663686  0.074265  1
  Al  Al7  1  0.334997  0.000033  0.923098  1
  Al  Al8  1  0.001540  0.337926  0.923099  1
  Al  Al9  1  0.663667  0.998519  0.076821  1
  Al  Al10  1  0.663667  0.998519  0.423179  1
  Al  Al11  1  0.334997  0.000033  0.576902  1
  Al  Al12  1  0.335794  0.335674  0.055531  1
  Al  Al13  1  0.665423  0.664146  0.944558  1
  Al  Al14  1  0.665423  0.664146  0.555442  1
  Al  Al15  1  0.335794  0.335674  0.444469  1
  Al  Al16  1  0.336483  0.548791  0.750000  1
  Al  Al17  1  0.665030  0.452037  0.250000  1
  Al  Al18  1  0.548404  0.334702  0.750000  1
  Al  Al19  1  0.452118  0.664552  0.250000  1
  Si  Si20  1  0.129255  0.129947  0.750000  1
  Si  Si21  1  0.871522  0.870747  0.250000  1
  Ir  Ir22  1  0.670269  0.326738  0.499184  1
  Ir  Ir23  1  0.329445  0.671996  0.499152  1
  Ir  Ir24  1  0.329445  0.671996  0.000848  1
  Ir  Ir25  1  0.670269  0.326738  0.000816  1
  Ir  Ir26  1  0.999799  0.001748  0.499035  1
  Ir  Ir27  1  0.999799  0.001748  0.000965  1
