# generated using pymatgen
data_K3Ba(ReN3)2
_symmetry_space_group_name_H-M   'P 1'
_cell_length_a   6.69834330
_cell_length_b   6.69834451
_cell_length_c   13.38472971
_cell_angle_alpha   89.98331788
_cell_angle_beta   89.98331569
_cell_angle_gamma   126.46286863
_symmetry_Int_Tables_number   1
_chemical_formula_structural   K3Ba(ReN3)2
_chemical_formula_sum   'K6 Ba2 Re4 N12'
_cell_volume   482.98232910
_cell_formula_units_Z   2
loop_
 _symmetry_equiv_pos_site_id
 _symmetry_equiv_pos_as_xyz
  1  'x, y, z'
loop_
 _atom_site_type_symbol
 _atom_site_label
 _atom_site_symmetry_multiplicity
 _atom_site_fract_x
 _atom_site_fract_y
 _atom_site_fract_z
 _atom_site_occupancy
  K  K0  1  0.952355  0.561314  0.363882  1
  K  K1  1  0.438686  0.047645  0.136118  1
  K  K2  1  0.051639  0.436003  0.632638  1
  K  K3  1  0.563997  0.948361  0.867362  1
  K  K4  1  0.136920  0.354794  0.083028  1
  K  K5  1  0.645206  0.863080  0.416972  1
  Ba  Ba6  1  0.862622  0.644222  0.920253  1
  Ba  Ba7  1  0.355778  0.137378  0.579747  1
  Re  Re8  1  0.761374  0.734540  0.166760  1
  Re  Re9  1  0.265460  0.238626  0.333240  1
  Re  Re10  1  0.234823  0.268079  0.834761  1
  Re  Re11  1  0.731921  0.765177  0.665239  1
  N  N12  1  0.481117  0.518883  0.250000  1
  N  N13  1  0.517338  0.482662  0.750000  1
  N  N14  1  0.893588  0.583673  0.123223  1
  N  N15  1  0.416327  0.106412  0.376777  1
  N  N16  1  0.099095  0.418487  0.875110  1
  N  N17  1  0.581513  0.900905  0.624890  1
  N  N18  1  0.837539  0.673738  0.562452  1
  N  N19  1  0.326262  0.162461  0.937548  1
  N  N20  1  0.167720  0.322018  0.440578  1
  N  N21  1  0.677982  0.832280  0.059422  1
  N  N22  1  0.992230  0.007770  0.250000  1
  N  N23  1  0.008508  0.991492  0.750000  1
