# generated using pymatgen
data_ErTm2(Ni3P2)3
_symmetry_space_group_name_H-M   'P 1'
_cell_length_a   3.76014400
_cell_length_b   10.46156200
_cell_length_c   12.29031900
_cell_angle_alpha   90.00000000
_cell_angle_beta   90.00000000
_cell_angle_gamma   90.00000000
_symmetry_Int_Tables_number   1
_chemical_formula_structural   ErTm2(Ni3P2)3
_chemical_formula_sum   'Er2 Tm4 Ni18 P12'
_cell_volume   483.46402760
_cell_formula_units_Z   2
loop_
 _symmetry_equiv_pos_site_id
 _symmetry_equiv_pos_as_xyz
  1  'x, y, z'
loop_
 _atom_site_type_symbol
 _atom_site_label
 _atom_site_symmetry_multiplicity
 _atom_site_fract_x
 _atom_site_fract_y
 _atom_site_fract_z
 _atom_site_occupancy
  Er  Er0  1  0.000000  0.500000  0.521550  1
  Er  Er1  1  0.500000  0.000000  0.478450  1
  Tm  Tm2  1  0.500000  0.817212  0.205948  1
  Tm  Tm3  1  0.500000  0.182788  0.205948  1
  Tm  Tm4  1  0.000000  0.682788  0.794052  1
  Tm  Tm5  1  0.000000  0.317212  0.794052  1
  Ni  Ni6  1  0.000000  0.500000  0.983652  1
  Ni  Ni7  1  0.500000  0.000000  0.016348  1
  Ni  Ni8  1  0.500000  0.301049  0.428869  1
  Ni  Ni9  1  0.500000  0.698951  0.428869  1
  Ni  Ni10  1  0.000000  0.198951  0.571131  1
  Ni  Ni11  1  0.000000  0.801049  0.571131  1
  Ni  Ni12  1  0.500000  0.878568  0.710988  1
  Ni  Ni13  1  0.500000  0.121432  0.710988  1
  Ni  Ni14  1  0.000000  0.621432  0.289012  1
  Ni  Ni15  1  0.000000  0.378568  0.289012  1
  Ni  Ni16  1  0.500000  0.332578  0.995997  1
  Ni  Ni17  1  0.500000  0.667422  0.995997  1
  Ni  Ni18  1  0.000000  0.167422  0.004003  1
  Ni  Ni19  1  0.000000  0.832578  0.004003  1
  Ni  Ni20  1  0.500000  0.500000  0.158714  1
  Ni  Ni21  1  0.000000  0.000000  0.841286  1
  Ni  Ni22  1  0.500000  0.500000  0.699830  1
  Ni  Ni23  1  0.000000  0.000000  0.300170  1
  P  P24  1  0.500000  0.313871  0.614660  1
  P  P25  1  0.500000  0.686129  0.614660  1
  P  P26  1  0.000000  0.186129  0.385340  1
  P  P27  1  0.000000  0.813871  0.385340  1
  P  P28  1  0.500000  0.500000  0.876074  1
  P  P29  1  0.000000  0.000000  0.123926  1
  P  P30  1  0.500000  0.847175  0.891920  1
  P  P31  1  0.500000  0.152825  0.891920  1
  P  P32  1  0.000000  0.652825  0.108080  1
  P  P33  1  0.000000  0.347175  0.108080  1
  P  P34  1  0.500000  0.500000  0.344869  1
  P  P35  1  0.000000  0.000000  0.655131  1
