# generated using pymatgen
data_Y3Er3Ni20As13
_symmetry_space_group_name_H-M   'P 1'
_cell_length_a   13.10290900
_cell_length_b   13.10290970
_cell_length_c   3.85822600
_cell_angle_alpha   90.00000000
_cell_angle_beta   90.00000000
_cell_angle_gamma   120.00000143
_symmetry_Int_Tables_number   1
_chemical_formula_structural   Y3Er3Ni20As13
_chemical_formula_sum   'Y3 Er3 Ni20 As13'
_cell_volume   573.65893416
_cell_formula_units_Z   1
loop_
 _symmetry_equiv_pos_site_id
 _symmetry_equiv_pos_as_xyz
  1  'x, y, z'
loop_
 _atom_site_type_symbol
 _atom_site_label
 _atom_site_symmetry_multiplicity
 _atom_site_fract_x
 _atom_site_fract_y
 _atom_site_fract_z
 _atom_site_occupancy
  Y  Y0  1  0.529146  0.811655  0.000000  1
  Y  Y1  1  0.282509  0.470854  0.000000  1
  Y  Y2  1  0.188345  0.717491  0.000000  1
  Er  Er3  1  0.809846  0.280294  0.500000  1
  Er  Er4  1  0.470449  0.190154  0.500000  1
  Er  Er5  1  0.719706  0.529551  0.500000  1
  Ni  Ni6  1  0.800396  0.908179  0.000000  1
  Ni  Ni7  1  0.107783  0.199604  0.000000  1
  Ni  Ni8  1  0.091821  0.892217  0.000000  1
  Ni  Ni9  1  0.333333  0.666667  0.500000  1
  Ni  Ni10  1  0.932255  0.079672  0.500000  1
  Ni  Ni11  1  0.147417  0.067745  0.500000  1
  Ni  Ni12  1  0.920328  0.852583  0.500000  1
  Ni  Ni13  1  0.666667  0.333333  0.000000  1
  Ni  Ni14  1  0.564834  0.583084  0.000000  1
  Ni  Ni15  1  0.018249  0.435166  0.000000  1
  Ni  Ni16  1  0.416916  0.981751  0.000000  1
  Ni  Ni17  1  0.684241  0.752928  0.500000  1
  Ni  Ni18  1  0.068687  0.315759  0.500000  1
  Ni  Ni19  1  0.247072  0.931313  0.500000  1
  Ni  Ni20  1  0.978291  0.562957  0.500000  1
  Ni  Ni21  1  0.584667  0.021709  0.500000  1
  Ni  Ni22  1  0.437043  0.415333  0.500000  1
  Ni  Ni23  1  0.753260  0.076862  0.000000  1
  Ni  Ni24  1  0.323602  0.246740  0.000000  1
  Ni  Ni25  1  0.923138  0.676398  0.000000  1
  As  As26  1  0.477008  0.614433  0.500000  1
  As  As27  1  0.137425  0.522992  0.500000  1
  As  As28  1  0.385567  0.862575  0.500000  1
  As  As29  1  0.720600  0.953362  0.500000  1
  As  As30  1  0.232762  0.279400  0.500000  1
  As  As31  1  0.046638  0.767238  0.500000  1
  As  As32  1  0.860567  0.473463  0.000000  1
  As  As33  1  0.612895  0.139433  0.000000  1
  As  As34  1  0.526537  0.387105  0.000000  1
  As  As35  1  0.947354  0.230941  0.000000  1
  As  As36  1  0.283587  0.052646  0.000000  1
  As  As37  1  0.769059  0.716413  0.000000  1
  As  As38  1  0.000000  0.000000  0.000000  1
