# generated using pymatgen
data_NdZnSi2Pd
_symmetry_space_group_name_H-M   'P 1'
_cell_length_a   5.98102145
_cell_length_b   5.98102195
_cell_length_c   5.98102228
_cell_angle_alpha   139.62277889
_cell_angle_beta   139.62277943
_cell_angle_gamma   58.42649843
_symmetry_Int_Tables_number   1
_chemical_formula_structural   NdZnSi2Pd
_chemical_formula_sum   'Nd1 Zn1 Si2 Pd1'
_cell_volume   88.96613037
_cell_formula_units_Z   1
loop_
 _symmetry_equiv_pos_site_id
 _symmetry_equiv_pos_as_xyz
  1  'x, y, z'
loop_
 _atom_site_type_symbol
 _atom_site_label
 _atom_site_symmetry_multiplicity
 _atom_site_fract_x
 _atom_site_fract_y
 _atom_site_fract_z
 _atom_site_occupancy
  Nd  Nd0  1  0.000000  0.000000  0.000000  1
  Zn  Zn1  1  0.250000  0.750000  0.500000  1
  Si  Si2  1  0.614321  0.614321  0.000000  1
  Si  Si3  1  0.385679  0.385679  0.000000  1
  Pd  Pd4  1  0.750000  0.250000  0.500000  1
