# generated using pymatgen
data_Pr10Sn5PbAuI
_symmetry_space_group_name_H-M   'P 1'
_cell_length_a   9.70704103
_cell_length_b   9.71005063
_cell_length_c   6.86754902
_cell_angle_alpha   89.99571560
_cell_angle_beta   90.00857146
_cell_angle_gamma   119.98973734
_symmetry_Int_Tables_number   1
_chemical_formula_structural   Pr10Sn5PbAuI
_chemical_formula_sum   'Pr10 Sn5 Pb1 Au1 I1'
_cell_volume   560.64203552
_cell_formula_units_Z   1
loop_
 _symmetry_equiv_pos_site_id
 _symmetry_equiv_pos_as_xyz
  1  'x, y, z'
loop_
 _atom_site_type_symbol
 _atom_site_label
 _atom_site_symmetry_multiplicity
 _atom_site_fract_x
 _atom_site_fract_y
 _atom_site_fract_z
 _atom_site_occupancy
  Pr  Pr0  1  0.267905  0.000000  0.759874  1
  Pr  Pr1  1  0.730888  0.000000  0.240814  1
  Pr  Pr2  1  0.002720  0.271597  0.759689  1
  Pr  Pr3  1  0.000202  0.730735  0.240367  1
  Pr  Pr4  1  0.731123  0.728403  0.759689  1
  Pr  Pr5  1  0.269467  0.269265  0.240367  1
  Pr  Pr6  1  0.331843  0.664911  0.498587  1
  Pr  Pr7  1  0.666934  0.335089  0.498587  1
  Pr  Pr8  1  0.666899  0.334969  0.001444  1
  Pr  Pr9  1  0.331930  0.665031  0.001444  1
  Sn  Sn10  1  0.385231  0.000000  0.249566  1
  Sn  Sn11  1  0.000274  0.614954  0.750343  1
  Sn  Sn12  1  0.999944  0.384881  0.249664  1
  Sn  Sn13  1  0.385320  0.385046  0.750343  1
  Sn  Sn14  1  0.615063  0.615119  0.249664  1
  Pb  Pb15  1  0.615386  0.000000  0.749597  1
  Au  Au16  1  0.999413  0.000000  0.999987  1
  I  I17  1  0.999458  0.000000  0.499972  1
