# generated using pymatgen
data_Sc6Ni20As13
_symmetry_space_group_name_H-M   'P 1'
_cell_length_a   13.01857900
_cell_length_b   13.01857913
_cell_length_c   3.73783500
_cell_angle_alpha   90.00000000
_cell_angle_beta   90.00000000
_cell_angle_gamma   120.00000220
_symmetry_Int_Tables_number   1
_chemical_formula_structural   Sc6Ni20As13
_chemical_formula_sum   'Sc6 Ni20 As13'
_cell_volume   548.62793661
_cell_formula_units_Z   1
loop_
 _symmetry_equiv_pos_site_id
 _symmetry_equiv_pos_as_xyz
  1  'x, y, z'
loop_
 _atom_site_type_symbol
 _atom_site_label
 _atom_site_symmetry_multiplicity
 _atom_site_fract_x
 _atom_site_fract_y
 _atom_site_fract_z
 _atom_site_occupancy
  Sc  Sc0  1  0.525764  0.808014  0.000000  1
  Sc  Sc1  1  0.282250  0.474236  0.000000  1
  Sc  Sc2  1  0.191986  0.717750  0.000000  1
  Sc  Sc3  1  0.808025  0.282284  0.500000  1
  Sc  Sc4  1  0.474259  0.191975  0.500000  1
  Sc  Sc5  1  0.717716  0.525741  0.500000  1
  Ni  Ni6  1  0.798951  0.905205  0.000000  1
  Ni  Ni7  1  0.106253  0.201049  0.000000  1
  Ni  Ni8  1  0.094795  0.893747  0.000000  1
  Ni  Ni9  1  0.333333  0.666667  0.500000  1
  Ni  Ni10  1  0.926028  0.082154  0.500000  1
  Ni  Ni11  1  0.156126  0.073972  0.500000  1
  Ni  Ni12  1  0.917846  0.843874  0.500000  1
  Ni  Ni13  1  0.666667  0.333333  0.000000  1
  Ni  Ni14  1  0.563581  0.581095  0.000000  1
  Ni  Ni15  1  0.017514  0.436419  0.000000  1
  Ni  Ni16  1  0.418905  0.982486  0.000000  1
  Ni  Ni17  1  0.677686  0.748342  0.500000  1
  Ni  Ni18  1  0.070657  0.322314  0.500000  1
  Ni  Ni19  1  0.251658  0.929343  0.500000  1
  Ni  Ni20  1  0.981723  0.563352  0.500000  1
  Ni  Ni21  1  0.581629  0.018277  0.500000  1
  Ni  Ni22  1  0.436648  0.418371  0.500000  1
  Ni  Ni23  1  0.752082  0.076281  0.000000  1
  Ni  Ni24  1  0.324200  0.247918  0.000000  1
  Ni  Ni25  1  0.923719  0.675800  0.000000  1
  As  As26  1  0.472102  0.613973  0.500000  1
  As  As27  1  0.141871  0.527898  0.500000  1
  As  As28  1  0.386027  0.858129  0.500000  1
  As  As29  1  0.711289  0.945150  0.500000  1
  As  As30  1  0.233862  0.288711  0.500000  1
  As  As31  1  0.054850  0.766138  0.500000  1
  As  As32  1  0.857930  0.472338  0.000000  1
  As  As33  1  0.614409  0.142070  0.000000  1
  As  As34  1  0.527662  0.385591  0.000000  1
  As  As35  1  0.942903  0.231842  0.000000  1
  As  As36  1  0.288939  0.057097  0.000000  1
  As  As37  1  0.768158  0.711061  0.000000  1
  As  As38  1  0.000000  0.000000  0.000000  1
