# generated using pymatgen
data_Zr8CoTc3Ru4
_symmetry_space_group_name_H-M   'P 1'
_cell_length_a   6.56539000
_cell_length_b   6.55533300
_cell_length_c   6.54331900
_cell_angle_alpha   90.00000000
_cell_angle_beta   89.99607498
_cell_angle_gamma   90.00000000
_symmetry_Int_Tables_number   1
_chemical_formula_structural   Zr8CoTc3Ru4
_chemical_formula_sum   'Zr8 Co1 Tc3 Ru4'
_cell_volume   281.61344177
_cell_formula_units_Z   1
loop_
 _symmetry_equiv_pos_site_id
 _symmetry_equiv_pos_as_xyz
  1  'x, y, z'
loop_
 _atom_site_type_symbol
 _atom_site_label
 _atom_site_symmetry_multiplicity
 _atom_site_fract_x
 _atom_site_fract_y
 _atom_site_fract_z
 _atom_site_occupancy
  Zr  Zr0  1  0.000329  0.499983  0.249754  1
  Zr  Zr1  1  0.000329  0.000018  0.249754  1
  Zr  Zr2  1  0.500226  0.000062  0.249741  1
  Zr  Zr3  1  0.500226  0.499937  0.249741  1
  Zr  Zr4  1  0.499690  0.499968  0.750247  1
  Zr  Zr5  1  0.499690  0.000033  0.750247  1
  Zr  Zr6  1  0.999767  0.000077  0.750211  1
  Zr  Zr7  1  0.999767  0.499922  0.750211  1
  Co  Co8  1  0.249925  0.750000  0.000285  1
  Tc  Tc9  1  0.749987  0.250000  0.499831  1
  Tc  Tc10  1  0.250014  0.750000  0.500170  1
  Tc  Tc11  1  0.750020  0.250000  0.999841  1
  Ru  Ru12  1  0.750035  0.750000  0.000054  1
  Ru  Ru13  1  0.250012  0.250000  0.499936  1
  Ru  Ru14  1  0.749990  0.750000  0.500049  1
  Ru  Ru15  1  0.249992  0.250000  0.999929  1
