# generated using pymatgen
data_Y12Os3Pd
_symmetry_space_group_name_H-M   'P 1'
_cell_length_a   6.46061581
_cell_length_b   7.39345157
_cell_length_c   9.15467700
_cell_angle_alpha   90.00000000
_cell_angle_beta   90.00000000
_cell_angle_gamma   90.33251453
_symmetry_Int_Tables_number   1
_chemical_formula_structural   Y12Os3Pd
_chemical_formula_sum   'Y12 Os3 Pd1'
_cell_volume   437.27722760
_cell_formula_units_Z   1
loop_
 _symmetry_equiv_pos_site_id
 _symmetry_equiv_pos_as_xyz
  1  'x, y, z'
loop_
 _atom_site_type_symbol
 _atom_site_label
 _atom_site_symmetry_multiplicity
 _atom_site_fract_x
 _atom_site_fract_y
 _atom_site_fract_z
 _atom_site_occupancy
  Y  Y0  1  0.337824  0.669309  0.058412  1
  Y  Y1  1  0.172763  0.183438  0.441690  1
  Y  Y2  1  0.670983  0.323567  0.562959  1
  Y  Y3  1  0.822728  0.823880  0.931596  1
  Y  Y4  1  0.670983  0.323567  0.937041  1
  Y  Y5  1  0.822728  0.823880  0.568404  1
  Y  Y6  1  0.337824  0.669309  0.441588  1
  Y  Y7  1  0.172763  0.183438  0.058310  1
  Y  Y8  1  0.870091  0.533286  0.250000  1
  Y  Y9  1  0.622305  0.040742  0.250000  1
  Y  Y10  1  0.123191  0.462634  0.750000  1
  Y  Y11  1  0.367804  0.961082  0.750000  1
  Os  Os12  1  0.462653  0.383631  0.250000  1
  Os  Os13  1  0.965115  0.115641  0.750000  1
  Os  Os14  1  0.534163  0.614548  0.750000  1
  Pd  Pd15  1  0.046080  0.888049  0.250000  1
