# generated using pymatgen
data_TbNd8YSn8
_symmetry_space_group_name_H-M   'P 1'
_cell_length_a   8.25294700
_cell_length_b   8.40496600
_cell_length_c   15.94418900
_cell_angle_alpha   90.00000000
_cell_angle_beta   90.00000000
_cell_angle_gamma   90.00000000
_symmetry_Int_Tables_number   1
_chemical_formula_structural   TbNd8YSn8
_chemical_formula_sum   'Tb2 Nd16 Y2 Sn16'
_cell_volume   1105.98045170
_cell_formula_units_Z   2
loop_
 _symmetry_equiv_pos_site_id
 _symmetry_equiv_pos_as_xyz
  1  'x, y, z'
loop_
 _atom_site_type_symbol
 _atom_site_label
 _atom_site_symmetry_multiplicity
 _atom_site_fract_x
 _atom_site_fract_y
 _atom_site_fract_z
 _atom_site_occupancy
  Tb  Tb0  1  0.198809  0.502048  0.250000  1
  Tb  Tb1  1  0.698809  0.997952  0.250000  1
  Nd  Nd2  1  0.018045  0.180954  0.401281  1
  Nd  Nd3  1  0.368084  0.837225  0.120718  1
  Nd  Nd4  1  0.131937  0.337326  0.620642  1
  Nd  Nd5  1  0.481953  0.680942  0.901332  1
  Nd  Nd6  1  0.868084  0.662775  0.120718  1
  Nd  Nd7  1  0.131937  0.337326  0.879358  1
  Nd  Nd8  1  0.481953  0.680942  0.598668  1
  Nd  Nd9  1  0.631937  0.162674  0.620642  1
  Nd  Nd10  1  0.868084  0.662775  0.379282  1
  Nd  Nd11  1  0.018045  0.180954  0.098719  1
  Nd  Nd12  1  0.981953  0.819058  0.901332  1
  Nd  Nd13  1  0.631937  0.162674  0.879358  1
  Nd  Nd14  1  0.518045  0.319046  0.098719  1
  Nd  Nd15  1  0.368084  0.837225  0.379282  1
  Nd  Nd16  1  0.981953  0.819058  0.598668  1
  Nd  Nd17  1  0.518045  0.319046  0.401281  1
  Y  Y18  1  0.301022  0.001928  0.750000  1
  Y  Y19  1  0.801022  0.498072  0.750000  1
  Sn  Sn20  1  0.791682  0.464720  0.543452  1
  Sn  Sn21  1  0.708324  0.964648  0.456639  1
  Sn  Sn22  1  0.675334  0.854477  0.750000  1
  Sn  Sn23  1  0.208324  0.535352  0.456639  1
  Sn  Sn24  1  0.291682  0.035280  0.956548  1
  Sn  Sn25  1  0.824611  0.354547  0.250000  1
  Sn  Sn26  1  0.791682  0.464720  0.956548  1
  Sn  Sn27  1  0.565395  0.616919  0.250000  1
  Sn  Sn28  1  0.208324  0.535352  0.043361  1
  Sn  Sn29  1  0.434779  0.382984  0.750000  1
  Sn  Sn30  1  0.175334  0.645523  0.750000  1
  Sn  Sn31  1  0.934779  0.117016  0.750000  1
  Sn  Sn32  1  0.291682  0.035280  0.543452  1
  Sn  Sn33  1  0.708324  0.964648  0.043361  1
  Sn  Sn34  1  0.324611  0.145453  0.250000  1
  Sn  Sn35  1  0.065395  0.883081  0.250000  1
