# generated using pymatgen
data_Ho10Cd5In3Au4
_symmetry_space_group_name_H-M   'P 1'
_cell_length_a   3.61129300
_cell_length_b   8.21797712
_cell_length_c   18.44165885
_cell_angle_alpha   89.91730695
_cell_angle_beta   90.00000000
_cell_angle_gamma   90.00000000
_symmetry_Int_Tables_number   1
_chemical_formula_structural   Ho10Cd5In3Au4
_chemical_formula_sum   'Ho10 Cd5 In3 Au4'
_cell_volume   547.30218912
_cell_formula_units_Z   1
loop_
 _symmetry_equiv_pos_site_id
 _symmetry_equiv_pos_as_xyz
  1  'x, y, z'
loop_
 _atom_site_type_symbol
 _atom_site_label
 _atom_site_symmetry_multiplicity
 _atom_site_fract_x
 _atom_site_fract_y
 _atom_site_fract_z
 _atom_site_occupancy
  Ho  Ho0  1  0.000000  0.499879  0.501193  1
  Ho  Ho1  1  0.000000  0.000115  0.999956  1
  Ho  Ho2  1  0.000000  0.739531  0.284719  1
  Ho  Ho3  1  0.000000  0.263934  0.714848  1
  Ho  Ho4  1  0.000000  0.760153  0.783360  1
  Ho  Ho5  1  0.000000  0.237467  0.214980  1
  Ho  Ho6  1  0.000000  0.614961  0.080571  1
  Ho  Ho7  1  0.000000  0.384708  0.918769  1
  Ho  Ho8  1  0.000000  0.884881  0.581141  1
  Ho  Ho9  1  0.000000  0.113146  0.419905  1
  Cd  Cd10  1  0.500000  0.710503  0.934335  1
  Cd  Cd11  1  0.500000  0.289904  0.065416  1
  Cd  Cd12  1  0.500000  0.788967  0.435068  1
  Cd  Cd13  1  0.500000  0.211316  0.566227  1
  Cd  Cd14  1  0.500000  0.578916  0.645407  1
  In  In15  1  0.500000  0.420386  0.354065  1
  In  In16  1  0.500000  0.920825  0.146279  1
  In  In17  1  0.500000  0.079182  0.854104  1
  Au  Au18  1  0.500000  0.525530  0.197519  1
  Au  Au19  1  0.500000  0.474636  0.801901  1
  Au  Au20  1  0.500000  0.975221  0.697506  1
  Au  Au21  1  0.500000  0.025838  0.302732  1
