# generated using pymatgen
data_PuSe23
_symmetry_space_group_name_H-M   'P 1'
_cell_length_a   5.62529708
_cell_length_b   10.34107068
_cell_length_c   16.05076500
_cell_angle_alpha   98.94882178
_cell_angle_beta   86.30808777
_cell_angle_gamma   94.29197785
_symmetry_Int_Tables_number   1
_chemical_formula_structural   PuSe23
_chemical_formula_sum   'Pu1 Se23'
_cell_volume   918.42705268
_cell_formula_units_Z   1
loop_
 _symmetry_equiv_pos_site_id
 _symmetry_equiv_pos_as_xyz
  1  'x, y, z'
loop_
 _atom_site_type_symbol
 _atom_site_label
 _atom_site_symmetry_multiplicity
 _atom_site_fract_x
 _atom_site_fract_y
 _atom_site_fract_z
 _atom_site_occupancy
  Pu  Pu0  1  0.512434  0.284346  0.338603  1
  Se  Se1  1  0.467328  0.794308  0.398875  1
  Se  Se2  1  0.906633  0.358362  0.128577  1
  Se  Se3  1  0.778399  0.180888  0.462186  1
  Se  Se4  1  0.311805  0.761447  0.532967  1
  Se  Se5  1  0.189343  0.263645  0.024643  1
  Se  Se6  1  0.855843  0.783167  0.050246  1
  Se  Se7  1  0.030531  0.370457  0.368207  1
  Se  Se8  1  0.601767  0.590484  0.326337  1
  Se  Se9  1  0.634428  0.188931  0.168137  1
  Se  Se10  1  0.405127  0.890989  0.187203  1
  Se  Se11  1  0.803544  0.592603  0.611083  1
  Se  Se12  1  0.251471  0.374372  0.595224  1
  Se  Se13  1  0.255800  0.854182  0.866864  1
  Se  Se14  1  0.793477  0.104576  0.853062  1
  Se  Se15  1  0.096143  0.725859  0.152910  1
  Se  Se16  1  0.622656  0.794735  0.629457  1
  Se  Se17  1  0.368718  0.173155  0.498643  1
  Se  Se18  1  0.004535  0.685744  0.915542  1
  Se  Se19  1  0.038824  0.295794  0.895900  1
  Se  Se20  1  0.260777  0.473237  0.255873  1
  Se  Se21  1  0.213491  0.058937  0.280109  1
  Se  Se22  1  0.552434  0.447634  0.686095  1
  Se  Se23  1  0.044489  0.952148  0.773259  1
