# generated using pymatgen
data_V2Tc4GeW
_symmetry_space_group_name_H-M   'P 1'
_cell_length_a   4.32392500
_cell_length_b   6.14354000
_cell_length_c   12.99436901
_cell_angle_alpha   90.00000000
_cell_angle_beta   89.99545007
_cell_angle_gamma   90.00000000
_symmetry_Int_Tables_number   1
_chemical_formula_structural   V2Tc4GeW
_chemical_formula_sum   'V6 Tc12 Ge3 W3'
_cell_volume   345.18509694
_cell_formula_units_Z   3
loop_
 _symmetry_equiv_pos_site_id
 _symmetry_equiv_pos_as_xyz
  1  'x, y, z'
loop_
 _atom_site_type_symbol
 _atom_site_label
 _atom_site_symmetry_multiplicity
 _atom_site_fract_x
 _atom_site_fract_y
 _atom_site_fract_z
 _atom_site_occupancy
  V  V0  1  0.999908  0.500001  0.995394  1
  V  V1  1  0.499697  0.000000  0.166675  1
  V  V2  1  0.999629  0.500001  0.337926  1
  V  V3  1  0.499826  0.000000  0.506146  1
  V  V4  1  0.000229  0.500001  0.666674  1
  V  V5  1  0.500235  0.000000  0.827177  1
  Tc  Tc6  1  0.500006  0.251300  0.999883  1
  Tc  Tc7  1  0.500006  0.748699  0.999883  1
  Tc  Tc8  1  0.999777  0.248297  0.166679  1
  Tc  Tc9  1  0.999777  0.751705  0.166679  1
  Tc  Tc10  1  0.499722  0.251317  0.333463  1
  Tc  Tc11  1  0.499722  0.748683  0.333463  1
  Tc  Tc12  1  0.999976  0.250180  0.498484  1
  Tc  Tc13  1  0.999976  0.749818  0.498484  1
  Tc  Tc14  1  0.500372  0.247649  0.666662  1
  Tc  Tc15  1  0.500372  0.752351  0.666662  1
  Tc  Tc16  1  0.000342  0.250182  0.834833  1
  Tc  Tc17  1  0.000342  0.749820  0.834833  1
  Ge  Ge18  1  0.499958  0.500001  0.502992  1
  Ge  Ge19  1  0.000423  0.000000  0.666661  1
  Ge  Ge20  1  0.500411  0.500001  0.830343  1
  W  W21  1  0.999959  0.000000  0.997175  1
  W  W22  1  0.499699  0.500001  0.166673  1
  W  W23  1  0.999631  0.000000  0.336156  1
