# generated using pymatgen
data_Ca2Dy3Tm(Si3Ru)8
_symmetry_space_group_name_H-M   'P 1'
_cell_length_a   10.14116374
_cell_length_b   10.14116397
_cell_length_c   8.15332291
_cell_angle_alpha   89.99942254
_cell_angle_beta   89.99941706
_cell_angle_gamma   132.61766934
_symmetry_Int_Tables_number   1
_chemical_formula_structural   Ca2Dy3Tm(Si3Ru)8
_chemical_formula_sum   'Ca2 Dy3 Tm1 Si24 Ru8'
_cell_volume   617.05254438
_cell_formula_units_Z   1
loop_
 _symmetry_equiv_pos_site_id
 _symmetry_equiv_pos_as_xyz
  1  'x, y, z'
loop_
 _atom_site_type_symbol
 _atom_site_label
 _atom_site_symmetry_multiplicity
 _atom_site_fract_x
 _atom_site_fract_y
 _atom_site_fract_z
 _atom_site_occupancy
  Ca  Ca0  1  0.500382  0.000452  0.750027  1
  Ca  Ca1  1  0.999548  0.499618  0.249973  1
  Dy  Dy2  1  0.000112  0.999888  0.000000  1
  Dy  Dy3  1  0.496375  0.996308  0.249978  1
  Dy  Dy4  1  0.003692  0.503625  0.750022  1
  Tm  Tm5  1  0.499818  0.500182  0.500000  1
  Si  Si6  1  0.794262  0.205738  0.500000  1
  Si  Si7  1  0.293996  0.706004  0.000000  1
  Si  Si8  1  0.206141  0.793859  0.500000  1
  Si  Si9  1  0.705616  0.294384  0.000000  1
  Si  Si10  1  0.330153  0.335962  0.832163  1
  Si  Si11  1  0.664038  0.669847  0.167837  1
  Si  Si12  1  0.170726  0.165011  0.333121  1
  Si  Si13  1  0.834989  0.829274  0.666879  1
  Si  Si14  1  0.120256  0.886271  0.727165  1
  Si  Si15  1  0.113729  0.879744  0.272835  1
  Si  Si16  1  0.608199  0.375413  0.228476  1
  Si  Si17  1  0.624587  0.391801  0.771524  1
  Si  Si18  1  0.875309  0.108758  0.272074  1
  Si  Si19  1  0.891242  0.124691  0.727926  1
  Si  Si20  1  0.386730  0.620119  0.772406  1
  Si  Si21  1  0.379881  0.613270  0.227594  1
  Si  Si22  1  0.344088  0.111172  0.501845  1
  Si  Si23  1  0.888828  0.655912  0.498155  1
  Si  Si24  1  0.388878  0.155615  0.006800  1
  Si  Si25  1  0.844385  0.611122  0.993200  1
  Si  Si26  1  0.655397  0.888001  0.493024  1
  Si  Si27  1  0.111999  0.344603  0.506976  1
  Si  Si28  1  0.610376  0.843797  0.998368  1
  Si  Si29  1  0.156203  0.389624  0.001632  1
  Ru  Ru30  1  0.669029  0.330971  0.500000  1
  Ru  Ru31  1  0.168434  0.831566  0.000000  1
  Ru  Ru32  1  0.331999  0.668001  0.500000  1
  Ru  Ru33  1  0.830540  0.169460  0.000000  1
  Ru  Ru34  1  0.126237  0.126679  0.625921  1
  Ru  Ru35  1  0.873321  0.873763  0.374079  1
  Ru  Ru36  1  0.374222  0.373718  0.126405  1
  Ru  Ru37  1  0.626282  0.625778  0.873595  1
