# generated using pymatgen
data_Dy3Cd3Pd2
_symmetry_space_group_name_H-M   'P 1'
_cell_length_a   7.64757700
_cell_length_b   7.64757729
_cell_length_c   3.71563400
_cell_angle_alpha   90.00000000
_cell_angle_beta   90.00000000
_cell_angle_gamma   120.00000309
_symmetry_Int_Tables_number   1
_chemical_formula_structural   Dy3Cd3Pd2
_chemical_formula_sum   'Dy3 Cd3 Pd2'
_cell_volume   188.19638606
_cell_formula_units_Z   1
loop_
 _symmetry_equiv_pos_site_id
 _symmetry_equiv_pos_as_xyz
  1  'x, y, z'
loop_
 _atom_site_type_symbol
 _atom_site_label
 _atom_site_symmetry_multiplicity
 _atom_site_fract_x
 _atom_site_fract_y
 _atom_site_fract_z
 _atom_site_occupancy
  Dy  Dy0  1  0.576737  0.000000  0.500000  1
  Dy  Dy1  1  0.423263  0.423262  0.500000  1
  Dy  Dy2  1  0.000000  0.576738  0.500000  1
  Cd  Cd3  1  0.228297  0.000000  0.000000  1
  Cd  Cd4  1  0.000000  0.228297  0.000000  1
  Cd  Cd5  1  0.771703  0.771702  0.000000  1
  Pd  Pd6  1  0.666666  0.333333  0.000000  1
  Pd  Pd7  1  0.333333  0.666667  0.000000  1
