# generated using pymatgen
data_Dy7HoTm2(BiAu2)2
_symmetry_space_group_name_H-M   'P 1'
_cell_length_a   8.70159331
_cell_length_b   8.70159312
_cell_length_c   8.70435926
_cell_angle_alpha   124.26532173
_cell_angle_beta   124.26531595
_cell_angle_gamma   82.75847487
_symmetry_Int_Tables_number   1
_chemical_formula_structural   Dy7HoTm2(BiAu2)2
_chemical_formula_sum   'Dy7 Ho1 Tm2 Bi2 Au4'
_cell_volume   432.19955583
_cell_formula_units_Z   1
loop_
 _symmetry_equiv_pos_site_id
 _symmetry_equiv_pos_as_xyz
  1  'x, y, z'
loop_
 _atom_site_type_symbol
 _atom_site_label
 _atom_site_symmetry_multiplicity
 _atom_site_fract_x
 _atom_site_fract_y
 _atom_site_fract_z
 _atom_site_occupancy
  Dy  Dy0  1  0.204473  0.704473  0.188805  1
  Dy  Dy1  1  0.015788  0.204357  0.499965  1
  Dy  Dy2  1  0.704357  0.515788  0.499965  1
  Dy  Dy3  1  0.484253  0.984253  0.188527  1
  Dy  Dy4  1  0.795602  0.295602  0.811393  1
  Dy  Dy5  1  0.984329  0.795691  0.500047  1
  Dy  Dy6  1  0.295691  0.484329  0.500047  1
  Ho  Ho7  1  0.515851  0.015851  0.811202  1
  Tm  Tm8  1  0.500035  0.499861  0.999969  1
  Tm  Tm9  1  0.999861  0.000035  0.999969  1
  Bi  Bi10  1  0.250087  0.249927  0.999991  1
  Bi  Bi11  1  0.749927  0.750087  0.999991  1
  Au  Au12  1  0.137877  0.637877  0.775766  1
  Au  Au13  1  0.861875  0.361875  0.223957  1
  Au  Au14  1  0.637835  0.862157  0.500202  1
  Au  Au15  1  0.362157  0.137835  0.500202  1
