# generated using pymatgen
data_Cs4ScTl2InBi4
_symmetry_space_group_name_H-M   'P 1'
_cell_length_a   10.41380634
_cell_length_b   10.41380387
_cell_length_c   10.41380387
_cell_angle_alpha   134.46445162
_cell_angle_beta   63.77850158
_cell_angle_gamma   137.84875682
_symmetry_Int_Tables_number   1
_chemical_formula_structural   Cs4ScTl2InBi4
_chemical_formula_sum   'Cs4 Sc1 Tl2 In1 Bi4'
_cell_volume   533.77629301
_cell_formula_units_Z   1
loop_
 _symmetry_equiv_pos_site_id
 _symmetry_equiv_pos_as_xyz
  1  'x, y, z'
loop_
 _atom_site_type_symbol
 _atom_site_label
 _atom_site_symmetry_multiplicity
 _atom_site_fract_x
 _atom_site_fract_y
 _atom_site_fract_z
 _atom_site_occupancy
  Cs  Cs0  1  0.822739  0.263882  0.102483  1
  Cs  Cs1  1  0.677260  0.779743  0.441143  1
  Cs  Cs2  1  0.338601  0.236118  0.558857  1
  Cs  Cs3  1  0.161399  0.720256  0.897516  1
  Sc  Sc4  1  0.250000  0.250000  0.000000  1
  Tl  Tl5  1  0.750000  0.250000  0.500000  1
  Tl  Tl6  1  0.250000  0.750000  0.500000  1
  In  In7  1  0.750001  0.750001  0.000000  1
  Bi  Bi8  1  0.397592  0.700596  0.113089  1
  Bi  Bi9  1  0.102407  0.215495  0.303004  1
  Bi  Bi10  1  0.912490  0.799403  0.696996  1
  Bi  Bi11  1  0.587509  0.284505  0.886911  1
