# generated using pymatgen
data_Ba6ScTc5O18
_symmetry_space_group_name_H-M   'P 1'
_cell_length_a   5.86329900
_cell_length_b   5.86329972
_cell_length_c   14.17896800
_cell_angle_alpha   90.00000000
_cell_angle_beta   90.00000000
_cell_angle_gamma   119.99999032
_symmetry_Int_Tables_number   1
_chemical_formula_structural   Ba6ScTc5O18
_chemical_formula_sum   'Ba6 Sc1 Tc5 O18'
_cell_volume   422.14284515
_cell_formula_units_Z   1
loop_
 _symmetry_equiv_pos_site_id
 _symmetry_equiv_pos_as_xyz
  1  'x, y, z'
loop_
 _atom_site_type_symbol
 _atom_site_label
 _atom_site_symmetry_multiplicity
 _atom_site_fract_x
 _atom_site_fract_y
 _atom_site_fract_z
 _atom_site_occupancy
  Ba  Ba0  1  0.666667  0.333333  0.590756  1
  Ba  Ba1  1  0.333333  0.666667  0.409244  1
  Ba  Ba2  1  0.666667  0.333333  0.908010  1
  Ba  Ba3  1  0.000000  0.000000  0.249811  1
  Ba  Ba4  1  0.333333  0.666667  0.091990  1
  Ba  Ba5  1  0.000000  0.000000  0.750189  1
  Sc  Sc6  1  0.000000  0.000000  0.500000  1
  Tc  Tc7  1  0.333333  0.666667  0.662764  1
  Tc  Tc8  1  0.666667  0.333333  0.159832  1
  Tc  Tc9  1  0.333333  0.666667  0.840168  1
  Tc  Tc10  1  0.666667  0.333333  0.337236  1
  Tc  Tc11  1  0.000000  0.000000  0.000000  1
  O  O12  1  0.828894  0.171106  0.414987  1
  O  O13  1  0.834927  0.669855  0.081237  1
  O  O14  1  0.657789  0.828894  0.585013  1
  O  O15  1  0.834927  0.165073  0.081237  1
  O  O16  1  0.165073  0.330145  0.918763  1
  O  O17  1  0.828894  0.657789  0.414987  1
  O  O18  1  0.507813  0.492187  0.247247  1
  O  O19  1  0.342211  0.171106  0.414987  1
  O  O20  1  0.165073  0.834927  0.918763  1
  O  O21  1  0.507813  0.015626  0.247247  1
  O  O22  1  0.171106  0.828894  0.585013  1
  O  O23  1  0.492187  0.984374  0.752753  1
  O  O24  1  0.015626  0.507813  0.752753  1
  O  O25  1  0.492187  0.507813  0.752753  1
  O  O26  1  0.171106  0.342211  0.585013  1
  O  O27  1  0.669855  0.834927  0.918763  1
  O  O28  1  0.984374  0.492187  0.247247  1
  O  O29  1  0.330145  0.165073  0.081237  1
