# generated using pymatgen
data_Fe3CoSeS3
_symmetry_space_group_name_H-M   'P 1'
_cell_length_a   6.68253426
_cell_length_b   6.68253410
_cell_length_c   6.68299565
_cell_angle_alpha   134.97856449
_cell_angle_beta   134.97856013
_cell_angle_gamma   65.61145402
_symmetry_Int_Tables_number   1
_chemical_formula_structural   Fe3CoSeS3
_chemical_formula_sum   'Fe3 Co1 Se1 S3'
_cell_volume   147.07155890
_cell_formula_units_Z   1
loop_
 _symmetry_equiv_pos_site_id
 _symmetry_equiv_pos_as_xyz
  1  'x, y, z'
loop_
 _atom_site_type_symbol
 _atom_site_label
 _atom_site_symmetry_multiplicity
 _atom_site_fract_x
 _atom_site_fract_y
 _atom_site_fract_z
 _atom_site_occupancy
  Fe  Fe0  1  0.754940  0.754940  0.504212  1
  Fe  Fe1  1  0.250636  0.755013  0.999969  1
  Fe  Fe2  1  0.755013  0.250636  0.999969  1
  Co  Co3  1  0.251184  0.251184  0.496331  1
  Se  Se4  1  0.379292  0.379292  0.005786  1
  S  S5  1  0.891467  0.891467  0.993951  1
  S  S6  1  0.612079  0.105389  0.499891  1
  S  S7  1  0.105389  0.612079  0.499891  1
