# generated using pymatgen
data_Tm4LuP12Ir10Ru9
_symmetry_space_group_name_H-M   'P 1'
_cell_length_a   12.60866500
_cell_length_b   12.60866494
_cell_length_c   3.93642200
_cell_angle_alpha   90.00000000
_cell_angle_beta   90.00000000
_cell_angle_gamma   119.99999227
_symmetry_Int_Tables_number   1
_chemical_formula_structural   Tm4LuP12Ir10Ru9
_chemical_formula_sum   'Tm4 Lu1 P12 Ir10 Ru9'
_cell_volume   541.96410817
_cell_formula_units_Z   1
loop_
 _symmetry_equiv_pos_site_id
 _symmetry_equiv_pos_as_xyz
  1  'x, y, z'
loop_
 _atom_site_type_symbol
 _atom_site_label
 _atom_site_symmetry_multiplicity
 _atom_site_fract_x
 _atom_site_fract_y
 _atom_site_fract_z
 _atom_site_occupancy
  Tm  Tm0  1  0.666667  0.333333  0.500000  1
  Tm  Tm1  1  0.187596  0.187596  0.000000  1
  Tm  Tm2  1  0.812404  0.000000  0.000000  1
  Tm  Tm3  1  0.000000  0.812404  0.000000  1
  Lu  Lu4  1  0.333333  0.666667  0.500000  1
  P  P5  1  0.308644  0.827154  0.000000  1
  P  P6  1  0.172846  0.481489  0.000000  1
  P  P7  1  0.518511  0.691356  0.000000  1
  P  P8  1  0.827268  0.308620  0.000000  1
  P  P9  1  0.481351  0.172732  0.000000  1
  P  P10  1  0.691380  0.518649  0.000000  1
  P  P11  1  0.361863  0.361836  0.500000  1
  P  P12  1  0.638164  0.000027  0.500000  1
  P  P13  1  0.999973  0.638137  0.500000  1
  P  P14  1  0.819126  0.819136  0.500000  1
  P  P15  1  0.180864  0.999990  0.500000  1
  P  P16  1  0.000010  0.180874  0.500000  1
  Ir  Ir17  1  0.130878  0.636877  0.000000  1
  Ir  Ir18  1  0.363123  0.494001  0.000000  1
  Ir  Ir19  1  0.505999  0.869122  0.000000  1
  Ir  Ir20  1  0.636859  0.130592  0.000000  1
  Ir  Ir21  1  0.493732  0.363141  0.000000  1
  Ir  Ir22  1  0.869408  0.506268  0.000000  1
  Ir  Ir23  1  0.714037  0.714049  0.000000  1
  Ir  Ir24  1  0.285951  0.999988  0.000000  1
  Ir  Ir25  1  0.000012  0.285963  0.000000  1
  Ir  Ir26  1  0.000000  0.000000  0.500000  1
  Ru  Ru27  1  0.195519  0.818096  0.500000  1
  Ru  Ru28  1  0.181904  0.377423  0.500000  1
  Ru  Ru29  1  0.622577  0.804481  0.500000  1
  Ru  Ru30  1  0.818156  0.195475  0.500000  1
  Ru  Ru31  1  0.377319  0.181844  0.500000  1
  Ru  Ru32  1  0.804525  0.622681  0.500000  1
  Ru  Ru33  1  0.546586  0.546577  0.500000  1
  Ru  Ru34  1  0.453423  0.000009  0.500000  1
  Ru  Ru35  1  0.999991  0.453414  0.500000  1
