# generated using pymatgen
data_Tb7Ho9MgAg3Ir4
_symmetry_space_group_name_H-M   'P 1'
_cell_length_a   9.57380841
_cell_length_b   9.57825504
_cell_length_c   9.57783367
_cell_angle_alpha   60.05991413
_cell_angle_beta   60.12074028
_cell_angle_gamma   60.18113069
_symmetry_Int_Tables_number   1
_chemical_formula_structural   Tb7Ho9MgAg3Ir4
_chemical_formula_sum   'Tb7 Ho9 Mg1 Ag3 Ir4'
_cell_volume   622.74087620
_cell_formula_units_Z   1
loop_
 _symmetry_equiv_pos_site_id
 _symmetry_equiv_pos_as_xyz
  1  'x, y, z'
loop_
 _atom_site_type_symbol
 _atom_site_label
 _atom_site_symmetry_multiplicity
 _atom_site_fract_x
 _atom_site_fract_y
 _atom_site_fract_z
 _atom_site_occupancy
  Tb  Tb0  1  0.437542  0.061511  0.436989  1
  Tb  Tb1  1  0.437616  0.437715  0.061491  1
  Tb  Tb2  1  0.435011  0.063520  0.064029  1
  Tb  Tb3  1  0.064392  0.437780  0.437220  1
  Tb  Tb4  1  0.190427  0.189789  0.811890  1
  Tb  Tb5  1  0.649887  0.651367  0.047621  1
  Tb  Tb6  1  0.650713  0.046588  0.651219  1
  Ho  Ho7  1  0.190533  0.810022  0.810435  1
  Ho  Ho8  1  0.815506  0.186595  0.186811  1
  Ho  Ho9  1  0.063975  0.437400  0.061827  1
  Ho  Ho10  1  0.059027  0.647315  0.646115  1
  Ho  Ho11  1  0.650624  0.651897  0.651590  1
  Ho  Ho12  1  0.063992  0.061679  0.436966  1
  Ho  Ho13  1  0.190084  0.811526  0.189926  1
  Ho  Ho14  1  0.814569  0.812647  0.186803  1
  Ho  Ho15  1  0.814192  0.186812  0.812806  1
  Mg  Mg16  1  0.713875  0.428503  0.428581  1
  Ag  Ag17  1  0.416852  0.416429  0.750163  1
  Ag  Ag18  1  0.416736  0.750251  0.416414  1
  Ag  Ag19  1  0.417346  0.416169  0.416007  1
  Ir  Ir20  1  0.860251  0.855372  0.426133  1
  Ir  Ir21  1  0.858746  0.427102  0.855331  1
  Ir  Ir22  1  0.863156  0.856017  0.855896  1
  Ir  Ir23  1  0.424952  0.856000  0.857740  1
