# generated using pymatgen
data_Er8Zn(Si4Pt)3
_symmetry_space_group_name_H-M   'P 1'
_cell_length_a   8.10775200
_cell_length_b   8.10775183
_cell_length_c   8.03878700
_cell_angle_alpha   90.00000000
_cell_angle_beta   90.00000000
_cell_angle_gamma   120.00000071
_symmetry_Int_Tables_number   1
_chemical_formula_structural   Er8Zn(Si4Pt)3
_chemical_formula_sum   'Er8 Zn1 Si12 Pt3'
_cell_volume   457.63797256
_cell_formula_units_Z   1
loop_
 _symmetry_equiv_pos_site_id
 _symmetry_equiv_pos_as_xyz
  1  'x, y, z'
loop_
 _atom_site_type_symbol
 _atom_site_label
 _atom_site_symmetry_multiplicity
 _atom_site_fract_x
 _atom_site_fract_y
 _atom_site_fract_z
 _atom_site_occupancy
  Er  Er0  1  0.000000  0.000000  0.249230  1
  Er  Er1  1  0.000000  0.000000  0.748879  1
  Er  Er2  1  0.497414  0.502586  0.248929  1
  Er  Er3  1  0.497414  0.994828  0.248929  1
  Er  Er4  1  0.005172  0.502586  0.248929  1
  Er  Er5  1  0.504518  0.495482  0.751196  1
  Er  Er6  1  0.990964  0.495482  0.751196  1
  Er  Er7  1  0.504518  0.009036  0.751196  1
  Zn  Zn8  1  0.333333  0.666667  0.518117  1
  Si  Si9  1  0.833825  0.166175  0.500122  1
  Si  Si10  1  0.833825  0.667651  0.500122  1
  Si  Si11  1  0.332349  0.166175  0.500122  1
  Si  Si12  1  0.834671  0.165329  0.002694  1
  Si  Si13  1  0.834671  0.669343  0.002694  1
  Si  Si14  1  0.330657  0.165329  0.002694  1
  Si  Si15  1  0.165437  0.834563  0.996633  1
  Si  Si16  1  0.669127  0.834563  0.996633  1
  Si  Si17  1  0.165437  0.330873  0.996633  1
  Si  Si18  1  0.165923  0.834077  0.498002  1
  Si  Si19  1  0.668154  0.834077  0.498002  1
  Si  Si20  1  0.165923  0.331846  0.498002  1
  Pt  Pt21  1  0.666667  0.333333  0.491006  1
  Pt  Pt22  1  0.666667  0.333333  0.007347  1
  Pt  Pt23  1  0.333333  0.666667  0.992692  1
