# generated using pymatgen
data_Sc2TiCo5B2
_symmetry_space_group_name_H-M   'P 1'
_cell_length_a   8.80720100
_cell_length_b   8.80720100
_cell_length_c   2.97793800
_cell_angle_alpha   90.00000000
_cell_angle_beta   90.00000000
_cell_angle_gamma   90.00000000
_symmetry_Int_Tables_number   1
_chemical_formula_structural   Sc2TiCo5B2
_chemical_formula_sum   'Sc4 Ti2 Co10 B4'
_cell_volume   230.98908985
_cell_formula_units_Z   2
loop_
 _symmetry_equiv_pos_site_id
 _symmetry_equiv_pos_as_xyz
  1  'x, y, z'
loop_
 _atom_site_type_symbol
 _atom_site_label
 _atom_site_symmetry_multiplicity
 _atom_site_fract_x
 _atom_site_fract_y
 _atom_site_fract_z
 _atom_site_occupancy
  Sc  Sc0  1  0.825302  0.325302  0.000000  1
  Sc  Sc1  1  0.325302  0.174698  0.000000  1
  Sc  Sc2  1  0.674698  0.825302  0.000000  1
  Sc  Sc3  1  0.174698  0.674698  0.000000  1
  Ti  Ti4  1  0.000000  0.000000  0.000000  1
  Ti  Ti5  1  0.500000  0.500000  0.000000  1
  Co  Co6  1  0.500000  0.000000  0.500000  1
  Co  Co7  1  0.000000  0.500000  0.500000  1
  Co  Co8  1  0.069993  0.222876  0.500000  1
  Co  Co9  1  0.222876  0.930007  0.500000  1
  Co  Co10  1  0.777124  0.069993  0.500000  1
  Co  Co11  1  0.930007  0.777124  0.500000  1
  Co  Co12  1  0.430007  0.722876  0.500000  1
  Co  Co13  1  0.569993  0.277124  0.500000  1
  Co  Co14  1  0.722876  0.569993  0.500000  1
  Co  Co15  1  0.277124  0.430007  0.500000  1
  B  B16  1  0.619998  0.119998  0.000000  1
  B  B17  1  0.119998  0.380002  0.000000  1
  B  B18  1  0.880002  0.619998  0.000000  1
  B  B19  1  0.380002  0.880002  0.000000  1
