# generated using pymatgen
data_Sm8Y7Tm5Sn16
_symmetry_space_group_name_H-M   'P 1'
_cell_length_a   8.05662726
_cell_length_b   8.21439826
_cell_length_c   15.52974505
_cell_angle_alpha   89.99291234
_cell_angle_beta   90.00648108
_cell_angle_gamma   89.97178007
_symmetry_Int_Tables_number   1
_chemical_formula_structural   Sm8Y7Tm5Sn16
_chemical_formula_sum   'Sm8 Y7 Tm5 Sn16'
_cell_volume   1027.76374577
_cell_formula_units_Z   1
loop_
 _symmetry_equiv_pos_site_id
 _symmetry_equiv_pos_as_xyz
  1  'x, y, z'
loop_
 _atom_site_type_symbol
 _atom_site_label
 _atom_site_symmetry_multiplicity
 _atom_site_fract_x
 _atom_site_fract_y
 _atom_site_fract_z
 _atom_site_occupancy
  Sm  Sm0  1  0.519221  0.320954  0.902319  1
  Sm  Sm1  1  0.019059  0.179160  0.597734  1
  Sm  Sm2  1  0.480917  0.679131  0.402325  1
  Sm  Sm3  1  0.980794  0.820733  0.097415  1
  Sm  Sm4  1  0.480768  0.679212  0.097676  1
  Sm  Sm5  1  0.980910  0.820860  0.402338  1
  Sm  Sm6  1  0.519152  0.320927  0.597704  1
  Sm  Sm7  1  0.019091  0.179210  0.902348  1
  Y  Y8  1  0.365771  0.835767  0.877705  1
  Y  Y9  1  0.865737  0.664319  0.622424  1
  Y  Y10  1  0.634225  0.164295  0.377622  1
  Y  Y11  1  0.134258  0.335705  0.122400  1
  Y  Y12  1  0.634289  0.164285  0.122201  1
  Y  Y13  1  0.134228  0.335746  0.377629  1
  Y  Y14  1  0.365649  0.835668  0.622444  1
  Tm  Tm15  1  0.865763  0.664236  0.877491  1
  Tm  Tm16  1  0.197419  0.503556  0.750163  1
  Tm  Tm17  1  0.697872  0.996292  0.750185  1
  Tm  Tm18  1  0.802383  0.496633  0.249963  1
  Tm  Tm19  1  0.302399  0.003382  0.250000  1
  Sn  Sn20  1  0.296850  0.037395  0.042157  1
  Sn  Sn21  1  0.796893  0.462588  0.457843  1
  Sn  Sn22  1  0.703127  0.962588  0.542057  1
  Sn  Sn23  1  0.201734  0.537789  0.957724  1
  Sn  Sn24  1  0.703973  0.961163  0.957613  1
  Sn  Sn25  1  0.203148  0.537426  0.542086  1
  Sn  Sn26  1  0.296922  0.037362  0.457870  1
  Sn  Sn27  1  0.797227  0.463349  0.041395  1
  Sn  Sn28  1  0.564315  0.621045  0.750382  1
  Sn  Sn29  1  0.062823  0.878358  0.750455  1
  Sn  Sn30  1  0.436531  0.378842  0.249977  1
  Sn  Sn31  1  0.936478  0.121168  0.249981  1
  Sn  Sn32  1  0.327326  0.145631  0.750006  1
  Sn  Sn33  1  0.827400  0.355150  0.750349  1
  Sn  Sn34  1  0.672634  0.854445  0.250015  1
  Sn  Sn35  1  0.172711  0.645628  0.250006  1
