# generated using pymatgen
data_Er4Sc3V(WO6)4
_symmetry_space_group_name_H-M   'P 1'
_cell_length_a   5.22316809
_cell_length_b   7.50831955
_cell_length_c   11.26239947
_cell_angle_alpha   89.96228211
_cell_angle_beta   89.93440562
_cell_angle_gamma   90.10550423
_symmetry_Int_Tables_number   1
_chemical_formula_structural   Er4Sc3V(WO6)4
_chemical_formula_sum   'Er4 Sc3 V1 W4 O24'
_cell_volume   441.67880802
_cell_formula_units_Z   1
loop_
 _symmetry_equiv_pos_site_id
 _symmetry_equiv_pos_as_xyz
  1  'x, y, z'
loop_
 _atom_site_type_symbol
 _atom_site_label
 _atom_site_symmetry_multiplicity
 _atom_site_fract_x
 _atom_site_fract_y
 _atom_site_fract_z
 _atom_site_occupancy
  Er  Er0  1  0.544858  0.252417  0.042765  1
  Er  Er1  1  0.042838  0.751841  0.455994  1
  Er  Er2  1  0.953886  0.254319  0.546961  1
  Er  Er3  1  0.456837  0.748948  0.951949  1
  Sc  Sc4  1  0.044424  0.994663  0.142085  1
  Sc  Sc5  1  0.543281  0.494868  0.359831  1
  Sc  Sc6  1  0.456112  0.995172  0.641323  1
  V  V7  1  0.948722  0.497621  0.863975  1
  W  W8  1  0.055202  0.507174  0.139260  1
  W  W9  1  0.553128  0.007651  0.360579  1
  W  W10  1  0.442778  0.506929  0.642240  1
  W  W11  1  0.947716  0.007204  0.860598  1
  O  O12  1  0.752112  0.960804  0.018248  1
  O  O13  1  0.763428  0.549201  0.027238  1
  O  O14  1  0.189977  0.743765  0.111721  1
  O  O15  1  0.925311  0.264544  0.141667  1
  O  O16  1  0.375669  0.427348  0.200014  1
  O  O17  1  0.408546  0.071937  0.213436  1
  O  O18  1  0.907770  0.571192  0.285193  1
  O  O19  1  0.873889  0.925871  0.297771  1
  O  O20  1  0.424551  0.764188  0.357378  1
  O  O21  1  0.690270  0.244009  0.386631  1
  O  O22  1  0.262267  0.050141  0.470143  1
  O  O23  1  0.251153  0.457633  0.482372  1
  O  O24  1  0.747338  0.958762  0.518989  1
  O  O25  1  0.736580  0.549287  0.529270  1
  O  O26  1  0.311195  0.744096  0.614285  1
  O  O27  1  0.572005  0.264082  0.642713  1
  O  O28  1  0.125661  0.430479  0.707584  1
  O  O29  1  0.091647  0.070757  0.713467  1
  O  O30  1  0.604732  0.569739  0.785538  1
  O  O31  1  0.625556  0.928098  0.798235  1
  O  O32  1  0.068595  0.760077  0.858092  1
  O  O33  1  0.819234  0.248937  0.885734  1
  O  O34  1  0.238562  0.048403  0.969063  1
  O  O35  1  0.244169  0.458237  0.977659  1
