# generated using pymatgen
data_CaEu3(USe5)2
_symmetry_space_group_name_H-M   'P 1'
_cell_length_a   7.72161700
_cell_length_b   8.30935037
_cell_length_c   12.15585700
_cell_angle_alpha   90.00000000
_cell_angle_beta   90.00000000
_cell_angle_gamma   89.95673865
_symmetry_Int_Tables_number   1
_chemical_formula_structural   CaEu3(USe5)2
_chemical_formula_sum   'Ca2 Eu6 U4 Se20'
_cell_volume   779.93926823
_cell_formula_units_Z   2
loop_
 _symmetry_equiv_pos_site_id
 _symmetry_equiv_pos_as_xyz
  1  'x, y, z'
loop_
 _atom_site_type_symbol
 _atom_site_label
 _atom_site_symmetry_multiplicity
 _atom_site_fract_x
 _atom_site_fract_y
 _atom_site_fract_z
 _atom_site_occupancy
  Ca  Ca0  1  0.545952  0.501425  0.323484  1
  Ca  Ca1  1  0.954048  0.998575  0.823484  1
  Eu  Eu2  1  0.452688  0.003787  0.674131  1
  Eu  Eu3  1  0.047312  0.496213  0.174131  1
  Eu  Eu4  1  0.452064  0.497875  0.675976  1
  Eu  Eu5  1  0.047936  0.002125  0.175976  1
  Eu  Eu6  1  0.547612  0.995541  0.325668  1
  Eu  Eu7  1  0.952388  0.504459  0.825668  1
  U  U8  1  0.072546  0.750271  0.491125  1
  U  U9  1  0.427454  0.749729  0.991125  1
  U  U10  1  0.926367  0.251123  0.508796  1
  U  U11  1  0.573633  0.248877  0.008796  1
  Se  Se12  1  0.823224  0.952561  0.579416  1
  Se  Se13  1  0.676776  0.547439  0.079416  1
  Se  Se14  1  0.174017  0.452300  0.419109  1
  Se  Se15  1  0.325983  0.047700  0.919109  1
  Se  Se16  1  0.176062  0.048015  0.419462  1
  Se  Se17  1  0.323938  0.451985  0.919462  1
  Se  Se18  1  0.825765  0.548814  0.583322  1
  Se  Se19  1  0.674235  0.951186  0.083322  1
  Se  Se20  1  0.852300  0.747469  0.309898  1
  Se  Se21  1  0.647700  0.752531  0.809898  1
  Se  Se22  1  0.146326  0.249999  0.690830  1
  Se  Se23  1  0.353674  0.250001  0.190830  1
  Se  Se24  1  0.449694  0.747052  0.495614  1
  Se  Se25  1  0.050306  0.752948  0.995614  1
  Se  Se26  1  0.549960  0.253356  0.502880  1
  Se  Se27  1  0.950040  0.246644  0.002880  1
  Se  Se28  1  0.172816  0.753229  0.712034  1
  Se  Se29  1  0.327184  0.746771  0.212034  1
  Se  Se30  1  0.824460  0.250208  0.288258  1
  Se  Se31  1  0.675540  0.249792  0.788258  1
