# generated using pymatgen
data_Er4Ir3PdO14
_symmetry_space_group_name_H-M   'P 1'
_cell_length_a   7.23645450
_cell_length_b   7.19759555
_cell_length_c   7.23645500
_cell_angle_alpha   59.82123833
_cell_angle_beta   59.99999315
_cell_angle_gamma   59.82123531
_symmetry_Int_Tables_number   1
_chemical_formula_structural   Er4Ir3PdO14
_chemical_formula_sum   'Er4 Ir3 Pd1 O14'
_cell_volume   265.79411147
_cell_formula_units_Z   1
loop_
 _symmetry_equiv_pos_site_id
 _symmetry_equiv_pos_as_xyz
  1  'x, y, z'
loop_
 _atom_site_type_symbol
 _atom_site_label
 _atom_site_symmetry_multiplicity
 _atom_site_fract_x
 _atom_site_fract_y
 _atom_site_fract_z
 _atom_site_occupancy
  Er  Er0  1  0.625000  0.125000  0.125000  1
  Er  Er1  1  0.125000  0.625000  0.125000  1
  Er  Er2  1  0.125000  0.125000  0.625000  1
  Er  Er3  1  0.125000  0.125000  0.125000  1
  Ir  Ir4  1  0.125000  0.625000  0.625000  1
  Ir  Ir5  1  0.625000  0.625000  0.125000  1
  Ir  Ir6  1  0.625000  0.625000  0.625000  1
  Pd  Pd7  1  0.625000  0.125000  0.625000  1
  O  O8  1  0.717671  0.706676  0.287826  1
  O  O9  1  0.278404  0.285818  0.717889  1
  O  O10  1  0.717889  0.285818  0.717889  1
  O  O11  1  0.287826  0.706676  0.287826  1
  O  O12  1  0.287826  0.706676  0.717671  1
  O  O13  1  0.717889  0.285818  0.278404  1
  O  O14  1  0.532329  0.543324  0.962174  1
  O  O15  1  0.971596  0.964182  0.532111  1
  O  O16  1  0.532111  0.964182  0.532111  1
  O  O17  1  0.962174  0.543324  0.962174  1
  O  O18  1  0.962174  0.543324  0.532329  1
  O  O19  1  0.532111  0.964182  0.971596  1
  O  O20  1  0.249978  0.250065  0.249978  1
  O  O21  1  0.000022  0.999935  0.000022  1
