# generated using pymatgen
data_LaDyY3(CoB3)2
_symmetry_space_group_name_H-M   'P 1'
_cell_length_a   5.46390274
_cell_length_b   5.46390312
_cell_length_c   8.34501529
_cell_angle_alpha   70.89045935
_cell_angle_beta   70.89045840
_cell_angle_gamma   60.00000269
_symmetry_Int_Tables_number   1
_chemical_formula_structural   LaDyY3(CoB3)2
_chemical_formula_sum   'La1 Dy1 Y3 Co2 B6'
_cell_volume   199.74670669
_cell_formula_units_Z   1
loop_
 _symmetry_equiv_pos_site_id
 _symmetry_equiv_pos_as_xyz
  1  'x, y, z'
loop_
 _atom_site_type_symbol
 _atom_site_label
 _atom_site_symmetry_multiplicity
 _atom_site_fract_x
 _atom_site_fract_y
 _atom_site_fract_z
 _atom_site_occupancy
  La  La0  1  0.999892  0.999892  0.000324  1
  Dy  Dy1  1  0.583302  0.583302  0.250095  1
  Y  Y2  1  0.251280  0.251280  0.246158  1
  Y  Y3  1  0.748708  0.748708  0.753875  1
  Y  Y4  1  0.416585  0.416585  0.750244  1
  Co  Co5  1  0.118772  0.118772  0.643685  1
  Co  Co6  1  0.881233  0.881233  0.356300  1
  B  B7  1  0.168393  0.831688  0.499887  1
  B  B8  1  0.831688  0.500031  0.499887  1
  B  B9  1  0.500031  0.168393  0.499887  1
  B  B10  1  0.168393  0.500031  0.499887  1
  B  B11  1  0.500031  0.831688  0.499887  1
  B  B12  1  0.831688  0.168393  0.499887  1
