# generated using pymatgen
data_La18YbErGa12
_symmetry_space_group_name_H-M   'P 1'
_cell_length_a   7.94165900
_cell_length_b   7.94165900
_cell_length_c   15.01780200
_cell_angle_alpha   90.00000000
_cell_angle_beta   90.00000000
_cell_angle_gamma   90.00000000
_symmetry_Int_Tables_number   1
_chemical_formula_structural   La18YbErGa12
_chemical_formula_sum   'La18 Yb1 Er1 Ga12'
_cell_volume   947.17198629
_cell_formula_units_Z   1
loop_
 _symmetry_equiv_pos_site_id
 _symmetry_equiv_pos_as_xyz
  1  'x, y, z'
loop_
 _atom_site_type_symbol
 _atom_site_label
 _atom_site_symmetry_multiplicity
 _atom_site_fract_x
 _atom_site_fract_y
 _atom_site_fract_z
 _atom_site_occupancy
  La  La0  1  0.338269  0.311421  0.104493  1
  La  La1  1  0.837974  0.812261  0.895792  1
  La  La2  1  0.839883  0.183074  0.396239  1
  La  La3  1  0.162026  0.187739  0.895792  1
  La  La4  1  0.661731  0.688579  0.104493  1
  La  La5  1  0.000000  0.500000  0.707084  1
  La  La6  1  0.817149  0.839960  0.603343  1
  La  La7  1  0.316926  0.339883  0.396239  1
  La  La8  1  0.188579  0.838269  0.104493  1
  La  La9  1  0.182851  0.160040  0.603343  1
  La  La10  1  0.811421  0.161731  0.104493  1
  La  La11  1  0.339960  0.682851  0.603343  1
  La  La12  1  0.500000  0.000000  0.292634  1
  La  La13  1  0.687739  0.337974  0.895792  1
  La  La14  1  0.660040  0.317149  0.603343  1
  La  La15  1  0.312261  0.662026  0.895792  1
  La  La16  1  0.160117  0.816926  0.396239  1
  La  La17  1  0.683074  0.660117  0.396239  1
  Yb  Yb18  1  0.500000  0.000000  0.771694  1
  Er  Er19  1  0.000000  0.500000  0.225251  1
  Ga  Ga20  1  0.623724  0.383678  0.248960  1
  Ga  Ga21  1  0.881000  0.117521  0.751304  1
  Ga  Ga22  1  0.500000  0.000000  0.498903  1
  Ga  Ga23  1  0.883678  0.876276  0.248960  1
  Ga  Ga24  1  0.000000  0.500000  0.018961  1
  Ga  Ga25  1  0.119000  0.882479  0.751304  1
  Ga  Ga26  1  0.382479  0.381000  0.751304  1
  Ga  Ga27  1  0.116322  0.123724  0.248960  1
  Ga  Ga28  1  0.376276  0.616322  0.248960  1
  Ga  Ga29  1  0.617521  0.619000  0.751304  1
  Ga  Ga30  1  0.500000  0.000000  0.984151  1
  Ga  Ga31  1  0.000000  0.500000  0.500800  1
