# generated using pymatgen
data_Lu8Tc(B8Ru)3
_symmetry_space_group_name_H-M   'P 1'
_cell_length_a   3.59934400
_cell_length_b   9.02614967
_cell_length_c   11.39821736
_cell_angle_alpha   89.91191215
_cell_angle_beta   90.00000000
_cell_angle_gamma   90.00000000
_symmetry_Int_Tables_number   1
_chemical_formula_structural   Lu8Tc(B8Ru)3
_chemical_formula_sum   'Lu8 Tc1 B24 Ru3'
_cell_volume   370.30732898
_cell_formula_units_Z   1
loop_
 _symmetry_equiv_pos_site_id
 _symmetry_equiv_pos_as_xyz
  1  'x, y, z'
loop_
 _atom_site_type_symbol
 _atom_site_label
 _atom_site_symmetry_multiplicity
 _atom_site_fract_x
 _atom_site_fract_y
 _atom_site_fract_z
 _atom_site_occupancy
  Lu  Lu0  1  0.000000  0.323416  0.413166  1
  Lu  Lu1  1  0.000000  0.677876  0.583546  1
  Lu  Lu2  1  0.000000  0.819783  0.088020  1
  Lu  Lu3  1  0.000000  0.178273  0.914876  1
  Lu  Lu4  1  0.000000  0.943375  0.372561  1
  Lu  Lu5  1  0.000000  0.056792  0.627706  1
  Lu  Lu6  1  0.000000  0.444548  0.127914  1
  Lu  Lu7  1  0.000000  0.556481  0.872022  1
  Tc  Tc8  1  0.000000  0.637846  0.321123  1
  B  B9  1  0.500000  0.552607  0.434043  1
  B  B10  1  0.500000  0.446554  0.566809  1
  B  B11  1  0.500000  0.053465  0.066182  1
  B  B12  1  0.500000  0.946536  0.933773  1
  B  B13  1  0.500000  0.749408  0.420380  1
  B  B14  1  0.500000  0.250961  0.579674  1
  B  B15  1  0.500000  0.249205  0.079556  1
  B  B16  1  0.500000  0.750822  0.920346  1
  B  B17  1  0.500000  0.792814  0.265577  1
  B  B18  1  0.500000  0.207759  0.734404  1
  B  B19  1  0.500000  0.292007  0.233724  1
  B  B20  1  0.500000  0.708102  0.765609  1
  B  B21  1  0.500000  0.631351  0.184624  1
  B  B22  1  0.500000  0.368366  0.815693  1
  B  B23  1  0.500000  0.131338  0.315159  1
  B  B24  1  0.500000  0.868910  0.684467  1
  B  B25  1  0.500000  0.982058  0.212660  1
  B  B26  1  0.500000  0.018057  0.787567  1
  B  B27  1  0.500000  0.481039  0.287231  1
  B  B28  1  0.500000  0.517858  0.712809  1
  B  B29  1  0.500000  0.606043  0.028751  1
  B  B30  1  0.500000  0.393627  0.970381  1
  B  B31  1  0.500000  0.106463  0.470800  1
  B  B32  1  0.500000  0.894785  0.529705  1
  Ru  Ru33  1  0.000000  0.361478  0.679784  1
  Ru  Ru34  1  0.000000  0.137899  0.178478  1
  Ru  Ru35  1  0.000000  0.862096  0.820878  1
