# generated using pymatgen
data_Tb2HgC2
_symmetry_space_group_name_H-M   'P 1'
_cell_length_a   7.83133723
_cell_length_b   7.83133697
_cell_length_c   6.75826570
_cell_angle_alpha   105.07450614
_cell_angle_beta   105.07450618
_cell_angle_gamma   28.95643632
_symmetry_Int_Tables_number   1
_chemical_formula_structural   Tb2HgC2
_chemical_formula_sum   'Tb4 Hg2 C4'
_cell_volume   193.29529434
_cell_formula_units_Z   2
loop_
 _symmetry_equiv_pos_site_id
 _symmetry_equiv_pos_as_xyz
  1  'x, y, z'
loop_
 _atom_site_type_symbol
 _atom_site_label
 _atom_site_symmetry_multiplicity
 _atom_site_fract_x
 _atom_site_fract_y
 _atom_site_fract_z
 _atom_site_occupancy
  Tb  Tb0  1  0.489123  0.818567  0.137417  1
  Tb  Tb1  1  0.181433  0.510878  0.362583  1
  Tb  Tb2  1  0.818567  0.489123  0.637417  1
  Tb  Tb3  1  0.510878  0.181433  0.862583  1
  Hg  Hg4  1  0.878705  0.121295  0.250000  1
  Hg  Hg5  1  0.121295  0.878705  0.750000  1
  C  C6  1  0.095040  0.352685  0.027323  1
  C  C7  1  0.647315  0.904960  0.472677  1
  C  C8  1  0.352685  0.095040  0.527322  1
  C  C9  1  0.904960  0.647316  0.972677  1
