# generated using pymatgen
data_BaTh(NiAs)2
_symmetry_space_group_name_H-M   'P 1'
_cell_length_a   4.20553300
_cell_length_b   4.20553239
_cell_length_c   17.45134800
_cell_angle_alpha   90.00000000
_cell_angle_beta   90.00000000
_cell_angle_gamma   119.99999692
_symmetry_Int_Tables_number   1
_chemical_formula_structural   BaTh(NiAs)2
_chemical_formula_sum   'Ba2 Th2 Ni4 As4'
_cell_volume   267.30165734
_cell_formula_units_Z   2
loop_
 _symmetry_equiv_pos_site_id
 _symmetry_equiv_pos_as_xyz
  1  'x, y, z'
loop_
 _atom_site_type_symbol
 _atom_site_label
 _atom_site_symmetry_multiplicity
 _atom_site_fract_x
 _atom_site_fract_y
 _atom_site_fract_z
 _atom_site_occupancy
  Ba  Ba0  1  0.000000  0.000000  0.000000  1
  Ba  Ba1  1  0.000000  0.000000  0.500000  1
  Th  Th2  1  0.000000  0.000000  0.250000  1
  Th  Th3  1  0.000000  0.000000  0.750000  1
  Ni  Ni4  1  0.333333  0.666667  0.152068  1
  Ni  Ni5  1  0.666667  0.333333  0.847932  1
  Ni  Ni6  1  0.666667  0.333333  0.652068  1
  Ni  Ni7  1  0.333333  0.666667  0.347932  1
  As  As8  1  0.333333  0.666667  0.634315  1
  As  As9  1  0.666667  0.333333  0.365685  1
  As  As10  1  0.666667  0.333333  0.134315  1
  As  As11  1  0.333333  0.666667  0.865685  1
