# generated using pymatgen
data_RbLiPuS3
_symmetry_space_group_name_H-M   'P 1'
_cell_length_a   7.51920924
_cell_length_b   7.51920828
_cell_length_c   10.47191005
_cell_angle_alpha   90.01045767
_cell_angle_beta   89.98954342
_cell_angle_gamma   148.38060698
_symmetry_Int_Tables_number   1
_chemical_formula_structural   RbLiPuS3
_chemical_formula_sum   'Rb2 Li2 Pu2 S6'
_cell_volume   310.40494748
_cell_formula_units_Z   2
loop_
 _symmetry_equiv_pos_site_id
 _symmetry_equiv_pos_as_xyz
  1  'x, y, z'
loop_
 _atom_site_type_symbol
 _atom_site_label
 _atom_site_symmetry_multiplicity
 _atom_site_fract_x
 _atom_site_fract_y
 _atom_site_fract_z
 _atom_site_occupancy
  Rb  Rb0  1  0.760857  0.239146  0.250157  1
  Rb  Rb1  1  0.239146  0.760857  0.749843  1
  Li  Li2  1  0.036036  0.963966  0.250200  1
  Li  Li3  1  0.963966  0.036036  0.749800  1
  Pu  Pu4  1  0.500001  0.500001  0.000000  1
  Pu  Pu5  1  0.500001  0.500001  0.500000  1
  S  S6  1  0.114961  0.885041  0.048885  1
  S  S7  1  0.449780  0.550222  0.249946  1
  S  S8  1  0.115295  0.884707  0.450988  1
  S  S9  1  0.884707  0.115295  0.549012  1
  S  S10  1  0.550222  0.449780  0.750054  1
  S  S11  1  0.885041  0.114961  0.951115  1
