# generated using pymatgen
data_TmTh3IrPd3
_symmetry_space_group_name_H-M   'P 1'
_cell_length_a   4.54084900
_cell_length_b   5.81563333
_cell_length_c   7.27553600
_cell_angle_alpha   89.83769748
_cell_angle_beta   90.00000000
_cell_angle_gamma   90.00000000
_symmetry_Int_Tables_number   1
_chemical_formula_structural   TmTh3IrPd3
_chemical_formula_sum   'Tm1 Th3 Ir1 Pd3'
_cell_volume   192.13094944
_cell_formula_units_Z   1
loop_
 _symmetry_equiv_pos_site_id
 _symmetry_equiv_pos_as_xyz
  1  'x, y, z'
loop_
 _atom_site_type_symbol
 _atom_site_label
 _atom_site_symmetry_multiplicity
 _atom_site_fract_x
 _atom_site_fract_y
 _atom_site_fract_z
 _atom_site_occupancy
  Tm  Tm0  1  0.250000  0.144903  0.183724  1
  Th  Th1  1  0.250000  0.354617  0.677508  1
  Th  Th2  1  0.750000  0.659172  0.320890  1
  Th  Th3  1  0.750000  0.855563  0.812102  1
  Ir  Ir4  1  0.250000  0.831001  0.551260  1
  Pd  Pd5  1  0.250000  0.652668  0.047519  1
  Pd  Pd6  1  0.750000  0.162265  0.442275  1
  Pd  Pd7  1  0.750000  0.339811  0.964724  1
