# generated using pymatgen
data_Tb16In2NiAg2Rh3
_symmetry_space_group_name_H-M   'P 1'
_cell_length_a   9.61804989
_cell_length_b   9.61700653
_cell_length_c   9.61057600
_cell_angle_alpha   60.02211671
_cell_angle_beta   60.02570192
_cell_angle_gamma   59.91155517
_symmetry_Int_Tables_number   1
_chemical_formula_structural   Tb16In2NiAg2Rh3
_chemical_formula_sum   'Tb16 In2 Ni1 Ag2 Rh3'
_cell_volume   628.38653167
_cell_formula_units_Z   1
loop_
 _symmetry_equiv_pos_site_id
 _symmetry_equiv_pos_as_xyz
  1  'x, y, z'
loop_
 _atom_site_type_symbol
 _atom_site_label
 _atom_site_symmetry_multiplicity
 _atom_site_fract_x
 _atom_site_fract_y
 _atom_site_fract_z
 _atom_site_occupancy
  Tb  Tb0  1  0.807805  0.809116  0.191539  1
  Tb  Tb1  1  0.810800  0.191747  0.808918  1
  Tb  Tb2  1  0.186967  0.190816  0.811109  1
  Tb  Tb3  1  0.647673  0.053514  0.649406  1
  Tb  Tb4  1  0.063188  0.062532  0.437140  1
  Tb  Tb5  1  0.435914  0.439061  0.062513  1
  Tb  Tb6  1  0.651865  0.646922  0.652274  1
  Tb  Tb7  1  0.810800  0.191747  0.188536  1
  Tb  Tb8  1  0.189986  0.811056  0.808963  1
  Tb  Tb9  1  0.050969  0.645425  0.651803  1
  Tb  Tb10  1  0.437443  0.066587  0.059717  1
  Tb  Tb11  1  0.437443  0.066587  0.436253  1
  Tb  Tb12  1  0.067495  0.438054  0.060719  1
  Tb  Tb13  1  0.651865  0.646922  0.048940  1
  Tb  Tb14  1  0.189986  0.811056  0.189994  1
  Tb  Tb15  1  0.067495  0.438054  0.433732  1
  In  In16  1  0.417312  0.741510  0.420589  1
  In  In17  1  0.742543  0.418123  0.419666  1
  Ni  Ni18  1  0.857849  0.426443  0.857854  1
  Ag  Ag19  1  0.415981  0.417361  0.417436  1
  Ag  Ag20  1  0.415981  0.417361  0.749221  1
  Rh  Rh21  1  0.857362  0.856699  0.858201  1
  Rh  Rh22  1  0.857362  0.856699  0.427738  1
  Rh  Rh23  1  0.427917  0.856607  0.857738  1
