# generated using pymatgen
data_AlB14H
_symmetry_space_group_name_H-M   'P 1'
_cell_length_a   5.90370009
_cell_length_b   7.23626980
_cell_length_c   7.23627017
_cell_angle_alpha   92.33323319
_cell_angle_beta   114.07450186
_cell_angle_gamma   114.07450150
_symmetry_Int_Tables_number   1
_chemical_formula_structural   AlB14H
_chemical_formula_sum   'Al2 B28 H2'
_cell_volume   249.61695366
_cell_formula_units_Z   2
loop_
 _symmetry_equiv_pos_site_id
 _symmetry_equiv_pos_as_xyz
  1  'x, y, z'
loop_
 _atom_site_type_symbol
 _atom_site_label
 _atom_site_symmetry_multiplicity
 _atom_site_fract_x
 _atom_site_fract_y
 _atom_site_fract_z
 _atom_site_occupancy
  Al  Al0  1  0.000000  0.000000  0.500001  1
  Al  Al1  1  0.500000  0.000000  0.500001  1
  B  B2  1  0.011008  0.227825  0.107860  1
  B  B3  1  0.324676  0.227825  0.107860  1
  B  B4  1  0.284008  0.962907  0.119770  1
  B  B5  1  0.798668  0.962907  0.119770  1
  B  B6  1  0.961403  0.794281  0.128525  1
  B  B7  1  0.167123  0.079379  0.254867  1
  B  B8  1  0.614593  0.978508  0.250677  1
  B  B9  1  0.675326  0.392141  0.272176  1
  B  B10  1  0.988991  0.392141  0.272176  1
  B  B11  1  0.961403  0.628526  0.294280  1
  B  B12  1  0.832878  0.245133  0.420620  1
  B  B13  1  0.284008  0.619770  0.462907  1
  B  B14  1  0.798668  0.619770  0.462907  1
  B  B15  1  0.614593  0.750678  0.478508  1
  B  B16  1  0.385407  0.249323  0.521493  1
  B  B17  1  0.201331  0.380229  0.537093  1
  B  B18  1  0.715991  0.380229  0.537093  1
  B  B19  1  0.167121  0.754866  0.579379  1
  B  B20  1  0.038596  0.371474  0.705719  1
  B  B21  1  0.011009  0.607859  0.727825  1
  B  B22  1  0.324675  0.607859  0.727825  1
  B  B23  1  0.385407  0.021493  0.749323  1
  B  B24  1  0.832878  0.920621  0.745134  1
  B  B25  1  0.038596  0.205718  0.871474  1
  B  B26  1  0.201331  0.037092  0.880230  1
  B  B27  1  0.715991  0.037092  0.880230  1
  B  B28  1  0.675324  0.772176  0.892141  1
  B  B29  1  0.988992  0.772176  0.892141  1
  H  H30  1  0.534013  0.784013  0.284013  1
  H  H31  1  0.465987  0.215987  0.715988  1
