# generated using pymatgen
data_LiTm3CoP6Rh7
_symmetry_space_group_name_H-M   'P 1'
_cell_length_a   3.84249100
_cell_length_b   11.12395500
_cell_length_c   12.71350400
_cell_angle_alpha   90.00000000
_cell_angle_beta   90.00000000
_cell_angle_gamma   90.00000000
_symmetry_Int_Tables_number   1
_chemical_formula_structural   LiTm3CoP6Rh7
_chemical_formula_sum   'Li2 Tm6 Co2 P12 Rh14'
_cell_volume   543.42216243
_cell_formula_units_Z   2
loop_
 _symmetry_equiv_pos_site_id
 _symmetry_equiv_pos_as_xyz
  1  'x, y, z'
loop_
 _atom_site_type_symbol
 _atom_site_label
 _atom_site_symmetry_multiplicity
 _atom_site_fract_x
 _atom_site_fract_y
 _atom_site_fract_z
 _atom_site_occupancy
  Li  Li0  1  0.500000  0.500000  0.156821  1
  Li  Li1  1  0.000000  0.000000  0.843179  1
  Tm  Tm2  1  0.000000  0.500000  0.517940  1
  Tm  Tm3  1  0.500000  0.000000  0.482060  1
  Tm  Tm4  1  0.500000  0.820176  0.201222  1
  Tm  Tm5  1  0.500000  0.179824  0.201222  1
  Tm  Tm6  1  0.000000  0.679824  0.798778  1
  Tm  Tm7  1  0.000000  0.320176  0.798778  1
  Co  Co8  1  0.000000  0.500000  0.984810  1
  Co  Co9  1  0.500000  0.000000  0.015190  1
  P  P10  1  0.500000  0.500000  0.884433  1
  P  P11  1  0.000000  0.000000  0.115567  1
  P  P12  1  0.500000  0.500000  0.347605  1
  P  P13  1  0.000000  0.000000  0.652395  1
  P  P14  1  0.500000  0.314619  0.619831  1
  P  P15  1  0.500000  0.685381  0.619831  1
  P  P16  1  0.000000  0.185381  0.380169  1
  P  P17  1  0.000000  0.814619  0.380169  1
  P  P18  1  0.500000  0.847346  0.894007  1
  P  P19  1  0.500000  0.152654  0.894007  1
  P  P20  1  0.000000  0.652654  0.105993  1
  P  P21  1  0.000000  0.347346  0.105993  1
  Rh  Rh22  1  0.500000  0.500000  0.703378  1
  Rh  Rh23  1  0.000000  0.000000  0.296622  1
  Rh  Rh24  1  0.500000  0.335870  0.997795  1
  Rh  Rh25  1  0.500000  0.664130  0.997795  1
  Rh  Rh26  1  0.000000  0.164130  0.002205  1
  Rh  Rh27  1  0.000000  0.835870  0.002205  1
  Rh  Rh28  1  0.500000  0.292560  0.430505  1
  Rh  Rh29  1  0.500000  0.707440  0.430505  1
  Rh  Rh30  1  0.000000  0.207440  0.569495  1
  Rh  Rh31  1  0.000000  0.792560  0.569495  1
  Rh  Rh32  1  0.500000  0.874347  0.711762  1
  Rh  Rh33  1  0.500000  0.125653  0.711762  1
  Rh  Rh34  1  0.000000  0.625653  0.288238  1
  Rh  Rh35  1  0.000000  0.374347  0.288238  1
