# generated using pymatgen
data_U6FeCo11(SiB2)2
_symmetry_space_group_name_H-M   'P 1'
_cell_length_a   5.11093400
_cell_length_b   5.14180075
_cell_length_c   13.13495365
_cell_angle_alpha   90.13231210
_cell_angle_beta   90.00000000
_cell_angle_gamma   119.80161692
_symmetry_Int_Tables_number   1
_chemical_formula_structural   U6FeCo11(SiB2)2
_chemical_formula_sum   'U6 Fe1 Co11 Si2 B4'
_cell_volume   299.52829867
_cell_formula_units_Z   1
loop_
 _symmetry_equiv_pos_site_id
 _symmetry_equiv_pos_as_xyz
  1  'x, y, z'
loop_
 _atom_site_type_symbol
 _atom_site_label
 _atom_site_symmetry_multiplicity
 _atom_site_fract_x
 _atom_site_fract_y
 _atom_site_fract_z
 _atom_site_occupancy
  U  U0  1  0.333092  0.666184  0.249685  1
  U  U1  1  0.666823  0.333646  0.750503  1
  U  U2  1  0.332606  0.665213  0.039363  1
  U  U3  1  0.667197  0.334392  0.539479  1
  U  U4  1  0.669672  0.339342  0.962214  1
  U  U5  1  0.332978  0.665956  0.460758  1
  Fe  Fe6  1  0.832729  0.665457  0.142766  1
  Co  Co7  1  0.167052  0.833028  0.644433  1
  Co  Co8  1  0.665976  0.833028  0.644433  1
  Co  Co9  1  0.333527  0.166552  0.144227  1
  Co  Co10  1  0.833026  0.166552  0.144227  1
  Co  Co11  1  0.167022  0.334043  0.855370  1
  Co  Co12  1  0.167658  0.833637  0.855525  1
  Co  Co13  1  0.166734  0.333467  0.644635  1
  Co  Co14  1  0.665980  0.833637  0.855525  1
  Co  Co15  1  0.333666  0.166582  0.355835  1
  Co  Co16  1  0.833032  0.666064  0.355745  1
  Co  Co17  1  0.832916  0.166582  0.355835  1
  Si  Si18  1  0.999784  0.999568  0.999833  1
  Si  Si19  1  0.999850  0.999699  0.500039  1
  B  B20  1  0.998205  0.996411  0.249561  1
  B  B21  1  0.999932  0.999863  0.750150  1
  B  B22  1  0.333230  0.666462  0.750033  1
  B  B23  1  0.667316  0.334632  0.249825  1
