# generated using pymatgen
data_Lu3Sc5IrPt3
_symmetry_space_group_name_H-M   'P 1'
_cell_length_a   4.53036200
_cell_length_b   6.82693520
_cell_length_c   8.35435543
_cell_angle_alpha   90.71659575
_cell_angle_beta   90.00000000
_cell_angle_gamma   90.00000000
_symmetry_Int_Tables_number   1
_chemical_formula_structural   Lu3Sc5IrPt3
_chemical_formula_sum   'Lu3 Sc5 Ir1 Pt3'
_cell_volume   258.36737132
_cell_formula_units_Z   1
loop_
 _symmetry_equiv_pos_site_id
 _symmetry_equiv_pos_as_xyz
  1  'x, y, z'
loop_
 _atom_site_type_symbol
 _atom_site_label
 _atom_site_symmetry_multiplicity
 _atom_site_fract_x
 _atom_site_fract_y
 _atom_site_fract_z
 _atom_site_occupancy
  Lu  Lu0  1  0.250000  0.983578  0.322675  1
  Lu  Lu1  1  0.750000  0.017738  0.676784  1
  Lu  Lu2  1  0.250000  0.487925  0.171420  1
  Sc  Sc3  1  0.750000  0.515651  0.833125  1
  Sc  Sc4  1  0.750000  0.642367  0.426381  1
  Sc  Sc5  1  0.250000  0.361934  0.579190  1
  Sc  Sc6  1  0.750000  0.141035  0.072467  1
  Sc  Sc7  1  0.250000  0.849687  0.926749  1
  Ir  Ir8  1  0.750000  0.747083  0.095197  1
  Pt  Pt9  1  0.250000  0.249357  0.897486  1
  Pt  Pt10  1  0.250000  0.754015  0.597506  1
  Pt  Pt11  1  0.750000  0.249632  0.401019  1
