# generated using pymatgen
data_Li2Ag(PO3)4
_symmetry_space_group_name_H-M   'P 1'
_cell_length_a   7.22785279
_cell_length_b   7.28662196
_cell_length_c   10.94102172
_cell_angle_alpha   74.67048753
_cell_angle_beta   110.99823935
_cell_angle_gamma   107.73377614
_symmetry_Int_Tables_number   1
_chemical_formula_structural   Li2Ag(PO3)4
_chemical_formula_sum   'Li4 Ag2 P8 O24'
_cell_volume   504.53075589
_cell_formula_units_Z   2
loop_
 _symmetry_equiv_pos_site_id
 _symmetry_equiv_pos_as_xyz
  1  'x, y, z'
loop_
 _atom_site_type_symbol
 _atom_site_label
 _atom_site_symmetry_multiplicity
 _atom_site_fract_x
 _atom_site_fract_y
 _atom_site_fract_z
 _atom_site_occupancy
  Li  Li0  1  0.605994  0.442594  0.321832  1
  Li  Li1  1  0.106087  0.442645  0.821820  1
  Li  Li2  1  0.394017  0.557390  0.678182  1
  Li  Li3  1  0.893901  0.557344  0.178173  1
  Ag  Ag4  1  0.500022  0.000053  0.499978  1
  Ag  Ag5  1  0.000009  0.999991  0.000024  1
  P  P6  1  0.373809  0.793135  0.159173  1
  P  P7  1  0.873880  0.793197  0.659158  1
  P  P8  1  0.626183  0.206839  0.840845  1
  P  P9  1  0.126129  0.206832  0.340807  1
  P  P10  1  0.508875  0.774265  0.929004  1
  P  P11  1  0.008928  0.774334  0.428975  1
  P  P12  1  0.491075  0.225693  0.071002  1
  P  P13  1  0.991088  0.225722  0.571003  1
  O  O14  1  0.476503  0.661891  0.274545  1
  O  O15  1  0.976544  0.661902  0.774531  1
  O  O16  1  0.523490  0.338087  0.725455  1
  O  O17  1  0.023472  0.338101  0.225452  1
  O  O18  1  0.505840  0.016262  0.167264  1
  O  O19  1  0.005849  0.016330  0.667300  1
  O  O20  1  0.494157  0.983703  0.832750  1
  O  O21  1  0.994177  0.983722  0.332680  1
  O  O22  1  0.847159  0.213321  0.856646  1
  O  O23  1  0.347166  0.213344  0.356644  1
  O  O24  1  0.152831  0.786654  0.143372  1
  O  O25  1  0.652857  0.786651  0.643371  1
  O  O26  1  0.367785  0.759438  0.017997  1
  O  O27  1  0.867866  0.759557  0.517986  1
  O  O28  1  0.632190  0.240536  0.982003  1
  O  O29  1  0.132138  0.240475  0.481991  1
  O  O30  1  0.272176  0.218870  0.982873  1
  O  O31  1  0.772165  0.218934  0.482909  1
  O  O32  1  0.727816  0.781104  0.017170  1
  O  O33  1  0.227788  0.781081  0.517073  1
  O  O34  1  0.596810  0.381060  0.154218  1
  O  O35  1  0.096887  0.381123  0.654196  1
  O  O36  1  0.403221  0.618930  0.845810  1
  O  O37  1  0.903119  0.618889  0.345790  1
