# generated using pymatgen
data_Er5In4IrPd
_symmetry_space_group_name_H-M   'P 1'
_cell_length_a   3.59263400
_cell_length_b   8.09396121
_cell_length_c   18.16359156
_cell_angle_alpha   90.11726266
_cell_angle_beta   90.00000000
_cell_angle_gamma   90.00000000
_symmetry_Int_Tables_number   1
_chemical_formula_structural   Er5In4IrPd
_chemical_formula_sum   'Er10 In8 Ir2 Pd2'
_cell_volume   528.17143860
_cell_formula_units_Z   2
loop_
 _symmetry_equiv_pos_site_id
 _symmetry_equiv_pos_as_xyz
  1  'x, y, z'
loop_
 _atom_site_type_symbol
 _atom_site_label
 _atom_site_symmetry_multiplicity
 _atom_site_fract_x
 _atom_site_fract_y
 _atom_site_fract_z
 _atom_site_occupancy
  Er  Er0  1  0.000000  0.500000  0.500000  1
  Er  Er1  1  0.000000  0.000000  0.000000  1
  Er  Er2  1  0.000000  0.728437  0.277490  1
  Er  Er3  1  0.000000  0.271563  0.722510  1
  Er  Er4  1  0.000000  0.747180  0.779883  1
  Er  Er5  1  0.000000  0.252820  0.220117  1
  Er  Er6  1  0.000000  0.613474  0.086845  1
  Er  Er7  1  0.000000  0.386526  0.913155  1
  Er  Er8  1  0.000000  0.884644  0.584304  1
  Er  Er9  1  0.000000  0.115356  0.415696  1
  In  In10  1  0.500000  0.710123  0.932158  1
  In  In11  1  0.500000  0.289877  0.067842  1
  In  In12  1  0.500000  0.790277  0.431963  1
  In  In13  1  0.500000  0.209723  0.568037  1
  In  In14  1  0.500000  0.579302  0.648196  1
  In  In15  1  0.500000  0.420698  0.351804  1
  In  In16  1  0.500000  0.921707  0.149583  1
  In  In17  1  0.500000  0.078293  0.850417  1
  Ir  Ir18  1  0.500000  0.519834  0.195752  1
  Ir  Ir19  1  0.500000  0.480166  0.804248  1
  Pd  Pd20  1  0.500000  0.979845  0.695706  1
  Pd  Pd21  1  0.500000  0.020155  0.304294  1
