# generated using pymatgen
data_Sm3Lu2Sn3Cl
_symmetry_space_group_name_H-M   'P 1'
_cell_length_a   9.18136900
_cell_length_b   9.18136806
_cell_length_c   6.55424000
_cell_angle_alpha   90.00000000
_cell_angle_beta   90.00000000
_cell_angle_gamma   119.99999978
_symmetry_Int_Tables_number   1
_chemical_formula_structural   Sm3Lu2Sn3Cl
_chemical_formula_sum   'Sm6 Lu4 Sn6 Cl2'
_cell_volume   478.48443245
_cell_formula_units_Z   2
loop_
 _symmetry_equiv_pos_site_id
 _symmetry_equiv_pos_as_xyz
  1  'x, y, z'
loop_
 _atom_site_type_symbol
 _atom_site_label
 _atom_site_symmetry_multiplicity
 _atom_site_fract_x
 _atom_site_fract_y
 _atom_site_fract_z
 _atom_site_occupancy
  Sm  Sm0  1  0.738098  0.000000  0.750000  1
  Sm  Sm1  1  0.738098  0.738098  0.250000  1
  Sm  Sm2  1  0.000000  0.261902  0.250000  1
  Sm  Sm3  1  0.000000  0.738098  0.750000  1
  Sm  Sm4  1  0.261902  0.261902  0.750000  1
  Sm  Sm5  1  0.261902  0.000000  0.250000  1
  Lu  Lu6  1  0.666667  0.333333  0.000000  1
  Lu  Lu7  1  0.333333  0.666667  0.500000  1
  Lu  Lu8  1  0.666667  0.333333  0.500000  1
  Lu  Lu9  1  0.333333  0.666667  0.000000  1
  Sn  Sn10  1  0.607287  0.607287  0.750000  1
  Sn  Sn11  1  0.000000  0.607287  0.250000  1
  Sn  Sn12  1  0.607287  0.000000  0.250000  1
  Sn  Sn13  1  0.392713  0.000000  0.750000  1
  Sn  Sn14  1  0.000000  0.392713  0.750000  1
  Sn  Sn15  1  0.392713  0.392713  0.250000  1
  Cl  Cl16  1  0.000000  0.000000  0.500000  1
  Cl  Cl17  1  0.000000  0.000000  0.000000  1
