# generated using pymatgen
data_Ho11TmGaCo4Ir
_symmetry_space_group_name_H-M   'P 1'
_cell_length_a   8.20418159
_cell_length_b   8.20916836
_cell_length_c   8.20916761
_cell_angle_alpha   111.06053749
_cell_angle_beta   110.71131590
_cell_angle_gamma   106.70090780
_symmetry_Int_Tables_number   1
_chemical_formula_structural   Ho11TmGaCo4Ir
_chemical_formula_sum   'Ho11 Tm1 Ga1 Co4 Ir1'
_cell_volume   424.73541163
_cell_formula_units_Z   1
loop_
 _symmetry_equiv_pos_site_id
 _symmetry_equiv_pos_as_xyz
  1  'x, y, z'
loop_
 _atom_site_type_symbol
 _atom_site_label
 _atom_site_symmetry_multiplicity
 _atom_site_fract_x
 _atom_site_fract_y
 _atom_site_fract_z
 _atom_site_occupancy
  Ho  Ho0  1  0.583228  0.275564  0.307664  1
  Ho  Ho1  1  0.182409  0.218460  0.400474  1
  Ho  Ho2  1  0.182409  0.781934  0.963950  1
  Ho  Ho3  1  0.681286  0.487185  0.805031  1
  Ho  Ho4  1  0.681286  0.876256  0.194101  1
  Ho  Ho5  1  0.968405  0.275714  0.692691  1
  Ho  Ho6  1  0.032483  0.724491  0.307993  1
  Ho  Ho7  1  0.318559  0.123067  0.805255  1
  Ho  Ho8  1  0.318559  0.513304  0.195492  1
  Ho  Ho9  1  0.817140  0.217176  0.034825  1
  Ho  Ho10  1  0.817140  0.782314  0.599965  1
  Tm  Tm11  1  0.416611  0.723879  0.692731  1
  Ga  Ga12  1  0.500059  0.999772  0.500287  1
  Co  Co13  1  0.886487  0.887203  0.999283  1
  Co  Co14  1  0.371954  0.500313  0.871641  1
  Co  Co15  1  0.627623  0.499862  0.127760  1
  Co  Co16  1  0.112796  0.112788  0.000008  1
  Ir  Ir17  1  0.001567  0.500717  0.500850  1
