# generated using pymatgen
data_Ho3Lu2Tl3Br
_symmetry_space_group_name_H-M   'P 1'
_cell_length_a   9.10345600
_cell_length_b   9.10345586
_cell_length_c   6.66218200
_cell_angle_alpha   90.00000000
_cell_angle_beta   90.00000000
_cell_angle_gamma   120.00000050
_symmetry_Int_Tables_number   1
_chemical_formula_structural   Ho3Lu2Tl3Br
_chemical_formula_sum   'Ho6 Lu4 Tl6 Br2'
_cell_volume   478.14510124
_cell_formula_units_Z   2
loop_
 _symmetry_equiv_pos_site_id
 _symmetry_equiv_pos_as_xyz
  1  'x, y, z'
loop_
 _atom_site_type_symbol
 _atom_site_label
 _atom_site_symmetry_multiplicity
 _atom_site_fract_x
 _atom_site_fract_y
 _atom_site_fract_z
 _atom_site_occupancy
  Ho  Ho0  1  0.733473  0.733473  0.250000  1
  Ho  Ho1  1  0.000000  0.733473  0.750000  1
  Ho  Ho2  1  0.733473  0.000000  0.750000  1
  Ho  Ho3  1  0.266527  0.266527  0.750000  1
  Ho  Ho4  1  0.000000  0.266527  0.250000  1
  Ho  Ho5  1  0.266527  0.000000  0.250000  1
  Lu  Lu6  1  0.333333  0.666667  0.500000  1
  Lu  Lu7  1  0.666667  0.333333  0.500000  1
  Lu  Lu8  1  0.333333  0.666667  0.000000  1
  Lu  Lu9  1  0.666667  0.333333  0.000000  1
  Tl  Tl10  1  0.393171  0.000000  0.750000  1
  Tl  Tl11  1  0.000000  0.606829  0.250000  1
  Tl  Tl12  1  0.606829  0.000000  0.250000  1
  Tl  Tl13  1  0.000000  0.393171  0.750000  1
  Tl  Tl14  1  0.393171  0.393171  0.250000  1
  Tl  Tl15  1  0.606829  0.606829  0.750000  1
  Br  Br16  1  0.000000  0.000000  0.500000  1
  Br  Br17  1  0.000000  0.000000  0.000000  1
