# generated using pymatgen
data_Ba3Tl2F12
_symmetry_space_group_name_H-M   'P 1'
_cell_length_a   9.78303500
_cell_length_b   9.78303500
_cell_length_c   5.88708100
_cell_angle_alpha   90.00000000
_cell_angle_beta   90.00000000
_cell_angle_gamma   90.00000000
_symmetry_Int_Tables_number   1
_chemical_formula_structural   Ba3Tl2F12
_chemical_formula_sum   'Ba6 Tl4 F24'
_cell_volume   563.43941676
_cell_formula_units_Z   2
loop_
 _symmetry_equiv_pos_site_id
 _symmetry_equiv_pos_as_xyz
  1  'x, y, z'
loop_
 _atom_site_type_symbol
 _atom_site_label
 _atom_site_symmetry_multiplicity
 _atom_site_fract_x
 _atom_site_fract_y
 _atom_site_fract_z
 _atom_site_occupancy
  Ba  Ba0  1  0.320053  0.820053  0.500000  1
  Ba  Ba1  1  0.820053  0.679947  0.500000  1
  Ba  Ba2  1  0.179947  0.320053  0.500000  1
  Ba  Ba3  1  0.679947  0.179947  0.500000  1
  Ba  Ba4  1  0.500000  0.500000  0.000000  1
  Ba  Ba5  1  0.000000  0.000000  0.000000  1
  Tl  Tl6  1  0.133999  0.633999  0.000000  1
  Tl  Tl7  1  0.633999  0.866001  0.000000  1
  Tl  Tl8  1  0.366001  0.133999  0.000000  1
  Tl  Tl9  1  0.866001  0.366001  0.000000  1
  F  F10  1  0.297660  0.797660  0.000000  1
  F  F11  1  0.797660  0.702340  0.000000  1
  F  F12  1  0.202340  0.297660  0.000000  1
  F  F13  1  0.702340  0.202340  0.000000  1
  F  F14  1  0.556343  0.720695  0.263298  1
  F  F15  1  0.443657  0.279305  0.263298  1
  F  F16  1  0.279305  0.556343  0.263298  1
  F  F17  1  0.720695  0.443657  0.263298  1
  F  F18  1  0.220695  0.056343  0.736702  1
  F  F19  1  0.056343  0.779305  0.736702  1
  F  F20  1  0.500000  0.000000  0.768319  1
  F  F21  1  0.000000  0.500000  0.768319  1
  F  F22  1  0.000000  0.500000  0.231681  1
  F  F23  1  0.500000  0.000000  0.231681  1
  F  F24  1  0.220695  0.056343  0.263298  1
  F  F25  1  0.056343  0.779305  0.263298  1
  F  F26  1  0.943657  0.220695  0.263298  1
  F  F27  1  0.779305  0.943657  0.263298  1
  F  F28  1  0.279305  0.556343  0.736702  1
  F  F29  1  0.720695  0.443657  0.736702  1
  F  F30  1  0.556343  0.720695  0.736702  1
  F  F31  1  0.443657  0.279305  0.736702  1
  F  F32  1  0.779305  0.943657  0.736702  1
  F  F33  1  0.943657  0.220695  0.736702  1
