# generated using pymatgen
data_Zr6Ti6Al10Os7
_symmetry_space_group_name_H-M   'P 1'
_cell_length_a   8.90258575
_cell_length_b   8.84168147
_cell_length_c   8.84168094
_cell_angle_alpha   59.58313145
_cell_angle_beta   59.77186861
_cell_angle_gamma   59.77186840
_symmetry_Int_Tables_number   1
_chemical_formula_structural   Zr6Ti6Al10Os7
_chemical_formula_sum   'Zr6 Ti6 Al10 Os7'
_cell_volume   488.86303368
_cell_formula_units_Z   1
loop_
 _symmetry_equiv_pos_site_id
 _symmetry_equiv_pos_as_xyz
  1  'x, y, z'
loop_
 _atom_site_type_symbol
 _atom_site_label
 _atom_site_symmetry_multiplicity
 _atom_site_fract_x
 _atom_site_fract_y
 _atom_site_fract_z
 _atom_site_occupancy
  Zr  Zr0  1  0.692507  0.705089  0.302868  1
  Zr  Zr1  1  0.299537  0.705089  0.302868  1
  Zr  Zr2  1  0.705578  0.294422  0.294422  1
  Zr  Zr3  1  0.299537  0.302868  0.705089  1
  Zr  Zr4  1  0.692507  0.302868  0.705089  1
  Zr  Zr5  1  0.304645  0.695355  0.695355  1
  Ti  Ti6  1  0.878454  0.882111  0.360982  1
  Ti  Ti7  1  0.878454  0.360982  0.882111  1
  Ti  Ti8  1  0.366238  0.879355  0.879355  1
  Ti  Ti9  1  0.875054  0.879355  0.879355  1
  Ti  Ti10  1  0.122604  0.121907  0.632885  1
  Ti  Ti11  1  0.122604  0.632885  0.121907  1
  Al  Al12  1  0.645242  0.117953  0.117953  1
  Al  Al13  1  0.118850  0.117953  0.117953  1
  Al  Al14  1  0.664296  0.663778  0.007629  1
  Al  Al15  1  0.664296  0.007629  0.663778  1
  Al  Al16  1  0.006693  0.664044  0.664044  1
  Al  Al17  1  0.665218  0.664044  0.664044  1
  Al  Al18  1  0.333172  0.333173  0.000483  1
  Al  Al19  1  0.333172  0.000483  0.333173  1
  Al  Al20  1  0.994996  0.334247  0.334247  1
  Al  Al21  1  0.336511  0.334247  0.334247  1
  Os  Os22  1  0.006609  0.993391  0.993391  1
  Os  Os23  1  0.998296  0.000698  0.502427  1
  Os  Os24  1  0.498578  0.000698  0.502427  1
  Os  Os25  1  0.999846  0.500154  0.500154  1
  Os  Os26  1  0.498578  0.502427  0.000698  1
  Os  Os27  1  0.998296  0.502427  0.000698  1
  Os  Os28  1  0.499631  0.000369  0.000369  1
