# generated using pymatgen
data_Nd8Ho11TmSn16
_symmetry_space_group_name_H-M   'P 1'
_cell_length_a   8.10161400
_cell_length_b   8.30050181
_cell_length_c   15.63154900
_cell_angle_alpha   90.00000000
_cell_angle_beta   90.00000000
_cell_angle_gamma   89.96212494
_symmetry_Int_Tables_number   1
_chemical_formula_structural   Nd8Ho11TmSn16
_chemical_formula_sum   'Nd8 Ho11 Tm1 Sn16'
_cell_volume   1051.18176301
_cell_formula_units_Z   1
loop_
 _symmetry_equiv_pos_site_id
 _symmetry_equiv_pos_as_xyz
  1  'x, y, z'
loop_
 _atom_site_type_symbol
 _atom_site_label
 _atom_site_symmetry_multiplicity
 _atom_site_fract_x
 _atom_site_fract_y
 _atom_site_fract_z
 _atom_site_occupancy
  Nd  Nd0  1  0.511203  0.322967  0.903227  1
  Nd  Nd1  1  0.010849  0.178157  0.597198  1
  Nd  Nd2  1  0.489670  0.677857  0.403912  1
  Nd  Nd3  1  0.990283  0.821764  0.096056  1
  Nd  Nd4  1  0.489670  0.677857  0.096088  1
  Nd  Nd5  1  0.990283  0.821764  0.403944  1
  Nd  Nd6  1  0.511203  0.322967  0.596773  1
  Nd  Nd7  1  0.010849  0.178157  0.902802  1
  Ho  Ho8  1  0.355074  0.834939  0.875529  1
  Ho  Ho9  1  0.855008  0.665066  0.623553  1
  Ho  Ho10  1  0.643887  0.164888  0.376533  1
  Ho  Ho11  1  0.145118  0.334220  0.122937  1
  Ho  Ho12  1  0.643887  0.164888  0.123467  1
  Ho  Ho13  1  0.145118  0.334220  0.377063  1
  Ho  Ho14  1  0.355074  0.834939  0.624471  1
  Ho  Ho15  1  0.855008  0.665066  0.876447  1
  Ho  Ho16  1  0.188410  0.502043  0.750000  1
  Ho  Ho17  1  0.688183  0.998472  0.750000  1
  Ho  Ho18  1  0.811339  0.497982  0.250000  1
  Tm  Tm19  1  0.310645  0.001199  0.250000  1
  Sn  Sn20  1  0.308692  0.040502  0.041030  1
  Sn  Sn21  1  0.808276  0.459048  0.458392  1
  Sn  Sn22  1  0.691141  0.959610  0.542080  1
  Sn  Sn23  1  0.192044  0.541056  0.957885  1
  Sn  Sn24  1  0.691141  0.959610  0.957920  1
  Sn  Sn25  1  0.192044  0.541056  0.542115  1
  Sn  Sn26  1  0.308692  0.040502  0.458970  1
  Sn  Sn27  1  0.808276  0.459048  0.041608  1
  Sn  Sn28  1  0.554022  0.623327  0.750000  1
  Sn  Sn29  1  0.052837  0.876340  0.750000  1
  Sn  Sn30  1  0.445529  0.375911  0.250000  1
  Sn  Sn31  1  0.946520  0.124331  0.250000  1
  Sn  Sn32  1  0.318926  0.143705  0.750000  1
  Sn  Sn33  1  0.818939  0.357337  0.750000  1
  Sn  Sn34  1  0.681468  0.857041  0.250000  1
  Sn  Sn35  1  0.180687  0.642158  0.250000  1
