# generated using pymatgen
data_Y4TmIrOs
_symmetry_space_group_name_H-M   'P 1'
_cell_length_a   6.45906033
_cell_length_b   7.27404144
_cell_length_c   8.45635154
_cell_angle_alpha   96.53225831
_cell_angle_beta   112.45179451
_cell_angle_gamma   89.99999171
_symmetry_Int_Tables_number   1
_chemical_formula_structural   Y4TmIrOs
_chemical_formula_sum   'Y8 Tm2 Ir2 Os2'
_cell_volume   364.40077767
_cell_formula_units_Z   2
loop_
 _symmetry_equiv_pos_site_id
 _symmetry_equiv_pos_as_xyz
  1  'x, y, z'
loop_
 _atom_site_type_symbol
 _atom_site_label
 _atom_site_symmetry_multiplicity
 _atom_site_fract_x
 _atom_site_fract_y
 _atom_site_fract_z
 _atom_site_occupancy
  Y  Y0  1  0.967147  0.917344  0.179217  1
  Y  Y1  1  0.787929  0.582656  0.820783  1
  Y  Y2  1  0.029506  0.080226  0.818400  1
  Y  Y3  1  0.211106  0.419774  0.181600  1
  Y  Y4  1  0.653356  0.817165  0.440403  1
  Y  Y5  1  0.212954  0.682835  0.559597  1
  Y  Y6  1  0.348684  0.181364  0.561306  1
  Y  Y7  1  0.787378  0.318636  0.438694  1
  Tm  Tm8  1  0.429982  0.750000  0.000000  1
  Tm  Tm9  1  0.572849  0.250000  0.000000  1
  Ir  Ir10  1  0.177967  0.426642  0.784287  1
  Ir  Ir11  1  0.393678  0.073358  0.215713  1
  Os  Os12  1  0.821612  0.571694  0.215760  1
  Os  Os13  1  0.605852  0.928306  0.784240  1
