# generated using pymatgen
data_TbYb(GaNi)2
_symmetry_space_group_name_H-M   'P 1'
_cell_length_a   4.25167700
_cell_length_b   6.81256400
_cell_length_c   7.40271400
_cell_angle_alpha   90.00000000
_cell_angle_beta   90.00000000
_cell_angle_gamma   90.00000000
_symmetry_Int_Tables_number   1
_chemical_formula_structural   TbYb(GaNi)2
_chemical_formula_sum   'Tb2 Yb2 Ga4 Ni4'
_cell_volume   214.41829088
_cell_formula_units_Z   2
loop_
 _symmetry_equiv_pos_site_id
 _symmetry_equiv_pos_as_xyz
  1  'x, y, z'
loop_
 _atom_site_type_symbol
 _atom_site_label
 _atom_site_symmetry_multiplicity
 _atom_site_fract_x
 _atom_site_fract_y
 _atom_site_fract_z
 _atom_site_occupancy
  Tb  Tb0  1  0.250000  0.025527  0.314816  1
  Tb  Tb1  1  0.250000  0.525527  0.185184  1
  Yb  Yb2  1  0.750000  0.974741  0.688910  1
  Yb  Yb3  1  0.750000  0.474741  0.811090  1
  Ga  Ga4  1  0.250000  0.161632  0.926899  1
  Ga  Ga5  1  0.250000  0.661632  0.573101  1
  Ga  Ga6  1  0.750000  0.839669  0.071515  1
  Ga  Ga7  1  0.750000  0.339669  0.428485  1
  Ni  Ni8  1  0.250000  0.288824  0.607402  1
  Ni  Ni9  1  0.250000  0.788824  0.892598  1
  Ni  Ni10  1  0.750000  0.709607  0.390937  1
  Ni  Ni11  1  0.750000  0.209607  0.109063  1
