# generated using pymatgen
data_Tb4GaI6
_symmetry_space_group_name_H-M   'P 1'
_cell_length_a   4.22335000
_cell_length_b   14.14560000
_cell_length_c   14.90470800
_cell_angle_alpha   90.00000000
_cell_angle_beta   90.00000000
_cell_angle_gamma   90.00000000
_symmetry_Int_Tables_number   1
_chemical_formula_structural   Tb4GaI6
_chemical_formula_sum   'Tb8 Ga2 I12'
_cell_volume   890.43437891
_cell_formula_units_Z   2
loop_
 _symmetry_equiv_pos_site_id
 _symmetry_equiv_pos_as_xyz
  1  'x, y, z'
loop_
 _atom_site_type_symbol
 _atom_site_label
 _atom_site_symmetry_multiplicity
 _atom_site_fract_x
 _atom_site_fract_y
 _atom_site_fract_z
 _atom_site_occupancy
  Tb  Tb0  1  0.500000  0.115374  0.345123  1
  Tb  Tb1  1  0.500000  0.884626  0.654877  1
  Tb  Tb2  1  0.500000  0.615374  0.154877  1
  Tb  Tb3  1  0.500000  0.384626  0.845123  1
  Tb  Tb4  1  0.000000  0.114281  0.576546  1
  Tb  Tb5  1  0.000000  0.885719  0.423454  1
  Tb  Tb6  1  0.000000  0.614281  0.923454  1
  Tb  Tb7  1  0.000000  0.385719  0.076546  1
  Ga  Ga8  1  0.500000  0.000000  0.500000  1
  Ga  Ga9  1  0.500000  0.500000  0.000000  1
  I  I10  1  0.500000  0.245843  0.163583  1
  I  I11  1  0.500000  0.754157  0.836417  1
  I  I12  1  0.500000  0.745843  0.336417  1
  I  I13  1  0.500000  0.254157  0.663583  1
  I  I14  1  0.000000  0.258906  0.414415  1
  I  I15  1  0.000000  0.741094  0.585585  1
  I  I16  1  0.000000  0.758906  0.085585  1
  I  I17  1  0.000000  0.241094  0.914415  1
  I  I18  1  0.000000  0.998862  0.240106  1
  I  I19  1  0.000000  0.001138  0.759894  1
  I  I20  1  0.000000  0.498862  0.259894  1
  I  I21  1  0.000000  0.501138  0.740106  1
