# generated using pymatgen
data_Yb3Tm(Ga2Ag)4
_symmetry_space_group_name_H-M   'P 1'
_cell_length_a   4.34898100
_cell_length_b   6.98044312
_cell_length_c   10.39735790
_cell_angle_alpha   90.71445173
_cell_angle_beta   90.00000000
_cell_angle_gamma   90.00000000
_symmetry_Int_Tables_number   1
_chemical_formula_structural   Yb3Tm(Ga2Ag)4
_chemical_formula_sum   'Yb3 Tm1 Ga8 Ag4'
_cell_volume   315.61652360
_cell_formula_units_Z   1
loop_
 _symmetry_equiv_pos_site_id
 _symmetry_equiv_pos_as_xyz
  1  'x, y, z'
loop_
 _atom_site_type_symbol
 _atom_site_label
 _atom_site_symmetry_multiplicity
 _atom_site_fract_x
 _atom_site_fract_y
 _atom_site_fract_z
 _atom_site_occupancy
  Yb  Yb0  1  0.750000  0.224822  0.172609  1
  Yb  Yb1  1  0.750000  0.723492  0.327834  1
  Yb  Yb2  1  0.250000  0.276117  0.671324  1
  Tm  Tm3  1  0.250000  0.778480  0.828552  1
  Ga  Ga4  1  0.250000  0.703087  0.536365  1
  Ga  Ga5  1  0.750000  0.298907  0.465101  1
  Ga  Ga6  1  0.750000  0.797200  0.034983  1
  Ga  Ga7  1  0.250000  0.200601  0.964972  1
  Ga  Ga8  1  0.250000  0.925626  0.148822  1
  Ga  Ga9  1  0.750000  0.072265  0.848683  1
  Ga  Ga10  1  0.750000  0.573323  0.652102  1
  Ga  Ga11  1  0.250000  0.426870  0.349305  1
  Ag  Ag12  1  0.250000  0.539879  0.099652  1
  Ag  Ag13  1  0.750000  0.459203  0.899729  1
  Ag  Ag14  1  0.750000  0.959663  0.599350  1
  Ag  Ag15  1  0.250000  0.040463  0.400617  1
