# generated using pymatgen
data_RbZnCd12
_symmetry_space_group_name_H-M   'P 1'
_cell_length_a   9.91658069
_cell_length_b   9.91658025
_cell_length_c   9.91658200
_cell_angle_alpha   60.00000085
_cell_angle_beta   60.00000231
_cell_angle_gamma   60.00000200
_symmetry_Int_Tables_number   1
_chemical_formula_structural   RbZnCd12
_chemical_formula_sum   'Rb2 Zn2 Cd24'
_cell_volume   689.55816887
_cell_formula_units_Z   2
loop_
 _symmetry_equiv_pos_site_id
 _symmetry_equiv_pos_as_xyz
  1  'x, y, z'
loop_
 _atom_site_type_symbol
 _atom_site_label
 _atom_site_symmetry_multiplicity
 _atom_site_fract_x
 _atom_site_fract_y
 _atom_site_fract_z
 _atom_site_occupancy
  Rb  Rb0  1  0.250000  0.250000  0.250000  1
  Rb  Rb1  1  0.750000  0.750000  0.750000  1
  Zn  Zn2  1  0.000000  0.000000  0.000000  1
  Zn  Zn3  1  0.500000  0.500000  0.500000  1
  Cd  Cd4  1  0.441568  0.203846  0.796154  1
  Cd  Cd5  1  0.941568  0.703846  0.058432  1
  Cd  Cd6  1  0.703846  0.941568  0.296154  1
  Cd  Cd7  1  0.296154  0.703846  0.941568  1
  Cd  Cd8  1  0.941568  0.058432  0.296154  1
  Cd  Cd9  1  0.703846  0.058432  0.941568  1
  Cd  Cd10  1  0.296154  0.941568  0.058432  1
  Cd  Cd11  1  0.796154  0.441568  0.203846  1
  Cd  Cd12  1  0.203846  0.796154  0.441568  1
  Cd  Cd13  1  0.441568  0.558432  0.203846  1
  Cd  Cd14  1  0.441568  0.796154  0.558432  1
  Cd  Cd15  1  0.203846  0.558432  0.796154  1
  Cd  Cd16  1  0.558432  0.441568  0.796154  1
  Cd  Cd17  1  0.558432  0.203846  0.441568  1
  Cd  Cd18  1  0.796154  0.203846  0.558432  1
  Cd  Cd19  1  0.058432  0.941568  0.703846  1
  Cd  Cd20  1  0.058432  0.296154  0.941568  1
  Cd  Cd21  1  0.941568  0.296154  0.703846  1
  Cd  Cd22  1  0.058432  0.703846  0.296154  1
  Cd  Cd23  1  0.296154  0.058432  0.703846  1
  Cd  Cd24  1  0.703846  0.296154  0.058432  1
  Cd  Cd25  1  0.203846  0.441568  0.558432  1
  Cd  Cd26  1  0.796154  0.558432  0.441568  1
  Cd  Cd27  1  0.558432  0.796154  0.203846  1
