# generated using pymatgen
data_Tb3Yb5(Si3Ag)4
_symmetry_space_group_name_H-M   'P 1'
_cell_length_a   8.37015587
_cell_length_b   8.37015517
_cell_length_c   8.15456800
_cell_angle_alpha   90.00000000
_cell_angle_beta   90.00000000
_cell_angle_gamma   120.53719443
_symmetry_Int_Tables_number   1
_chemical_formula_structural   Tb3Yb5(Si3Ag)4
_chemical_formula_sum   'Tb3 Yb5 Si12 Ag4'
_cell_volume   492.06469911
_cell_formula_units_Z   1
loop_
 _symmetry_equiv_pos_site_id
 _symmetry_equiv_pos_as_xyz
  1  'x, y, z'
loop_
 _atom_site_type_symbol
 _atom_site_label
 _atom_site_symmetry_multiplicity
 _atom_site_fract_x
 _atom_site_fract_y
 _atom_site_fract_z
 _atom_site_occupancy
  Tb  Tb0  1  0.498712  0.501288  0.750000  1
  Tb  Tb1  1  0.999940  0.000060  0.250000  1
  Tb  Tb2  1  0.000066  0.999934  0.750000  1
  Yb  Yb3  1  0.501611  0.003044  0.250000  1
  Yb  Yb4  1  0.498107  0.996876  0.750000  1
  Yb  Yb5  1  0.996956  0.498389  0.250000  1
  Yb  Yb6  1  0.003124  0.501893  0.750000  1
  Yb  Yb7  1  0.501552  0.498448  0.250000  1
  Si  Si8  1  0.162101  0.322465  0.999383  1
  Si  Si9  1  0.837892  0.677614  0.997073  1
  Si  Si10  1  0.677535  0.837899  0.999383  1
  Si  Si11  1  0.837892  0.677614  0.502927  1
  Si  Si12  1  0.322386  0.162108  0.997073  1
  Si  Si13  1  0.162101  0.322465  0.500617  1
  Si  Si14  1  0.161124  0.838876  0.000793  1
  Si  Si15  1  0.322386  0.162108  0.502927  1
  Si  Si16  1  0.838834  0.161166  0.997303  1
  Si  Si17  1  0.677535  0.837899  0.500617  1
  Si  Si18  1  0.838834  0.161166  0.502697  1
  Si  Si19  1  0.161124  0.838876  0.499207  1
  Ag  Ag20  1  0.332743  0.667257  0.003125  1
  Ag  Ag21  1  0.667350  0.332650  0.995157  1
  Ag  Ag22  1  0.667350  0.332650  0.504843  1
  Ag  Ag23  1  0.332743  0.667257  0.496875  1
