# generated using pymatgen
data_Dy3Mg3InAgPb
_symmetry_space_group_name_H-M   'P 1'
_cell_length_a   7.57014800
_cell_length_b   7.57014895
_cell_length_c   4.54147000
_cell_angle_alpha   90.00000000
_cell_angle_beta   90.00000000
_cell_angle_gamma   120.00000458
_symmetry_Int_Tables_number   1
_chemical_formula_structural   Dy3Mg3InAgPb
_chemical_formula_sum   'Dy3 Mg3 In1 Ag1 Pb1'
_cell_volume   225.39062945
_cell_formula_units_Z   1
loop_
 _symmetry_equiv_pos_site_id
 _symmetry_equiv_pos_as_xyz
  1  'x, y, z'
loop_
 _atom_site_type_symbol
 _atom_site_label
 _atom_site_symmetry_multiplicity
 _atom_site_fract_x
 _atom_site_fract_y
 _atom_site_fract_z
 _atom_site_occupancy
  Dy  Dy0  1  0.417820  0.412908  0.500000  1
  Dy  Dy1  1  0.587092  0.004913  0.500000  1
  Dy  Dy2  1  0.995087  0.582180  0.500000  1
  Mg  Mg3  1  0.766657  0.762914  0.000000  1
  Mg  Mg4  1  0.237086  0.003743  0.000000  1
  Mg  Mg5  1  0.996257  0.233343  0.000000  1
  In  In6  1  0.666667  0.333333  0.000000  1
  Ag  Ag7  1  0.000000  0.000000  0.500000  1
  Pb  Pb8  1  0.333333  0.666667  0.000000  1
