# generated using pymatgen
data_HfU7H30
_symmetry_space_group_name_H-M   'P 1'
_cell_length_a   7.45526810
_cell_length_b   7.45526819
_cell_length_c   7.45526908
_cell_angle_alpha   109.76829299
_cell_angle_beta   109.76829556
_cell_angle_gamma   109.76830822
_symmetry_Int_Tables_number   1
_chemical_formula_structural   HfU7H30
_chemical_formula_sum   'Hf1 U7 H30'
_cell_volume   315.42604234
_cell_formula_units_Z   1
loop_
 _symmetry_equiv_pos_site_id
 _symmetry_equiv_pos_as_xyz
  1  'x, y, z'
loop_
 _atom_site_type_symbol
 _atom_site_label
 _atom_site_symmetry_multiplicity
 _atom_site_fract_x
 _atom_site_fract_y
 _atom_site_fract_z
 _atom_site_occupancy
  Hf  Hf0  1  0.911123  0.911123  0.911123  1
  U  U1  1  0.499194  0.000882  0.081700  1
  U  U2  1  0.000882  0.081700  0.499194  1
  U  U3  1  0.081700  0.499194  0.000882  1
  U  U4  1  0.998692  0.584224  0.506533  1
  U  U5  1  0.584224  0.506533  0.998692  1
  U  U6  1  0.506533  0.998692  0.584224  1
  U  U7  1  0.412923  0.412923  0.412923  1
  H  H8  1  0.650101  0.960970  0.365263  1
  H  H9  1  0.220198  0.318174  0.851392  1
  H  H10  1  0.185230  0.404348  0.535151  1
  H  H11  1  0.089584  0.261571  0.109819  1
  H  H12  1  0.261571  0.109819  0.089584  1
  H  H13  1  0.109819  0.089584  0.261571  1
  H  H14  1  0.467809  0.153707  0.867935  1
  H  H15  1  0.717804  0.352833  0.813240  1
  H  H16  1  0.618706  0.375439  0.245967  1
  H  H17  1  0.245967  0.618706  0.375439  1
  H  H18  1  0.751553  0.881641  0.123746  1
  H  H19  1  0.123746  0.751553  0.881641  1
  H  H20  1  0.375439  0.245967  0.618706  1
  H  H21  1  0.881641  0.123746  0.751553  1
  H  H22  1  0.785428  0.606950  0.642871  1
  H  H23  1  0.318174  0.851392  0.220198  1
  H  H24  1  0.365263  0.650101  0.960970  1
  H  H25  1  0.960970  0.365263  0.650101  1
  H  H26  1  0.535151  0.185230  0.404348  1
  H  H27  1  0.404348  0.535151  0.185230  1
  H  H28  1  0.851392  0.220198  0.318174  1
  H  H29  1  0.911125  0.704929  0.031244  1
  H  H30  1  0.813240  0.717804  0.352833  1
  H  H31  1  0.153707  0.867935  0.467809  1
  H  H32  1  0.704929  0.031244  0.911125  1
  H  H33  1  0.352833  0.813240  0.717804  1
  H  H34  1  0.867935  0.467809  0.153707  1
  H  H35  1  0.642871  0.785428  0.606950  1
  H  H36  1  0.606950  0.642871  0.785428  1
  H  H37  1  0.031244  0.911125  0.704929  1
