# generated using pymatgen
data_Nd2Al2PtRh
_symmetry_space_group_name_H-M   'P 1'
_cell_length_a   4.46774700
_cell_length_b   7.03129873
_cell_length_c   7.98504039
_cell_angle_alpha   90.33476358
_cell_angle_beta   90.00000000
_cell_angle_gamma   90.00000000
_symmetry_Int_Tables_number   1
_chemical_formula_structural   Nd2Al2PtRh
_chemical_formula_sum   'Nd4 Al4 Pt2 Rh2'
_cell_volume   250.83828664
_cell_formula_units_Z   2
loop_
 _symmetry_equiv_pos_site_id
 _symmetry_equiv_pos_as_xyz
  1  'x, y, z'
loop_
 _atom_site_type_symbol
 _atom_site_label
 _atom_site_symmetry_multiplicity
 _atom_site_fract_x
 _atom_site_fract_y
 _atom_site_fract_z
 _atom_site_occupancy
  Nd  Nd0  1  0.250000  0.535828  0.182217  1
  Nd  Nd1  1  0.750000  0.464172  0.817783  1
  Nd  Nd2  1  0.750000  0.965436  0.676915  1
  Nd  Nd3  1  0.250000  0.034564  0.323085  1
  Al  Al4  1  0.250000  0.634874  0.562477  1
  Al  Al5  1  0.750000  0.365126  0.437523  1
  Al  Al6  1  0.750000  0.860195  0.062834  1
  Al  Al7  1  0.250000  0.139805  0.937166  1
  Pt  Pt8  1  0.250000  0.776132  0.881698  1
  Pt  Pt9  1  0.750000  0.223868  0.118302  1
  Rh  Rh10  1  0.750000  0.728426  0.383352  1
  Rh  Rh11  1  0.250000  0.271574  0.616648  1
