# generated using pymatgen
data_Zr12Al8GaCo3C4
_symmetry_space_group_name_H-M   'P 1'
_cell_length_a   8.59322289
_cell_length_b   8.65443433
_cell_length_c   8.59322400
_cell_angle_alpha   60.23368897
_cell_angle_beta   59.99999572
_cell_angle_gamma   60.23368819
_symmetry_Int_Tables_number   1
_chemical_formula_structural   Zr12Al8GaCo3C4
_chemical_formula_sum   'Zr12 Al8 Ga1 Co3 C4'
_cell_volume   453.48288715
_cell_formula_units_Z   1
loop_
 _symmetry_equiv_pos_site_id
 _symmetry_equiv_pos_as_xyz
  1  'x, y, z'
loop_
 _atom_site_type_symbol
 _atom_site_label
 _atom_site_symmetry_multiplicity
 _atom_site_fract_x
 _atom_site_fract_y
 _atom_site_fract_z
 _atom_site_occupancy
  Zr  Zr0  1  0.556915  0.941799  0.556915  1
  Zr  Zr1  1  0.305164  0.695821  0.693852  1
  Zr  Zr2  1  0.693085  0.308201  0.305629  1
  Zr  Zr3  1  0.305164  0.695821  0.305164  1
  Zr  Zr4  1  0.693852  0.695821  0.305164  1
  Zr  Zr5  1  0.305629  0.308201  0.693085  1
  Zr  Zr6  1  0.556148  0.554179  0.944836  1
  Zr  Zr7  1  0.944836  0.554179  0.556148  1
  Zr  Zr8  1  0.556915  0.941799  0.944371  1
  Zr  Zr9  1  0.944371  0.941799  0.556915  1
  Zr  Zr10  1  0.693085  0.308201  0.693085  1
  Zr  Zr11  1  0.944836  0.554179  0.944836  1
  Al  Al12  1  0.911799  0.940113  0.911799  1
  Al  Al13  1  0.013712  0.309887  0.338201  1
  Al  Al14  1  0.330572  0.008286  0.330572  1
  Al  Al15  1  0.338201  0.309887  0.013712  1
  Al  Al16  1  0.919428  0.241714  0.919428  1
  Al  Al17  1  0.911799  0.940113  0.236288  1
  Al  Al18  1  0.236288  0.940113  0.911799  1
  Al  Al19  1  0.338201  0.309887  0.338201  1
  Ga  Ga20  1  0.125000  0.625000  0.125000  1
  Co  Co21  1  0.125000  0.125000  0.125000  1
  Co  Co22  1  0.625000  0.125000  0.125000  1
  Co  Co23  1  0.125000  0.125000  0.625000  1
  C  C24  1  0.625000  0.625000  0.625000  1
  C  C25  1  0.125000  0.625000  0.625000  1
  C  C26  1  0.625000  0.125000  0.625000  1
  C  C27  1  0.625000  0.625000  0.125000  1
