# generated using pymatgen
data_Hf3Np2Co9As7
_symmetry_space_group_name_H-M   'P 1'
_cell_length_a   3.88481400
_cell_length_b   9.76991288
_cell_length_c   9.76991300
_cell_angle_alpha   119.99999702
_cell_angle_beta   90.00000000
_cell_angle_gamma   90.00000000
_symmetry_Int_Tables_number   1
_chemical_formula_structural   Hf3Np2Co9As7
_chemical_formula_sum   'Hf3 Np2 Co9 As7'
_cell_volume   321.13102263
_cell_formula_units_Z   1
loop_
 _symmetry_equiv_pos_site_id
 _symmetry_equiv_pos_as_xyz
  1  'x, y, z'
loop_
 _atom_site_type_symbol
 _atom_site_label
 _atom_site_symmetry_multiplicity
 _atom_site_fract_x
 _atom_site_fract_y
 _atom_site_fract_z
 _atom_site_occupancy
  Hf  Hf0  1  0.500000  0.769881  0.886314  1
  Hf  Hf1  1  0.500000  0.116431  0.230119  1
  Hf  Hf2  1  0.500000  0.113686  0.883569  1
  Np  Np3  1  0.000000  0.666667  0.333333  1
  Np  Np4  1  0.500000  0.333333  0.666667  1
  Co  Co5  1  0.000000  0.577781  0.935297  1
  Co  Co6  1  0.000000  0.357516  0.422219  1
  Co  Co7  1  0.000000  0.064703  0.642484  1
  Co  Co8  1  0.000000  0.877902  0.161680  1
  Co  Co9  1  0.000000  0.283778  0.122098  1
  Co  Co10  1  0.000000  0.838320  0.716222  1
  Co  Co11  1  0.500000  0.948498  0.388431  1
  Co  Co12  1  0.500000  0.439932  0.051502  1
  Co  Co13  1  0.500000  0.611569  0.560068  1
  As  As14  1  0.000000  0.000000  0.000000  1
  As  As15  1  0.500000  0.712441  0.130293  1
  As  As16  1  0.500000  0.417852  0.287559  1
  As  As17  1  0.500000  0.869707  0.582148  1
  As  As18  1  0.000000  0.574203  0.680199  1
  As  As19  1  0.000000  0.105996  0.425797  1
  As  As20  1  0.000000  0.319801  0.894004  1
