# generated using pymatgen
data_Tb5LuAl24Os7Ru
_symmetry_space_group_name_H-M   'P 1'
_cell_length_a   8.79816300
_cell_length_b   8.82026113
_cell_length_c   9.60275604
_cell_angle_alpha   90.00895954
_cell_angle_beta   90.00000000
_cell_angle_gamma   119.91715340
_symmetry_Int_Tables_number   1
_chemical_formula_structural   Tb5LuAl24Os7Ru
_chemical_formula_sum   'Tb5 Lu1 Al24 Os7 Ru1'
_cell_volume   645.89499391
_cell_formula_units_Z   1
loop_
 _symmetry_equiv_pos_site_id
 _symmetry_equiv_pos_as_xyz
  1  'x, y, z'
loop_
 _atom_site_type_symbol
 _atom_site_label
 _atom_site_symmetry_multiplicity
 _atom_site_fract_x
 _atom_site_fract_y
 _atom_site_fract_z
 _atom_site_occupancy
  Tb  Tb0  1  0.806411  0.612824  0.750103  1
  Tb  Tb1  1  0.614469  0.807433  0.249921  1
  Tb  Tb2  1  0.385934  0.192427  0.750056  1
  Tb  Tb3  1  0.192965  0.807433  0.249921  1
  Tb  Tb4  1  0.806492  0.192427  0.750056  1
  Lu  Lu5  1  0.196186  0.392371  0.249811  1
  Al  Al6  1  0.333453  0.666907  0.017362  1
  Al  Al7  1  0.666495  0.332989  0.983839  1
  Al  Al8  1  0.666471  0.332941  0.516823  1
  Al  Al9  1  0.333462  0.666926  0.481893  1
  Al  Al10  1  0.163244  0.326488  0.573634  1
  Al  Al11  1  0.836238  0.672476  0.424165  1
  Al  Al12  1  0.672416  0.835832  0.573882  1
  Al  Al13  1  0.836368  0.672739  0.076354  1
  Al  Al14  1  0.326162  0.163822  0.425178  1
  Al  Al15  1  0.163224  0.326447  0.925719  1
  Al  Al16  1  0.163418  0.835832  0.573882  1
  Al  Al17  1  0.326078  0.163892  0.075325  1
  Al  Al18  1  0.837659  0.163822  0.425178  1
  Al  Al19  1  0.672622  0.835827  0.925697  1
  Al  Al20  1  0.837812  0.163892  0.075325  1
  Al  Al21  1  0.163207  0.835827  0.925697  1
  Al  Al22  1  0.561792  0.123586  0.250098  1
  Al  Al23  1  0.438142  0.876282  0.749956  1
  Al  Al24  1  0.877884  0.438551  0.250021  1
  Al  Al25  1  0.122965  0.560875  0.749903  1
  Al  Al26  1  0.560666  0.438551  0.250021  1
  Al  Al27  1  0.437911  0.560875  0.749903  1
  Al  Al28  1  0.002771  0.005543  0.248622  1
  Al  Al29  1  0.999420  0.998839  0.751712  1
  Os  Os30  1  0.499830  0.999659  0.000089  1
  Os  Os31  1  0.000724  0.499362  0.000881  1
  Os  Os32  1  0.499860  0.999719  0.499969  1
  Os  Os33  1  0.498639  0.499362  0.000881  1
  Os  Os34  1  0.000748  0.499339  0.499015  1
  Os  Os35  1  0.498591  0.499339  0.499015  1
  Os  Os36  1  0.999650  0.999300  0.500087  1
  Ru  Ru37  1  0.999621  0.999242  0.000003  1
