# generated using pymatgen
data_NaPr(CN2)2
_symmetry_space_group_name_H-M   'P 1'
_cell_length_a   6.64316900
_cell_length_b   7.66230900
_cell_length_c   10.11627700
_cell_angle_alpha   90.00000000
_cell_angle_beta   90.00000000
_cell_angle_gamma   90.00000000
_symmetry_Int_Tables_number   1
_chemical_formula_structural   NaPr(CN2)2
_chemical_formula_sum   'Na4 Pr4 C8 N16'
_cell_volume   514.93886961
_cell_formula_units_Z   4
loop_
 _symmetry_equiv_pos_site_id
 _symmetry_equiv_pos_as_xyz
  1  'x, y, z'
loop_
 _atom_site_type_symbol
 _atom_site_label
 _atom_site_symmetry_multiplicity
 _atom_site_fract_x
 _atom_site_fract_y
 _atom_site_fract_z
 _atom_site_occupancy
  Na  Na0  1  0.250000  0.623770  0.000000  1
  Na  Na1  1  0.750000  0.876230  0.500000  1
  Na  Na2  1  0.750000  0.376230  0.000000  1
  Na  Na3  1  0.250000  0.123770  0.500000  1
  Pr  Pr4  1  0.250000  0.139628  0.000000  1
  Pr  Pr5  1  0.750000  0.360372  0.500000  1
  Pr  Pr6  1  0.750000  0.860372  0.000000  1
  Pr  Pr7  1  0.250000  0.639628  0.500000  1
  C  C8  1  0.918567  0.115194  0.248073  1
  C  C9  1  0.418567  0.384806  0.251927  1
  C  C10  1  0.081433  0.384806  0.748073  1
  C  C11  1  0.581433  0.115194  0.751927  1
  C  C12  1  0.081433  0.884806  0.751927  1
  C  C13  1  0.581433  0.615194  0.748073  1
  C  C14  1  0.918567  0.615194  0.251927  1
  C  C15  1  0.418567  0.884806  0.248073  1
  N  N16  1  0.929886  0.101252  0.125488  1
  N  N17  1  0.429886  0.398748  0.374512  1
  N  N18  1  0.070114  0.398748  0.625488  1
  N  N19  1  0.570114  0.101252  0.874512  1
  N  N20  1  0.070114  0.898748  0.874512  1
  N  N21  1  0.570114  0.601252  0.625488  1
  N  N22  1  0.929886  0.601252  0.374512  1
  N  N23  1  0.429886  0.898748  0.125488  1
  N  N24  1  0.407641  0.371763  0.131336  1
  N  N25  1  0.907641  0.128237  0.368664  1
  N  N26  1  0.592359  0.128237  0.631336  1
  N  N27  1  0.092359  0.371763  0.868664  1
  N  N28  1  0.592359  0.628237  0.868664  1
  N  N29  1  0.092359  0.871763  0.631336  1
  N  N30  1  0.407641  0.871763  0.368664  1
  N  N31  1  0.907641  0.628237  0.131336  1
