# generated using pymatgen
data_Y3Tm17(Cd3Co)2
_symmetry_space_group_name_H-M   'P 1'
_cell_length_a   9.49437800
_cell_length_b   9.49437840
_cell_length_c   9.61122300
_cell_angle_alpha   90.00000000
_cell_angle_beta   90.00000000
_cell_angle_gamma   119.99999862
_symmetry_Int_Tables_number   1
_chemical_formula_structural   Y3Tm17(Cd3Co)2
_chemical_formula_sum   'Y3 Tm17 Cd6 Co2'
_cell_volume   750.31278454
_cell_formula_units_Z   1
loop_
 _symmetry_equiv_pos_site_id
 _symmetry_equiv_pos_as_xyz
  1  'x, y, z'
loop_
 _atom_site_type_symbol
 _atom_site_label
 _atom_site_symmetry_multiplicity
 _atom_site_fract_x
 _atom_site_fract_y
 _atom_site_fract_z
 _atom_site_occupancy
  Y  Y0  1  0.458564  0.541436  0.750000  1
  Y  Y1  1  0.458564  0.917128  0.750000  1
  Y  Y2  1  0.082872  0.541436  0.750000  1
  Tm  Tm3  1  0.000000  0.000000  0.499769  1
  Tm  Tm4  1  0.000000  0.000000  0.000231  1
  Tm  Tm5  1  0.542308  0.457692  0.250000  1
  Tm  Tm6  1  0.542308  0.084616  0.250000  1
  Tm  Tm7  1  0.915384  0.457692  0.250000  1
  Tm  Tm8  1  0.211833  0.788167  0.435186  1
  Tm  Tm9  1  0.211833  0.423668  0.435186  1
  Tm  Tm10  1  0.576332  0.788167  0.435186  1
  Tm  Tm11  1  0.787645  0.212355  0.562320  1
  Tm  Tm12  1  0.787645  0.575288  0.562320  1
  Tm  Tm13  1  0.424712  0.212355  0.562320  1
  Tm  Tm14  1  0.787645  0.212355  0.937680  1
  Tm  Tm15  1  0.787645  0.575288  0.937680  1
  Tm  Tm16  1  0.424712  0.212355  0.937680  1
  Tm  Tm17  1  0.211833  0.788167  0.064814  1
  Tm  Tm18  1  0.211833  0.423668  0.064814  1
  Tm  Tm19  1  0.576332  0.788167  0.064814  1
  Cd  Cd20  1  0.884809  0.115191  0.250000  1
  Cd  Cd21  1  0.884809  0.769618  0.250000  1
  Cd  Cd22  1  0.230382  0.115191  0.250000  1
  Cd  Cd23  1  0.113911  0.886089  0.750000  1
  Cd  Cd24  1  0.113911  0.227822  0.750000  1
  Cd  Cd25  1  0.772178  0.886089  0.750000  1
  Co  Co26  1  0.333333  0.666667  0.250000  1
  Co  Co27  1  0.666667  0.333333  0.750000  1
