# generated using pymatgen
data_Ba2Tb(CuO2)4
_symmetry_space_group_name_H-M   'P 1'
_cell_length_a   13.69552217
_cell_length_b   13.69552184
_cell_length_c   3.85724000
_cell_angle_alpha   90.00000000
_cell_angle_beta   90.00000000
_cell_angle_gamma   163.35495543
_symmetry_Int_Tables_number   1
_chemical_formula_structural   Ba2Tb(CuO2)4
_chemical_formula_sum   'Ba2 Tb1 Cu4 O8'
_cell_volume   207.23832251
_cell_formula_units_Z   1
loop_
 _symmetry_equiv_pos_site_id
 _symmetry_equiv_pos_as_xyz
  1  'x, y, z'
loop_
 _atom_site_type_symbol
 _atom_site_label
 _atom_site_symmetry_multiplicity
 _atom_site_fract_x
 _atom_site_fract_y
 _atom_site_fract_z
 _atom_site_occupancy
  Ba  Ba0  1  0.363886  0.636114  0.500000  1
  Ba  Ba1  1  0.636114  0.363886  0.500000  1
  Tb  Tb2  1  0.500000  0.500000  0.500000  1
  Cu  Cu3  1  0.060236  0.939764  0.000000  1
  Cu  Cu4  1  0.939764  0.060236  0.000000  1
  Cu  Cu5  1  0.213386  0.786614  0.000000  1
  Cu  Cu6  1  0.786614  0.213386  0.000000  1
  O  O7  1  0.145403  0.854597  0.000000  1
  O  O8  1  0.854597  0.145403  0.000000  1
  O  O9  1  0.554010  0.445990  0.000000  1
  O  O10  1  0.445990  0.554010  0.000000  1
  O  O11  1  0.052250  0.947750  0.500000  1
  O  O12  1  0.947750  0.052250  0.500000  1
  O  O13  1  0.717363  0.282637  0.000000  1
  O  O14  1  0.282637  0.717363  0.000000  1
