# generated using pymatgen
data_Tb2Nd4Ho3Er7(CdPt)4
_symmetry_space_group_name_H-M   'P 1'
_cell_length_a   9.70309460
_cell_length_b   9.69576737
_cell_length_c   9.69751300
_cell_angle_alpha   59.99404754
_cell_angle_beta   60.01903034
_cell_angle_gamma   60.37095099
_symmetry_Int_Tables_number   1
_chemical_formula_structural   Tb2Nd4Ho3Er7(CdPt)4
_chemical_formula_sum   'Tb2 Nd4 Ho3 Er7 Cd4 Pt4'
_cell_volume   646.96933595
_cell_formula_units_Z   1
loop_
 _symmetry_equiv_pos_site_id
 _symmetry_equiv_pos_as_xyz
  1  'x, y, z'
loop_
 _atom_site_type_symbol
 _atom_site_label
 _atom_site_symmetry_multiplicity
 _atom_site_fract_x
 _atom_site_fract_y
 _atom_site_fract_z
 _atom_site_occupancy
  Tb  Tb0  1  0.556019  0.556278  0.943851  1
  Tb  Tb1  1  0.942986  0.943731  0.556641  1
  Nd  Nd2  1  0.936042  0.564083  0.565378  1
  Nd  Nd3  1  0.563991  0.935779  0.935177  1
  Nd  Nd4  1  0.563991  0.935779  0.565053  1
  Nd  Nd5  1  0.936042  0.564083  0.934496  1
  Ho  Ho6  1  0.350253  0.350331  0.352338  1
  Ho  Ho7  1  0.350253  0.350331  0.947079  1
  Ho  Ho8  1  0.354704  0.944662  0.350318  1
  Er  Er9  1  0.945754  0.354518  0.349864  1
  Er  Er10  1  0.812318  0.187764  0.188688  1
  Er  Er11  1  0.186998  0.812711  0.811499  1
  Er  Er12  1  0.186998  0.812711  0.188792  1
  Er  Er13  1  0.812318  0.187764  0.811229  1
  Er  Er14  1  0.186932  0.186678  0.813195  1
  Er  Er15  1  0.811818  0.811746  0.188218  1
  Cd  Cd16  1  0.579451  0.579071  0.582583  1
  Cd  Cd17  1  0.579451  0.579071  0.258895  1
  Cd  Cd18  1  0.583319  0.259790  0.578445  1
  Cd  Cd19  1  0.259832  0.582569  0.578799  1
  Pt  Pt20  1  0.141078  0.141920  0.146402  1
  Pt  Pt21  1  0.141078  0.141920  0.570601  1
  Pt  Pt22  1  0.144916  0.571897  0.141593  1
  Pt  Pt23  1  0.573458  0.144812  0.140865  1
