# generated using pymatgen
data_La5Pr(CrC3)4
_symmetry_space_group_name_H-M   'P 1'
_cell_length_a   8.35982597
_cell_length_b   8.35359181
_cell_length_c   5.28989700
_cell_angle_alpha   90.00000000
_cell_angle_beta   90.00000000
_cell_angle_gamma   119.85673852
_symmetry_Int_Tables_number   1
_chemical_formula_structural   La5Pr(CrC3)4
_chemical_formula_sum   'La5 Pr1 Cr4 C12'
_cell_volume   320.38595727
_cell_formula_units_Z   1
loop_
 _symmetry_equiv_pos_site_id
 _symmetry_equiv_pos_as_xyz
  1  'x, y, z'
loop_
 _atom_site_type_symbol
 _atom_site_label
 _atom_site_symmetry_multiplicity
 _atom_site_fract_x
 _atom_site_fract_y
 _atom_site_fract_z
 _atom_site_occupancy
  La  La0  1  0.920734  0.612072  0.250000  1
  La  La1  1  0.690537  0.077939  0.250000  1
  La  La2  1  0.309773  0.921129  0.750000  1
  La  La3  1  0.079159  0.387937  0.750000  1
  La  La4  1  0.388401  0.309420  0.250000  1
  Pr  Pr5  1  0.614430  0.691370  0.750000  1
  Cr  Cr6  1  0.999774  0.999862  0.499831  1
  Cr  Cr7  1  0.999774  0.999862  0.000169  1
  Cr  Cr8  1  0.665975  0.334151  0.750000  1
  Cr  Cr9  1  0.333805  0.666186  0.250000  1
  C  C10  1  0.951891  0.772682  0.750000  1
  C  C11  1  0.178306  0.950712  0.250000  1
  C  C12  1  0.773006  0.821691  0.250000  1
  C  C13  1  0.226920  0.177696  0.750000  1
  C  C14  1  0.819836  0.048418  0.750000  1
  C  C15  1  0.048569  0.227829  0.250000  1
  C  C16  1  0.853893  0.581610  0.750000  1
  C  C17  1  0.273436  0.854233  0.250000  1
  C  C18  1  0.581902  0.724890  0.250000  1
  C  C19  1  0.417935  0.274661  0.750000  1
  C  C20  1  0.145548  0.419058  0.250000  1
  C  C21  1  0.726398  0.146593  0.750000  1
