# generated using pymatgen
data_Ac7ThS12
_symmetry_space_group_name_H-M   'P 1'
_cell_length_a   4.25806300
_cell_length_b   11.16297570
_cell_length_c   11.45461888
_cell_angle_alpha   89.87916888
_cell_angle_beta   90.00000000
_cell_angle_gamma   90.00000000
_symmetry_Int_Tables_number   1
_chemical_formula_structural   Ac7ThS12
_chemical_formula_sum   'Ac7 Th1 S12'
_cell_volume   544.46722290
_cell_formula_units_Z   1
loop_
 _symmetry_equiv_pos_site_id
 _symmetry_equiv_pos_as_xyz
  1  'x, y, z'
loop_
 _atom_site_type_symbol
 _atom_site_label
 _atom_site_symmetry_multiplicity
 _atom_site_fract_x
 _atom_site_fract_y
 _atom_site_fract_z
 _atom_site_occupancy
  Ac  Ac0  1  0.250000  0.005894  0.306984  1
  Ac  Ac1  1  0.750000  0.991741  0.693817  1
  Ac  Ac2  1  0.750000  0.509310  0.188326  1
  Ac  Ac3  1  0.250000  0.496708  0.811780  1
  Ac  Ac4  1  0.250000  0.687139  0.493020  1
  Ac  Ac5  1  0.750000  0.313013  0.508762  1
  Ac  Ac6  1  0.750000  0.185970  0.008152  1
  Th  Th7  1  0.250000  0.813467  0.991811  1
  S  S8  1  0.250000  0.045636  0.884748  1
  S  S9  1  0.750000  0.935939  0.112795  1
  S  S10  1  0.750000  0.556146  0.622226  1
  S  S11  1  0.250000  0.448633  0.376791  1
  S  S12  1  0.250000  0.124854  0.548349  1
  S  S13  1  0.750000  0.872181  0.451916  1
  S  S14  1  0.750000  0.641297  0.952730  1
  S  S15  1  0.250000  0.375518  0.047438  1
  S  S16  1  0.250000  0.706363  0.218247  1
  S  S17  1  0.750000  0.298110  0.772643  1
  S  S18  1  0.750000  0.197633  0.269665  1
  S  S19  1  0.250000  0.794447  0.739800  1
