# generated using pymatgen
data_Be4Fe2W6C
_symmetry_space_group_name_H-M   'P 1'
_cell_length_a   7.56349541
_cell_length_b   7.56349543
_cell_length_c   7.56349500
_cell_angle_alpha   59.99999749
_cell_angle_beta   59.99999743
_cell_angle_gamma   59.99999834
_symmetry_Int_Tables_number   1
_chemical_formula_structural   Be4Fe2W6C
_chemical_formula_sum   'Be8 Fe4 W12 C2'
_cell_volume   305.95150976
_cell_formula_units_Z   2
loop_
 _symmetry_equiv_pos_site_id
 _symmetry_equiv_pos_as_xyz
  1  'x, y, z'
loop_
 _atom_site_type_symbol
 _atom_site_label
 _atom_site_symmetry_multiplicity
 _atom_site_fract_x
 _atom_site_fract_y
 _atom_site_fract_z
 _atom_site_occupancy
  Be  Be0  1  0.921076  0.236773  0.921076  1
  Be  Be1  1  0.328924  0.013227  0.328924  1
  Be  Be2  1  0.328924  0.328924  0.328924  1
  Be  Be3  1  0.013227  0.328924  0.328924  1
  Be  Be4  1  0.921076  0.921076  0.236773  1
  Be  Be5  1  0.236773  0.921076  0.921076  1
  Be  Be6  1  0.328924  0.328924  0.013227  1
  Be  Be7  1  0.921076  0.921076  0.921076  1
  Fe  Fe8  1  0.125000  0.125000  0.625000  1
  Fe  Fe9  1  0.125000  0.625000  0.125000  1
  Fe  Fe10  1  0.125000  0.125000  0.125000  1
  Fe  Fe11  1  0.625000  0.125000  0.125000  1
  W  W12  1  0.298452  0.701548  0.701548  1
  W  W13  1  0.298452  0.298452  0.701548  1
  W  W14  1  0.548452  0.951548  0.548452  1
  W  W15  1  0.951548  0.548452  0.548452  1
  W  W16  1  0.548452  0.951548  0.951548  1
  W  W17  1  0.701548  0.298452  0.298452  1
  W  W18  1  0.951548  0.548452  0.951548  1
  W  W19  1  0.298452  0.701548  0.298452  1
  W  W20  1  0.548452  0.548452  0.951548  1
  W  W21  1  0.701548  0.298452  0.701548  1
  W  W22  1  0.701548  0.701548  0.298452  1
  W  W23  1  0.951548  0.951548  0.548452  1
  C  C24  1  0.750000  0.750000  0.750000  1
  C  C25  1  0.500000  0.500000  0.500000  1
