# generated using pymatgen
data_SmLu2BiO7
_symmetry_space_group_name_H-M   'P 1'
_cell_length_a   6.52902767
_cell_length_b   6.50814546
_cell_length_c   7.63312047
_cell_angle_alpha   106.98912193
_cell_angle_beta   89.91591086
_cell_angle_gamma   99.37308018
_symmetry_Int_Tables_number   1
_chemical_formula_structural   SmLu2BiO7
_chemical_formula_sum   'Sm2 Lu4 Bi2 O14'
_cell_volume   305.68393898
_cell_formula_units_Z   2
loop_
 _symmetry_equiv_pos_site_id
 _symmetry_equiv_pos_as_xyz
  1  'x, y, z'
loop_
 _atom_site_type_symbol
 _atom_site_label
 _atom_site_symmetry_multiplicity
 _atom_site_fract_x
 _atom_site_fract_y
 _atom_site_fract_z
 _atom_site_occupancy
  Sm  Sm0  1  0.737585  0.479426  0.618605  1
  Sm  Sm1  1  0.262415  0.520574  0.381395  1
  Lu  Lu2  1  0.465776  0.006525  0.249710  1
  Lu  Lu3  1  0.534224  0.993475  0.750290  1
  Lu  Lu4  1  0.277013  0.538574  0.885630  1
  Lu  Lu5  1  0.722987  0.461426  0.114370  1
  Bi  Bi6  1  0.000000  0.000000  0.500000  1
  Bi  Bi7  1  0.000000  0.000000  0.000000  1
  O  O8  1  0.455897  0.656485  0.159814  1
  O  O9  1  0.544103  0.343515  0.840186  1
  O  O10  1  0.303026  0.920782  0.951363  1
  O  O11  1  0.696974  0.079218  0.048637  1
  O  O12  1  0.302784  0.930306  0.514757  1
  O  O13  1  0.697216  0.069694  0.485243  1
  O  O14  1  0.546840  0.358013  0.335259  1
  O  O15  1  0.453160  0.641987  0.664741  1
  O  O16  1  0.925288  0.661759  0.960638  1
  O  O17  1  0.074712  0.338241  0.039362  1
  O  O18  1  0.076509  0.349593  0.627362  1
  O  O19  1  0.923491  0.650407  0.372638  1
  O  O20  1  0.866565  0.901197  0.724440  1
  O  O21  1  0.133435  0.098803  0.275560  1
