# generated using pymatgen
data_SrMn(As4Os)3
_symmetry_space_group_name_H-M   'P 1'
_cell_length_a   7.49911556
_cell_length_b   7.50665224
_cell_length_c   7.49911513
_cell_angle_alpha   109.49156806
_cell_angle_beta   109.45085310
_cell_angle_gamma   109.49159284
_symmetry_Int_Tables_number   1
_chemical_formula_structural   SrMn(As4Os)3
_chemical_formula_sum   'Sr1 Mn1 As12 Os3'
_cell_volume   324.88920960
_cell_formula_units_Z   1
loop_
 _symmetry_equiv_pos_site_id
 _symmetry_equiv_pos_as_xyz
  1  'x, y, z'
loop_
 _atom_site_type_symbol
 _atom_site_label
 _atom_site_symmetry_multiplicity
 _atom_site_fract_x
 _atom_site_fract_y
 _atom_site_fract_z
 _atom_site_occupancy
  Sr  Sr0  1  0.000000  0.000000  0.000000  1
  Mn  Mn1  1  0.000000  0.500000  0.000000  1
  As  As2  1  0.347805  0.197728  0.850373  1
  As  As3  1  0.652195  0.802272  0.149627  1
  As  As4  1  0.649168  0.502382  0.850076  1
  As  As5  1  0.350832  0.497618  0.149924  1
  As  As6  1  0.200908  0.853213  0.350832  1
  As  As7  1  0.799092  0.146787  0.649168  1
  As  As8  1  0.502569  0.849924  0.652195  1
  As  As9  1  0.497431  0.150076  0.347805  1
  As  As10  1  0.850076  0.347694  0.200908  1
  As  As11  1  0.149924  0.652306  0.799092  1
  As  As12  1  0.850373  0.652645  0.502569  1
  As  As13  1  0.149627  0.347355  0.497431  1
  Os  Os14  1  0.000000  0.000000  0.500000  1
  Os  Os15  1  0.500000  0.000000  0.000000  1
  Os  Os16  1  0.500000  0.500000  0.500000  1
