# generated using pymatgen
data_KTe12Rh2I5
_symmetry_space_group_name_H-M   'P 1'
_cell_length_a   10.17825121
_cell_length_b   10.17825046
_cell_length_c   10.08949421
_cell_angle_alpha   109.19106738
_cell_angle_beta   109.19106359
_cell_angle_gamma   111.04652539
_symmetry_Int_Tables_number   1
_chemical_formula_structural   KTe12Rh2I5
_chemical_formula_sum   'K1 Te12 Rh2 I5'
_cell_volume   794.17821842
_cell_formula_units_Z   1
loop_
 _symmetry_equiv_pos_site_id
 _symmetry_equiv_pos_as_xyz
  1  'x, y, z'
loop_
 _atom_site_type_symbol
 _atom_site_label
 _atom_site_symmetry_multiplicity
 _atom_site_fract_x
 _atom_site_fract_y
 _atom_site_fract_z
 _atom_site_occupancy
  K  K0  1  0.924462  0.575538  0.250000  1
  Te  Te1  1  0.972644  0.199813  0.195554  1
  Te  Te2  1  0.177028  0.928906  0.154484  1
  Te  Te3  1  0.177851  0.182460  0.945220  1
  Te  Te4  1  0.684661  0.671239  0.443343  1
  Te  Te5  1  0.433943  0.664273  0.657474  1
  Te  Te6  1  0.666798  0.445923  0.686788  1
  Te  Te7  1  0.054077  0.833202  0.813212  1
  Te  Te8  1  0.835727  0.066057  0.842526  1
  Te  Te9  1  0.828761  0.815339  0.056657  1
  Te  Te10  1  0.317540  0.322149  0.554780  1
  Te  Te11  1  0.571094  0.322972  0.345516  1
  Te  Te12  1  0.300187  0.527356  0.304446  1
  Rh  Rh13  1  0.260499  0.239501  0.250000  1
  Rh  Rh14  1  0.749115  0.750885  0.750000  1
  I  I15  1  0.255127  0.972463  0.506158  1
  I  I16  1  0.527537  0.244873  0.993842  1
  I  I17  1  0.773510  0.015580  0.498280  1
  I  I18  1  0.484420  0.726490  0.001720  1
  I  I19  1  0.005018  0.494982  0.750000  1
