# generated using pymatgen
data_Ta12Al8Co3WC4
_symmetry_space_group_name_H-M   'P 1'
_cell_length_a   8.27601121
_cell_length_b   8.27601196
_cell_length_c   8.23056700
_cell_angle_alpha   119.81852332
_cell_angle_beta   90.00000000
_cell_angle_gamma   120.36295693
_symmetry_Int_Tables_number   1
_chemical_formula_structural   Ta12Al8Co3WC4
_chemical_formula_sum   'Ta12 Al8 Co3 W1 C4'
_cell_volume   397.51311217
_cell_formula_units_Z   1
loop_
 _symmetry_equiv_pos_site_id
 _symmetry_equiv_pos_as_xyz
  1  'x, y, z'
loop_
 _atom_site_type_symbol
 _atom_site_label
 _atom_site_symmetry_multiplicity
 _atom_site_fract_x
 _atom_site_fract_y
 _atom_site_fract_z
 _atom_site_occupancy
  Ta  Ta0  1  0.436006  0.749738  0.063994  1
  Ta  Ta1  1  0.819181  0.757908  0.077089  1
  Ta  Ta2  1  0.814258  0.127988  0.063994  1
  Ta  Ta3  1  0.563994  0.250264  0.314258  1
  Ta  Ta4  1  0.577089  0.638362  0.319181  1
  Ta  Ta5  1  0.180820  0.242094  0.319182  1
  Ta  Ta6  1  0.436006  0.749738  0.685743  1
  Ta  Ta7  1  0.819181  0.757908  0.680820  1
  Ta  Ta8  1  0.422911  0.361637  0.680820  1
  Ta  Ta9  1  0.563994  0.250264  0.936007  1
  Ta  Ta10  1  0.180820  0.242094  0.922913  1
  Ta  Ta11  1  0.185743  0.872014  0.936008  1
  Al  Al12  1  0.209888  0.580223  0.290112  1
  Al  Al13  1  0.879305  0.571739  0.285870  1
  Al  Al14  1  0.214130  0.906564  0.285870  1
  Al  Al15  1  0.785870  0.093436  0.379306  1
  Al  Al16  1  0.214130  0.906564  0.620694  1
  Al  Al17  1  0.120694  0.428260  0.714130  1
  Al  Al18  1  0.785870  0.093436  0.714130  1
  Al  Al19  1  0.790112  0.419776  0.709889  1
  Co  Co20  1  0.000000  0.500000  0.000000  1
  Co  Co21  1  0.500000  0.000000  0.500000  1
  Co  Co22  1  0.000000  0.500000  0.500000  1
  W  W23  1  0.000000  0.000000  0.500000  1
  C  C24  1  0.000000  0.000000  0.000000  1
  C  C25  1  0.500000  0.000000  0.000000  1
  C  C26  1  0.500000  0.500000  0.000000  1
  C  C27  1  0.500000  0.500000  0.500000  1
