# generated using pymatgen
data_Dy3Zr3Sn6(Ir2Rh)2
_symmetry_space_group_name_H-M   'P 1'
_cell_length_a   7.49164100
_cell_length_b   7.49164088
_cell_length_c   7.56211000
_cell_angle_alpha   90.00000000
_cell_angle_beta   90.00000000
_cell_angle_gamma   120.00000493
_symmetry_Int_Tables_number   1
_chemical_formula_structural   Dy3Zr3Sn6(Ir2Rh)2
_chemical_formula_sum   'Dy3 Zr3 Sn6 Ir4 Rh2'
_cell_volume   367.55937926
_cell_formula_units_Z   1
loop_
 _symmetry_equiv_pos_site_id
 _symmetry_equiv_pos_as_xyz
  1  'x, y, z'
loop_
 _atom_site_type_symbol
 _atom_site_label
 _atom_site_symmetry_multiplicity
 _atom_site_fract_x
 _atom_site_fract_y
 _atom_site_fract_z
 _atom_site_occupancy
  Dy  Dy0  1  0.408256  0.999874  0.250000  1
  Dy  Dy1  1  0.591619  0.591744  0.250000  1
  Dy  Dy2  1  0.000126  0.408381  0.250000  1
  Zr  Zr3  1  0.603798  0.604251  0.750000  1
  Zr  Zr4  1  0.000454  0.396202  0.750000  1
  Zr  Zr5  1  0.395749  0.999546  0.750000  1
  Sn  Sn6  1  0.265050  0.264557  0.505958  1
  Sn  Sn7  1  0.265050  0.264557  0.994042  1
  Sn  Sn8  1  0.735443  0.000494  0.994042  1
  Sn  Sn9  1  0.999506  0.734950  0.505958  1
  Sn  Sn10  1  0.735443  0.000494  0.505958  1
  Sn  Sn11  1  0.999506  0.734950  0.994042  1
  Ir  Ir12  1  0.666667  0.333333  0.532552  1
  Ir  Ir13  1  0.666667  0.333333  0.967448  1
  Ir  Ir14  1  0.333333  0.666667  0.968235  1
  Ir  Ir15  1  0.333333  0.666667  0.531765  1
  Rh  Rh16  1  0.000000  0.000000  0.750000  1
  Rh  Rh17  1  0.000000  0.000000  0.250000  1
