# generated using pymatgen
data_La4HoIn3Br
_symmetry_space_group_name_H-M   'P 1'
_cell_length_a   9.70530400
_cell_length_b   9.70530416
_cell_length_c   6.89597000
_cell_angle_alpha   90.00000000
_cell_angle_beta   90.00000000
_cell_angle_gamma   119.99999946
_symmetry_Int_Tables_number   1
_chemical_formula_structural   La4HoIn3Br
_chemical_formula_sum   'La8 Ho2 In6 Br2'
_cell_volume   562.52819041
_cell_formula_units_Z   2
loop_
 _symmetry_equiv_pos_site_id
 _symmetry_equiv_pos_as_xyz
  1  'x, y, z'
loop_
 _atom_site_type_symbol
 _atom_site_label
 _atom_site_symmetry_multiplicity
 _atom_site_fract_x
 _atom_site_fract_y
 _atom_site_fract_z
 _atom_site_occupancy
  La  La0  1  0.733205  0.733205  0.252019  1
  La  La1  1  0.000000  0.733205  0.747981  1
  La  La2  1  0.733205  0.000000  0.747981  1
  La  La3  1  0.266795  0.266795  0.747981  1
  La  La4  1  0.000000  0.266795  0.252019  1
  La  La5  1  0.266795  0.000000  0.252019  1
  La  La6  1  0.333333  0.666667  0.000000  1
  La  La7  1  0.666667  0.333333  0.000000  1
  Ho  Ho8  1  0.333333  0.666667  0.500000  1
  Ho  Ho9  1  0.666667  0.333333  0.500000  1
  In  In10  1  0.392996  0.000000  0.746502  1
  In  In11  1  0.000000  0.607004  0.253498  1
  In  In12  1  0.607004  0.000000  0.253498  1
  In  In13  1  0.000000  0.392996  0.746502  1
  In  In14  1  0.392996  0.392996  0.253498  1
  In  In15  1  0.607004  0.607004  0.746502  1
  Br  Br16  1  0.000000  0.000000  0.500000  1
  Br  Br17  1  0.000000  0.000000  0.000000  1
