# generated using pymatgen
data_SrTb5SmCoI12
_symmetry_space_group_name_H-M   'P 1'
_cell_length_a   9.86026807
_cell_length_b   9.86988274
_cell_length_c   9.75539249
_cell_angle_alpha   106.54234807
_cell_angle_beta   106.05538612
_cell_angle_gamma   106.24701063
_symmetry_Int_Tables_number   1
_chemical_formula_structural   SrTb5SmCoI12
_chemical_formula_sum   'Sr1 Tb5 Sm1 Co1 I12'
_cell_volume   805.64414203
_cell_formula_units_Z   1
loop_
 _symmetry_equiv_pos_site_id
 _symmetry_equiv_pos_as_xyz
  1  'x, y, z'
loop_
 _atom_site_type_symbol
 _atom_site_label
 _atom_site_symmetry_multiplicity
 _atom_site_fract_x
 _atom_site_fract_y
 _atom_site_fract_z
 _atom_site_occupancy
  Sr  Sr0  1  0.500006  0.499935  0.499861  1
  Tb  Tb1  1  0.093259  0.292903  0.019386  1
  Tb  Tb2  1  0.292719  0.019958  0.092233  1
  Tb  Tb3  1  0.980903  0.911181  0.720878  1
  Tb  Tb4  1  0.906765  0.706876  0.980179  1
  Tb  Tb5  1  0.707145  0.979670  0.906454  1
  Sm  Sm6  1  0.019095  0.089828  0.282892  1
  Co  Co7  1  0.999776  0.999940  0.000070  1
  I  I8  1  0.137489  0.450886  0.368293  1
  I  I9  1  0.447663  0.367221  0.134596  1
  I  I10  1  0.370239  0.136715  0.448893  1
  I  I11  1  0.864385  0.553275  0.631761  1
  I  I12  1  0.552237  0.632813  0.865155  1
  I  I13  1  0.633573  0.863650  0.551546  1
  I  I14  1  0.675446  0.073077  0.222425  1
  I  I15  1  0.072709  0.221440  0.679155  1
  I  I16  1  0.222725  0.678104  0.073041  1
  I  I17  1  0.320320  0.926022  0.775044  1
  I  I18  1  0.926295  0.774622  0.321399  1
  I  I19  1  0.777252  0.321885  0.926739  1
