# generated using pymatgen
data_Eu4Ta2CrSnO14
_symmetry_space_group_name_H-M   'P 1'
_cell_length_a   7.48351155
_cell_length_b   7.44508134
_cell_length_c   7.52914700
_cell_angle_alpha   59.62577850
_cell_angle_beta   59.79807394
_cell_angle_gamma   59.30491411
_symmetry_Int_Tables_number   1
_chemical_formula_structural   Eu4Ta2CrSnO14
_chemical_formula_sum   'Eu4 Ta2 Cr1 Sn1 O14'
_cell_volume   293.75496989
_cell_formula_units_Z   1
loop_
 _symmetry_equiv_pos_site_id
 _symmetry_equiv_pos_as_xyz
  1  'x, y, z'
loop_
 _atom_site_type_symbol
 _atom_site_label
 _atom_site_symmetry_multiplicity
 _atom_site_fract_x
 _atom_site_fract_y
 _atom_site_fract_z
 _atom_site_occupancy
  Eu  Eu0  1  0.125000  0.125000  0.125000  1
  Eu  Eu1  1  0.625000  0.125000  0.125000  1
  Eu  Eu2  1  0.125000  0.625000  0.125000  1
  Eu  Eu3  1  0.125000  0.125000  0.625000  1
  Ta  Ta4  1  0.625000  0.625000  0.625000  1
  Ta  Ta5  1  0.625000  0.625000  0.125000  1
  Cr  Cr6  1  0.625000  0.125000  0.625000  1
  Sn  Sn7  1  0.125000  0.625000  0.625000  1
  O  O8  1  0.948596  0.547618  0.961157  1
  O  O9  1  0.694440  0.305076  0.299059  1
  O  O10  1  0.301404  0.702382  0.707373  1
  O  O11  1  0.694440  0.305076  0.701425  1
  O  O12  1  0.291896  0.287407  0.710349  1
  O  O13  1  0.689695  0.697666  0.306320  1
  O  O14  1  0.958104  0.962593  0.539651  1
  O  O15  1  0.555560  0.944924  0.950941  1
  O  O16  1  0.948596  0.547618  0.542627  1
  O  O17  1  0.560305  0.552334  0.943680  1
  O  O18  1  0.301404  0.702382  0.288843  1
  O  O19  1  0.555560  0.944924  0.548575  1
  O  O20  1  0.997494  0.999556  0.001475  1
  O  O21  1  0.252506  0.250444  0.248525  1
