# generated using pymatgen
data_Pm2Sb2IrO12
_symmetry_space_group_name_H-M   'P 1'
_cell_length_a   6.92583097
_cell_length_b   6.92583213
_cell_length_c   11.50496300
_cell_angle_alpha   79.02357166
_cell_angle_beta   79.02356980
_cell_angle_gamma   112.24504929
_symmetry_Int_Tables_number   1
_chemical_formula_structural   Pm2Sb2IrO12
_chemical_formula_sum   'Pm4 Sb4 Ir2 O24'
_cell_volume   480.06388125
_cell_formula_units_Z   2
loop_
 _symmetry_equiv_pos_site_id
 _symmetry_equiv_pos_as_xyz
  1  'x, y, z'
loop_
 _atom_site_type_symbol
 _atom_site_label
 _atom_site_symmetry_multiplicity
 _atom_site_fract_x
 _atom_site_fract_y
 _atom_site_fract_z
 _atom_site_occupancy
  Pm  Pm0  1  0.170831  0.449063  0.598016  1
  Pm  Pm1  1  0.829169  0.550937  0.401984  1
  Pm  Pm2  1  0.550937  0.829169  0.901984  1
  Pm  Pm3  1  0.449063  0.170831  0.098016  1
  Sb  Sb4  1  0.022349  0.304940  0.954383  1
  Sb  Sb5  1  0.977651  0.695060  0.045617  1
  Sb  Sb6  1  0.695060  0.977651  0.545617  1
  Sb  Sb7  1  0.304940  0.022349  0.454383  1
  Ir  Ir8  1  0.567936  0.432064  0.750000  1
  Ir  Ir9  1  0.432064  0.567936  0.250000  1
  O  O10  1  0.538856  0.473135  0.595967  1
  O  O11  1  0.461144  0.526865  0.404033  1
  O  O12  1  0.526865  0.461144  0.904033  1
  O  O13  1  0.473135  0.538856  0.095967  1
  O  O14  1  0.491277  0.142338  0.789363  1
  O  O15  1  0.508723  0.857662  0.210637  1
  O  O16  1  0.857662  0.508723  0.710637  1
  O  O17  1  0.142338  0.491277  0.289363  1
  O  O18  1  0.736942  0.160305  0.934500  1
  O  O19  1  0.263058  0.839695  0.065500  1
  O  O20  1  0.839695  0.263058  0.565500  1
  O  O21  1  0.160305  0.736942  0.434500  1
  O  O22  1  0.373528  0.833051  0.591100  1
  O  O23  1  0.626472  0.166949  0.408900  1
  O  O24  1  0.166949  0.626472  0.908900  1
  O  O25  1  0.833051  0.373528  0.091100  1
  O  O26  1  0.218445  0.342423  0.790817  1
  O  O27  1  0.781555  0.657577  0.209183  1
  O  O28  1  0.657577  0.781555  0.709183  1
  O  O29  1  0.342423  0.218445  0.290817  1
  O  O30  1  0.873645  0.839989  0.934921  1
  O  O31  1  0.126355  0.160011  0.065079  1
  O  O32  1  0.160011  0.126355  0.565079  1
  O  O33  1  0.839989  0.873645  0.434921  1
