# generated using pymatgen
data_CaTb2Y5(B6Ru)4
_symmetry_space_group_name_H-M   'P 1'
_cell_length_a   3.67174600
_cell_length_b   9.17265290
_cell_length_c   11.56366603
_cell_angle_alpha   89.89101868
_cell_angle_beta   90.00000000
_cell_angle_gamma   90.00000000
_symmetry_Int_Tables_number   1
_chemical_formula_structural   CaTb2Y5(B6Ru)4
_chemical_formula_sum   'Ca1 Tb2 Y5 B24 Ru4'
_cell_volume   389.45953838
_cell_formula_units_Z   1
loop_
 _symmetry_equiv_pos_site_id
 _symmetry_equiv_pos_as_xyz
  1  'x, y, z'
loop_
 _atom_site_type_symbol
 _atom_site_label
 _atom_site_symmetry_multiplicity
 _atom_site_fract_x
 _atom_site_fract_y
 _atom_site_fract_z
 _atom_site_occupancy
  Ca  Ca0  1  0.000000  0.323159  0.413724  1
  Tb  Tb1  1  0.000000  0.675326  0.585169  1
  Tb  Tb2  1  0.000000  0.823171  0.086548  1
  Y  Y3  1  0.000000  0.177505  0.914389  1
  Y  Y4  1  0.000000  0.943944  0.371389  1
  Y  Y5  1  0.000000  0.058010  0.627883  1
  Y  Y6  1  0.000000  0.442889  0.129379  1
  Y  Y7  1  0.000000  0.556162  0.872388  1
  B  B8  1  0.500000  0.554268  0.432370  1
  B  B9  1  0.500000  0.446146  0.567847  1
  B  B10  1  0.500000  0.053265  0.066833  1
  B  B11  1  0.500000  0.945912  0.932235  1
  B  B12  1  0.500000  0.747668  0.419135  1
  B  B13  1  0.500000  0.252902  0.581157  1
  B  B14  1  0.500000  0.246871  0.080416  1
  B  B15  1  0.500000  0.752520  0.919503  1
  B  B16  1  0.500000  0.790937  0.266378  1
  B  B17  1  0.500000  0.210119  0.733877  1
  B  B18  1  0.500000  0.289391  0.233020  1
  B  B19  1  0.500000  0.709795  0.766633  1
  B  B20  1  0.500000  0.632255  0.186272  1
  B  B21  1  0.500000  0.368236  0.814762  1
  B  B22  1  0.500000  0.131188  0.313437  1
  B  B23  1  0.500000  0.868409  0.685600  1
  B  B24  1  0.500000  0.983662  0.211792  1
  B  B25  1  0.500000  0.016321  0.787354  1
  B  B26  1  0.500000  0.484425  0.287694  1
  B  B27  1  0.500000  0.516102  0.712735  1
  B  B28  1  0.500000  0.609275  0.030512  1
  B  B29  1  0.500000  0.390676  0.970132  1
  B  B30  1  0.500000  0.105485  0.470646  1
  B  B31  1  0.500000  0.893462  0.529528  1
  Ru  Ru32  1  0.000000  0.639711  0.320516  1
  Ru  Ru33  1  0.000000  0.362197  0.680484  1
  Ru  Ru34  1  0.000000  0.136345  0.177119  1
  Ru  Ru35  1  0.000000  0.862291  0.821151  1
