# generated using pymatgen
data_La(InPt)2
_symmetry_space_group_name_H-M   'P 1'
_cell_length_a   4.47321900
_cell_length_b   10.52173327
_cell_length_c   10.51553171
_cell_angle_alpha   62.76873785
_cell_angle_beta   90.00000000
_cell_angle_gamma   90.00000000
_symmetry_Int_Tables_number   1
_chemical_formula_structural   La(InPt)2
_chemical_formula_sum   'La4 In8 Pt8'
_cell_volume   440.07018125
_cell_formula_units_Z   4
loop_
 _symmetry_equiv_pos_site_id
 _symmetry_equiv_pos_as_xyz
  1  'x, y, z'
loop_
 _atom_site_type_symbol
 _atom_site_label
 _atom_site_symmetry_multiplicity
 _atom_site_fract_x
 _atom_site_fract_y
 _atom_site_fract_z
 _atom_site_occupancy
  La  La0  1  0.750000  0.400784  0.292833  1
  La  La1  1  0.750000  0.044508  0.207520  1
  La  La2  1  0.250000  0.599216  0.707167  1
  La  La3  1  0.250000  0.955492  0.792480  1
  In  In4  1  0.750000  0.882305  0.574303  1
  In  In5  1  0.250000  0.593451  0.040673  1
  In  In6  1  0.750000  0.406549  0.959327  1
  In  In7  1  0.750000  0.643874  0.445837  1
  In  In8  1  0.250000  0.117695  0.425697  1
  In  In9  1  0.750000  0.773288  0.099332  1
  In  In10  1  0.250000  0.356126  0.554163  1
  In  In11  1  0.250000  0.226712  0.900668  1
  Pt  Pt12  1  0.750000  0.375058  0.704999  1
  Pt  Pt13  1  0.250000  0.624942  0.295001  1
  Pt  Pt14  1  0.750000  0.157731  0.579605  1
  Pt  Pt15  1  0.750000  0.704684  0.865069  1
  Pt  Pt16  1  0.250000  0.842269  0.420395  1
  Pt  Pt17  1  0.250000  0.295316  0.134931  1
  Pt  Pt18  1  0.750000  0.073145  0.900535  1
  Pt  Pt19  1  0.250000  0.926855  0.099465  1
