# generated using pymatgen
data_Nd2Y17TmSn16
_symmetry_space_group_name_H-M   'P 1'
_cell_length_a   8.13404358
_cell_length_b   8.25532401
_cell_length_c   15.60765600
_cell_angle_alpha   90.00233200
_cell_angle_beta   89.07213062
_cell_angle_gamma   90.00031535
_symmetry_Int_Tables_number   1
_chemical_formula_structural   Nd2Y17TmSn16
_chemical_formula_sum   'Nd2 Y17 Tm1 Sn16'
_cell_volume   1047.90364602
_cell_formula_units_Z   1
loop_
 _symmetry_equiv_pos_site_id
 _symmetry_equiv_pos_as_xyz
  1  'x, y, z'
loop_
 _atom_site_type_symbol
 _atom_site_label
 _atom_site_symmetry_multiplicity
 _atom_site_fract_x
 _atom_site_fract_y
 _atom_site_fract_z
 _atom_site_occupancy
  Nd  Nd0  1  0.983172  0.821982  0.596462  1
  Nd  Nd1  1  0.516722  0.321767  0.403521  1
  Y  Y2  1  0.368591  0.838761  0.121520  1
  Y  Y3  1  0.136649  0.337894  0.624454  1
  Y  Y4  1  0.475136  0.677365  0.903311  1
  Y  Y5  1  0.870350  0.661128  0.121877  1
  Y  Y6  1  0.131363  0.338697  0.878500  1
  Y  Y7  1  0.198292  0.503024  0.248621  1
  Y  Y8  1  0.698106  0.997452  0.248264  1
  Y  Y9  1  0.479959  0.678929  0.596981  1
  Y  Y10  1  0.301568  0.003227  0.751557  1
  Y  Y11  1  0.638270  0.161529  0.624612  1
  Y  Y12  1  0.802174  0.497296  0.751851  1
  Y  Y13  1  0.861684  0.661342  0.375417  1
  Y  Y14  1  0.024833  0.177349  0.096546  1
  Y  Y15  1  0.973030  0.821653  0.900822  1
  Y  Y16  1  0.629693  0.161178  0.878126  1
  Y  Y17  1  0.526927  0.321634  0.099177  1
  Y  Y18  1  0.362989  0.838293  0.375354  1
  Tm  Tm19  1  0.020112  0.179068  0.402840  1
  Sn  Sn20  1  0.798900  0.462061  0.542460  1
  Sn  Sn21  1  0.702291  0.962952  0.457326  1
  Sn  Sn22  1  0.664224  0.849240  0.750564  1
  Sn  Sn23  1  0.197650  0.541383  0.459687  1
  Sn  Sn24  1  0.288279  0.033507  0.957882  1
  Sn  Sn25  1  0.836443  0.348561  0.249952  1
  Sn  Sn26  1  0.789550  0.464109  0.958825  1
  Sn  Sn27  1  0.563359  0.620456  0.248387  1
  Sn  Sn28  1  0.211708  0.533493  0.042146  1
  Sn  Sn29  1  0.437363  0.380754  0.750748  1
  Sn  Sn30  1  0.171071  0.648034  0.751661  1
  Sn  Sn31  1  0.936627  0.120403  0.751588  1
  Sn  Sn32  1  0.301404  0.042088  0.539887  1
  Sn  Sn33  1  0.710409  0.964095  0.041213  1
  Sn  Sn34  1  0.328463  0.148077  0.248507  1
  Sn  Sn35  1  0.062639  0.881214  0.249349  1
