# generated using pymatgen
data_Ho13Tm3InHg3Rh4
_symmetry_space_group_name_H-M   'P 1'
_cell_length_a   9.55482077
_cell_length_b   9.55482070
_cell_length_c   9.55481400
_cell_angle_alpha   60.02306425
_cell_angle_beta   60.02306450
_cell_angle_gamma   60.05176042
_symmetry_Int_Tables_number   1
_chemical_formula_structural   Ho13Tm3InHg3Rh4
_chemical_formula_sum   'Ho13 Tm3 In1 Hg3 Rh4'
_cell_volume   617.26742507
_cell_formula_units_Z   1
loop_
 _symmetry_equiv_pos_site_id
 _symmetry_equiv_pos_as_xyz
  1  'x, y, z'
loop_
 _atom_site_type_symbol
 _atom_site_label
 _atom_site_symmetry_multiplicity
 _atom_site_fract_x
 _atom_site_fract_y
 _atom_site_fract_z
 _atom_site_occupancy
  Ho  Ho0  1  0.935609  0.935609  0.561343  1
  Ho  Ho1  1  0.148348  0.148348  0.551846  1
  Ho  Ho2  1  0.563069  0.936820  0.562038  1
  Ho  Ho3  1  0.148574  0.148574  0.149662  1
  Ho  Ho4  1  0.311962  0.311962  0.688645  1
  Ho  Ho5  1  0.936820  0.563069  0.562038  1
  Ho  Ho6  1  0.561990  0.561990  0.938155  1
  Ho  Ho7  1  0.561367  0.935111  0.936722  1
  Ho  Ho8  1  0.935111  0.561367  0.936722  1
  Ho  Ho9  1  0.147079  0.553982  0.148618  1
  Ho  Ho10  1  0.311769  0.688790  0.688384  1
  Ho  Ho11  1  0.688790  0.311769  0.688384  1
  Ho  Ho12  1  0.553982  0.147079  0.148618  1
  Tm  Tm13  1  0.688120  0.312882  0.311670  1
  Tm  Tm14  1  0.688253  0.688253  0.311092  1
  Tm  Tm15  1  0.312882  0.688120  0.311670  1
  In  In16  1  0.919958  0.919958  0.919721  1
  Hg  Hg17  1  0.914986  0.914986  0.256191  1
  Hg  Hg18  1  0.256329  0.915028  0.914957  1
  Hg  Hg19  1  0.915028  0.256329  0.914957  1
  Rh  Rh20  1  0.357761  0.357761  0.356038  1
  Rh  Rh21  1  0.927583  0.358082  0.356236  1
  Rh  Rh22  1  0.356549  0.356549  0.930056  1
  Rh  Rh23  1  0.358082  0.927583  0.356236  1
