# generated using pymatgen
data_TbCeY2(InPd2)2
_symmetry_space_group_name_H-M   'P 1'
_cell_length_a   7.77764168
_cell_length_b   7.78232708
_cell_length_c   3.74441300
_cell_angle_alpha   90.00000000
_cell_angle_beta   90.00000000
_cell_angle_gamma   90.63157089
_symmetry_Int_Tables_number   1
_chemical_formula_structural   TbCeY2(InPd2)2
_chemical_formula_sum   'Tb1 Ce1 Y2 In2 Pd4'
_cell_volume   226.62862825
_cell_formula_units_Z   1
loop_
 _symmetry_equiv_pos_site_id
 _symmetry_equiv_pos_as_xyz
  1  'x, y, z'
loop_
 _atom_site_type_symbol
 _atom_site_label
 _atom_site_symmetry_multiplicity
 _atom_site_fract_x
 _atom_site_fract_y
 _atom_site_fract_z
 _atom_site_occupancy
  Tb  Tb0  1  0.170849  0.325297  0.500000  1
  Ce  Ce1  1  0.327573  0.827372  0.500000  1
  Y  Y2  1  0.825190  0.671043  0.500000  1
  Y  Y3  1  0.674393  0.174241  0.500000  1
  In  In4  1  0.996504  0.000378  0.000000  1
  In  In5  1  0.500524  0.496782  0.000000  1
  Pd  Pd6  1  0.370939  0.125753  0.000000  1
  Pd  Pd7  1  0.875771  0.375314  0.000000  1
  Pd  Pd8  1  0.132863  0.632501  0.000000  1
  Pd  Pd9  1  0.625393  0.871319  0.000000  1
