# generated using pymatgen
data_Dy5Tm11InAg3Rh4
_symmetry_space_group_name_H-M   'P 1'
_cell_length_a   9.51178204
_cell_length_b   9.51931731
_cell_length_c   9.48984755
_cell_angle_alpha   59.73158451
_cell_angle_beta   59.53002436
_cell_angle_gamma   59.60208285
_symmetry_Int_Tables_number   1
_chemical_formula_structural   Dy5Tm11InAg3Rh4
_chemical_formula_sum   'Dy5 Tm11 In1 Ag3 Rh4'
_cell_volume   602.35789192
_cell_formula_units_Z   1
loop_
 _symmetry_equiv_pos_site_id
 _symmetry_equiv_pos_as_xyz
  1  'x, y, z'
loop_
 _atom_site_type_symbol
 _atom_site_label
 _atom_site_symmetry_multiplicity
 _atom_site_fract_x
 _atom_site_fract_y
 _atom_site_fract_z
 _atom_site_occupancy
  Dy  Dy0  1  0.062947  0.063361  0.438445  1
  Dy  Dy1  1  0.436313  0.061540  0.438687  1
  Dy  Dy2  1  0.061120  0.435353  0.069048  1
  Dy  Dy3  1  0.051526  0.647682  0.649745  1
  Dy  Dy4  1  0.435935  0.435580  0.066623  1
  Tm  Tm5  1  0.648033  0.052080  0.649587  1
  Tm  Tm6  1  0.188885  0.814769  0.186637  1
  Tm  Tm7  1  0.190192  0.190150  0.811586  1
  Tm  Tm8  1  0.812035  0.812488  0.187967  1
  Tm  Tm9  1  0.437220  0.060001  0.066440  1
  Tm  Tm10  1  0.814386  0.188185  0.187474  1
  Tm  Tm11  1  0.061755  0.436897  0.438945  1
  Tm  Tm12  1  0.809735  0.189861  0.812283  1
  Tm  Tm13  1  0.189792  0.810081  0.813411  1
  Tm  Tm14  1  0.648605  0.647607  0.052928  1
  Tm  Tm15  1  0.650186  0.648020  0.649044  1
  In  In16  1  0.421419  0.420480  0.738280  1
  Ag  Ag17  1  0.418110  0.417963  0.415693  1
  Ag  Ag18  1  0.748485  0.418068  0.415845  1
  Ag  Ag19  1  0.419065  0.749394  0.413091  1
  Rh  Rh20  1  0.855236  0.856866  0.426972  1
  Rh  Rh21  1  0.854877  0.860143  0.858795  1
  Rh  Rh22  1  0.428644  0.856816  0.856162  1
  Rh  Rh23  1  0.855500  0.426614  0.856310  1
