# generated using pymatgen
data_YNpB6Os
_symmetry_space_group_name_H-M   'P 1'
_cell_length_a   3.58059500
_cell_length_b   9.32435900
_cell_length_c   11.39404300
_cell_angle_alpha   90.00000000
_cell_angle_beta   90.00000000
_cell_angle_gamma   90.00000000
_symmetry_Int_Tables_number   1
_chemical_formula_structural   YNpB6Os
_chemical_formula_sum   'Y4 Np4 B24 Os4'
_cell_volume   380.41010175
_cell_formula_units_Z   4
loop_
 _symmetry_equiv_pos_site_id
 _symmetry_equiv_pos_as_xyz
  1  'x, y, z'
loop_
 _atom_site_type_symbol
 _atom_site_label
 _atom_site_symmetry_multiplicity
 _atom_site_fract_x
 _atom_site_fract_y
 _atom_site_fract_z
 _atom_site_occupancy
  Y  Y0  1  0.000000  0.337419  0.406443  1
  Y  Y1  1  0.000000  0.662581  0.593557  1
  Y  Y2  1  0.000000  0.837419  0.093557  1
  Y  Y3  1  0.000000  0.162581  0.906443  1
  Np  Np4  1  0.000000  0.959619  0.402363  1
  Np  Np5  1  0.000000  0.040381  0.597637  1
  Np  Np6  1  0.000000  0.459619  0.097637  1
  Np  Np7  1  0.000000  0.540381  0.902363  1
  B  B8  1  0.500000  0.552344  0.430912  1
  B  B9  1  0.500000  0.447656  0.569088  1
  B  B10  1  0.500000  0.052344  0.069088  1
  B  B11  1  0.500000  0.947656  0.930912  1
  B  B12  1  0.500000  0.743748  0.423323  1
  B  B13  1  0.500000  0.256252  0.576677  1
  B  B14  1  0.500000  0.243748  0.076677  1
  B  B15  1  0.500000  0.756252  0.923323  1
  B  B16  1  0.500000  0.803753  0.275145  1
  B  B17  1  0.500000  0.196247  0.724855  1
  B  B18  1  0.500000  0.303753  0.224855  1
  B  B19  1  0.500000  0.696247  0.775145  1
  B  B20  1  0.500000  0.644319  0.188567  1
  B  B21  1  0.500000  0.355681  0.811433  1
  B  B22  1  0.500000  0.144319  0.311433  1
  B  B23  1  0.500000  0.855681  0.688567  1
  B  B24  1  0.500000  0.988433  0.220624  1
  B  B25  1  0.500000  0.011567  0.779376  1
  B  B26  1  0.500000  0.488433  0.279376  1
  B  B27  1  0.500000  0.511567  0.720624  1
  B  B28  1  0.500000  0.643075  0.039786  1
  B  B29  1  0.500000  0.356925  0.960214  1
  B  B30  1  0.500000  0.143075  0.460214  1
  B  B31  1  0.500000  0.856925  0.539786  1
  Os  Os32  1  0.000000  0.645266  0.319612  1
  Os  Os33  1  0.000000  0.354734  0.680388  1
  Os  Os34  1  0.000000  0.145266  0.180388  1
  Os  Os35  1  0.000000  0.854734  0.819612  1
