# generated using pymatgen
data_Ho8Si16Tc11Ru
_symmetry_space_group_name_H-M   'P 1'
_cell_length_a   6.77815990
_cell_length_b   6.77815964
_cell_length_c   12.71020848
_cell_angle_alpha   89.93533400
_cell_angle_beta   90.06466601
_cell_angle_gamma   90.34034540
_symmetry_Int_Tables_number   1
_chemical_formula_structural   Ho8Si16Tc11Ru
_chemical_formula_sum   'Ho8 Si16 Tc11 Ru1'
_cell_volume   583.93978357
_cell_formula_units_Z   1
loop_
 _symmetry_equiv_pos_site_id
 _symmetry_equiv_pos_as_xyz
  1  'x, y, z'
loop_
 _atom_site_type_symbol
 _atom_site_label
 _atom_site_symmetry_multiplicity
 _atom_site_fract_x
 _atom_site_fract_y
 _atom_site_fract_z
 _atom_site_occupancy
  Ho  Ho0  1  0.338184  0.996569  0.469608  1
  Ho  Ho1  1  0.506835  0.837047  0.718993  1
  Ho  Ho2  1  0.494176  0.162895  0.219675  1
  Ho  Ho3  1  0.837047  0.506835  0.281007  1
  Ho  Ho4  1  0.162895  0.494176  0.780325  1
  Ho  Ho5  1  0.662566  0.003418  0.969419  1
  Ho  Ho6  1  0.996569  0.338184  0.530392  1
  Ho  Ho7  1  0.003418  0.662566  0.030581  1
  Si  Si8  1  0.194752  0.114431  0.685715  1
  Si  Si9  1  0.387507  0.690803  0.937705  1
  Si  Si10  1  0.614265  0.308742  0.437479  1
  Si  Si11  1  0.690803  0.387507  0.062295  1
  Si  Si12  1  0.308742  0.614265  0.562521  1
  Si  Si13  1  0.804931  0.885518  0.185296  1
  Si  Si14  1  0.114431  0.194752  0.314285  1
  Si  Si15  1  0.885518  0.804931  0.814704  1
  Si  Si16  1  0.269940  0.980277  0.062381  1
  Si  Si17  1  0.522152  0.778901  0.313278  1
  Si  Si18  1  0.479235  0.220921  0.812275  1
  Si  Si19  1  0.778901  0.522152  0.686722  1
  Si  Si20  1  0.220921  0.479235  0.187725  1
  Si  Si21  1  0.730142  0.019282  0.561883  1
  Si  Si22  1  0.980277  0.269940  0.937619  1
  Si  Si23  1  0.019282  0.730142  0.438117  1
  Tc  Tc24  1  0.164234  0.836274  0.249901  1
  Tc  Tc25  1  0.836274  0.164234  0.750099  1
  Tc  Tc26  1  0.666673  0.666673  0.500000  1
  Tc  Tc27  1  0.188119  0.974295  0.870903  1
  Tc  Tc28  1  0.513680  0.681087  0.122602  1
  Tc  Tc29  1  0.484916  0.318556  0.623240  1
  Tc  Tc30  1  0.681087  0.513680  0.877398  1
  Tc  Tc31  1  0.318556  0.484916  0.376760  1
  Tc  Tc32  1  0.812068  0.024666  0.369455  1
  Tc  Tc33  1  0.974295  0.188119  0.129097  1
  Tc  Tc34  1  0.024666  0.812068  0.630545  1
  Ru  Ru35  1  0.331942  0.331942  0.000000  1
