# generated using pymatgen
data_Ba4Ca2La2Fe4O15
_symmetry_space_group_name_H-M   'P 1'
_cell_length_a   11.77349745
_cell_length_b   11.77349678
_cell_length_c   6.97846304
_cell_angle_alpha   89.95373891
_cell_angle_beta   89.95373203
_cell_angle_gamma   120.11472725
_symmetry_Int_Tables_number   1
_chemical_formula_structural   Ba4Ca2La2Fe4O15
_chemical_formula_sum   'Ba8 Ca4 La4 Fe8 O30'
_cell_volume   836.75356963
_cell_formula_units_Z   2
loop_
 _symmetry_equiv_pos_site_id
 _symmetry_equiv_pos_as_xyz
  1  'x, y, z'
loop_
 _atom_site_type_symbol
 _atom_site_label
 _atom_site_symmetry_multiplicity
 _atom_site_fract_x
 _atom_site_fract_y
 _atom_site_fract_z
 _atom_site_occupancy
  Ba  Ba0  1  0.668783  0.329654  0.980988  1
  Ba  Ba1  1  0.329654  0.668783  0.480988  1
  Ba  Ba2  1  0.340117  0.164707  0.668242  1
  Ba  Ba3  1  0.834600  0.663413  0.661668  1
  Ba  Ba4  1  0.827477  0.167674  0.664232  1
  Ba  Ba5  1  0.663413  0.834600  0.161668  1
  Ba  Ba6  1  0.164707  0.340117  0.168242  1
  Ba  Ba7  1  0.167674  0.827477  0.164232  1
  Ca  Ca8  1  0.000341  0.001253  0.467001  1
  Ca  Ca9  1  0.001253  0.000341  0.967001  1
  Ca  Ca10  1  0.959462  0.480016  0.338444  1
  Ca  Ca11  1  0.480016  0.959462  0.838444  1
  La  La12  1  0.520932  0.042330  0.330792  1
  La  La13  1  0.521883  0.477940  0.330413  1
  La  La14  1  0.042330  0.520932  0.830792  1
  La  La15  1  0.477940  0.521883  0.830413  1
  Fe  Fe16  1  0.346741  0.172157  0.159256  1
  Fe  Fe17  1  0.826845  0.650268  0.160639  1
  Fe  Fe18  1  0.825665  0.175912  0.160449  1
  Fe  Fe19  1  0.650268  0.826845  0.660639  1
  Fe  Fe20  1  0.172157  0.346741  0.659256  1
  Fe  Fe21  1  0.175912  0.825665  0.660449  1
  Fe  Fe22  1  0.670624  0.334196  0.522234  1
  Fe  Fe23  1  0.334196  0.670624  0.022234  1
  O  O24  1  0.608847  0.671438  0.522989  1
  O  O25  1  0.062676  0.391127  0.520910  1
  O  O26  1  0.325130  0.936965  0.512027  1
  O  O27  1  0.328520  0.390616  0.522118  1
  O  O28  1  0.612923  0.937565  0.512479  1
  O  O29  1  0.063169  0.671933  0.521575  1
  O  O30  1  0.390616  0.328520  0.022118  1
  O  O31  1  0.937565  0.612923  0.012479  1
  O  O32  1  0.671933  0.063169  0.021575  1
  O  O33  1  0.671438  0.608847  0.022989  1
  O  O34  1  0.391127  0.062676  0.020910  1
  O  O35  1  0.936965  0.325130  0.012027  1
  O  O36  1  0.832668  0.416436  0.671118  1
  O  O37  1  0.583280  0.165760  0.662060  1
  O  O38  1  0.583459  0.417732  0.664069  1
  O  O39  1  0.165760  0.583280  0.162060  1
  O  O40  1  0.416436  0.832668  0.171118  1
  O  O41  1  0.417732  0.583459  0.164069  1
  O  O42  1  0.492056  0.246872  0.337250  1
  O  O43  1  0.752515  0.504358  0.336073  1
  O  O44  1  0.752989  0.250424  0.334539  1
  O  O45  1  0.504358  0.752515  0.836073  1
  O  O46  1  0.246872  0.492056  0.837250  1
  O  O47  1  0.250424  0.752989  0.834539  1
  O  O48  1  0.824529  0.911805  0.748878  1
  O  O49  1  0.086331  0.172104  0.744652  1
  O  O50  1  0.088511  0.913095  0.746692  1
  O  O51  1  0.172104  0.086331  0.244652  1
  O  O52  1  0.911805  0.824529  0.248878  1
  O  O53  1  0.913095  0.088511  0.246692  1
