# generated using pymatgen
data_Er4Ga4Ir2RuAu
_symmetry_space_group_name_H-M   'P 1'
_cell_length_a   4.35622100
_cell_length_b   6.83847349
_cell_length_c   7.78199826
_cell_angle_alpha   89.97614837
_cell_angle_beta   90.00000000
_cell_angle_gamma   90.00000000
_symmetry_Int_Tables_number   1
_chemical_formula_structural   Er4Ga4Ir2RuAu
_chemical_formula_sum   'Er4 Ga4 Ir2 Ru1 Au1'
_cell_volume   231.82494394
_cell_formula_units_Z   1
loop_
 _symmetry_equiv_pos_site_id
 _symmetry_equiv_pos_as_xyz
  1  'x, y, z'
loop_
 _atom_site_type_symbol
 _atom_site_label
 _atom_site_symmetry_multiplicity
 _atom_site_fract_x
 _atom_site_fract_y
 _atom_site_fract_z
 _atom_site_occupancy
  Er  Er0  1  0.250000  0.980221  0.310702  1
  Er  Er1  1  0.250000  0.485757  0.199329  1
  Er  Er2  1  0.750000  0.017269  0.682444  1
  Er  Er3  1  0.750000  0.532311  0.809412  1
  Ga  Ga4  1  0.250000  0.346567  0.563514  1
  Ga  Ga5  1  0.250000  0.824259  0.932578  1
  Ga  Ga6  1  0.750000  0.660510  0.428281  1
  Ga  Ga7  1  0.750000  0.153484  0.075400  1
  Ir  Ir8  1  0.250000  0.732669  0.609383  1
  Ir  Ir9  1  0.750000  0.270383  0.390966  1
  Ru  Ru10  1  0.750000  0.766624  0.107164  1
  Au  Au11  1  0.250000  0.229947  0.890828  1
