# generated using pymatgen
data_NdZr(NiAs)3
_symmetry_space_group_name_H-M   'P 1'
_cell_length_a   3.95836200
_cell_length_b   10.68372100
_cell_length_c   12.69945400
_cell_angle_alpha   90.00000000
_cell_angle_beta   90.00000000
_cell_angle_gamma   90.00000000
_symmetry_Int_Tables_number   1
_chemical_formula_structural   NdZr(NiAs)3
_chemical_formula_sum   'Nd4 Zr4 Ni12 As12'
_cell_volume   537.06035700
_cell_formula_units_Z   4
loop_
 _symmetry_equiv_pos_site_id
 _symmetry_equiv_pos_as_xyz
  1  'x, y, z'
loop_
 _atom_site_type_symbol
 _atom_site_label
 _atom_site_symmetry_multiplicity
 _atom_site_fract_x
 _atom_site_fract_y
 _atom_site_fract_z
 _atom_site_occupancy
  Nd  Nd0  1  0.250000  0.070743  0.204999  1
  Nd  Nd1  1  0.750000  0.929257  0.795001  1
  Nd  Nd2  1  0.750000  0.570743  0.295001  1
  Nd  Nd3  1  0.250000  0.429257  0.704999  1
  Zr  Zr4  1  0.250000  0.161265  0.497094  1
  Zr  Zr5  1  0.750000  0.838735  0.502906  1
  Zr  Zr6  1  0.750000  0.661265  0.002906  1
  Zr  Zr7  1  0.250000  0.338735  0.997094  1
  Ni  Ni8  1  0.250000  0.727315  0.663704  1
  Ni  Ni9  1  0.750000  0.272685  0.336296  1
  Ni  Ni10  1  0.750000  0.227315  0.836296  1
  Ni  Ni11  1  0.250000  0.772685  0.163704  1
  Ni  Ni12  1  0.250000  0.364482  0.219892  1
  Ni  Ni13  1  0.750000  0.635518  0.780108  1
  Ni  Ni14  1  0.750000  0.864482  0.280108  1
  Ni  Ni15  1  0.250000  0.135518  0.719892  1
  Ni  Ni16  1  0.250000  0.607226  0.483748  1
  Ni  Ni17  1  0.750000  0.392774  0.516252  1
  Ni  Ni18  1  0.750000  0.107226  0.016252  1
  Ni  Ni19  1  0.250000  0.892774  0.983748  1
  As  As20  1  0.250000  0.944784  0.619761  1
  As  As21  1  0.750000  0.055216  0.380239  1
  As  As22  1  0.750000  0.444784  0.880239  1
  As  As23  1  0.250000  0.555216  0.119761  1
  As  As24  1  0.250000  0.396078  0.406738  1
  As  As25  1  0.750000  0.603922  0.593262  1
  As  As26  1  0.750000  0.896078  0.093262  1
  As  As27  1  0.250000  0.103922  0.906738  1
  As  As28  1  0.250000  0.775788  0.354381  1
  As  As29  1  0.750000  0.224212  0.645619  1
  As  As30  1  0.750000  0.275788  0.145619  1
  As  As31  1  0.250000  0.724212  0.854381  1
