# generated using pymatgen
data_LiU3As6Ru7
_symmetry_space_group_name_H-M   'P 1'
_cell_length_a   7.14353350
_cell_length_b   7.14353251
_cell_length_c   7.14353336
_cell_angle_alpha   109.30649981
_cell_angle_beta   109.30649288
_cell_angle_gamma   109.30649604
_symmetry_Int_Tables_number   1
_chemical_formula_structural   LiU3As6Ru7
_chemical_formula_sum   'Li1 U3 As6 Ru7'
_cell_volume   282.31760444
_cell_formula_units_Z   1
loop_
 _symmetry_equiv_pos_site_id
 _symmetry_equiv_pos_as_xyz
  1  'x, y, z'
loop_
 _atom_site_type_symbol
 _atom_site_label
 _atom_site_symmetry_multiplicity
 _atom_site_fract_x
 _atom_site_fract_y
 _atom_site_fract_z
 _atom_site_occupancy
  Li  Li0  1  0.500000  0.500000  0.500000  1
  U  U1  1  0.000000  0.000000  0.500000  1
  U  U2  1  0.500000  0.000000  0.000000  1
  U  U3  1  0.000000  0.500000  0.000000  1
  As  As4  1  0.317400  0.016433  0.317400  1
  As  As5  1  0.016433  0.317400  0.317400  1
  As  As6  1  0.983567  0.682600  0.682600  1
  As  As7  1  0.317400  0.317400  0.016433  1
  As  As8  1  0.682600  0.682600  0.983567  1
  As  As9  1  0.682600  0.983567  0.682600  1
  Ru  Ru10  1  0.751924  0.500000  0.248076  1
  Ru  Ru11  1  0.500000  0.751924  0.248076  1
  Ru  Ru12  1  0.500000  0.248076  0.751924  1
  Ru  Ru13  1  0.751924  0.248076  0.500000  1
  Ru  Ru14  1  0.248076  0.751924  0.500000  1
  Ru  Ru15  1  0.248076  0.500000  0.751924  1
  Ru  Ru16  1  0.000000  0.000000  0.000000  1
