# generated using pymatgen
data_CaNdAl20Ru3Rh
_symmetry_space_group_name_H-M   'P 1'
_cell_length_a   6.88231540
_cell_length_b   6.88342947
_cell_length_c   9.19872341
_cell_angle_alpha   90.24016308
_cell_angle_beta   90.07213411
_cell_angle_gamma   96.73518446
_symmetry_Int_Tables_number   1
_chemical_formula_structural   CaNdAl20Ru3Rh
_chemical_formula_sum   'Ca1 Nd1 Al20 Ru3 Rh1'
_cell_volume   432.76783326
_cell_formula_units_Z   1
loop_
 _symmetry_equiv_pos_site_id
 _symmetry_equiv_pos_as_xyz
  1  'x, y, z'
loop_
 _atom_site_type_symbol
 _atom_site_label
 _atom_site_symmetry_multiplicity
 _atom_site_fract_x
 _atom_site_fract_y
 _atom_site_fract_z
 _atom_site_occupancy
  Ca  Ca0  1  0.874467  0.124036  0.749891  1
  Nd  Nd1  1  0.124176  0.877176  0.250550  1
  Al  Al2  1  0.620628  0.376199  0.549713  1
  Al  Al3  1  0.380297  0.622590  0.447388  1
  Al  Al4  1  0.378114  0.622244  0.050909  1
  Al  Al5  1  0.623204  0.376275  0.951665  1
  Al  Al6  1  0.226527  0.226658  0.500116  1
  Al  Al7  1  0.771944  0.775701  0.502060  1
  Al  Al8  1  0.772589  0.775181  0.998479  1
  Al  Al9  1  0.225427  0.226539  0.999805  1
  Al  Al10  1  0.842092  0.158588  0.098757  1
  Al  Al11  1  0.159720  0.839061  0.899783  1
  Al  Al12  1  0.161411  0.840529  0.602193  1
  Al  Al13  1  0.839988  0.157914  0.399002  1
  Al  Al14  1  0.858572  0.587896  0.751092  1
  Al  Al15  1  0.139771  0.410705  0.249095  1
  Al  Al16  1  0.412105  0.140654  0.750474  1
  Al  Al17  1  0.590079  0.861050  0.249496  1
  Al  Al18  1  0.221565  0.478559  0.752741  1
  Al  Al19  1  0.777309  0.517188  0.247051  1
  Al  Al20  1  0.521546  0.780860  0.749442  1
  Al  Al21  1  0.482795  0.221028  0.250386  1
  Ru  Ru22  1  0.999717  0.501369  0.999888  1
  Ru  Ru23  1  0.498187  0.000026  0.999832  1
  Ru  Ru24  1  0.498539  0.000118  0.500103  1
  Rh  Rh25  1  0.999228  0.501856  0.500088  1
