# generated using pymatgen
data_Ba6GdYIn2O12
_symmetry_space_group_name_H-M   'P 1'
_cell_length_a   7.32620143
_cell_length_b   7.32620145
_cell_length_c   7.32620252
_cell_angle_alpha   92.85027995
_cell_angle_beta   92.85026677
_cell_angle_gamma   92.85028749
_symmetry_Int_Tables_number   1
_chemical_formula_structural   Ba6GdYIn2O12
_chemical_formula_sum   'Ba6 Gd1 Y1 In2 O12'
_cell_volume   391.71121236
_cell_formula_units_Z   1
loop_
 _symmetry_equiv_pos_site_id
 _symmetry_equiv_pos_as_xyz
  1  'x, y, z'
loop_
 _atom_site_type_symbol
 _atom_site_label
 _atom_site_symmetry_multiplicity
 _atom_site_fract_x
 _atom_site_fract_y
 _atom_site_fract_z
 _atom_site_occupancy
  Ba  Ba0  1  0.250000  0.888650  0.611350  1
  Ba  Ba1  1  0.888650  0.611350  0.250000  1
  Ba  Ba2  1  0.750000  0.111821  0.388179  1
  Ba  Ba3  1  0.388179  0.750000  0.111821  1
  Ba  Ba4  1  0.111821  0.388179  0.750000  1
  Ba  Ba5  1  0.611350  0.250000  0.888650  1
  Gd  Gd6  1  0.750000  0.750000  0.750000  1
  Y  Y7  1  0.250000  0.250000  0.250000  1
  In  In8  1  0.499423  0.499423  0.499423  1
  In  In9  1  0.000577  0.000577  0.000577  1
  O  O10  1  0.596853  0.789978  0.465184  1
  O  O11  1  0.465184  0.596853  0.789978  1
  O  O12  1  0.789978  0.465184  0.596853  1
  O  O13  1  0.903147  0.034816  0.710022  1
  O  O14  1  0.710022  0.903147  0.034816  1
  O  O15  1  0.034816  0.710022  0.903147  1
  O  O16  1  0.401491  0.209729  0.532262  1
  O  O17  1  0.532262  0.401491  0.209729  1
  O  O18  1  0.209729  0.532262  0.401491  1
  O  O19  1  0.098509  0.967738  0.290271  1
  O  O20  1  0.967738  0.290271  0.098509  1
  O  O21  1  0.290271  0.098509  0.967738  1
