# generated using pymatgen
data_TbY10ThRh4
_symmetry_space_group_name_H-M   'P 1'
_cell_length_a   6.35924809
_cell_length_b   7.17601077
_cell_length_c   9.63147000
_cell_angle_alpha   90.00000000
_cell_angle_beta   90.00000000
_cell_angle_gamma   89.21616844
_symmetry_Int_Tables_number   1
_chemical_formula_structural   TbY10ThRh4
_chemical_formula_sum   'Tb1 Y10 Th1 Rh4'
_cell_volume   439.48168881
_cell_formula_units_Z   1
loop_
 _symmetry_equiv_pos_site_id
 _symmetry_equiv_pos_as_xyz
  1  'x, y, z'
loop_
 _atom_site_type_symbol
 _atom_site_label
 _atom_site_symmetry_multiplicity
 _atom_site_fract_x
 _atom_site_fract_y
 _atom_site_fract_z
 _atom_site_occupancy
  Tb  Tb0  1  0.360663  0.964193  0.750000  1
  Y  Y1  1  0.138720  0.465070  0.750000  1
  Y  Y2  1  0.861261  0.533590  0.250000  1
  Y  Y3  1  0.168524  0.177015  0.062407  1
  Y  Y4  1  0.826915  0.821930  0.934680  1
  Y  Y5  1  0.672851  0.324781  0.934337  1
  Y  Y6  1  0.826915  0.821930  0.565320  1
  Y  Y7  1  0.330812  0.679138  0.064772  1
  Y  Y8  1  0.168524  0.177015  0.437593  1
  Y  Y9  1  0.330812  0.679138  0.435228  1
  Y  Y10  1  0.672851  0.324781  0.565663  1
  Th  Th11  1  0.648886  0.042094  0.250000  1
  Rh  Rh12  1  0.448321  0.370675  0.250000  1
  Rh  Rh13  1  0.552136  0.618382  0.750000  1
  Rh  Rh14  1  0.947077  0.116319  0.750000  1
  Rh  Rh15  1  0.044732  0.883951  0.250000  1
