# generated using pymatgen
data_FeCo2Mo2P3W
_symmetry_space_group_name_H-M   'P 1'
_cell_length_a   3.74590200
_cell_length_b   5.83543632
_cell_length_c   20.18036531
_cell_angle_alpha   89.92569713
_cell_angle_beta   90.00000000
_cell_angle_gamma   90.00000000
_symmetry_Int_Tables_number   1
_chemical_formula_structural   FeCo2Mo2P3W
_chemical_formula_sum   'Fe4 Co8 Mo8 P12 W4'
_cell_volume   441.12168075
_cell_formula_units_Z   4
loop_
 _symmetry_equiv_pos_site_id
 _symmetry_equiv_pos_as_xyz
  1  'x, y, z'
loop_
 _atom_site_type_symbol
 _atom_site_label
 _atom_site_symmetry_multiplicity
 _atom_site_fract_x
 _atom_site_fract_y
 _atom_site_fract_z
 _atom_site_occupancy
  Fe  Fe0  1  0.500000  0.361494  0.811098  1
  Fe  Fe1  1  0.500000  0.362450  0.478180  1
  Fe  Fe2  1  0.500000  0.361754  0.144706  1
  Fe  Fe3  1  0.500000  0.862757  0.688581  1
  Co  Co4  1  0.500000  0.859537  0.355880  1
  Co  Co5  1  0.500000  0.858808  0.022449  1
  Co  Co6  1  0.000000  0.640344  0.855208  1
  Co  Co7  1  0.000000  0.640277  0.522067  1
  Co  Co8  1  0.000000  0.639890  0.188765  1
  Co  Co9  1  0.000000  0.140180  0.977624  1
  Co  Co10  1  0.000000  0.140889  0.644163  1
  Co  Co11  1  0.000000  0.140606  0.310896  1
  Mo  Mo12  1  0.500000  0.466324  0.942896  1
  Mo  Mo13  1  0.500000  0.468007  0.610058  1
  Mo  Mo14  1  0.500000  0.468062  0.276805  1
  Mo  Mo15  1  0.500000  0.966598  0.889302  1
  Mo  Mo16  1  0.500000  0.966586  0.556882  1
  Mo  Mo17  1  0.500000  0.966042  0.223098  1
  Mo  Mo18  1  0.000000  0.033123  0.443560  1
  Mo  Mo19  1  0.000000  0.032784  0.110389  1
  P  P20  1  0.500000  0.731911  0.792309  1
  P  P21  1  0.500000  0.733259  0.460265  1
  P  P22  1  0.500000  0.732699  0.126729  1
  P  P23  1  0.500000  0.233113  0.707163  1
  P  P24  1  0.500000  0.233662  0.374137  1
  P  P25  1  0.500000  0.232847  0.040510  1
  P  P26  1  0.000000  0.268542  0.873616  1
  P  P27  1  0.000000  0.267843  0.539555  1
  P  P28  1  0.000000  0.267666  0.206550  1
  P  P29  1  0.000000  0.767070  0.959603  1
  P  P30  1  0.000000  0.768850  0.626377  1
  P  P31  1  0.000000  0.767324  0.293264  1
  W  W32  1  0.000000  0.529825  0.723486  1
  W  W33  1  0.000000  0.529397  0.390556  1
  W  W34  1  0.000000  0.529031  0.057058  1
  W  W35  1  0.000000  0.030448  0.776214  1
