# generated using pymatgen
data_TbLu3Ga3Ru5
_symmetry_space_group_name_H-M   'P 1'
_cell_length_a   5.23261308
_cell_length_b   5.49192765
_cell_length_c   9.43590100
_cell_angle_alpha   73.08142384
_cell_angle_beta   90.53495757
_cell_angle_gamma   121.65332655
_symmetry_Int_Tables_number   1
_chemical_formula_structural   TbLu3Ga3Ru5
_chemical_formula_sum   'Tb1 Lu3 Ga3 Ru5'
_cell_volume   217.38298050
_cell_formula_units_Z   1
loop_
 _symmetry_equiv_pos_site_id
 _symmetry_equiv_pos_as_xyz
  1  'x, y, z'
loop_
 _atom_site_type_symbol
 _atom_site_label
 _atom_site_symmetry_multiplicity
 _atom_site_fract_x
 _atom_site_fract_y
 _atom_site_fract_z
 _atom_site_occupancy
  Tb  Tb0  1  0.876414  0.751773  0.372869  1
  Lu  Lu1  1  0.389693  0.761715  0.866264  1
  Lu  Lu2  1  0.985131  0.988714  0.007705  1
  Lu  Lu3  1  0.498478  0.997380  0.503720  1
  Ga  Ga4  1  0.687308  0.375000  0.937309  1
  Ga  Ga5  1  0.949967  0.377732  0.194502  1
  Ga  Ga6  1  0.425757  0.372522  0.680713  1
  Ru  Ru7  1  0.443106  0.374594  0.179315  1
  Ru  Ru8  1  0.931851  0.375072  0.695144  1
  Ru  Ru9  1  0.443106  0.889198  0.179315  1
  Ru  Ru10  1  0.931851  0.861634  0.695144  1
  Ru  Ru11  1  0.187334  0.374668  0.437998  1
