# generated using pymatgen
data_Cs2Ti3WO9
_symmetry_space_group_name_H-M   'P 1'
_cell_length_a   7.58314500
_cell_length_b   7.58314507
_cell_length_c   10.95206200
_cell_angle_alpha   90.00000000
_cell_angle_beta   90.00000000
_cell_angle_gamma   120.00000407
_symmetry_Int_Tables_number   1
_chemical_formula_structural   Cs2Ti3WO9
_chemical_formula_sum   'Cs4 Ti6 W2 O18'
_cell_volume   545.41268225
_cell_formula_units_Z   2
loop_
 _symmetry_equiv_pos_site_id
 _symmetry_equiv_pos_as_xyz
  1  'x, y, z'
loop_
 _atom_site_type_symbol
 _atom_site_label
 _atom_site_symmetry_multiplicity
 _atom_site_fract_x
 _atom_site_fract_y
 _atom_site_fract_z
 _atom_site_occupancy
  Cs  Cs0  1  0.333333  0.666667  0.060585  1
  Cs  Cs1  1  0.666667  0.333333  0.560585  1
  Cs  Cs2  1  0.666667  0.333333  0.939415  1
  Cs  Cs3  1  0.333333  0.666667  0.439415  1
  Ti  Ti4  1  0.372246  0.237616  0.250000  1
  Ti  Ti5  1  0.134632  0.372246  0.750000  1
  Ti  Ti6  1  0.237616  0.865368  0.750000  1
  Ti  Ti7  1  0.762384  0.134632  0.250000  1
  Ti  Ti8  1  0.865368  0.627754  0.250000  1
  Ti  Ti9  1  0.627754  0.762384  0.750000  1
  W  W10  1  0.000000  0.000000  0.000000  1
  W  W11  1  0.000000  0.000000  0.500000  1
  O  O12  1  0.492133  0.073668  0.250000  1
  O  O13  1  0.418466  0.492133  0.750000  1
  O  O14  1  0.073668  0.581534  0.750000  1
  O  O15  1  0.926332  0.418466  0.250000  1
  O  O16  1  0.581534  0.507867  0.250000  1
  O  O17  1  0.507867  0.926332  0.750000  1
  O  O18  1  0.233450  0.205614  0.111190  1
  O  O19  1  0.027836  0.233450  0.611190  1
  O  O20  1  0.205614  0.972164  0.611190  1
  O  O21  1  0.794386  0.027836  0.111190  1
  O  O22  1  0.972164  0.766550  0.111190  1
  O  O23  1  0.766550  0.794386  0.611190  1
  O  O24  1  0.766550  0.794386  0.888810  1
  O  O25  1  0.972164  0.766550  0.388810  1
  O  O26  1  0.794386  0.027836  0.388810  1
  O  O27  1  0.205614  0.972164  0.888810  1
  O  O28  1  0.027836  0.233450  0.888810  1
  O  O29  1  0.233450  0.205614  0.388810  1
