# generated using pymatgen
data_Zr2FeAs2Ir
_symmetry_space_group_name_H-M   'P 1'
_cell_length_a   3.95163400
_cell_length_b   6.61291069
_cell_length_c   7.45756585
_cell_angle_alpha   90.77591857
_cell_angle_beta   90.00000000
_cell_angle_gamma   90.00000000
_symmetry_Int_Tables_number   1
_chemical_formula_structural   Zr2FeAs2Ir
_chemical_formula_sum   'Zr4 Fe2 As4 Ir2'
_cell_volume   194.86176998
_cell_formula_units_Z   2
loop_
 _symmetry_equiv_pos_site_id
 _symmetry_equiv_pos_as_xyz
  1  'x, y, z'
loop_
 _atom_site_type_symbol
 _atom_site_label
 _atom_site_symmetry_multiplicity
 _atom_site_fract_x
 _atom_site_fract_y
 _atom_site_fract_z
 _atom_site_occupancy
  Zr  Zr0  1  0.250000  0.473344  0.186430  1
  Zr  Zr1  1  0.750000  0.526656  0.813570  1
  Zr  Zr2  1  0.750000  0.013278  0.681141  1
  Zr  Zr3  1  0.250000  0.986722  0.318859  1
  Fe  Fe4  1  0.750000  0.640425  0.441822  1
  Fe  Fe5  1  0.250000  0.359575  0.558178  1
  As  As6  1  0.250000  0.719762  0.600624  1
  As  As7  1  0.750000  0.280238  0.399376  1
  As  As8  1  0.750000  0.759734  0.136588  1
  As  As9  1  0.250000  0.240266  0.863412  1
  Ir  Ir10  1  0.250000  0.849833  0.935717  1
  Ir  Ir11  1  0.750000  0.150167  0.064283  1
