# generated using pymatgen
data_NaTmSiO4
_symmetry_space_group_name_H-M   'P 1'
_cell_length_a   5.15965800
_cell_length_b   6.39098900
_cell_length_c   11.12348300
_cell_angle_alpha   90.00000000
_cell_angle_beta   90.00000000
_cell_angle_gamma   90.00000000
_symmetry_Int_Tables_number   1
_chemical_formula_structural   NaTmSiO4
_chemical_formula_sum   'Na4 Tm4 Si4 O16'
_cell_volume   366.80038387
_cell_formula_units_Z   4
loop_
 _symmetry_equiv_pos_site_id
 _symmetry_equiv_pos_as_xyz
  1  'x, y, z'
loop_
 _atom_site_type_symbol
 _atom_site_label
 _atom_site_symmetry_multiplicity
 _atom_site_fract_x
 _atom_site_fract_y
 _atom_site_fract_z
 _atom_site_occupancy
  Na  Na0  1  0.500000  0.500000  0.000000  1
  Na  Na1  1  0.500000  0.000000  0.000000  1
  Na  Na2  1  0.000000  0.000000  0.500000  1
  Na  Na3  1  0.000000  0.500000  0.500000  1
  Tm  Tm4  1  0.497730  0.250000  0.279400  1
  Tm  Tm5  1  0.502270  0.750000  0.720600  1
  Tm  Tm6  1  0.002270  0.250000  0.779400  1
  Tm  Tm7  1  0.997730  0.750000  0.220600  1
  Si  Si8  1  0.559516  0.750000  0.399307  1
  Si  Si9  1  0.940484  0.750000  0.899307  1
  Si  Si10  1  0.440484  0.250000  0.600693  1
  Si  Si11  1  0.059516  0.250000  0.100693  1
  O  O12  1  0.745966  0.250000  0.114987  1
  O  O13  1  0.254034  0.750000  0.885013  1
  O  O14  1  0.754034  0.250000  0.614987  1
  O  O15  1  0.245966  0.750000  0.385013  1
  O  O16  1  0.837430  0.750000  0.038618  1
  O  O17  1  0.162570  0.250000  0.961382  1
  O  O18  1  0.662570  0.750000  0.538618  1
  O  O19  1  0.337430  0.250000  0.461382  1
  O  O20  1  0.701697  0.550186  0.326777  1
  O  O21  1  0.298303  0.050186  0.673223  1
  O  O22  1  0.798303  0.550186  0.826777  1
  O  O23  1  0.201697  0.050186  0.173223  1
  O  O24  1  0.201697  0.449814  0.173223  1
  O  O25  1  0.798303  0.949814  0.826777  1
  O  O26  1  0.298303  0.449814  0.673223  1
  O  O27  1  0.701697  0.949814  0.326777  1
