# generated using pymatgen
data_Lu2Sc3(SiGe)2
_symmetry_space_group_name_H-M   'P 1'
_cell_length_a   7.11832600
_cell_length_b   7.33449100
_cell_length_c   13.94989400
_cell_angle_alpha   90.00000000
_cell_angle_beta   90.00000000
_cell_angle_gamma   90.00000000
_symmetry_Int_Tables_number   1
_chemical_formula_structural   Lu2Sc3(SiGe)2
_chemical_formula_sum   'Lu8 Sc12 Si8 Ge8'
_cell_volume   728.31417266
_cell_formula_units_Z   4
loop_
 _symmetry_equiv_pos_site_id
 _symmetry_equiv_pos_as_xyz
  1  'x, y, z'
loop_
 _atom_site_type_symbol
 _atom_site_label
 _atom_site_symmetry_multiplicity
 _atom_site_fract_x
 _atom_site_fract_y
 _atom_site_fract_z
 _atom_site_occupancy
  Lu  Lu0  1  0.999810  0.178199  0.098204  1
  Lu  Lu1  1  0.499810  0.321801  0.401796  1
  Lu  Lu2  1  0.500190  0.678199  0.901796  1
  Lu  Lu3  1  0.000190  0.821801  0.598204  1
  Lu  Lu4  1  0.000190  0.821801  0.901796  1
  Lu  Lu5  1  0.500190  0.678199  0.598204  1
  Lu  Lu6  1  0.499810  0.321801  0.098204  1
  Lu  Lu7  1  0.999810  0.178199  0.401796  1
  Sc  Sc8  1  0.677968  0.001315  0.250000  1
  Sc  Sc9  1  0.177968  0.498685  0.250000  1
  Sc  Sc10  1  0.822032  0.501315  0.750000  1
  Sc  Sc11  1  0.322032  0.998685  0.750000  1
  Sc  Sc12  1  0.846732  0.672091  0.125893  1
  Sc  Sc13  1  0.346732  0.827909  0.374107  1
  Sc  Sc14  1  0.653268  0.172091  0.874107  1
  Sc  Sc15  1  0.153268  0.327909  0.625893  1
  Sc  Sc16  1  0.153268  0.327909  0.874107  1
  Sc  Sc17  1  0.653268  0.172091  0.625893  1
  Sc  Sc18  1  0.346732  0.827909  0.125893  1
  Sc  Sc19  1  0.846732  0.672091  0.374107  1
  Si  Si20  1  0.799042  0.368591  0.250000  1
  Si  Si21  1  0.299042  0.131409  0.250000  1
  Si  Si22  1  0.700958  0.868591  0.750000  1
  Si  Si23  1  0.200958  0.631409  0.750000  1
  Si  Si24  1  0.048954  0.885543  0.250000  1
  Si  Si25  1  0.548954  0.614457  0.250000  1
  Si  Si26  1  0.451046  0.385543  0.750000  1
  Si  Si27  1  0.951046  0.114457  0.750000  1
  Ge  Ge28  1  0.817889  0.461094  0.959684  1
  Ge  Ge29  1  0.317889  0.038906  0.540316  1
  Ge  Ge30  1  0.682111  0.961094  0.040316  1
  Ge  Ge31  1  0.182111  0.538906  0.459684  1
  Ge  Ge32  1  0.182111  0.538906  0.040316  1
  Ge  Ge33  1  0.682111  0.961094  0.459684  1
  Ge  Ge34  1  0.317889  0.038906  0.959684  1
  Ge  Ge35  1  0.817889  0.461094  0.540316  1
