# generated using pymatgen
data_CaNd19Si15Ir
_symmetry_space_group_name_H-M   'P 1'
_cell_length_a   7.77738853
_cell_length_b   7.92480756
_cell_length_c   15.14389080
_cell_angle_alpha   89.79754771
_cell_angle_beta   89.66916267
_cell_angle_gamma   89.94766068
_symmetry_Int_Tables_number   1
_chemical_formula_structural   CaNd19Si15Ir
_chemical_formula_sum   'Ca1 Nd19 Si15 Ir1'
_cell_volume   933.36146150
_cell_formula_units_Z   1
loop_
 _symmetry_equiv_pos_site_id
 _symmetry_equiv_pos_as_xyz
  1  'x, y, z'
loop_
 _atom_site_type_symbol
 _atom_site_label
 _atom_site_symmetry_multiplicity
 _atom_site_fract_x
 _atom_site_fract_y
 _atom_site_fract_z
 _atom_site_occupancy
  Ca  Ca0  1  0.137571  0.509024  0.749093  1
  Nd  Nd1  1  0.814471  0.331388  0.614952  1
  Nd  Nd2  1  0.455261  0.686346  0.898026  1
  Nd  Nd3  1  0.958143  0.813437  0.897964  1
  Nd  Nd4  1  0.185633  0.684425  0.121162  1
  Nd  Nd5  1  0.690798  0.818432  0.120983  1
  Nd  Nd6  1  0.308197  0.179298  0.878158  1
  Nd  Nd7  1  0.186013  0.680022  0.379471  1
  Nd  Nd8  1  0.042610  0.188523  0.103230  1
  Nd  Nd9  1  0.310909  0.180690  0.622145  1
  Nd  Nd10  1  0.857965  0.491470  0.260545  1
  Nd  Nd11  1  0.364312  0.008219  0.253044  1
  Nd  Nd12  1  0.537539  0.317694  0.399052  1
  Nd  Nd13  1  0.813080  0.317586  0.878149  1
  Nd  Nd14  1  0.964239  0.812523  0.598781  1
  Nd  Nd15  1  0.458553  0.685453  0.602043  1
  Nd  Nd16  1  0.040945  0.186779  0.400337  1
  Nd  Nd17  1  0.692869  0.812892  0.384260  1
  Nd  Nd18  1  0.638356  0.995128  0.748351  1
  Nd  Nd19  1  0.543622  0.313512  0.102581  1
  Si  Si20  1  0.478837  0.603245  0.245521  1
  Si  Si21  1  0.252060  0.379233  0.247042  1
  Si  Si22  1  0.519390  0.400534  0.750941  1
  Si  Si23  1  0.632078  0.024888  0.957968  1
  Si  Si24  1  0.015611  0.096761  0.748811  1
  Si  Si25  1  0.744929  0.622428  0.750793  1
  Si  Si26  1  0.749723  0.120232  0.248044  1
  Si  Si27  1  0.365426  0.970689  0.461537  1
  Si  Si28  1  0.981953  0.903058  0.248216  1
  Si  Si29  1  0.364888  0.975290  0.040959  1
  Si  Si30  1  0.634335  0.023915  0.543144  1
  Si  Si31  1  0.136090  0.473083  0.961007  1
  Si  Si32  1  0.146798  0.473558  0.538768  1
  Si  Si33  1  0.865380  0.526073  0.039389  1
  Si  Si34  1  0.246994  0.878632  0.750789  1
  Ir  Ir35  1  0.864424  0.515540  0.454742  1
