# generated using pymatgen
data_Tb3Pr3(Sn6Ru)2
_symmetry_space_group_name_H-M   'P 1'
_cell_length_a   8.63861908
_cell_length_b   8.63861861
_cell_length_c   13.41777134
_cell_angle_alpha   90.02406342
_cell_angle_beta   89.97593624
_cell_angle_gamma   148.49236211
_symmetry_Int_Tables_number   1
_chemical_formula_structural   Tb3Pr3(Sn6Ru)2
_chemical_formula_sum   'Tb3 Pr3 Sn12 Ru2'
_cell_volume   523.29734667
_cell_formula_units_Z   1
loop_
 _symmetry_equiv_pos_site_id
 _symmetry_equiv_pos_as_xyz
  1  'x, y, z'
loop_
 _atom_site_type_symbol
 _atom_site_label
 _atom_site_symmetry_multiplicity
 _atom_site_fract_x
 _atom_site_fract_y
 _atom_site_fract_z
 _atom_site_occupancy
  Tb  Tb0  1  0.602446  0.397554  0.249716  1
  Tb  Tb1  1  0.397636  0.602364  0.751026  1
  Tb  Tb2  1  0.603517  0.396483  0.902013  1
  Pr  Pr3  1  0.399912  0.600088  0.404239  1
  Pr  Pr4  1  0.600227  0.399773  0.597139  1
  Pr  Pr5  1  0.399934  0.600066  0.094745  1
  Sn  Sn6  1  0.925658  0.074342  0.923022  1
  Sn  Sn7  1  0.074936  0.925064  0.073564  1
  Sn  Sn8  1  0.925858  0.074142  0.578602  1
  Sn  Sn9  1  0.074714  0.925286  0.422319  1
  Sn  Sn10  1  0.961042  0.038958  0.248892  1
  Sn  Sn11  1  0.039133  0.960867  0.753158  1
  Sn  Sn12  1  0.743083  0.256918  0.431697  1
  Sn  Sn13  1  0.256697  0.743303  0.569123  1
  Sn  Sn14  1  0.741105  0.258896  0.067254  1
  Sn  Sn15  1  0.256244  0.743756  0.932252  1
  Sn  Sn16  1  0.230357  0.769643  0.249800  1
  Sn  Sn17  1  0.768911  0.231089  0.751006  1
  Ru  Ru18  1  0.800547  0.199453  0.248962  1
  Ru  Ru19  1  0.198044  0.801956  0.751468  1
