# generated using pymatgen
data_ErLu3ReB12Ir
_symmetry_space_group_name_H-M   'P 1'
_cell_length_a   3.61751300
_cell_length_b   9.05365692
_cell_length_c   11.43960002
_cell_angle_alpha   90.28506445
_cell_angle_beta   90.00000000
_cell_angle_gamma   90.00000000
_symmetry_Int_Tables_number   1
_chemical_formula_structural   ErLu3ReB12Ir
_chemical_formula_sum   'Er2 Lu6 Re2 B24 Ir2'
_cell_volume   374.66195790
_cell_formula_units_Z   2
loop_
 _symmetry_equiv_pos_site_id
 _symmetry_equiv_pos_as_xyz
  1  'x, y, z'
loop_
 _atom_site_type_symbol
 _atom_site_label
 _atom_site_symmetry_multiplicity
 _atom_site_fract_x
 _atom_site_fract_y
 _atom_site_fract_z
 _atom_site_occupancy
  Er  Er0  1  0.000000  0.316154  0.409976  1
  Er  Er1  1  0.000000  0.683846  0.590024  1
  Lu  Lu2  1  0.000000  0.826106  0.081721  1
  Lu  Lu3  1  0.000000  0.173894  0.918279  1
  Lu  Lu4  1  0.000000  0.946416  0.372268  1
  Lu  Lu5  1  0.000000  0.053584  0.627732  1
  Lu  Lu6  1  0.000000  0.441778  0.125398  1
  Lu  Lu7  1  0.000000  0.558222  0.874602  1
  Re  Re8  1  0.000000  0.138058  0.179623  1
  Re  Re9  1  0.000000  0.861942  0.820377  1
  B  B10  1  0.500000  0.554320  0.434225  1
  B  B11  1  0.500000  0.445680  0.565775  1
  B  B12  1  0.500000  0.052899  0.066377  1
  B  B13  1  0.500000  0.947101  0.933623  1
  B  B14  1  0.500000  0.750978  0.421141  1
  B  B15  1  0.500000  0.249022  0.578859  1
  B  B16  1  0.500000  0.249076  0.079781  1
  B  B17  1  0.500000  0.750924  0.920219  1
  B  B18  1  0.500000  0.792293  0.264989  1
  B  B19  1  0.500000  0.207707  0.735011  1
  B  B20  1  0.500000  0.293185  0.234341  1
  B  B21  1  0.500000  0.706815  0.765659  1
  B  B22  1  0.500000  0.631562  0.182768  1
  B  B23  1  0.500000  0.368438  0.817232  1
  B  B24  1  0.500000  0.130775  0.315314  1
  B  B25  1  0.500000  0.869225  0.684686  1
  B  B26  1  0.500000  0.981089  0.213010  1
  B  B27  1  0.500000  0.018911  0.786990  1
  B  B28  1  0.500000  0.481755  0.286632  1
  B  B29  1  0.500000  0.518245  0.713368  1
  B  B30  1  0.500000  0.604949  0.029388  1
  B  B31  1  0.500000  0.395051  0.970612  1
  B  B32  1  0.500000  0.104287  0.471776  1
  B  B33  1  0.500000  0.895713  0.528224  1
  Ir  Ir34  1  0.000000  0.637497  0.321497  1
  Ir  Ir35  1  0.000000  0.362503  0.678503  1
