# generated using pymatgen
data_Dy4Tm2Ti3Al21Ru8
_symmetry_space_group_name_H-M   'P 1'
_cell_length_a   8.86267400
_cell_length_b   8.85380529
_cell_length_c   9.53975252
_cell_angle_alpha   89.96733811
_cell_angle_beta   90.00000000
_cell_angle_gamma   120.03314096
_symmetry_Int_Tables_number   1
_chemical_formula_structural   Dy4Tm2Ti3Al21Ru8
_chemical_formula_sum   'Dy4 Tm2 Ti3 Al21 Ru8'
_cell_volume   648.06304613
_cell_formula_units_Z   1
loop_
 _symmetry_equiv_pos_site_id
 _symmetry_equiv_pos_as_xyz
  1  'x, y, z'
loop_
 _atom_site_type_symbol
 _atom_site_label
 _atom_site_symmetry_multiplicity
 _atom_site_fract_x
 _atom_site_fract_y
 _atom_site_fract_z
 _atom_site_occupancy
  Dy  Dy0  1  0.806662  0.193337  0.750963  1
  Dy  Dy1  1  0.192481  0.807875  0.249857  1
  Dy  Dy2  1  0.386675  0.193337  0.750963  1
  Dy  Dy3  1  0.615395  0.807875  0.249857  1
  Tm  Tm4  1  0.805239  0.610478  0.751349  1
  Tm  Tm5  1  0.193495  0.386990  0.249769  1
  Ti  Ti6  1  0.666638  0.333275  0.003796  1
  Ti  Ti7  1  0.333325  0.666652  0.004182  1
  Ti  Ti8  1  0.333139  0.666279  0.494204  1
  Al  Al9  1  0.666766  0.333531  0.520513  1
  Al  Al10  1  0.838895  0.162138  0.422355  1
  Al  Al11  1  0.158437  0.840507  0.576225  1
  Al  Al12  1  0.323245  0.162138  0.422355  1
  Al  Al13  1  0.158877  0.840280  0.922442  1
  Al  Al14  1  0.682071  0.840507  0.576225  1
  Al  Al15  1  0.840996  0.159860  0.076914  1
  Al  Al16  1  0.838333  0.676665  0.423132  1
  Al  Al17  1  0.681404  0.840280  0.922442  1
  Al  Al18  1  0.158920  0.317839  0.575153  1
  Al  Al19  1  0.318865  0.159860  0.076914  1
  Al  Al20  1  0.159348  0.318696  0.923453  1
  Al  Al21  1  0.840591  0.681182  0.075949  1
  Al  Al22  1  0.439439  0.561239  0.747794  1
  Al  Al23  1  0.560547  0.439204  0.249799  1
  Al  Al24  1  0.121798  0.561239  0.747794  1
  Al  Al25  1  0.878657  0.439204  0.249799  1
  Al  Al26  1  0.438673  0.877349  0.747795  1
  Al  Al27  1  0.561224  0.122448  0.249996  1
  Al  Al28  1  0.998877  0.997754  0.750547  1
  Al  Al29  1  0.001019  0.002039  0.251202  1
  Ru  Ru30  1  0.499715  0.500384  0.997045  1
  Ru  Ru31  1  0.000668  0.500384  0.997045  1
  Ru  Ru32  1  0.498501  0.501219  0.497717  1
  Ru  Ru33  1  0.499632  0.999264  0.997283  1
  Ru  Ru34  1  0.002717  0.501219  0.497717  1
  Ru  Ru35  1  0.498673  0.997347  0.497842  1
  Ru  Ru36  1  0.000064  0.000129  0.001227  1
  Ru  Ru37  1  0.999999  0.999998  0.500375  1
