# generated using pymatgen
data_TlSb12(RuPt)2
_symmetry_space_group_name_H-M   'P 1'
_cell_length_a   8.19063032
_cell_length_b   8.19062256
_cell_length_c   8.19063200
_cell_angle_alpha   109.48587119
_cell_angle_beta   109.44144764
_cell_angle_gamma   109.48638893
_symmetry_Int_Tables_number   1
_chemical_formula_structural   TlSb12(RuPt)2
_chemical_formula_sum   'Tl1 Sb12 Ru2 Pt2'
_cell_volume   422.98936611
_cell_formula_units_Z   1
loop_
 _symmetry_equiv_pos_site_id
 _symmetry_equiv_pos_as_xyz
  1  'x, y, z'
loop_
 _atom_site_type_symbol
 _atom_site_label
 _atom_site_symmetry_multiplicity
 _atom_site_fract_x
 _atom_site_fract_y
 _atom_site_fract_z
 _atom_site_occupancy
  Tl  Tl0  1  0.000000  0.000000  0.000000  1
  Sb  Sb1  1  0.157230  0.492054  0.334816  1
  Sb  Sb2  1  0.504963  0.655174  0.840477  1
  Sb  Sb3  1  0.335513  0.841058  0.185287  1
  Sb  Sb4  1  0.814698  0.655168  0.150209  1
  Sb  Sb5  1  0.655775  0.841062  0.505546  1
  Sb  Sb6  1  0.185302  0.344832  0.849791  1
  Sb  Sb7  1  0.664487  0.158942  0.814713  1
  Sb  Sb8  1  0.344225  0.158938  0.494454  1
  Sb  Sb9  1  0.495037  0.344826  0.159523  1
  Sb  Sb10  1  0.842770  0.507946  0.665184  1
  Sb  Sb11  1  0.847915  0.193656  0.345731  1
  Sb  Sb12  1  0.152085  0.806344  0.654269  1
  Ru  Ru13  1  0.500000  0.500000  0.500000  1
  Ru  Ru14  1  0.000000  0.500000  0.000000  1
  Pt  Pt15  1  0.500000  0.000000  0.000000  1
  Pt  Pt16  1  0.000000  0.000000  0.500000  1
