# generated using pymatgen
data_SrHoSiGe3N7
_symmetry_space_group_name_H-M   'P 1'
_cell_length_a   6.26001500
_cell_length_b   6.26001423
_cell_length_c   10.10292200
_cell_angle_alpha   90.00000000
_cell_angle_beta   90.00000000
_cell_angle_gamma   119.99998819
_symmetry_Int_Tables_number   1
_chemical_formula_structural   SrHoSiGe3N7
_chemical_formula_sum   'Sr2 Ho2 Si2 Ge6 N14'
_cell_volume   342.86912409
_cell_formula_units_Z   2
loop_
 _symmetry_equiv_pos_site_id
 _symmetry_equiv_pos_as_xyz
  1  'x, y, z'
loop_
 _atom_site_type_symbol
 _atom_site_label
 _atom_site_symmetry_multiplicity
 _atom_site_fract_x
 _atom_site_fract_y
 _atom_site_fract_z
 _atom_site_occupancy
  Sr  Sr0  1  0.666667  0.333333  0.581548  1
  Sr  Sr1  1  0.333333  0.666667  0.081548  1
  Ho  Ho2  1  0.666667  0.333333  0.952915  1
  Ho  Ho3  1  0.333333  0.666667  0.452915  1
  Si  Si4  1  0.000000  0.000000  0.026989  1
  Si  Si5  1  0.000000  0.000000  0.526989  1
  Ge  Ge6  1  0.171750  0.343500  0.760813  1
  Ge  Ge7  1  0.828250  0.171750  0.260813  1
  Ge  Ge8  1  0.343500  0.171750  0.260813  1
  Ge  Ge9  1  0.656500  0.828250  0.760813  1
  Ge  Ge10  1  0.171750  0.828250  0.760813  1
  Ge  Ge11  1  0.828250  0.656500  0.260813  1
  N  N12  1  0.000000  0.000000  0.842456  1
  N  N13  1  0.000000  0.000000  0.342456  1
  N  N14  1  0.848517  0.697036  0.079284  1
  N  N15  1  0.151483  0.848517  0.579284  1
  N  N16  1  0.697036  0.848517  0.579284  1
  N  N17  1  0.302964  0.151483  0.079284  1
  N  N18  1  0.848517  0.151483  0.079284  1
  N  N19  1  0.151483  0.302964  0.579284  1
  N  N20  1  0.495815  0.504185  0.816208  1
  N  N21  1  0.991630  0.495815  0.316208  1
  N  N22  1  0.504185  0.008370  0.316208  1
  N  N23  1  0.495815  0.991630  0.816208  1
  N  N24  1  0.504185  0.495815  0.316208  1
  N  N25  1  0.008370  0.504185  0.816208  1
