# generated using pymatgen
data_Cs7Rb5Na8(SiP3)4
_symmetry_space_group_name_H-M   'P 1'
_cell_length_a   10.51104699
_cell_length_b   10.51204354
_cell_length_c   15.83027029
_cell_angle_alpha   89.93971207
_cell_angle_beta   90.14598684
_cell_angle_gamma   142.31135504
_symmetry_Int_Tables_number   1
_chemical_formula_structural   Cs7Rb5Na8(SiP3)4
_chemical_formula_sum   'Cs7 Rb5 Na8 Si4 P12'
_cell_volume   1069.35964319
_cell_formula_units_Z   1
loop_
 _symmetry_equiv_pos_site_id
 _symmetry_equiv_pos_as_xyz
  1  'x, y, z'
loop_
 _atom_site_type_symbol
 _atom_site_label
 _atom_site_symmetry_multiplicity
 _atom_site_fract_x
 _atom_site_fract_y
 _atom_site_fract_z
 _atom_site_occupancy
  Cs  Cs0  1  0.939748  0.611249  0.827193  1
  Cs  Cs1  1  0.561398  0.887634  0.328374  1
  Cs  Cs2  1  0.387350  0.060952  0.171860  1
  Cs  Cs3  1  0.061244  0.387158  0.171856  1
  Cs  Cs4  1  0.886809  0.560303  0.328144  1
  Cs  Cs5  1  0.440054  0.112938  0.672386  1
  Cs  Cs6  1  0.612901  0.940006  0.826862  1
  Rb  Rb7  1  0.257016  0.257422  0.324189  1
  Rb  Rb8  1  0.757643  0.757579  0.176211  1
  Rb  Rb9  1  0.241801  0.242397  0.822758  1
  Rb  Rb10  1  0.743068  0.743216  0.677110  1
  Rb  Rb11  1  0.107719  0.430370  0.667192  1
  Na  Na12  1  0.923058  0.077119  0.999278  1
  Na  Na13  1  0.576433  0.423001  0.500194  1
  Na  Na14  1  0.076445  0.923013  0.999751  1
  Na  Na15  1  0.424777  0.579608  0.501973  1
  Na  Na16  1  0.753768  0.245299  0.999609  1
  Na  Na17  1  0.746927  0.256239  0.500935  1
  Na  Na18  1  0.245588  0.754419  0.999388  1
  Na  Na19  1  0.254818  0.745670  0.501688  1
  Si  Si20  1  0.583375  0.416374  0.999812  1
  Si  Si21  1  0.917859  0.084572  0.501078  1
  Si  Si22  1  0.416321  0.583671  0.998916  1
  Si  Si23  1  0.083483  0.916122  0.500517  1
  P  P24  1  0.848530  0.550856  0.085298  1
  P  P25  1  0.448343  0.151156  0.914881  1
  P  P26  1  0.655304  0.953662  0.587040  1
  P  P27  1  0.948661  0.651010  0.585708  1
  P  P28  1  0.150504  0.449112  0.913036  1
  P  P29  1  0.550324  0.848003  0.084520  1
  P  P30  1  0.347374  0.049604  0.415411  1
  P  P31  1  0.177244  0.177207  0.577068  1
  P  P32  1  0.675623  0.675643  0.923279  1
  P  P33  1  0.323624  0.324357  0.075949  1
  P  P34  1  0.051632  0.349351  0.416106  1
  P  P35  1  0.823236  0.823705  0.424430  1
