# generated using pymatgen
data_Ho13Lu3(InRh)4
_symmetry_space_group_name_H-M   'P 1'
_cell_length_a   9.59775831
_cell_length_b   9.59272784
_cell_length_c   9.58212671
_cell_angle_alpha   60.07128102
_cell_angle_beta   59.98035413
_cell_angle_gamma   59.90956957
_symmetry_Int_Tables_number   1
_chemical_formula_structural   Ho13Lu3(InRh)4
_chemical_formula_sum   'Ho13 Lu3 In4 Rh4'
_cell_volume   623.63393964
_cell_formula_units_Z   1
loop_
 _symmetry_equiv_pos_site_id
 _symmetry_equiv_pos_as_xyz
  1  'x, y, z'
loop_
 _atom_site_type_symbol
 _atom_site_label
 _atom_site_symmetry_multiplicity
 _atom_site_fract_x
 _atom_site_fract_y
 _atom_site_fract_z
 _atom_site_occupancy
  Ho  Ho0  1  0.649608  0.049346  0.650525  1
  Ho  Ho1  1  0.061431  0.062620  0.438523  1
  Ho  Ho2  1  0.438523  0.437427  0.061431  1
  Ho  Ho3  1  0.650525  0.650522  0.649608  1
  Ho  Ho4  1  0.812143  0.187597  0.187619  1
  Ho  Ho5  1  0.187619  0.812640  0.812143  1
  Ho  Ho6  1  0.049704  0.649839  0.649843  1
  Ho  Ho7  1  0.438888  0.062365  0.061034  1
  Ho  Ho8  1  0.438040  0.061960  0.438040  1
  Ho  Ho9  1  0.061981  0.438019  0.061981  1
  Ho  Ho10  1  0.649843  0.650616  0.049704  1
  Ho  Ho11  1  0.188105  0.811895  0.188105  1
  Ho  Ho12  1  0.061034  0.437713  0.438888  1
  Lu  Lu13  1  0.811280  0.811885  0.188475  1
  Lu  Lu14  1  0.812089  0.187911  0.812089  1
  Lu  Lu15  1  0.188475  0.188359  0.811280  1
  In  In16  1  0.417124  0.416577  0.417411  1
  In  In17  1  0.417527  0.416704  0.748669  1
  In  In18  1  0.417411  0.748887  0.417124  1
  In  In19  1  0.748669  0.417100  0.417527  1
  Rh  Rh20  1  0.859582  0.424636  0.856762  1
  Rh  Rh21  1  0.856762  0.859021  0.859582  1
  Rh  Rh22  1  0.857373  0.856781  0.426266  1
  Rh  Rh23  1  0.426266  0.859582  0.857373  1
