# generated using pymatgen
data_LaPr3Er4(HgIr)2
_symmetry_space_group_name_H-M   'P 1'
_cell_length_a   9.74761884
_cell_length_b   9.74761837
_cell_length_c   9.75374558
_cell_angle_alpha   60.39631005
_cell_angle_beta   60.39631196
_cell_angle_gamma   60.39806429
_symmetry_Int_Tables_number   1
_chemical_formula_structural   LaPr3Er4(HgIr)2
_chemical_formula_sum   'La2 Pr6 Er8 Hg4 Ir4'
_cell_volume   661.20212000
_cell_formula_units_Z   2
loop_
 _symmetry_equiv_pos_site_id
 _symmetry_equiv_pos_as_xyz
  1  'x, y, z'
loop_
 _atom_site_type_symbol
 _atom_site_label
 _atom_site_symmetry_multiplicity
 _atom_site_fract_x
 _atom_site_fract_y
 _atom_site_fract_z
 _atom_site_occupancy
  La  La0  1  0.348984  0.348984  0.351057  1
  La  La1  1  0.349420  0.349420  0.950336  1
  Pr  Pr2  1  0.941243  0.559737  0.558798  1
  Pr  Pr3  1  0.558047  0.941155  0.941544  1
  Pr  Pr4  1  0.559737  0.941243  0.558798  1
  Pr  Pr5  1  0.941155  0.558047  0.941544  1
  Pr  Pr6  1  0.561344  0.561344  0.938719  1
  Pr  Pr7  1  0.943031  0.943031  0.556772  1
  Er  Er8  1  0.349423  0.948825  0.350512  1
  Er  Er9  1  0.948825  0.349423  0.350512  1
  Er  Er10  1  0.814862  0.186157  0.186284  1
  Er  Er11  1  0.185600  0.814732  0.812521  1
  Er  Er12  1  0.186157  0.814862  0.186284  1
  Er  Er13  1  0.814732  0.185600  0.812521  1
  Er  Er14  1  0.184508  0.184508  0.815171  1
  Er  Er15  1  0.812458  0.812458  0.186568  1
  Hg  Hg16  1  0.584414  0.584414  0.578624  1
  Hg  Hg17  1  0.584868  0.584868  0.252103  1
  Hg  Hg18  1  0.587150  0.251213  0.581279  1
  Hg  Hg19  1  0.251213  0.587150  0.581279  1
  Ir  Ir20  1  0.138334  0.138334  0.145945  1
  Ir  Ir21  1  0.138368  0.138368  0.577927  1
  Ir  Ir22  1  0.135553  0.580571  0.142450  1
  Ir  Ir23  1  0.580571  0.135553  0.142450  1
