# generated using pymatgen
data_Dy20Os7Pt5
_symmetry_space_group_name_H-M   'P 1'
_cell_length_a   10.92979158
_cell_length_b   10.92979200
_cell_length_c   6.45544888
_cell_angle_alpha   90.04879216
_cell_angle_beta   90.04879039
_cell_angle_gamma   89.72799629
_symmetry_Int_Tables_number   1
_chemical_formula_structural   Dy20Os7Pt5
_chemical_formula_sum   'Dy20 Os7 Pt5'
_cell_volume   771.16092638
_cell_formula_units_Z   1
loop_
 _symmetry_equiv_pos_site_id
 _symmetry_equiv_pos_as_xyz
  1  'x, y, z'
loop_
 _atom_site_type_symbol
 _atom_site_label
 _atom_site_symmetry_multiplicity
 _atom_site_fract_x
 _atom_site_fract_y
 _atom_site_fract_z
 _atom_site_occupancy
  Dy  Dy0  1  0.297321  0.089408  0.373393  1
  Dy  Dy1  1  0.297193  0.909601  0.872908  1
  Dy  Dy2  1  0.701838  0.083606  0.872298  1
  Dy  Dy3  1  0.701992  0.909849  0.373110  1
  Dy  Dy4  1  0.582637  0.789521  0.877895  1
  Dy  Dy5  1  0.580950  0.205773  0.372111  1
  Dy  Dy6  1  0.416361  0.791683  0.376647  1
  Dy  Dy7  1  0.412361  0.206473  0.879785  1
  Dy  Dy8  1  0.210479  0.417363  0.622105  1
  Dy  Dy9  1  0.208317  0.583639  0.123353  1
  Dy  Dy10  1  0.794227  0.419050  0.127889  1
  Dy  Dy11  1  0.793527  0.587639  0.620215  1
  Dy  Dy12  1  0.910592  0.702679  0.126607  1
  Dy  Dy13  1  0.916394  0.298162  0.627702  1
  Dy  Dy14  1  0.090399  0.702807  0.627092  1
  Dy  Dy15  1  0.090151  0.298008  0.126890  1
  Dy  Dy16  1  0.999676  0.999814  0.499436  1
  Dy  Dy17  1  0.000186  0.000324  0.000564  1
  Dy  Dy18  1  0.497302  0.501546  0.002518  1
  Dy  Dy19  1  0.498454  0.502698  0.497482  1
  Os  Os20  1  0.653883  0.651969  0.249186  1
  Os  Os21  1  0.348031  0.346117  0.250814  1
  Os  Os22  1  0.345624  0.654376  0.750000  1
  Os  Os23  1  0.500028  0.000626  0.121811  1
  Os  Os24  1  0.500075  0.000432  0.623911  1
  Os  Os25  1  0.999568  0.499925  0.876089  1
  Os  Os26  1  0.999374  0.499972  0.378189  1
  Pt  Pt27  1  0.847654  0.152346  0.250000  1
  Pt  Pt28  1  0.849255  0.850041  0.750213  1
  Pt  Pt29  1  0.149959  0.150745  0.749787  1
  Pt  Pt30  1  0.150895  0.849105  0.250000  1
  Pt  Pt31  1  0.655296  0.344704  0.750000  1
