# generated using pymatgen
data_Dy2Er8(InBi)3
_symmetry_space_group_name_H-M   'P 1'
_cell_length_a   9.00054419
_cell_length_b   9.00857629
_cell_length_c   6.52958700
_cell_angle_alpha   90.00000000
_cell_angle_beta   90.00000000
_cell_angle_gamma   120.02951722
_symmetry_Int_Tables_number   1
_chemical_formula_structural   Dy2Er8(InBi)3
_chemical_formula_sum   'Dy2 Er8 In3 Bi3'
_cell_volume   458.36560619
_cell_formula_units_Z   1
loop_
 _symmetry_equiv_pos_site_id
 _symmetry_equiv_pos_as_xyz
  1  'x, y, z'
loop_
 _atom_site_type_symbol
 _atom_site_label
 _atom_site_symmetry_multiplicity
 _atom_site_fract_x
 _atom_site_fract_y
 _atom_site_fract_z
 _atom_site_occupancy
  Dy  Dy0  1  0.763609  0.763772  0.750000  1
  Dy  Dy1  1  0.236391  0.000163  0.750000  1
  Er  Er2  1  0.666658  0.333297  0.007279  1
  Er  Er3  1  0.333342  0.666640  0.007279  1
  Er  Er4  1  0.333342  0.666640  0.492721  1
  Er  Er5  1  0.666658  0.333297  0.492721  1
  Er  Er6  1  0.000000  0.236466  0.750000  1
  Er  Er7  1  0.238030  0.238173  0.250000  1
  Er  Er8  1  0.761970  0.000144  0.250000  1
  Er  Er9  1  0.000000  0.761671  0.250000  1
  In  In10  1  0.606795  0.606789  0.250000  1
  In  In11  1  0.393205  0.999994  0.250000  1
  In  In12  1  0.000000  0.393296  0.250000  1
  Bi  Bi13  1  0.396183  0.396525  0.750000  1
  Bi  Bi14  1  0.603817  0.000342  0.750000  1
  Bi  Bi15  1  0.000000  0.602791  0.750000  1
