# generated using pymatgen
data_La3(MgSb3)2
_symmetry_space_group_name_H-M   'P 1'
_cell_length_a   4.27646700
_cell_length_b   11.20936000
_cell_length_c   13.34191400
_cell_angle_alpha   90.00000000
_cell_angle_beta   90.00000000
_cell_angle_gamma   90.00000000
_symmetry_Int_Tables_number   1
_chemical_formula_structural   La3(MgSb3)2
_chemical_formula_sum   'La6 Mg4 Sb12'
_cell_volume   639.56410185
_cell_formula_units_Z   2
loop_
 _symmetry_equiv_pos_site_id
 _symmetry_equiv_pos_as_xyz
  1  'x, y, z'
loop_
 _atom_site_type_symbol
 _atom_site_label
 _atom_site_symmetry_multiplicity
 _atom_site_fract_x
 _atom_site_fract_y
 _atom_site_fract_z
 _atom_site_occupancy
  La  La0  1  0.750000  0.267791  0.750000  1
  La  La1  1  0.750000  0.275828  0.412607  1
  La  La2  1  0.250000  0.724172  0.912607  1
  La  La3  1  0.250000  0.724172  0.587393  1
  La  La4  1  0.250000  0.732209  0.250000  1
  La  La5  1  0.750000  0.275828  0.087393  1
  Mg  Mg6  1  0.250000  0.003616  0.095905  1
  Mg  Mg7  1  0.250000  0.003616  0.404095  1
  Mg  Mg8  1  0.750000  0.996384  0.595905  1
  Mg  Mg9  1  0.750000  0.996384  0.904095  1
  Sb  Sb10  1  0.750000  0.502921  0.250000  1
  Sb  Sb11  1  0.750000  0.493979  0.916503  1
  Sb  Sb12  1  0.750000  0.825030  0.750000  1
  Sb  Sb13  1  0.750000  0.833706  0.419787  1
  Sb  Sb14  1  0.250000  0.166294  0.919787  1
  Sb  Sb15  1  0.250000  0.166294  0.580213  1
  Sb  Sb16  1  0.250000  0.174970  0.250000  1
  Sb  Sb17  1  0.250000  0.506021  0.083497  1
  Sb  Sb18  1  0.250000  0.497079  0.750000  1
  Sb  Sb19  1  0.250000  0.506021  0.416503  1
  Sb  Sb20  1  0.750000  0.493979  0.583497  1
  Sb  Sb21  1  0.750000  0.833706  0.080213  1
