# generated using pymatgen
data_Ho10In8Rh3Au
_symmetry_space_group_name_H-M   'P 1'
_cell_length_a   3.60662200
_cell_length_b   8.12752884
_cell_length_c   18.29074983
_cell_angle_alpha   89.90559219
_cell_angle_beta   90.00000000
_cell_angle_gamma   90.00000000
_symmetry_Int_Tables_number   1
_chemical_formula_structural   Ho10In8Rh3Au
_chemical_formula_sum   'Ho10 In8 Rh3 Au1'
_cell_volume   536.15463780
_cell_formula_units_Z   1
loop_
 _symmetry_equiv_pos_site_id
 _symmetry_equiv_pos_as_xyz
  1  'x, y, z'
loop_
 _atom_site_type_symbol
 _atom_site_label
 _atom_site_symmetry_multiplicity
 _atom_site_fract_x
 _atom_site_fract_y
 _atom_site_fract_z
 _atom_site_occupancy
  Ho  Ho0  1  0.000000  0.499971  0.500801  1
  Ho  Ho1  1  0.000000  0.001446  0.999588  1
  Ho  Ho2  1  0.000000  0.725408  0.277308  1
  Ho  Ho3  1  0.000000  0.254486  0.722121  1
  Ho  Ho4  1  0.000000  0.754460  0.777716  1
  Ho  Ho5  1  0.000000  0.260757  0.218070  1
  Ho  Ho6  1  0.000000  0.616946  0.085925  1
  Ho  Ho7  1  0.000000  0.383698  0.910718  1
  Ho  Ho8  1  0.000000  0.884257  0.589471  1
  Ho  Ho9  1  0.000000  0.120891  0.419417  1
  In  In10  1  0.500000  0.707731  0.931367  1
  In  In11  1  0.500000  0.293933  0.067051  1
  In  In12  1  0.500000  0.791572  0.433877  1
  In  In13  1  0.500000  0.207297  0.569279  1
  In  In14  1  0.500000  0.570556  0.649973  1
  In  In15  1  0.500000  0.425448  0.350889  1
  In  In16  1  0.500000  0.922231  0.148466  1
  In  In17  1  0.500000  0.070693  0.850130  1
  Rh  Rh18  1  0.500000  0.523919  0.194714  1
  Rh  Rh19  1  0.500000  0.480442  0.804837  1
  Rh  Rh20  1  0.500000  0.979802  0.695607  1
  Au  Au21  1  0.500000  0.024057  0.302674  1
