# generated using pymatgen
data_Li5TcNO4
_symmetry_space_group_name_H-M   'P 1'
_cell_length_a   5.21175032
_cell_length_b   5.21176173
_cell_length_c   9.71869300
_cell_angle_alpha   90.00000000
_cell_angle_beta   90.00000000
_cell_angle_gamma   123.24206901
_symmetry_Int_Tables_number   1
_chemical_formula_structural   Li5TcNO4
_chemical_formula_sum   'Li10 Tc2 N2 O8'
_cell_volume   220.78539073
_cell_formula_units_Z   2
loop_
 _symmetry_equiv_pos_site_id
 _symmetry_equiv_pos_as_xyz
  1  'x, y, z'
loop_
 _atom_site_type_symbol
 _atom_site_label
 _atom_site_symmetry_multiplicity
 _atom_site_fract_x
 _atom_site_fract_y
 _atom_site_fract_z
 _atom_site_occupancy
  Li  Li0  1  0.789031  0.217617  0.495295  1
  Li  Li1  1  0.782384  0.210969  0.995295  1
  Li  Li2  1  0.809663  0.411086  0.243438  1
  Li  Li3  1  0.588919  0.190336  0.743445  1
  Li  Li4  1  0.479905  0.479907  0.989927  1
  Li  Li5  1  0.520095  0.520093  0.489927  1
  Li  Li6  1  0.411081  0.809664  0.243445  1
  Li  Li7  1  0.190337  0.588914  0.743438  1
  Li  Li8  1  0.217616  0.789031  0.495295  1
  Li  Li9  1  0.210969  0.782383  0.995295  1
  Tc  Tc10  1  0.826479  0.826468  0.747585  1
  Tc  Tc11  1  0.173521  0.173532  0.247585  1
  N  N12  1  0.170058  0.170058  0.752984  1
  N  N13  1  0.829942  0.829942  0.252984  1
  O  O14  1  0.846065  0.550499  0.878876  1
  O  O15  1  0.449503  0.153933  0.378875  1
  O  O16  1  0.855894  0.561101  0.612374  1
  O  O17  1  0.438899  0.144105  0.112374  1
  O  O18  1  0.561101  0.855895  0.612374  1
  O  O19  1  0.144106  0.438899  0.112374  1
  O  O20  1  0.550497  0.846067  0.878875  1
  O  O21  1  0.153935  0.449501  0.378876  1
