# generated using pymatgen
data_Hf4TaNbGa6
_symmetry_space_group_name_H-M   'P 1'
_cell_length_a   5.52838900
_cell_length_b   8.48631400
_cell_length_c   9.15698100
_cell_angle_alpha   90.00000000
_cell_angle_beta   90.00000000
_cell_angle_gamma   90.00000000
_symmetry_Int_Tables_number   1
_chemical_formula_structural   Hf4TaNbGa6
_chemical_formula_sum   'Hf8 Ta2 Nb2 Ga12'
_cell_volume   429.60566958
_cell_formula_units_Z   2
loop_
 _symmetry_equiv_pos_site_id
 _symmetry_equiv_pos_as_xyz
  1  'x, y, z'
loop_
 _atom_site_type_symbol
 _atom_site_label
 _atom_site_symmetry_multiplicity
 _atom_site_fract_x
 _atom_site_fract_y
 _atom_site_fract_z
 _atom_site_occupancy
  Hf  Hf0  1  0.750120  0.469536  0.621506  1
  Hf  Hf1  1  0.250120  0.530464  0.378494  1
  Hf  Hf2  1  0.749880  0.969536  0.378494  1
  Hf  Hf3  1  0.249880  0.030464  0.621506  1
  Hf  Hf4  1  0.749977  0.367010  0.182347  1
  Hf  Hf5  1  0.249977  0.632990  0.817653  1
  Hf  Hf6  1  0.750023  0.867010  0.817653  1
  Hf  Hf7  1  0.250023  0.132990  0.182347  1
  Ta  Ta8  1  0.000000  0.250000  0.889384  1
  Ta  Ta9  1  0.500000  0.750000  0.110616  1
  Nb  Nb10  1  0.000000  0.750000  0.111088  1
  Nb  Nb11  1  0.500000  0.250000  0.888912  1
  Ga  Ga12  1  0.000000  0.750000  0.571129  1
  Ga  Ga13  1  0.500000  0.250000  0.428871  1
  Ga  Ga14  1  0.000000  0.250000  0.428773  1
  Ga  Ga15  1  0.500000  0.750000  0.571227  1
  Ga  Ga16  1  0.749722  0.044720  0.080138  1
  Ga  Ga17  1  0.249722  0.955280  0.919862  1
  Ga  Ga18  1  0.750278  0.544720  0.919862  1
  Ga  Ga19  1  0.250278  0.455280  0.080138  1
  Ga  Ga20  1  0.750428  0.132273  0.652811  1
  Ga  Ga21  1  0.250428  0.867727  0.347189  1
  Ga  Ga22  1  0.749572  0.632273  0.347189  1
  Ga  Ga23  1  0.249572  0.367727  0.652811  1
