# generated using pymatgen
data_Ta4AlGaTe8
_symmetry_space_group_name_H-M   'P 1'
_cell_length_a   8.16739065
_cell_length_b   6.56309423
_cell_length_c   7.71030900
_cell_angle_alpha   97.64395847
_cell_angle_beta   105.12129001
_cell_angle_gamma   89.69954127
_symmetry_Int_Tables_number   1
_chemical_formula_structural   Ta4AlGaTe8
_chemical_formula_sum   'Ta4 Al1 Ga1 Te8'
_cell_volume   395.25535502
_cell_formula_units_Z   1
loop_
 _symmetry_equiv_pos_site_id
 _symmetry_equiv_pos_as_xyz
  1  'x, y, z'
loop_
 _atom_site_type_symbol
 _atom_site_label
 _atom_site_symmetry_multiplicity
 _atom_site_fract_x
 _atom_site_fract_y
 _atom_site_fract_z
 _atom_site_occupancy
  Ta  Ta0  1  0.088557  0.104456  0.999544  1
  Ta  Ta1  1  0.411443  0.895544  0.000456  1
  Ta  Ta2  1  0.591097  0.394153  0.000600  1
  Ta  Ta3  1  0.908903  0.605847  0.999400  1
  Al  Al4  1  0.250000  0.500000  0.000000  1
  Ga  Ga5  1  0.750000  0.000000  0.000000  1
  Te  Te6  1  0.078300  0.742666  0.749815  1
  Te  Te7  1  0.200041  0.819974  0.249475  1
  Te  Te8  1  0.299959  0.180026  0.750525  1
  Te  Te9  1  0.421700  0.257334  0.250185  1
  Te  Te10  1  0.572939  0.674216  0.748767  1
  Te  Te11  1  0.697559  0.752442  0.251603  1
  Te  Te12  1  0.802441  0.247558  0.748397  1
  Te  Te13  1  0.927061  0.325784  0.251233  1
