# generated using pymatgen
data_Cd2In3Fe(SeO3)8
_symmetry_space_group_name_H-M   'P 1'
_cell_length_a   4.87559762
_cell_length_b   8.82323156
_cell_length_c   16.24772518
_cell_angle_alpha   70.57620826
_cell_angle_beta   89.65427072
_cell_angle_gamma   89.75894375
_symmetry_Int_Tables_number   1
_chemical_formula_structural   Cd2In3Fe(SeO3)8
_chemical_formula_sum   'Cd2 In3 Fe1 Se8 O24'
_cell_volume   659.15823959
_cell_formula_units_Z   1
loop_
 _symmetry_equiv_pos_site_id
 _symmetry_equiv_pos_as_xyz
  1  'x, y, z'
loop_
 _atom_site_type_symbol
 _atom_site_label
 _atom_site_symmetry_multiplicity
 _atom_site_fract_x
 _atom_site_fract_y
 _atom_site_fract_z
 _atom_site_occupancy
  Cd  Cd0  1  0.004496  0.999712  0.998052  1
  Cd  Cd1  1  0.498411  0.001352  0.501555  1
  In  In2  1  0.971953  0.153424  0.287040  1
  In  In3  1  0.472661  0.847122  0.212968  1
  In  In4  1  0.025408  0.850525  0.713890  1
  Fe  Fe5  1  0.524497  0.147883  0.787676  1
  Se  Se6  1  0.553945  0.794131  0.879307  1
  Se  Se7  1  0.942574  0.783347  0.381164  1
  Se  Se8  1  0.444756  0.216527  0.118428  1
  Se  Se9  1  0.053691  0.217361  0.626555  1
  Se  Se10  1  0.007742  0.342852  0.860190  1
  Se  Se11  1  0.492987  0.350941  0.367171  1
  Se  Se12  1  0.996805  0.649615  0.132377  1
  Se  Se13  1  0.503816  0.649900  0.634251  1
  O  O14  1  0.749344  0.328941  0.789622  1
  O  O15  1  0.736712  0.354976  0.288303  1
  O  O16  1  0.238377  0.646375  0.210693  1
  O  O17  1  0.260070  0.647921  0.712656  1
  O  O18  1  0.814555  0.719924  0.832716  1
  O  O19  1  0.682886  0.716399  0.331812  1
  O  O20  1  0.183156  0.284107  0.167722  1
  O  O21  1  0.321706  0.269181  0.679877  1
  O  O22  1  0.222947  0.176316  0.866771  1
  O  O23  1  0.293984  0.179616  0.372482  1
  O  O24  1  0.794485  0.820431  0.126816  1
  O  O25  1  0.705217  0.820125  0.628445  1
  O  O26  1  0.689013  0.966660  0.894060  1
  O  O27  1  0.810500  0.952312  0.400555  1
  O  O28  1  0.313632  0.047620  0.099275  1
  O  O29  1  0.178052  0.052716  0.600730  1
  O  O30  1  0.362267  0.918114  0.790382  1
  O  O31  1  0.141174  0.907906  0.293509  1
  O  O32  1  0.642078  0.092307  0.206105  1
  O  O33  1  0.843609  0.091707  0.709726  1
  O  O34  1  0.867164  0.259174  0.961434  1
  O  O35  1  0.652569  0.259535  0.464376  1
  O  O36  1  0.156354  0.741734  0.034568  1
  O  O37  1  0.346407  0.741211  0.536743  1
