# generated using pymatgen
data_SmCo3Ni2As3
_symmetry_space_group_name_H-M   'P 1'
_cell_length_a   3.84624100
_cell_length_b   10.72459300
_cell_length_c   12.27146900
_cell_angle_alpha   90.00000000
_cell_angle_beta   90.00000000
_cell_angle_gamma   90.00000000
_symmetry_Int_Tables_number   1
_chemical_formula_structural   SmCo3Ni2As3
_chemical_formula_sum   'Sm4 Co12 Ni8 As12'
_cell_volume   506.19035669
_cell_formula_units_Z   4
loop_
 _symmetry_equiv_pos_site_id
 _symmetry_equiv_pos_as_xyz
  1  'x, y, z'
loop_
 _atom_site_type_symbol
 _atom_site_label
 _atom_site_symmetry_multiplicity
 _atom_site_fract_x
 _atom_site_fract_y
 _atom_site_fract_z
 _atom_site_occupancy
  Sm  Sm0  1  0.250000  0.580833  0.701882  1
  Sm  Sm1  1  0.250000  0.919167  0.201882  1
  Sm  Sm2  1  0.750000  0.419167  0.298118  1
  Sm  Sm3  1  0.750000  0.080833  0.798118  1
  Co  Co4  1  0.250000  0.216775  0.177332  1
  Co  Co5  1  0.250000  0.283225  0.677332  1
  Co  Co6  1  0.750000  0.783225  0.822668  1
  Co  Co7  1  0.750000  0.716775  0.322668  1
  Co  Co8  1  0.250000  0.881582  0.695915  1
  Co  Co9  1  0.250000  0.618418  0.195915  1
  Co  Co10  1  0.750000  0.118418  0.304085  1
  Co  Co11  1  0.750000  0.381582  0.804085  1
  Co  Co12  1  0.250000  0.469647  0.932407  1
  Co  Co13  1  0.250000  0.030353  0.432407  1
  Co  Co14  1  0.750000  0.530353  0.067593  1
  Co  Co15  1  0.750000  0.969647  0.567593  1
  Ni  Ni16  1  0.250000  0.707555  0.990817  1
  Ni  Ni17  1  0.250000  0.792445  0.490817  1
  Ni  Ni18  1  0.750000  0.292445  0.009183  1
  Ni  Ni19  1  0.750000  0.207555  0.509183  1
  Ni  Ni20  1  0.250000  0.409373  0.487010  1
  Ni  Ni21  1  0.250000  0.090627  0.987010  1
  Ni  Ni22  1  0.750000  0.590627  0.512990  1
  Ni  Ni23  1  0.750000  0.909373  0.012990  1
  As  As24  1  0.250000  0.416744  0.113188  1
  As  As25  1  0.250000  0.083256  0.613188  1
  As  As26  1  0.750000  0.583256  0.886812  1
  As  As27  1  0.750000  0.916744  0.386812  1
  As  As28  1  0.250000  0.271937  0.868169  1
  As  As29  1  0.250000  0.228063  0.368169  1
  As  As30  1  0.750000  0.728063  0.131831  1
  As  As31  1  0.750000  0.771937  0.631831  1
  As  As32  1  0.250000  0.606993  0.388792  1
  As  As33  1  0.250000  0.893007  0.888792  1
  As  As34  1  0.750000  0.393007  0.611208  1
  As  As35  1  0.750000  0.106993  0.111208  1
