# generated using pymatgen
data_Y12Tm4Cd4Pt3Rh
_symmetry_space_group_name_H-M   'P 1'
_cell_length_a   9.67924040
_cell_length_b   9.67924005
_cell_length_c   9.67923951
_cell_angle_alpha   59.80734664
_cell_angle_beta   59.80734831
_cell_angle_gamma   59.80734988
_symmetry_Int_Tables_number   1
_chemical_formula_structural   Y12Tm4Cd4Pt3Rh
_chemical_formula_sum   'Y12 Tm4 Cd4 Pt3 Rh1'
_cell_volume   638.41836491
_cell_formula_units_Z   1
loop_
 _symmetry_equiv_pos_site_id
 _symmetry_equiv_pos_as_xyz
  1  'x, y, z'
loop_
 _atom_site_type_symbol
 _atom_site_label
 _atom_site_symmetry_multiplicity
 _atom_site_fract_x
 _atom_site_fract_y
 _atom_site_fract_z
 _atom_site_occupancy
  Y  Y0  1  0.811293  0.190980  0.190980  1
  Y  Y1  1  0.190005  0.809459  0.809459  1
  Y  Y2  1  0.190980  0.811293  0.190980  1
  Y  Y3  1  0.809459  0.190005  0.809459  1
  Y  Y4  1  0.190980  0.190980  0.811293  1
  Y  Y5  1  0.809459  0.809459  0.190005  1
  Y  Y6  1  0.936429  0.564115  0.564115  1
  Y  Y7  1  0.561983  0.936854  0.936854  1
  Y  Y8  1  0.564115  0.936429  0.564115  1
  Y  Y9  1  0.936854  0.561983  0.936854  1
  Y  Y10  1  0.564115  0.564115  0.936429  1
  Y  Y11  1  0.936854  0.936854  0.561983  1
  Tm  Tm12  1  0.349971  0.349971  0.349971  1
  Tm  Tm13  1  0.351669  0.351669  0.946067  1
  Tm  Tm14  1  0.351669  0.946067  0.351669  1
  Tm  Tm15  1  0.946067  0.351669  0.351669  1
  Cd  Cd16  1  0.580781  0.580781  0.580781  1
  Cd  Cd17  1  0.581005  0.581005  0.255102  1
  Cd  Cd18  1  0.581005  0.255102  0.581005  1
  Cd  Cd19  1  0.255102  0.581005  0.581005  1
  Pt  Pt20  1  0.143895  0.143895  0.566948  1
  Pt  Pt21  1  0.143895  0.566948  0.143895  1
  Pt  Pt22  1  0.566948  0.143895  0.143895  1
  Rh  Rh23  1  0.145468  0.145468  0.145468  1
