# generated using pymatgen
data_Er7AsSe7
_symmetry_space_group_name_H-M   'P 1'
_cell_length_a   8.10049000
_cell_length_b   8.10048971
_cell_length_c   8.10049000
_cell_angle_alpha   120.00000118
_cell_angle_beta   90.00000000
_cell_angle_gamma   120.00000118
_symmetry_Int_Tables_number   1
_chemical_formula_structural   Er7AsSe7
_chemical_formula_sum   'Er7 As1 Se7'
_cell_volume   375.85371024
_cell_formula_units_Z   1
loop_
 _symmetry_equiv_pos_site_id
 _symmetry_equiv_pos_as_xyz
  1  'x, y, z'
loop_
 _atom_site_type_symbol
 _atom_site_label
 _atom_site_symmetry_multiplicity
 _atom_site_fract_x
 _atom_site_fract_y
 _atom_site_fract_z
 _atom_site_occupancy
  Er  Er0  1  0.245478  0.000000  0.245478  1
  Er  Er1  1  0.245478  0.490956  0.245478  1
  Er  Er2  1  0.754522  0.000000  0.245479  1
  Er  Er3  1  0.250001  0.500001  0.750002  1
  Er  Er4  1  0.245479  0.000000  0.754522  1
  Er  Er5  1  0.754522  0.000000  0.754522  1
  Er  Er6  1  0.754522  0.509043  0.754522  1
  As  As7  1  0.000000  0.000000  0.000000  1
  Se  Se8  1  0.500000  0.000000  0.500000  1
  Se  Se9  1  0.998848  0.997699  0.498850  1
  Se  Se10  1  0.998848  0.500001  0.498850  1
  Se  Se11  1  0.501153  0.500001  0.498850  1
  Se  Se12  1  0.998850  0.500001  0.001152  1
  Se  Se13  1  0.501151  0.500001  0.001152  1
  Se  Se14  1  0.501151  0.002300  0.001152  1
