# generated using pymatgen
data_TaNbCrP2Rh
_symmetry_space_group_name_H-M   'P 1'
_cell_length_a   3.62701500
_cell_length_b   6.36715402
_cell_length_c   7.27881902
_cell_angle_alpha   89.99184614
_cell_angle_beta   90.00000000
_cell_angle_gamma   90.00000000
_symmetry_Int_Tables_number   1
_chemical_formula_structural   TaNbCrP2Rh
_chemical_formula_sum   'Ta2 Nb2 Cr2 P4 Rh2'
_cell_volume   168.09532053
_cell_formula_units_Z   2
loop_
 _symmetry_equiv_pos_site_id
 _symmetry_equiv_pos_as_xyz
  1  'x, y, z'
loop_
 _atom_site_type_symbol
 _atom_site_label
 _atom_site_symmetry_multiplicity
 _atom_site_fract_x
 _atom_site_fract_y
 _atom_site_fract_z
 _atom_site_occupancy
  Ta  Ta0  1  0.250000  0.039156  0.830944  1
  Ta  Ta1  1  0.250000  0.516470  0.672306  1
  Nb  Nb2  1  0.750000  0.462209  0.331643  1
  Nb  Nb3  1  0.750000  0.983223  0.171751  1
  Cr  Cr4  1  0.750000  0.356444  0.935410  1
  Cr  Cr5  1  0.250000  0.143170  0.438008  1
  P  P6  1  0.250000  0.768267  0.370080  1
  P  P7  1  0.250000  0.267998  0.128632  1
  P  P8  1  0.750000  0.232220  0.628916  1
  P  P9  1  0.750000  0.731476  0.870319  1
  Rh  Rh10  1  0.750000  0.853522  0.562031  1
  Rh  Rh11  1  0.250000  0.645845  0.059957  1
