# generated using pymatgen
data_Ac3PSe3
_symmetry_space_group_name_H-M   'P 1'
_cell_length_a   8.03077751
_cell_length_b   8.13099103
_cell_length_c   8.13098942
_cell_angle_alpha   109.71953088
_cell_angle_beta   109.22175096
_cell_angle_gamma   109.22175847
_symmetry_Int_Tables_number   1
_chemical_formula_structural   Ac3PSe3
_chemical_formula_sum   'Ac6 P2 Se6'
_cell_volume   409.96842352
_cell_formula_units_Z   2
loop_
 _symmetry_equiv_pos_site_id
 _symmetry_equiv_pos_as_xyz
  1  'x, y, z'
loop_
 _atom_site_type_symbol
 _atom_site_label
 _atom_site_symmetry_multiplicity
 _atom_site_fract_x
 _atom_site_fract_y
 _atom_site_fract_z
 _atom_site_occupancy
  Ac  Ac0  1  0.879933  0.765012  0.123476  1
  Ac  Ac1  1  0.114920  0.358462  0.234988  1
  Ac  Ac2  1  0.614919  0.234988  0.358462  1
  Ac  Ac3  1  0.756457  0.876524  0.641536  1
  Ac  Ac4  1  0.379934  0.123476  0.765012  1
  Ac  Ac5  1  0.256457  0.641537  0.876524  1
  P  P6  1  0.154553  0.000000  0.000000  1
  P  P7  1  0.654554  0.000000  0.000000  1
  Se  Se8  1  0.500581  0.506336  0.151275  1
  Se  Se9  1  0.349307  0.848724  0.355062  1
  Se  Se10  1  0.000582  0.151276  0.506337  1
  Se  Se11  1  0.994246  0.644938  0.493663  1
  Se  Se12  1  0.494246  0.493663  0.644939  1
  Se  Se13  1  0.849307  0.355062  0.848725  1
