# generated using pymatgen
data_Nd6Ti4Al12Ir7
_symmetry_space_group_name_H-M   'P 1'
_cell_length_a   9.08915737
_cell_length_b   9.08915820
_cell_length_c   9.08915800
_cell_angle_alpha   60.00000074
_cell_angle_beta   59.99999771
_cell_angle_gamma   60.00000570
_symmetry_Int_Tables_number   1
_chemical_formula_structural   Nd6Ti4Al12Ir7
_chemical_formula_sum   'Nd6 Ti4 Al12 Ir7'
_cell_volume   530.95284757
_cell_formula_units_Z   1
loop_
 _symmetry_equiv_pos_site_id
 _symmetry_equiv_pos_as_xyz
  1  'x, y, z'
loop_
 _atom_site_type_symbol
 _atom_site_label
 _atom_site_symmetry_multiplicity
 _atom_site_fract_x
 _atom_site_fract_y
 _atom_site_fract_z
 _atom_site_occupancy
  Nd  Nd0  1  0.702854  0.702854  0.297146  1
  Nd  Nd1  1  0.297146  0.702854  0.297146  1
  Nd  Nd2  1  0.702854  0.297146  0.297146  1
  Nd  Nd3  1  0.297146  0.297146  0.702854  1
  Nd  Nd4  1  0.702854  0.297146  0.702854  1
  Nd  Nd5  1  0.297146  0.702854  0.702854  1
  Ti  Ti6  1  0.880722  0.880722  0.357835  1
  Ti  Ti7  1  0.880722  0.357835  0.880722  1
  Ti  Ti8  1  0.357835  0.880722  0.880722  1
  Ti  Ti9  1  0.880722  0.880722  0.880722  1
  Al  Al10  1  0.118888  0.118888  0.643337  1
  Al  Al11  1  0.118888  0.643337  0.118888  1
  Al  Al12  1  0.643337  0.118888  0.118888  1
  Al  Al13  1  0.118888  0.118888  0.118888  1
  Al  Al14  1  0.671668  0.671668  0.984995  1
  Al  Al15  1  0.671668  0.984995  0.671668  1
  Al  Al16  1  0.984995  0.671668  0.671668  1
  Al  Al17  1  0.671668  0.671668  0.671668  1
  Al  Al18  1  0.326635  0.326635  0.020096  1
  Al  Al19  1  0.326635  0.020096  0.326635  1
  Al  Al20  1  0.020096  0.326635  0.326635  1
  Al  Al21  1  0.326635  0.326635  0.326635  1
  Ir  Ir22  1  0.000000  0.000000  0.000000  1
  Ir  Ir23  1  0.998372  0.998372  0.501628  1
  Ir  Ir24  1  0.501628  0.998372  0.501628  1
  Ir  Ir25  1  0.998372  0.501628  0.501628  1
  Ir  Ir26  1  0.501628  0.501628  0.998372  1
  Ir  Ir27  1  0.998372  0.501628  0.998372  1
  Ir  Ir28  1  0.501628  0.998372  0.998372  1
