# generated using pymatgen
data_Tb4Al15(GaIr2)3
_symmetry_space_group_name_H-M   'P 1'
_cell_length_a   7.55396398
_cell_length_b   7.55066808
_cell_length_c   9.55079200
_cell_angle_alpha   90.00000000
_cell_angle_beta   90.00000000
_cell_angle_gamma   119.43672918
_symmetry_Int_Tables_number   1
_chemical_formula_structural   Tb4Al15(GaIr2)3
_chemical_formula_sum   'Tb4 Al15 Ga3 Ir6'
_cell_volume   474.42486049
_cell_formula_units_Z   1
loop_
 _symmetry_equiv_pos_site_id
 _symmetry_equiv_pos_as_xyz
  1  'x, y, z'
loop_
 _atom_site_type_symbol
 _atom_site_label
 _atom_site_symmetry_multiplicity
 _atom_site_fract_x
 _atom_site_fract_y
 _atom_site_fract_z
 _atom_site_occupancy
  Tb  Tb0  1  0.997490  0.673484  0.250000  1
  Tb  Tb1  1  0.005719  0.326859  0.750000  1
  Tb  Tb2  1  0.669541  0.991253  0.250000  1
  Tb  Tb3  1  0.326399  0.004165  0.750000  1
  Al  Al4  1  0.001388  0.335082  0.071936  1
  Al  Al5  1  0.998312  0.664486  0.927087  1
  Al  Al6  1  0.998312  0.664486  0.572913  1
  Al  Al7  1  0.335780  0.002848  0.427715  1
  Al  Al8  1  0.001388  0.335082  0.428064  1
  Al  Al9  1  0.664730  0.999053  0.572667  1
  Al  Al10  1  0.664730  0.999053  0.927333  1
  Al  Al11  1  0.335780  0.002848  0.072285  1
  Al  Al12  1  0.334385  0.334344  0.555124  1
  Al  Al13  1  0.666092  0.665653  0.448459  1
  Al  Al14  1  0.666092  0.665653  0.051541  1
  Al  Al15  1  0.334385  0.334344  0.944876  1
  Al  Al16  1  0.662765  0.451846  0.750000  1
  Al  Al17  1  0.548886  0.339116  0.250000  1
  Al  Al18  1  0.451891  0.662475  0.750000  1
  Ga  Ga19  1  0.130837  0.131559  0.250000  1
  Ga  Ga20  1  0.866382  0.866157  0.750000  1
  Ga  Ga21  1  0.338883  0.545736  0.250000  1
  Ir  Ir22  1  0.671181  0.329277  0.000392  1
  Ir  Ir23  1  0.328604  0.672470  0.997617  1
  Ir  Ir24  1  0.328604  0.672470  0.502383  1
  Ir  Ir25  1  0.671181  0.329277  0.499608  1
  Ir  Ir26  1  0.000133  0.000462  0.000070  1
  Ir  Ir27  1  0.000133  0.000462  0.499930  1
