# generated using pymatgen
data_Er5(Cd2Pd)2
_symmetry_space_group_name_H-M   'P 1'
_cell_length_a   3.63006400
_cell_length_b   7.91588300
_cell_length_c   18.26480700
_cell_angle_alpha   90.00000000
_cell_angle_beta   90.00000000
_cell_angle_gamma   90.00000000
_symmetry_Int_Tables_number   1
_chemical_formula_structural   Er5(Cd2Pd)2
_chemical_formula_sum   'Er10 Cd8 Pd4'
_cell_volume   524.84218634
_cell_formula_units_Z   2
loop_
 _symmetry_equiv_pos_site_id
 _symmetry_equiv_pos_as_xyz
  1  'x, y, z'
loop_
 _atom_site_type_symbol
 _atom_site_label
 _atom_site_symmetry_multiplicity
 _atom_site_fract_x
 _atom_site_fract_y
 _atom_site_fract_z
 _atom_site_occupancy
  Er  Er0  1  0.000000  0.500000  0.500000  1
  Er  Er1  1  0.000000  0.000000  0.000000  1
  Er  Er2  1  0.000000  0.739356  0.280993  1
  Er  Er3  1  0.000000  0.260644  0.719007  1
  Er  Er4  1  0.000000  0.760644  0.780993  1
  Er  Er5  1  0.000000  0.239356  0.219007  1
  Er  Er6  1  0.000000  0.613082  0.083622  1
  Er  Er7  1  0.000000  0.386918  0.916378  1
  Er  Er8  1  0.000000  0.886918  0.583622  1
  Er  Er9  1  0.000000  0.113082  0.416378  1
  Cd  Cd10  1  0.500000  0.715490  0.931837  1
  Cd  Cd11  1  0.500000  0.284510  0.068163  1
  Cd  Cd12  1  0.500000  0.784510  0.431837  1
  Cd  Cd13  1  0.500000  0.215490  0.568163  1
  Cd  Cd14  1  0.500000  0.578494  0.648023  1
  Cd  Cd15  1  0.500000  0.421506  0.351977  1
  Cd  Cd16  1  0.500000  0.921506  0.148023  1
  Cd  Cd17  1  0.500000  0.078494  0.851977  1
  Pd  Pd18  1  0.500000  0.524867  0.195558  1
  Pd  Pd19  1  0.500000  0.475133  0.804442  1
  Pd  Pd20  1  0.500000  0.975133  0.695558  1
  Pd  Pd21  1  0.500000  0.024867  0.304442  1
