# generated using pymatgen
data_TbTiAlPd5
_symmetry_space_group_name_H-M   'P 1'
_cell_length_a   4.21680833
_cell_length_b   4.21680690
_cell_length_c   8.03102652
_cell_angle_alpha   105.22037048
_cell_angle_beta   105.22037977
_cell_angle_gamma   89.99999898
_symmetry_Int_Tables_number   1
_chemical_formula_structural   TbTiAlPd5
_chemical_formula_sum   'Tb1 Ti1 Al1 Pd5'
_cell_volume   132.59615925
_cell_formula_units_Z   1
loop_
 _symmetry_equiv_pos_site_id
 _symmetry_equiv_pos_as_xyz
  1  'x, y, z'
loop_
 _atom_site_type_symbol
 _atom_site_label
 _atom_site_symmetry_multiplicity
 _atom_site_fract_x
 _atom_site_fract_y
 _atom_site_fract_z
 _atom_site_occupancy
  Tb  Tb0  1  0.001605  0.001605  0.003211  1
  Ti  Ti1  1  0.747870  0.747870  0.495741  1
  Al  Al2  1  0.252068  0.252068  0.504136  1
  Pd  Pd3  1  0.498041  0.498041  0.996082  1
  Pd  Pd4  1  0.642709  0.142710  0.285419  1
  Pd  Pd5  1  0.142710  0.642709  0.285419  1
  Pd  Pd6  1  0.857498  0.357498  0.714995  1
  Pd  Pd7  1  0.357498  0.857498  0.714995  1
