# generated using pymatgen
data_Tb(PrSi)2
_symmetry_space_group_name_H-M   'P 1'
_cell_length_a   7.67948100
_cell_length_b   7.67948100
_cell_length_c   4.42930600
_cell_angle_alpha   90.00000000
_cell_angle_beta   90.00000000
_cell_angle_gamma   90.00000000
_symmetry_Int_Tables_number   1
_chemical_formula_structural   Tb(PrSi)2
_chemical_formula_sum   'Tb2 Pr4 Si4'
_cell_volume   261.21578969
_cell_formula_units_Z   2
loop_
 _symmetry_equiv_pos_site_id
 _symmetry_equiv_pos_as_xyz
  1  'x, y, z'
loop_
 _atom_site_type_symbol
 _atom_site_label
 _atom_site_symmetry_multiplicity
 _atom_site_fract_x
 _atom_site_fract_y
 _atom_site_fract_z
 _atom_site_occupancy
  Tb  Tb0  1  0.000000  0.000000  0.000000  1
  Tb  Tb1  1  0.500000  0.500000  0.000000  1
  Pr  Pr2  1  0.677431  0.177431  0.500000  1
  Pr  Pr3  1  0.322569  0.822569  0.500000  1
  Pr  Pr4  1  0.177431  0.322569  0.500000  1
  Pr  Pr5  1  0.822569  0.677431  0.500000  1
  Si  Si6  1  0.112547  0.612547  0.000000  1
  Si  Si7  1  0.887453  0.387453  0.000000  1
  Si  Si8  1  0.612547  0.887453  0.000000  1
  Si  Si9  1  0.387453  0.112547  0.000000  1
