# generated using pymatgen
data_Th8Ti12Si15Sn
_symmetry_space_group_name_H-M   'P 1'
_cell_length_a   7.24448542
_cell_length_b   7.21940760
_cell_length_c   13.32855898
_cell_angle_alpha   89.93535908
_cell_angle_beta   89.75828121
_cell_angle_gamma   90.09381512
_symmetry_Int_Tables_number   1
_chemical_formula_structural   Th8Ti12Si15Sn
_chemical_formula_sum   'Th8 Ti12 Si15 Sn1'
_cell_volume   697.08795158
_cell_formula_units_Z   1
loop_
 _symmetry_equiv_pos_site_id
 _symmetry_equiv_pos_as_xyz
  1  'x, y, z'
loop_
 _atom_site_type_symbol
 _atom_site_label
 _atom_site_symmetry_multiplicity
 _atom_site_fract_x
 _atom_site_fract_y
 _atom_site_fract_z
 _atom_site_occupancy
  Th  Th0  1  0.339609  0.999662  0.463517  1
  Th  Th1  1  0.505927  0.831173  0.720054  1
  Th  Th2  1  0.502598  0.163534  0.218096  1
  Th  Th3  1  0.837246  0.497352  0.280355  1
  Th  Th4  1  0.164229  0.510942  0.784245  1
  Th  Th5  1  0.664277  0.996846  0.970008  1
  Th  Th6  1  0.994593  0.344046  0.525452  1
  Th  Th7  1  0.997684  0.663343  0.032686  1
  Ti  Ti8  1  0.327743  0.328501  0.000963  1
  Ti  Ti9  1  0.171426  0.828530  0.249336  1
  Ti  Ti10  1  0.817562  0.173631  0.751815  1
  Ti  Ti11  1  0.671799  0.670882  0.499626  1
  Ti  Ti12  1  0.160556  0.005647  0.883928  1
  Ti  Ti13  1  0.493429  0.659490  0.126266  1
  Ti  Ti14  1  0.513768  0.344366  0.625306  1
  Ti  Ti15  1  0.661794  0.493784  0.875658  1
  Ti  Ti16  1  0.339480  0.507899  0.373406  1
  Ti  Ti17  1  0.839032  0.992747  0.375236  1
  Ti  Ti18  1  0.008101  0.160617  0.123763  1
  Ti  Ti19  1  0.981252  0.825679  0.619442  1
  Si  Si20  1  0.379111  0.697679  0.938868  1
  Si  Si21  1  0.619769  0.303790  0.435326  1
  Si  Si22  1  0.696874  0.377756  0.063393  1
  Si  Si23  1  0.302398  0.622271  0.563467  1
  Si  Si24  1  0.803311  0.878138  0.187122  1
  Si  Si25  1  0.122183  0.197264  0.311870  1
  Si  Si26  1  0.878989  0.806033  0.814146  1
  Si  Si27  1  0.287681  0.958633  0.067315  1
  Si  Si28  1  0.543056  0.785049  0.313610  1
  Si  Si29  1  0.464412  0.215377  0.819126  1
  Si  Si30  1  0.790004  0.536872  0.685771  1
  Si  Si31  1  0.213768  0.458810  0.184734  1
  Si  Si32  1  0.711951  0.041731  0.564994  1
  Si  Si33  1  0.959660  0.287646  0.934710  1
  Si  Si34  1  0.041155  0.715712  0.431982  1
  Sn  Sn35  1  0.193574  0.118567  0.684408  1
