# generated using pymatgen
data_ScZn3NiAu
_symmetry_space_group_name_H-M   'P 1'
_cell_length_a   4.98713207
_cell_length_b   4.98713339
_cell_length_c   4.98713323
_cell_angle_alpha   61.02532374
_cell_angle_beta   61.02531001
_cell_angle_gamma   61.02531659
_symmetry_Int_Tables_number   1
_chemical_formula_structural   ScZn3NiAu
_chemical_formula_sum   'Sc1 Zn3 Ni1 Au1'
_cell_volume   89.73299484
_cell_formula_units_Z   1
loop_
 _symmetry_equiv_pos_site_id
 _symmetry_equiv_pos_as_xyz
  1  'x, y, z'
loop_
 _atom_site_type_symbol
 _atom_site_label
 _atom_site_symmetry_multiplicity
 _atom_site_fract_x
 _atom_site_fract_y
 _atom_site_fract_z
 _atom_site_occupancy
  Sc  Sc0  1  0.997545  0.997545  0.997545  1
  Zn  Zn1  1  0.623996  0.623996  0.127693  1
  Zn  Zn2  1  0.623996  0.127693  0.623996  1
  Zn  Zn3  1  0.127693  0.623996  0.623996  1
  Ni  Ni4  1  0.626667  0.626667  0.626667  1
  Au  Au5  1  0.250103  0.250103  0.250103  1
