# generated using pymatgen
data_Zr6InSiSb
_symmetry_space_group_name_H-M   'P 1'
_cell_length_a   7.71483500
_cell_length_b   7.71483417
_cell_length_c   3.85221100
_cell_angle_alpha   90.00000000
_cell_angle_beta   90.00000000
_cell_angle_gamma   119.99999071
_symmetry_Int_Tables_number   1
_chemical_formula_structural   Zr6InSiSb
_chemical_formula_sum   'Zr6 In1 Si1 Sb1'
_cell_volume   198.56101156
_cell_formula_units_Z   1
loop_
 _symmetry_equiv_pos_site_id
 _symmetry_equiv_pos_as_xyz
  1  'x, y, z'
loop_
 _atom_site_type_symbol
 _atom_site_label
 _atom_site_symmetry_multiplicity
 _atom_site_fract_x
 _atom_site_fract_y
 _atom_site_fract_z
 _atom_site_occupancy
  Zr  Zr0  1  0.243903  0.996937  0.500000  1
  Zr  Zr1  1  0.003063  0.246966  0.500000  1
  Zr  Zr2  1  0.753034  0.756097  0.500000  1
  Zr  Zr3  1  0.613516  0.006099  0.000000  1
  Zr  Zr4  1  0.993901  0.607417  0.000000  1
  Zr  Zr5  1  0.392583  0.386484  0.000000  1
  In  In6  1  0.333333  0.666667  0.500000  1
  Si  Si7  1  0.000000  0.000000  0.000000  1
  Sb  Sb8  1  0.666667  0.333333  0.500000  1
