# generated using pymatgen
data_Yb3Lu3(Si3Ru)8
_symmetry_space_group_name_H-M   'P 1'
_cell_length_a   10.13126304
_cell_length_b   10.13126282
_cell_length_c   8.10110664
_cell_angle_alpha   90.00452578
_cell_angle_beta   90.00452570
_cell_angle_gamma   132.83190765
_symmetry_Int_Tables_number   1
_chemical_formula_structural   Yb3Lu3(Si3Ru)8
_chemical_formula_sum   'Yb3 Lu3 Si24 Ru8'
_cell_volume   609.79466950
_cell_formula_units_Z   1
loop_
 _symmetry_equiv_pos_site_id
 _symmetry_equiv_pos_as_xyz
  1  'x, y, z'
loop_
 _atom_site_type_symbol
 _atom_site_label
 _atom_site_symmetry_multiplicity
 _atom_site_fract_x
 _atom_site_fract_y
 _atom_site_fract_z
 _atom_site_occupancy
  Yb  Yb0  1  0.499984  0.500016  0.500000  1
  Yb  Yb1  1  0.999012  0.498967  0.749806  1
  Yb  Yb2  1  0.501033  0.000988  0.250194  1
  Lu  Lu3  1  0.000025  0.999975  0.000000  1
  Lu  Lu4  1  0.001504  0.501477  0.250295  1
  Lu  Lu5  1  0.498523  0.998496  0.749705  1
  Si  Si6  1  0.294310  0.705690  0.000000  1
  Si  Si7  1  0.795003  0.204997  0.500000  1
  Si  Si8  1  0.705426  0.294574  0.000000  1
  Si  Si9  1  0.205288  0.794712  0.500000  1
  Si  Si10  1  0.832965  0.831081  0.333812  1
  Si  Si11  1  0.168919  0.167035  0.666188  1
  Si  Si12  1  0.665228  0.667054  0.831800  1
  Si  Si13  1  0.332946  0.334772  0.168200  1
  Si  Si14  1  0.624162  0.390571  0.229990  1
  Si  Si15  1  0.609429  0.375838  0.770010  1
  Si  Si16  1  0.111067  0.877962  0.728274  1
  Si  Si17  1  0.122038  0.888933  0.271726  1
  Si  Si18  1  0.378964  0.612048  0.770596  1
  Si  Si19  1  0.387952  0.621036  0.229404  1
  Si  Si20  1  0.891612  0.125354  0.270972  1
  Si  Si21  1  0.874646  0.108388  0.729028  1
  Si  Si22  1  0.845547  0.611850  0.007382  1
  Si  Si23  1  0.388150  0.154453  0.992618  1
  Si  Si24  1  0.887117  0.653930  0.504074  1
  Si  Si25  1  0.346070  0.112883  0.495926  1
  Si  Si26  1  0.155433  0.388856  0.996258  1
  Si  Si27  1  0.611144  0.844567  0.003742  1
  Si  Si28  1  0.113664  0.347117  0.492313  1
  Si  Si29  1  0.652883  0.886336  0.507687  1
  Ru  Ru30  1  0.169288  0.830712  0.000000  1
  Ru  Ru31  1  0.671219  0.328781  0.500000  1
  Ru  Ru32  1  0.830182  0.169818  0.000000  1
  Ru  Ru33  1  0.329277  0.670723  0.500000  1
  Ru  Ru34  1  0.628341  0.627737  0.125035  1
  Ru  Ru35  1  0.372263  0.371659  0.874965  1
  Ru  Ru36  1  0.874783  0.875394  0.628112  1
  Ru  Ru37  1  0.124606  0.125217  0.371888  1
