# generated using pymatgen
data_Ac4Ga3Sn7Pd6
_symmetry_space_group_name_H-M   'P 1'
_cell_length_a   9.04022965
_cell_length_b   9.06005814
_cell_length_c   9.06103200
_cell_angle_alpha   138.03156372
_cell_angle_beta   106.39410952
_cell_angle_gamma   88.55442566
_symmetry_Int_Tables_number   1
_chemical_formula_structural   Ac4Ga3Sn7Pd6
_chemical_formula_sum   'Ac4 Ga3 Sn7 Pd6'
_cell_volume   455.96783764
_cell_formula_units_Z   1
loop_
 _symmetry_equiv_pos_site_id
 _symmetry_equiv_pos_as_xyz
  1  'x, y, z'
loop_
 _atom_site_type_symbol
 _atom_site_label
 _atom_site_symmetry_multiplicity
 _atom_site_fract_x
 _atom_site_fract_y
 _atom_site_fract_z
 _atom_site_occupancy
  Ac  Ac0  1  0.900360  0.133995  0.766355  1
  Ac  Ac1  1  0.106031  0.867784  0.238196  1
  Ac  Ac2  1  0.627305  0.362707  0.264667  1
  Ac  Ac3  1  0.367385  0.632315  0.735004  1
  Ga  Ga4  1  0.558910  0.904870  0.653946  1
  Ga  Ga5  1  0.253050  0.404987  0.848194  1
  Ga  Ga6  1  0.439635  0.096654  0.342918  1
  Sn  Sn7  1  0.747499  0.593777  0.153790  1
  Sn  Sn8  1  0.999161  0.248611  0.251304  1
  Sn  Sn9  1  0.999036  0.747744  0.750503  1
  Sn  Sn10  1  0.723580  0.982045  0.250925  1
  Sn  Sn11  1  0.278837  0.525200  0.250043  1
  Sn  Sn12  1  0.278878  0.028800  0.753681  1
  Sn  Sn13  1  0.723551  0.472608  0.741574  1
  Pd  Pd14  1  0.253641  0.135685  0.117685  1
  Pd  Pd15  1  0.984545  0.362218  0.622278  1
  Pd  Pd16  1  0.030127  0.639359  0.390923  1
  Pd  Pd17  1  0.742844  0.863338  0.879603  1
  Pd  Pd18  1  0.492805  0.235412  0.730923  1
  Pd  Pd19  1  0.492822  0.761891  0.257487  1
