# generated using pymatgen
data_Er12Al8Ru3RhC4
_symmetry_space_group_name_H-M   'P 1'
_cell_length_a   8.93824278
_cell_length_b   8.93824354
_cell_length_c   8.91836500
_cell_angle_alpha   59.92624853
_cell_angle_beta   59.92624570
_cell_angle_gamma   60.00000106
_symmetry_Int_Tables_number   1
_chemical_formula_structural   Er12Al8Ru3RhC4
_chemical_formula_sum   'Er12 Al8 Ru3 Rh1 C4'
_cell_volume   503.25666789
_cell_formula_units_Z   1
loop_
 _symmetry_equiv_pos_site_id
 _symmetry_equiv_pos_as_xyz
  1  'x, y, z'
loop_
 _atom_site_type_symbol
 _atom_site_label
 _atom_site_symmetry_multiplicity
 _atom_site_fract_x
 _atom_site_fract_y
 _atom_site_fract_z
 _atom_site_occupancy
  Er  Er0  1  0.548556  0.952354  0.546736  1
  Er  Er1  1  0.297646  0.701444  0.703264  1
  Er  Er2  1  0.702762  0.297109  0.297368  1
  Er  Er3  1  0.297109  0.702762  0.297368  1
  Er  Er4  1  0.702762  0.702762  0.297368  1
  Er  Er5  1  0.297646  0.297646  0.703264  1
  Er  Er6  1  0.547238  0.547238  0.952632  1
  Er  Er7  1  0.952354  0.548556  0.546736  1
  Er  Er8  1  0.547238  0.952891  0.952632  1
  Er  Er9  1  0.952354  0.952354  0.546736  1
  Er  Er10  1  0.701444  0.297646  0.703264  1
  Er  Er11  1  0.952891  0.547238  0.952632  1
  Al  Al12  1  0.924033  0.924033  0.924351  1
  Al  Al13  1  0.022417  0.325967  0.325649  1
  Al  Al14  1  0.325967  0.022417  0.325649  1
  Al  Al15  1  0.325084  0.325084  0.024749  1
  Al  Al16  1  0.924033  0.227583  0.924351  1
  Al  Al17  1  0.924916  0.924916  0.225251  1
  Al  Al18  1  0.227583  0.924033  0.924351  1
  Al  Al19  1  0.325967  0.325967  0.325649  1
  Ru  Ru20  1  0.125000  0.125000  0.125000  1
  Ru  Ru21  1  0.625000  0.125000  0.125000  1
  Ru  Ru22  1  0.125000  0.625000  0.125000  1
  Rh  Rh23  1  0.125000  0.125000  0.625000  1
  C  C24  1  0.625000  0.625000  0.625000  1
  C  C25  1  0.125000  0.625000  0.625000  1
  C  C26  1  0.625000  0.125000  0.625000  1
  C  C27  1  0.625000  0.625000  0.125000  1
