# generated using pymatgen
data_Dy3Ho(GaTc3)2
_symmetry_space_group_name_H-M   'P 1'
_cell_length_a   5.33652500
_cell_length_b   5.33652456
_cell_length_c   9.03162200
_cell_angle_alpha   90.00000000
_cell_angle_beta   90.00000000
_cell_angle_gamma   119.99999652
_symmetry_Int_Tables_number   1
_chemical_formula_structural   Dy3Ho(GaTc3)2
_chemical_formula_sum   'Dy3 Ho1 Ga2 Tc6'
_cell_volume   222.74781911
_cell_formula_units_Z   1
loop_
 _symmetry_equiv_pos_site_id
 _symmetry_equiv_pos_as_xyz
  1  'x, y, z'
loop_
 _atom_site_type_symbol
 _atom_site_label
 _atom_site_symmetry_multiplicity
 _atom_site_fract_x
 _atom_site_fract_y
 _atom_site_fract_z
 _atom_site_occupancy
  Dy  Dy0  1  0.333333  0.666667  0.431418  1
  Dy  Dy1  1  0.666667  0.333333  0.568471  1
  Dy  Dy2  1  0.666667  0.333333  0.931602  1
  Ho  Ho3  1  0.333333  0.666667  0.068673  1
  Ga  Ga4  1  0.000000  0.000000  0.500111  1
  Ga  Ga5  1  0.000000  0.000000  0.000004  1
  Tc  Tc6  1  0.829176  0.170824  0.249719  1
  Tc  Tc7  1  0.829176  0.658351  0.249719  1
  Tc  Tc8  1  0.341649  0.170824  0.249719  1
  Tc  Tc9  1  0.170938  0.829062  0.750188  1
  Tc  Tc10  1  0.170938  0.341877  0.750188  1
  Tc  Tc11  1  0.658123  0.829062  0.750188  1
