# generated using pymatgen
data_Zr2SnB2Ru5
_symmetry_space_group_name_H-M   'P 1'
_cell_length_a   9.55987600
_cell_length_b   9.55987600
_cell_length_c   3.11914900
_cell_angle_alpha   90.00000000
_cell_angle_beta   90.00000000
_cell_angle_gamma   90.00000000
_symmetry_Int_Tables_number   1
_chemical_formula_structural   Zr2SnB2Ru5
_chemical_formula_sum   'Zr4 Sn2 B4 Ru10'
_cell_volume   285.06286097
_cell_formula_units_Z   2
loop_
 _symmetry_equiv_pos_site_id
 _symmetry_equiv_pos_as_xyz
  1  'x, y, z'
loop_
 _atom_site_type_symbol
 _atom_site_label
 _atom_site_symmetry_multiplicity
 _atom_site_fract_x
 _atom_site_fract_y
 _atom_site_fract_z
 _atom_site_occupancy
  Zr  Zr0  1  0.674653  0.174653  0.000000  1
  Zr  Zr1  1  0.325347  0.825347  0.000000  1
  Zr  Zr2  1  0.174653  0.325347  0.000000  1
  Zr  Zr3  1  0.825347  0.674653  0.000000  1
  Sn  Sn4  1  0.000000  0.000000  0.000000  1
  Sn  Sn5  1  0.500000  0.500000  0.000000  1
  B  B6  1  0.121807  0.621807  0.000000  1
  B  B7  1  0.878193  0.378193  0.000000  1
  B  B8  1  0.621807  0.878193  0.000000  1
  B  B9  1  0.378193  0.121807  0.000000  1
  Ru  Ru10  1  0.221348  0.071024  0.500000  1
  Ru  Ru11  1  0.778652  0.928976  0.500000  1
  Ru  Ru12  1  0.071024  0.778652  0.500000  1
  Ru  Ru13  1  0.721348  0.428976  0.500000  1
  Ru  Ru14  1  0.928976  0.221348  0.500000  1
  Ru  Ru15  1  0.278652  0.571024  0.500000  1
  Ru  Ru16  1  0.571024  0.721348  0.500000  1
  Ru  Ru17  1  0.428976  0.278652  0.500000  1
  Ru  Ru18  1  0.500000  0.000000  0.500000  1
  Ru  Ru19  1  0.000000  0.500000  0.500000  1
