# generated using pymatgen
data_Tb2Tc5(PRh)7
_symmetry_space_group_name_H-M   'P 1'
_cell_length_a   3.94121319
_cell_length_b   9.47172859
_cell_length_c   9.49336944
_cell_angle_alpha   119.67242963
_cell_angle_beta   89.99969265
_cell_angle_gamma   90.00504677
_symmetry_Int_Tables_number   1
_chemical_formula_structural   Tb2Tc5(PRh)7
_chemical_formula_sum   'Tb2 Tc5 P7 Rh7'
_cell_volume   307.91742557
_cell_formula_units_Z   1
loop_
 _symmetry_equiv_pos_site_id
 _symmetry_equiv_pos_as_xyz
  1  'x, y, z'
loop_
 _atom_site_type_symbol
 _atom_site_label
 _atom_site_symmetry_multiplicity
 _atom_site_fract_x
 _atom_site_fract_y
 _atom_site_fract_z
 _atom_site_occupancy
  Tb  Tb0  1  0.262169  0.668727  0.333284  1
  Tb  Tb1  1  0.762324  0.333483  0.666569  1
  Tc  Tc2  1  0.761814  0.093730  0.870792  1
  Tc  Tc3  1  0.761730  0.127561  0.219359  1
  Tc  Tc4  1  0.761740  0.780510  0.906935  1
  Tc  Tc5  1  0.261767  0.885918  0.159967  1
  Tc  Tc6  1  0.261912  0.840851  0.726326  1
  P  P7  1  0.261060  0.996490  0.997653  1
  P  P8  1  0.762009  0.881638  0.599458  1
  P  P9  1  0.761915  0.402247  0.286789  1
  P  P10  1  0.761739  0.718699  0.120647  1
  P  P11  1  0.262263  0.115552  0.410304  1
  P  P12  1  0.262196  0.588209  0.704293  1
  P  P13  1  0.262169  0.294362  0.881653  1
  Rh  Rh14  1  0.261738  0.272238  0.112264  1
  Rh  Rh15  1  0.762048  0.608506  0.556711  1
  Rh  Rh16  1  0.761663  0.443216  0.055508  1
  Rh  Rh17  1  0.762000  0.947278  0.392108  1
  Rh  Rh18  1  0.262004  0.368633  0.435513  1
  Rh  Rh19  1  0.261705  0.562275  0.932175  1
  Rh  Rh20  1  0.262036  0.069876  0.631695  1
