# generated using pymatgen
data_Ca(BrF6)2
_symmetry_space_group_name_H-M   'P 1'
_cell_length_a   11.76973777
_cell_length_b   5.92299926
_cell_length_c   5.93581686
_cell_angle_alpha   57.53445010
_cell_angle_beta   57.50303934
_cell_angle_gamma   56.67692251
_symmetry_Int_Tables_number   1
_chemical_formula_structural   Ca(BrF6)2
_chemical_formula_sum   'Ca1 Br2 F12'
_cell_volume   273.94577286
_cell_formula_units_Z   1
loop_
 _symmetry_equiv_pos_site_id
 _symmetry_equiv_pos_as_xyz
  1  'x, y, z'
loop_
 _atom_site_type_symbol
 _atom_site_label
 _atom_site_symmetry_multiplicity
 _atom_site_fract_x
 _atom_site_fract_y
 _atom_site_fract_z
 _atom_site_occupancy
  Ca  Ca0  1  0.750000  0.500000  0.500000  1
  Br  Br1  1  0.005094  0.995163  0.997293  1
  Br  Br2  1  0.494906  0.004837  0.002707  1
  F  F3  1  0.156847  0.110135  0.790258  1
  F  F4  1  0.663283  0.137681  0.768481  1
  F  F5  1  0.066250  0.784087  0.298505  1
  F  F6  1  0.559692  0.775018  0.339088  1
  F  F7  1  0.111109  0.688973  0.880693  1
  F  F8  1  0.610833  0.666903  0.870271  1
  F  F9  1  0.433750  0.215913  0.701495  1
  F  F10  1  0.940308  0.224982  0.660912  1
  F  F11  1  0.343153  0.889865  0.209742  1
  F  F12  1  0.836717  0.862319  0.231519  1
  F  F13  1  0.388891  0.311027  0.119307  1
  F  F14  1  0.889167  0.333097  0.129729  1
