# generated using pymatgen
data_Sm8Gd12Si15Ge
_symmetry_space_group_name_H-M   'P 1'
_cell_length_a   7.48786922
_cell_length_b   7.77661288
_cell_length_c   14.79132600
_cell_angle_alpha   90.04719015
_cell_angle_beta   89.70504424
_cell_angle_gamma   90.03264566
_symmetry_Int_Tables_number   1
_chemical_formula_structural   Sm8Gd12Si15Ge
_chemical_formula_sum   'Sm8 Gd12 Si15 Ge1'
_cell_volume   861.29091933
_cell_formula_units_Z   1
loop_
 _symmetry_equiv_pos_site_id
 _symmetry_equiv_pos_as_xyz
  1  'x, y, z'
loop_
 _atom_site_type_symbol
 _atom_site_label
 _atom_site_symmetry_multiplicity
 _atom_site_fract_x
 _atom_site_fract_y
 _atom_site_fract_z
 _atom_site_occupancy
  Sm  Sm0  1  0.024450  0.182780  0.098468  1
  Sm  Sm1  1  0.975639  0.817255  0.902078  1
  Sm  Sm2  1  0.475473  0.683587  0.901617  1
  Sm  Sm3  1  0.975897  0.817912  0.598039  1
  Sm  Sm4  1  0.524885  0.316675  0.098974  1
  Sm  Sm5  1  0.022040  0.181970  0.400674  1
  Sm  Sm6  1  0.522333  0.317808  0.401152  1
  Sm  Sm7  1  0.479460  0.683566  0.598209  1
  Gd  Gd8  1  0.151851  0.513204  0.750986  1
  Gd  Gd9  1  0.848704  0.488304  0.250473  1
  Gd  Gd10  1  0.348273  0.011958  0.250644  1
  Gd  Gd11  1  0.651575  0.986239  0.750211  1
  Gd  Gd12  1  0.325137  0.177150  0.624552  1
  Gd  Gd13  1  0.676038  0.820225  0.376328  1
  Gd  Gd14  1  0.175484  0.681193  0.376136  1
  Gd  Gd15  1  0.677589  0.819102  0.123073  1
  Gd  Gd16  1  0.822890  0.319535  0.623202  1
  Gd  Gd17  1  0.322260  0.180918  0.877056  1
  Gd  Gd18  1  0.821908  0.319449  0.876813  1
  Gd  Gd19  1  0.177480  0.680866  0.123054  1
  Si  Si20  1  0.027909  0.103251  0.750279  1
  Si  Si21  1  0.971046  0.897811  0.249595  1
  Si  Si22  1  0.471162  0.603666  0.249596  1
  Si  Si23  1  0.528249  0.397340  0.750178  1
  Si  Si24  1  0.267573  0.876438  0.750325  1
  Si  Si25  1  0.731904  0.123166  0.249277  1
  Si  Si26  1  0.232274  0.377089  0.249301  1
  Si  Si27  1  0.768076  0.622725  0.749752  1
  Si  Si28  1  0.847623  0.530882  0.460901  1
  Si  Si29  1  0.351227  0.969636  0.461020  1
  Si  Si30  1  0.853673  0.529728  0.039217  1
  Si  Si31  1  0.648333  0.030829  0.538345  1
  Si  Si32  1  0.145626  0.470056  0.961403  1
  Si  Si33  1  0.646781  0.030499  0.961674  1
  Si  Si34  1  0.353562  0.970304  0.038844  1
  Ge  Ge35  1  0.155618  0.466883  0.538554  1
