# generated using pymatgen
data_HfZnFe4
_symmetry_space_group_name_H-M   'P 1'
_cell_length_a   4.81798080
_cell_length_b   4.81798094
_cell_length_c   4.81798100
_cell_angle_alpha   60.00000643
_cell_angle_beta   60.00000550
_cell_angle_gamma   59.99999667
_symmetry_Int_Tables_number   1
_chemical_formula_structural   HfZnFe4
_chemical_formula_sum   'Hf1 Zn1 Fe4'
_cell_volume   79.08247556
_cell_formula_units_Z   1
loop_
 _symmetry_equiv_pos_site_id
 _symmetry_equiv_pos_as_xyz
  1  'x, y, z'
loop_
 _atom_site_type_symbol
 _atom_site_label
 _atom_site_symmetry_multiplicity
 _atom_site_fract_x
 _atom_site_fract_y
 _atom_site_fract_z
 _atom_site_occupancy
  Hf  Hf0  1  0.250000  0.250000  0.250000  1
  Zn  Zn1  1  0.000000  0.000000  0.000000  1
  Fe  Fe2  1  0.626054  0.626054  0.121838  1
  Fe  Fe3  1  0.626054  0.121838  0.626054  1
  Fe  Fe4  1  0.121838  0.626054  0.626054  1
  Fe  Fe5  1  0.626054  0.626054  0.626054  1
