# generated using pymatgen
data_LiAg3Au16
_symmetry_space_group_name_H-M   'P 1'
_cell_length_a   5.06542368
_cell_length_b   4.82541800
_cell_length_c   14.69646713
_cell_angle_alpha   90.00000000
_cell_angle_beta   90.07666666
_cell_angle_gamma   90.00000000
_symmetry_Int_Tables_number   1
_chemical_formula_structural   LiAg3Au16
_chemical_formula_sum   'Li1 Ag3 Au16'
_cell_volume   359.22228859
_cell_formula_units_Z   1
loop_
 _symmetry_equiv_pos_site_id
 _symmetry_equiv_pos_as_xyz
  1  'x, y, z'
loop_
 _atom_site_type_symbol
 _atom_site_label
 _atom_site_symmetry_multiplicity
 _atom_site_fract_x
 _atom_site_fract_y
 _atom_site_fract_z
 _atom_site_occupancy
  Li  Li0  1  0.837626  0.250000  0.901070  1
  Ag  Ag1  1  0.163849  0.749999  0.098773  1
  Ag  Ag2  1  0.665039  0.749999  0.400171  1
  Ag  Ag3  1  0.335739  0.250000  0.600827  1
  Au  Au4  1  0.668362  0.749999  0.997541  1
  Au  Au5  1  0.832832  0.250000  0.096857  1
  Au  Au6  1  0.335501  0.250000  0.199318  1
  Au  Au7  1  0.666436  0.749999  0.199260  1
  Au  Au8  1  0.166920  0.749999  0.299405  1
  Au  Au9  1  0.836024  0.250000  0.298639  1
  Au  Au10  1  0.332967  0.250000  0.399717  1
  Au  Au11  1  0.168737  0.749999  0.501200  1
  Au  Au12  1  0.833160  0.250000  0.499971  1
  Au  Au13  1  0.667069  0.749999  0.600877  1
  Au  Au14  1  0.164463  0.749999  0.701589  1
  Au  Au15  1  0.833522  0.250000  0.703315  1
  Au  Au16  1  0.333435  0.250000  0.802352  1
  Au  Au17  1  0.665510  0.749999  0.800886  1
  Au  Au18  1  0.161299  0.749999  0.899645  1
  Au  Au19  1  0.331503  0.250000  0.998589  1
