# generated using pymatgen
data_TiCr5(GaRu2)6
_symmetry_space_group_name_H-M   'P 1'
_cell_length_a   4.25772600
_cell_length_b   6.03299300
_cell_length_c   12.74433500
_cell_angle_alpha   90.00000000
_cell_angle_beta   89.99997306
_cell_angle_gamma   90.00000000
_symmetry_Int_Tables_number   1
_chemical_formula_structural   TiCr5(GaRu2)6
_chemical_formula_sum   'Ti1 Cr5 Ga6 Ru12'
_cell_volume   327.36158131
_cell_formula_units_Z   1
loop_
 _symmetry_equiv_pos_site_id
 _symmetry_equiv_pos_as_xyz
  1  'x, y, z'
loop_
 _atom_site_type_symbol
 _atom_site_label
 _atom_site_symmetry_multiplicity
 _atom_site_fract_x
 _atom_site_fract_y
 _atom_site_fract_z
 _atom_site_occupancy
  Ti  Ti0  1  0.500207  0.000000  0.833327  1
  Cr  Cr1  1  0.000018  0.500000  0.000297  1
  Cr  Cr2  1  0.499781  0.000000  0.167138  1
  Cr  Cr3  1  0.999760  0.500000  0.333298  1
  Cr  Cr4  1  0.499997  0.000000  0.499483  1
  Cr  Cr5  1  0.000227  0.500000  0.666415  1
  Ga  Ga6  1  0.000018  0.000000  0.999611  1
  Ga  Ga7  1  0.499759  0.500000  0.167694  1
  Ga  Ga8  1  0.999754  0.000000  0.333347  1
  Ga  Ga9  1  0.500001  0.500000  0.498975  1
  Ga  Ga10  1  0.000222  0.000000  0.667041  1
  Ga  Ga11  1  0.500245  0.500000  0.833339  1
  Ru  Ru12  1  0.500010  0.253494  0.002593  1
  Ru  Ru13  1  0.500010  0.746506  0.002593  1
  Ru  Ru14  1  0.999793  0.249586  0.167236  1
  Ru  Ru15  1  0.999793  0.750414  0.167236  1
  Ru  Ru16  1  0.499777  0.250533  0.333292  1
  Ru  Ru17  1  0.499777  0.749467  0.333292  1
  Ru  Ru18  1  0.000002  0.249690  0.499432  1
  Ru  Ru19  1  0.000002  0.750310  0.499432  1
  Ru  Ru20  1  0.500198  0.253546  0.664131  1
  Ru  Ru21  1  0.500198  0.746454  0.664131  1
  Ru  Ru22  1  0.000228  0.255852  0.833335  1
  Ru  Ru23  1  0.000228  0.744148  0.833335  1
