# generated using pymatgen
data_Gd2Tm2ReB12Ir
_symmetry_space_group_name_H-M   'P 1'
_cell_length_a   3.66246500
_cell_length_b   9.14243632
_cell_length_c   11.55106716
_cell_angle_alpha   90.27945148
_cell_angle_beta   90.00000000
_cell_angle_gamma   90.00000000
_symmetry_Int_Tables_number   1
_chemical_formula_structural   Gd2Tm2ReB12Ir
_chemical_formula_sum   'Gd4 Tm4 Re2 B24 Ir2'
_cell_volume   386.76963505
_cell_formula_units_Z   2
loop_
 _symmetry_equiv_pos_site_id
 _symmetry_equiv_pos_as_xyz
  1  'x, y, z'
loop_
 _atom_site_type_symbol
 _atom_site_label
 _atom_site_symmetry_multiplicity
 _atom_site_fract_x
 _atom_site_fract_y
 _atom_site_fract_z
 _atom_site_occupancy
  Gd  Gd0  1  0.000000  0.317428  0.410488  1
  Gd  Gd1  1  0.000000  0.682572  0.589512  1
  Gd  Gd2  1  0.000000  0.825505  0.083199  1
  Gd  Gd3  1  0.000000  0.174495  0.916801  1
  Tm  Tm4  1  0.000000  0.946466  0.372571  1
  Tm  Tm5  1  0.000000  0.053534  0.627429  1
  Tm  Tm6  1  0.000000  0.441665  0.125898  1
  Tm  Tm7  1  0.000000  0.558335  0.874102  1
  Re  Re8  1  0.000000  0.139203  0.180972  1
  Re  Re9  1  0.000000  0.860797  0.819028  1
  B  B10  1  0.500000  0.554745  0.433173  1
  B  B11  1  0.500000  0.445255  0.566827  1
  B  B12  1  0.500000  0.053935  0.068208  1
  B  B13  1  0.500000  0.946065  0.931792  1
  B  B14  1  0.500000  0.750580  0.420538  1
  B  B15  1  0.500000  0.249420  0.579462  1
  B  B16  1  0.500000  0.249010  0.081499  1
  B  B17  1  0.500000  0.750990  0.918501  1
  B  B18  1  0.500000  0.791146  0.266532  1
  B  B19  1  0.500000  0.208854  0.733468  1
  B  B20  1  0.500000  0.292548  0.234117  1
  B  B21  1  0.500000  0.707452  0.765883  1
  B  B22  1  0.500000  0.630616  0.184011  1
  B  B23  1  0.500000  0.369384  0.815989  1
  B  B24  1  0.500000  0.130920  0.315128  1
  B  B25  1  0.500000  0.869080  0.684872  1
  B  B26  1  0.500000  0.982894  0.213920  1
  B  B27  1  0.500000  0.017106  0.786080  1
  B  B28  1  0.500000  0.482719  0.286659  1
  B  B29  1  0.500000  0.517281  0.713341  1
  B  B30  1  0.500000  0.603503  0.029004  1
  B  B31  1  0.500000  0.396497  0.970996  1
  B  B32  1  0.500000  0.104667  0.471740  1
  B  B33  1  0.500000  0.895333  0.528260  1
  Ir  Ir34  1  0.000000  0.637606  0.321284  1
  Ir  Ir35  1  0.000000  0.362394  0.678716  1
