# generated using pymatgen
data_Dy8Si16Mo5W7
_symmetry_space_group_name_H-M   'P 1'
_cell_length_a   6.78255652
_cell_length_b   6.94665652
_cell_length_c   12.91809402
_cell_angle_alpha   89.96996841
_cell_angle_beta   89.97568457
_cell_angle_gamma   90.05929674
_symmetry_Int_Tables_number   1
_chemical_formula_structural   Dy8Si16Mo5W7
_chemical_formula_sum   'Dy8 Si16 Mo5 W7'
_cell_volume   608.64962148
_cell_formula_units_Z   1
loop_
 _symmetry_equiv_pos_site_id
 _symmetry_equiv_pos_as_xyz
  1  'x, y, z'
loop_
 _atom_site_type_symbol
 _atom_site_label
 _atom_site_symmetry_multiplicity
 _atom_site_fract_x
 _atom_site_fract_y
 _atom_site_fract_z
 _atom_site_occupancy
  Dy  Dy0  1  0.495649  0.332459  0.093387  1
  Dy  Dy1  1  0.996398  0.167683  0.406549  1
  Dy  Dy2  1  0.504344  0.667572  0.593548  1
  Dy  Dy3  1  0.004344  0.832192  0.906704  1
  Dy  Dy4  1  0.503629  0.668019  0.906737  1
  Dy  Dy5  1  0.003811  0.832146  0.593527  1
  Dy  Dy6  1  0.496744  0.332146  0.406530  1
  Dy  Dy7  1  0.995981  0.168039  0.093521  1
  Si  Si8  1  0.659902  0.042114  0.547424  1
  Si  Si9  1  0.160670  0.457378  0.953149  1
  Si  Si10  1  0.338747  0.957829  0.046839  1
  Si  Si11  1  0.840332  0.542628  0.452599  1
  Si  Si12  1  0.339757  0.957001  0.452002  1
  Si  Si13  1  0.838747  0.543225  0.047184  1
  Si  Si14  1  0.661285  0.042908  0.952746  1
  Si  Si15  1  0.160871  0.457123  0.547347  1
  Si  Si16  1  0.534504  0.369715  0.749095  1
  Si  Si17  1  0.034722  0.130593  0.750790  1
  Si  Si18  1  0.465923  0.631098  0.249952  1
  Si  Si19  1  0.964578  0.868999  0.250710  1
  Si  Si20  1  0.802405  0.632996  0.750448  1
  Si  Si21  1  0.302355  0.867093  0.749590  1
  Si  Si22  1  0.197872  0.367157  0.250179  1
  Si  Si23  1  0.697311  0.132250  0.249793  1
  Mo  Mo24  1  0.668769  0.835852  0.374022  1
  Mo  Mo25  1  0.170184  0.662793  0.374684  1
  Mo  Mo26  1  0.668798  0.836475  0.125942  1
  Mo  Mo27  1  0.829822  0.337640  0.874875  1
  Mo  Mo28  1  0.329834  0.162781  0.624795  1
  W  W29  1  0.831606  0.335749  0.626665  1
  W  W30  1  0.332122  0.164236  0.873019  1
  W  W31  1  0.168477  0.663467  0.126403  1
  W  W32  1  0.664935  0.000836  0.750358  1
  W  W33  1  0.164809  0.499335  0.750202  1
  W  W34  1  0.334151  0.999935  0.249061  1
  W  W35  1  0.835609  0.500537  0.249619  1
