# generated using pymatgen
data_Tm12Si12Pt3Au
_symmetry_space_group_name_H-M   'P 1'
_cell_length_a   4.20994200
_cell_length_b   10.63113978
_cell_length_c   12.20425190
_cell_angle_alpha   90.04402128
_cell_angle_beta   90.00000000
_cell_angle_gamma   90.00000000
_symmetry_Int_Tables_number   1
_chemical_formula_structural   Tm12Si12Pt3Au
_chemical_formula_sum   'Tm12 Si12 Pt3 Au1'
_cell_volume   546.21921790
_cell_formula_units_Z   1
loop_
 _symmetry_equiv_pos_site_id
 _symmetry_equiv_pos_as_xyz
  1  'x, y, z'
loop_
 _atom_site_type_symbol
 _atom_site_label
 _atom_site_symmetry_multiplicity
 _atom_site_fract_x
 _atom_site_fract_y
 _atom_site_fract_z
 _atom_site_occupancy
  Tm  Tm0  1  0.250000  0.877954  0.021501  1
  Tm  Tm1  1  0.250000  0.624447  0.519846  1
  Tm  Tm2  1  0.750000  0.121494  0.980524  1
  Tm  Tm3  1  0.750000  0.377839  0.477607  1
  Tm  Tm4  1  0.250000  0.920190  0.599787  1
  Tm  Tm5  1  0.250000  0.580152  0.101246  1
  Tm  Tm6  1  0.750000  0.079700  0.398355  1
  Tm  Tm7  1  0.750000  0.420076  0.899997  1
  Tm  Tm8  1  0.250000  0.665853  0.802551  1
  Tm  Tm9  1  0.250000  0.839386  0.300867  1
  Tm  Tm10  1  0.750000  0.339415  0.198572  1
  Tm  Tm11  1  0.750000  0.157853  0.698720  1
  Si  Si12  1  0.250000  0.015105  0.823509  1
  Si  Si13  1  0.250000  0.483323  0.324959  1
  Si  Si14  1  0.750000  0.982981  0.176734  1
  Si  Si15  1  0.750000  0.524654  0.675256  1
  Si  Si16  1  0.250000  0.241836  0.847759  1
  Si  Si17  1  0.250000  0.253352  0.342367  1
  Si  Si18  1  0.750000  0.753898  0.157110  1
  Si  Si19  1  0.750000  0.749751  0.656168  1
  Si  Si20  1  0.250000  0.184694  0.536464  1
  Si  Si21  1  0.250000  0.306743  0.042399  1
  Si  Si22  1  0.750000  0.807049  0.458142  1
  Si  Si23  1  0.750000  0.692871  0.959926  1
  Pt  Pt24  1  0.250000  0.110695  0.180001  1
  Pt  Pt25  1  0.750000  0.611150  0.319152  1
  Pt  Pt26  1  0.750000  0.888951  0.819746  1
  Au  Au27  1  0.250000  0.388588  0.680733  1
