# generated using pymatgen
data_Pr7ThTiPd24
_symmetry_space_group_name_H-M   'P 1'
_cell_length_a   8.55651320
_cell_length_b   8.55651320
_cell_length_c   8.55651320
_cell_angle_alpha   89.88778447
_cell_angle_beta   89.88778447
_cell_angle_gamma   89.88778447
_symmetry_Int_Tables_number   1
_chemical_formula_structural   Pr7ThTiPd24
_chemical_formula_sum   'Pr7 Th1 Ti1 Pd24'
_cell_volume   626.45225664
_cell_formula_units_Z   1
loop_
 _symmetry_equiv_pos_site_id
 _symmetry_equiv_pos_as_xyz
  1  'x, y, z'
loop_
 _atom_site_type_symbol
 _atom_site_label
 _atom_site_symmetry_multiplicity
 _atom_site_fract_x
 _atom_site_fract_y
 _atom_site_fract_z
 _atom_site_occupancy
  Pr  Pr0  1  0.748154  0.748154  0.748154  1
  Pr  Pr1  1  0.748571  0.748571  0.251513  1
  Pr  Pr2  1  0.748571  0.251513  0.748571  1
  Pr  Pr3  1  0.251534  0.251534  0.749018  1
  Pr  Pr4  1  0.251534  0.749018  0.251534  1
  Pr  Pr5  1  0.251513  0.748571  0.748571  1
  Pr  Pr6  1  0.749018  0.251534  0.251534  1
  Th  Th7  1  0.252488  0.252488  0.252488  1
  Ti  Ti8  1  0.999655  0.999655  0.999655  1
  Pd  Pd9  1  0.262752  0.498103  0.003109  1
  Pd  Pd10  1  0.737169  0.499672  0.000196  1
  Pd  Pd11  1  0.003109  0.262752  0.498103  1
  Pd  Pd12  1  0.498103  0.262752  0.003109  1
  Pd  Pd13  1  0.000196  0.737169  0.499672  1
  Pd  Pd14  1  0.499672  0.737169  0.000196  1
  Pd  Pd15  1  0.498103  0.003109  0.262752  1
  Pd  Pd16  1  0.262752  0.003109  0.498103  1
  Pd  Pd17  1  0.499672  0.000196  0.737169  1
  Pd  Pd18  1  0.737169  0.000196  0.499672  1
  Pd  Pd19  1  0.003109  0.498103  0.262752  1
  Pd  Pd20  1  0.000196  0.499672  0.737169  1
  Pd  Pd21  1  0.253827  0.497495  0.497495  1
  Pd  Pd22  1  0.746455  0.499685  0.499685  1
  Pd  Pd23  1  0.497495  0.253827  0.497495  1
  Pd  Pd24  1  0.499685  0.746455  0.499685  1
  Pd  Pd25  1  0.497495  0.497495  0.253827  1
  Pd  Pd26  1  0.499685  0.499685  0.746455  1
  Pd  Pd27  1  0.298569  0.001642  0.001642  1
  Pd  Pd28  1  0.700811  0.999828  0.999828  1
  Pd  Pd29  1  0.001642  0.298569  0.001642  1
  Pd  Pd30  1  0.999828  0.700811  0.999828  1
  Pd  Pd31  1  0.001642  0.001642  0.298569  1
  Pd  Pd32  1  0.999828  0.999828  0.700811  1
