# generated using pymatgen
data_Nd14Pd9Au11
_symmetry_space_group_name_H-M   'P 1'
_cell_length_a   8.96112726
_cell_length_b   8.94549107
_cell_length_c   10.43281215
_cell_angle_alpha   89.86083320
_cell_angle_beta   90.10688555
_cell_angle_gamma   107.23548424
_symmetry_Int_Tables_number   1
_chemical_formula_structural   Nd14Pd9Au11
_chemical_formula_sum   'Nd14 Pd9 Au11'
_cell_volume   798.75431244
_cell_formula_units_Z   1
loop_
 _symmetry_equiv_pos_site_id
 _symmetry_equiv_pos_as_xyz
  1  'x, y, z'
loop_
 _atom_site_type_symbol
 _atom_site_label
 _atom_site_symmetry_multiplicity
 _atom_site_fract_x
 _atom_site_fract_y
 _atom_site_fract_z
 _atom_site_occupancy
  Nd  Nd0  1  0.697565  0.306621  0.999622  1
  Nd  Nd1  1  0.301993  0.696893  0.000282  1
  Nd  Nd2  1  0.804220  0.196966  0.499556  1
  Nd  Nd3  1  0.195361  0.803823  0.499552  1
  Nd  Nd4  1  0.997705  0.989605  0.999894  1
  Nd  Nd5  1  0.498626  0.500051  0.501647  1
  Nd  Nd6  1  0.992445  0.499561  0.245390  1
  Nd  Nd7  1  0.005345  0.506113  0.751385  1
  Nd  Nd8  1  0.506214  0.003936  0.749845  1
  Nd  Nd9  1  0.494654  0.996409  0.249734  1
  Nd  Nd10  1  0.315933  0.317856  0.191912  1
  Nd  Nd11  1  0.686665  0.682418  0.811271  1
  Nd  Nd12  1  0.182059  0.182719  0.693809  1
  Nd  Nd13  1  0.816953  0.819214  0.308832  1
  Pd  Pd14  1  0.854651  0.148228  0.208486  1
  Pd  Pd15  1  0.147922  0.851921  0.790377  1
  Pd  Pd16  1  0.647639  0.352302  0.709441  1
  Pd  Pd17  1  0.645816  0.353095  0.291767  1
  Pd  Pd18  1  0.352971  0.647283  0.290509  1
  Pd  Pd19  1  0.353366  0.647499  0.710042  1
  Pd  Pd20  1  0.852780  0.146090  0.791256  1
  Pd  Pd21  1  0.147989  0.854177  0.209876  1
  Pd  Pd22  1  0.934601  0.642006  0.002668  1
  Au  Au23  1  0.063003  0.347907  0.993861  1
  Au  Au24  1  0.563456  0.851803  0.504857  1
  Au  Au25  1  0.147323  0.436891  0.492059  1
  Au  Au26  1  0.436025  0.148922  0.494405  1
  Au  Au27  1  0.850918  0.563659  0.505627  1
  Au  Au28  1  0.351094  0.065863  0.992873  1
  Au  Au29  1  0.648387  0.936977  0.006630  1
  Au  Au30  1  0.097951  0.098660  0.394641  1
  Au  Au31  1  0.901743  0.901661  0.607691  1
  Au  Au32  1  0.402976  0.403773  0.893871  1
  Au  Au33  1  0.603653  0.599098  0.106331  1
