# generated using pymatgen
data_LiCeCo4P3
_symmetry_space_group_name_H-M   'P 1'
_cell_length_a   3.72916200
_cell_length_b   10.36383600
_cell_length_c   11.86902500
_cell_angle_alpha   90.00000000
_cell_angle_beta   90.00000000
_cell_angle_gamma   90.00000000
_symmetry_Int_Tables_number   1
_chemical_formula_structural   LiCeCo4P3
_chemical_formula_sum   'Li4 Ce4 Co16 P12'
_cell_volume   458.71910337
_cell_formula_units_Z   4
loop_
 _symmetry_equiv_pos_site_id
 _symmetry_equiv_pos_as_xyz
  1  'x, y, z'
loop_
 _atom_site_type_symbol
 _atom_site_label
 _atom_site_symmetry_multiplicity
 _atom_site_fract_x
 _atom_site_fract_y
 _atom_site_fract_z
 _atom_site_occupancy
  Li  Li0  1  0.250000  0.699934  0.992576  1
  Li  Li1  1  0.250000  0.800066  0.492576  1
  Li  Li2  1  0.750000  0.300066  0.007424  1
  Li  Li3  1  0.750000  0.199934  0.507424  1
  Ce  Ce4  1  0.250000  0.581388  0.700160  1
  Ce  Ce5  1  0.250000  0.918612  0.200160  1
  Ce  Ce6  1  0.750000  0.418612  0.299840  1
  Ce  Ce7  1  0.750000  0.081388  0.799840  1
  Co  Co8  1  0.250000  0.407387  0.481321  1
  Co  Co9  1  0.250000  0.092613  0.981321  1
  Co  Co10  1  0.750000  0.592613  0.518679  1
  Co  Co11  1  0.750000  0.907387  0.018679  1
  Co  Co12  1  0.250000  0.217110  0.171869  1
  Co  Co13  1  0.250000  0.282890  0.671869  1
  Co  Co14  1  0.750000  0.782890  0.828131  1
  Co  Co15  1  0.750000  0.717110  0.328131  1
  Co  Co16  1  0.250000  0.882585  0.699315  1
  Co  Co17  1  0.250000  0.617415  0.199315  1
  Co  Co18  1  0.750000  0.117415  0.300685  1
  Co  Co19  1  0.750000  0.382585  0.800685  1
  Co  Co20  1  0.250000  0.469669  0.932443  1
  Co  Co21  1  0.250000  0.030331  0.432443  1
  Co  Co22  1  0.750000  0.530331  0.067557  1
  Co  Co23  1  0.750000  0.969669  0.567557  1
  P  P24  1  0.250000  0.421012  0.114090  1
  P  P25  1  0.250000  0.078988  0.614090  1
  P  P26  1  0.750000  0.578988  0.885910  1
  P  P27  1  0.750000  0.921012  0.385910  1
  P  P28  1  0.250000  0.277741  0.858817  1
  P  P29  1  0.250000  0.222259  0.358817  1
  P  P30  1  0.750000  0.722259  0.141183  1
  P  P31  1  0.750000  0.777741  0.641183  1
  P  P32  1  0.250000  0.605711  0.393822  1
  P  P33  1  0.250000  0.894289  0.893822  1
  P  P34  1  0.750000  0.394289  0.606178  1
  P  P35  1  0.750000  0.105711  0.106178  1
