# generated using pymatgen
data_NaEr2B6Ir7Os
_symmetry_space_group_name_H-M   'P 1'
_cell_length_a   9.90157292
_cell_length_b   9.07375054
_cell_length_c   5.57942913
_cell_angle_alpha   81.23916758
_cell_angle_beta   64.91813414
_cell_angle_gamma   33.75612280
_symmetry_Int_Tables_number   1
_chemical_formula_structural   NaEr2B6Ir7Os
_chemical_formula_sum   'Na1 Er2 B6 Ir7 Os1'
_cell_volume   231.46929540
_cell_formula_units_Z   1
loop_
 _symmetry_equiv_pos_site_id
 _symmetry_equiv_pos_as_xyz
  1  'x, y, z'
loop_
 _atom_site_type_symbol
 _atom_site_label
 _atom_site_symmetry_multiplicity
 _atom_site_fract_x
 _atom_site_fract_y
 _atom_site_fract_z
 _atom_site_occupancy
  Na  Na0  1  0.817984  0.817984  0.182016  1
  Er  Er1  1  0.992953  0.992953  0.007047  1
  Er  Er2  1  0.180351  0.180351  0.819649  1
  B  B3  1  0.819983  0.534386  0.480573  1
  B  B4  1  0.169474  0.482327  0.525565  1
  B  B5  1  0.482327  0.169474  0.822635  1
  B  B6  1  0.672220  0.328794  0.671151  1
  B  B7  1  0.534386  0.819983  0.165058  1
  B  B8  1  0.328794  0.672220  0.327835  1
  Ir  Ir9  1  0.415644  0.415644  0.584356  1
  Ir  Ir10  1  0.584990  0.584990  0.915010  1
  Ir  Ir11  1  0.085354  0.085354  0.414646  1
  Ir  Ir12  1  0.914234  0.914234  0.585766  1
  Ir  Ir13  1  0.586016  0.586016  0.413984  1
  Ir  Ir14  1  0.250558  0.250558  0.249442  1
  Ir  Ir15  1  0.413496  0.413496  0.086504  1
  Os  Os16  1  0.751240  0.751240  0.748760  1
