# generated using pymatgen
data_Pr2Nd15Y3Sn16
_symmetry_space_group_name_H-M   'P 1'
_cell_length_a   8.27190203
_cell_length_b   8.42229024
_cell_length_c   15.97367004
_cell_angle_alpha   90.00834482
_cell_angle_beta   89.99820941
_cell_angle_gamma   89.97391351
_symmetry_Int_Tables_number   1
_chemical_formula_structural   Pr2Nd15Y3Sn16
_chemical_formula_sum   'Pr2 Nd15 Y3 Sn16'
_cell_volume   1112.85926294
_cell_formula_units_Z   1
loop_
 _symmetry_equiv_pos_site_id
 _symmetry_equiv_pos_as_xyz
  1  'x, y, z'
loop_
 _atom_site_type_symbol
 _atom_site_label
 _atom_site_symmetry_multiplicity
 _atom_site_fract_x
 _atom_site_fract_y
 _atom_site_fract_z
 _atom_site_occupancy
  Pr  Pr0  1  0.520184  0.319134  0.598331  1
  Pr  Pr1  1  0.019468  0.179864  0.901629  1
  Nd  Nd2  1  0.367960  0.836890  0.879597  1
  Nd  Nd3  1  0.867173  0.663554  0.620663  1
  Nd  Nd4  1  0.632666  0.162850  0.379175  1
  Nd  Nd5  1  0.132786  0.337114  0.121577  1
  Nd  Nd6  1  0.632643  0.162855  0.120801  1
  Nd  Nd7  1  0.132764  0.337102  0.378445  1
  Nd  Nd8  1  0.367868  0.836937  0.620399  1
  Nd  Nd9  1  0.867053  0.663527  0.879337  1
  Nd  Nd10  1  0.520247  0.319189  0.901523  1
  Nd  Nd11  1  0.019490  0.179767  0.598527  1
  Nd  Nd12  1  0.480001  0.680326  0.400875  1
  Nd  Nd13  1  0.980302  0.819494  0.098720  1
  Nd  Nd14  1  0.480009  0.680306  0.099102  1
  Nd  Nd15  1  0.980305  0.819511  0.401302  1
  Nd  Nd16  1  0.198062  0.501699  0.749999  1
  Y  Y17  1  0.699612  0.998146  0.749998  1
  Y  Y18  1  0.800368  0.498746  0.250013  1
  Y  Y19  1  0.300221  0.001006  0.249986  1
  Sn  Sn20  1  0.292470  0.034268  0.044254  1
  Sn  Sn21  1  0.792686  0.466046  0.455817  1
  Sn  Sn22  1  0.707740  0.965523  0.543793  1
  Sn  Sn23  1  0.207652  0.535774  0.958113  1
  Sn  Sn24  1  0.707270  0.965497  0.956254  1
  Sn  Sn25  1  0.207221  0.535798  0.541847  1
  Sn  Sn26  1  0.292169  0.034326  0.455840  1
  Sn  Sn27  1  0.792396  0.465997  0.044089  1
  Sn  Sn28  1  0.568887  0.617519  0.750046  1
  Sn  Sn29  1  0.064317  0.885858  0.749939  1
  Sn  Sn30  1  0.435215  0.383374  0.250004  1
  Sn  Sn31  1  0.934768  0.116348  0.249996  1
  Sn  Sn32  1  0.327305  0.142261  0.750087  1
  Sn  Sn33  1  0.824056  0.352558  0.749921  1
  Sn  Sn34  1  0.673649  0.853914  0.250000  1
  Sn  Sn35  1  0.173020  0.646922  0.250000  1
