# generated using pymatgen
data_RbCdInF6
_symmetry_space_group_name_H-M   'P 1'
_cell_length_a   6.01899200
_cell_length_b   6.01899239
_cell_length_c   12.45864700
_cell_angle_alpha   90.00000000
_cell_angle_beta   90.00000000
_cell_angle_gamma   119.99998689
_symmetry_Int_Tables_number   1
_chemical_formula_structural   RbCdInF6
_chemical_formula_sum   'Rb2 Cd2 In2 F12'
_cell_volume   390.88511249
_cell_formula_units_Z   2
loop_
 _symmetry_equiv_pos_site_id
 _symmetry_equiv_pos_as_xyz
  1  'x, y, z'
loop_
 _atom_site_type_symbol
 _atom_site_label
 _atom_site_symmetry_multiplicity
 _atom_site_fract_x
 _atom_site_fract_y
 _atom_site_fract_z
 _atom_site_occupancy
  Rb  Rb0  1  0.000000  0.000000  0.250000  1
  Rb  Rb1  1  0.000000  0.000000  0.750000  1
  Cd  Cd2  1  0.666667  0.333333  0.000000  1
  Cd  Cd3  1  0.333333  0.666666  0.500000  1
  In  In4  1  0.333333  0.666666  0.000000  1
  In  In5  1  0.666667  0.333333  0.500000  1
  F  F6  1  0.020567  0.388259  0.092947  1
  F  F7  1  0.611740  0.632309  0.092947  1
  F  F8  1  0.367692  0.979432  0.092947  1
  F  F9  1  0.632309  0.020568  0.407055  1
  F  F10  1  0.388260  0.367691  0.407055  1
  F  F11  1  0.979432  0.611740  0.407055  1
  F  F12  1  0.388259  0.020568  0.592946  1
  F  F13  1  0.979433  0.367691  0.592946  1
  F  F14  1  0.632309  0.611740  0.592946  1
  F  F15  1  0.367692  0.388259  0.907054  1
  F  F16  1  0.020568  0.632309  0.907054  1
  F  F17  1  0.611739  0.979432  0.907054  1
