# generated using pymatgen
data_Dy4Tc3B16Ru
_symmetry_space_group_name_H-M   'P 1'
_cell_length_a   3.58827600
_cell_length_b   5.97339602
_cell_length_c   11.55835189
_cell_angle_alpha   89.90591124
_cell_angle_beta   90.00000000
_cell_angle_gamma   90.00000000
_symmetry_Int_Tables_number   1
_chemical_formula_structural   Dy4Tc3B16Ru
_chemical_formula_sum   'Dy4 Tc3 B16 Ru1'
_cell_volume   247.74361766
_cell_formula_units_Z   1
loop_
 _symmetry_equiv_pos_site_id
 _symmetry_equiv_pos_as_xyz
  1  'x, y, z'
loop_
 _atom_site_type_symbol
 _atom_site_label
 _atom_site_symmetry_multiplicity
 _atom_site_fract_x
 _atom_site_fract_y
 _atom_site_fract_z
 _atom_site_occupancy
  Dy  Dy0  1  0.000000  0.129477  0.649355  1
  Dy  Dy1  1  0.000000  0.871361  0.351521  1
  Dy  Dy2  1  0.000000  0.627388  0.848555  1
  Dy  Dy3  1  0.000000  0.372711  0.150888  1
  Tc  Tc4  1  0.000000  0.131724  0.913499  1
  Tc  Tc5  1  0.000000  0.867760  0.087421  1
  Tc  Tc6  1  0.000000  0.638395  0.589953  1
  B  B7  1  0.500000  0.475716  0.691818  1
  B  B8  1  0.500000  0.524496  0.308158  1
  B  B9  1  0.500000  0.978796  0.807698  1
  B  B10  1  0.500000  0.022367  0.192535  1
  B  B11  1  0.500000  0.287479  0.814930  1
  B  B12  1  0.500000  0.711616  0.185159  1
  B  B13  1  0.500000  0.787753  0.685107  1
  B  B14  1  0.500000  0.211541  0.315179  1
  B  B15  1  0.500000  0.364094  0.968472  1
  B  B16  1  0.500000  0.635466  0.031685  1
  B  B17  1  0.500000  0.864428  0.530493  1
  B  B18  1  0.500000  0.136420  0.468924  1
  B  B19  1  0.500000  0.387321  0.546807  1
  B  B20  1  0.500000  0.612469  0.452803  1
  B  B21  1  0.500000  0.886814  0.952873  1
  B  B22  1  0.500000  0.112761  0.047493  1
  Ru  Ru23  1  0.000000  0.361648  0.408671  1
