# generated using pymatgen
data_Pr5SnBi2P
_symmetry_space_group_name_H-M   'P 1'
_cell_length_a   9.57955737
_cell_length_b   9.57955660
_cell_length_c   6.99855600
_cell_angle_alpha   90.00000000
_cell_angle_beta   90.00000000
_cell_angle_gamma   120.06125420
_symmetry_Int_Tables_number   1
_chemical_formula_structural   Pr5SnBi2P
_chemical_formula_sum   'Pr10 Sn2 Bi4 P2'
_cell_volume   555.85501751
_cell_formula_units_Z   2
loop_
 _symmetry_equiv_pos_site_id
 _symmetry_equiv_pos_as_xyz
  1  'x, y, z'
loop_
 _atom_site_type_symbol
 _atom_site_label
 _atom_site_symmetry_multiplicity
 _atom_site_fract_x
 _atom_site_fract_y
 _atom_site_fract_z
 _atom_site_occupancy
  Pr  Pr0  1  0.667302  0.331058  0.002912  1
  Pr  Pr1  1  0.331058  0.667302  0.002912  1
  Pr  Pr2  1  0.331058  0.667302  0.497088  1
  Pr  Pr3  1  0.667302  0.331058  0.497088  1
  Pr  Pr4  1  0.762530  0.762530  0.750000  1
  Pr  Pr5  1  0.239081  0.000422  0.750000  1
  Pr  Pr6  1  0.000422  0.239081  0.750000  1
  Pr  Pr7  1  0.237211  0.237211  0.250000  1
  Pr  Pr8  1  0.762385  0.003682  0.250000  1
  Pr  Pr9  1  0.003682  0.762385  0.250000  1
  Sn  Sn10  1  0.399437  0.000080  0.250000  1
  Sn  Sn11  1  0.000080  0.399437  0.250000  1
  Bi  Bi12  1  0.398563  0.398563  0.750000  1
  Bi  Bi13  1  0.600574  0.999580  0.750000  1
  Bi  Bi14  1  0.999580  0.600574  0.750000  1
  Bi  Bi15  1  0.601058  0.601058  0.250000  1
  P  P16  1  0.999338  0.999338  0.999607  1
  P  P17  1  0.999338  0.999338  0.500393  1
