# generated using pymatgen
data_NdEr2WO7
_symmetry_space_group_name_H-M   'P 1'
_cell_length_a   6.47638484
_cell_length_b   6.47638444
_cell_length_c   7.55853800
_cell_angle_alpha   90.00000000
_cell_angle_beta   90.00000000
_cell_angle_gamma   109.09242240
_symmetry_Int_Tables_number   1
_chemical_formula_structural   NdEr2WO7
_chemical_formula_sum   'Nd2 Er4 W2 O14'
_cell_volume   299.59273869
_cell_formula_units_Z   2
loop_
 _symmetry_equiv_pos_site_id
 _symmetry_equiv_pos_as_xyz
  1  'x, y, z'
loop_
 _atom_site_type_symbol
 _atom_site_label
 _atom_site_symmetry_multiplicity
 _atom_site_fract_x
 _atom_site_fract_y
 _atom_site_fract_z
 _atom_site_occupancy
  Nd  Nd0  1  0.500000  0.500000  0.500000  1
  Nd  Nd1  1  0.500000  0.500000  0.000000  1
  Er  Er2  1  0.532469  0.001756  0.750000  1
  Er  Er3  1  0.001756  0.532469  0.250000  1
  Er  Er4  1  0.467531  0.998244  0.250000  1
  Er  Er5  1  0.998244  0.467531  0.750000  1
  W  W6  1  0.000000  0.000000  0.500000  1
  W  W7  1  0.000000  0.000000  0.000000  1
  O  O8  1  0.677437  0.927906  0.470113  1
  O  O9  1  0.927906  0.677437  0.529887  1
  O  O10  1  0.677437  0.927906  0.029887  1
  O  O11  1  0.927906  0.677437  0.970113  1
  O  O12  1  0.322563  0.072094  0.529887  1
  O  O13  1  0.072094  0.322563  0.470113  1
  O  O14  1  0.322563  0.072094  0.970113  1
  O  O15  1  0.072094  0.322563  0.029887  1
  O  O16  1  0.926505  0.073495  0.750000  1
  O  O17  1  0.073495  0.926505  0.250000  1
  O  O18  1  0.360938  0.639061  0.750000  1
  O  O19  1  0.639061  0.360938  0.250000  1
  O  O20  1  0.643020  0.356980  0.750000  1
  O  O21  1  0.356980  0.643020  0.250000  1
