# generated using pymatgen
data_TbY3CdNi
_symmetry_space_group_name_H-M   'P 1'
_cell_length_a   9.58283924
_cell_length_b   9.58284003
_cell_length_c   9.58283900
_cell_angle_alpha   60.00000010
_cell_angle_beta   59.99999737
_cell_angle_gamma   59.99999699
_symmetry_Int_Tables_number   1
_chemical_formula_structural   TbY3CdNi
_chemical_formula_sum   'Tb4 Y12 Cd4 Ni4'
_cell_volume   622.25388459
_cell_formula_units_Z   4
loop_
 _symmetry_equiv_pos_site_id
 _symmetry_equiv_pos_as_xyz
  1  'x, y, z'
loop_
 _atom_site_type_symbol
 _atom_site_label
 _atom_site_symmetry_multiplicity
 _atom_site_fract_x
 _atom_site_fract_y
 _atom_site_fract_z
 _atom_site_occupancy
  Tb  Tb0  1  0.599117  0.599117  0.599117  1
  Tb  Tb1  1  0.599117  0.599117  0.202650  1
  Tb  Tb2  1  0.599117  0.202650  0.599117  1
  Tb  Tb3  1  0.202650  0.599117  0.599117  1
  Y  Y4  1  0.060933  0.439067  0.439067  1
  Y  Y5  1  0.439067  0.060933  0.060933  1
  Y  Y6  1  0.439067  0.060933  0.439067  1
  Y  Y7  1  0.060933  0.439067  0.060933  1
  Y  Y8  1  0.439067  0.439067  0.060933  1
  Y  Y9  1  0.060933  0.060933  0.439067  1
  Y  Y10  1  0.186596  0.813404  0.813404  1
  Y  Y11  1  0.813404  0.186596  0.186596  1
  Y  Y12  1  0.813404  0.186596  0.813404  1
  Y  Y13  1  0.186596  0.813404  0.186596  1
  Y  Y14  1  0.813404  0.813404  0.186596  1
  Y  Y15  1  0.186596  0.186596  0.813404  1
  Cd  Cd16  1  0.831254  0.831254  0.831254  1
  Cd  Cd17  1  0.831254  0.831254  0.506237  1
  Cd  Cd18  1  0.831254  0.506237  0.831254  1
  Cd  Cd19  1  0.506237  0.831254  0.831254  1
  Ni  Ni20  1  0.393086  0.393086  0.393086  1
  Ni  Ni21  1  0.393086  0.393086  0.820744  1
  Ni  Ni22  1  0.393086  0.820744  0.393086  1
  Ni  Ni23  1  0.820744  0.393086  0.393086  1
