# generated using pymatgen
data_Tb3LuNi4(SnH)4
_symmetry_space_group_name_H-M   'P 1'
_cell_length_a   4.24170600
_cell_length_b   7.07183828
_cell_length_c   8.31033032
_cell_angle_alpha   90.03194257
_cell_angle_beta   90.00000000
_cell_angle_gamma   90.00000000
_symmetry_Int_Tables_number   1
_chemical_formula_structural   Tb3LuNi4(SnH)4
_chemical_formula_sum   'Tb3 Lu1 Ni4 Sn4 H4'
_cell_volume   249.28210481
_cell_formula_units_Z   1
loop_
 _symmetry_equiv_pos_site_id
 _symmetry_equiv_pos_as_xyz
  1  'x, y, z'
loop_
 _atom_site_type_symbol
 _atom_site_label
 _atom_site_symmetry_multiplicity
 _atom_site_fract_x
 _atom_site_fract_y
 _atom_site_fract_z
 _atom_site_occupancy
  Tb  Tb0  1  0.750000  0.515655  0.813073  1
  Tb  Tb1  1  0.250000  0.484033  0.185568  1
  Tb  Tb2  1  0.250000  0.984115  0.313392  1
  Lu  Lu3  1  0.750000  0.015889  0.683996  1
  Ni  Ni4  1  0.750000  0.272481  0.395801  1
  Ni  Ni5  1  0.250000  0.731108  0.609223  1
  Ni  Ni6  1  0.250000  0.222775  0.888238  1
  Ni  Ni7  1  0.750000  0.774425  0.109095  1
  Sn  Sn8  1  0.750000  0.155743  0.069155  1
  Sn  Sn9  1  0.250000  0.844013  0.926412  1
  Sn  Sn10  1  0.250000  0.343238  0.571799  1
  Sn  Sn11  1  0.750000  0.656520  0.430152  1
  H  H12  1  0.250000  0.953240  0.580281  1
  H  H13  1  0.750000  0.049668  0.425119  1
  H  H14  1  0.750000  0.550789  0.078452  1
  H  H15  1  0.250000  0.446309  0.920244  1
