# generated using pymatgen
data_Lu10Al3Rh
_symmetry_space_group_name_H-M   'P 1'
_cell_length_a   9.31938200
_cell_length_b   9.31938238
_cell_length_c   9.43669200
_cell_angle_alpha   90.00000000
_cell_angle_beta   90.00000000
_cell_angle_gamma   119.99999865
_symmetry_Int_Tables_number   1
_chemical_formula_structural   Lu10Al3Rh
_chemical_formula_sum   'Lu20 Al6 Rh2'
_cell_volume   709.78148023
_cell_formula_units_Z   2
loop_
 _symmetry_equiv_pos_site_id
 _symmetry_equiv_pos_as_xyz
  1  'x, y, z'
loop_
 _atom_site_type_symbol
 _atom_site_label
 _atom_site_symmetry_multiplicity
 _atom_site_fract_x
 _atom_site_fract_y
 _atom_site_fract_z
 _atom_site_occupancy
  Lu  Lu0  1  0.000000  0.000000  0.500000  1
  Lu  Lu1  1  0.000000  0.000000  0.000000  1
  Lu  Lu2  1  0.206754  0.793246  0.441016  1
  Lu  Lu3  1  0.206754  0.413507  0.441016  1
  Lu  Lu4  1  0.586493  0.793246  0.441016  1
  Lu  Lu5  1  0.793246  0.206754  0.558984  1
  Lu  Lu6  1  0.793246  0.586493  0.558984  1
  Lu  Lu7  1  0.413507  0.206754  0.558984  1
  Lu  Lu8  1  0.793246  0.206754  0.941016  1
  Lu  Lu9  1  0.793246  0.586493  0.941016  1
  Lu  Lu10  1  0.413507  0.206754  0.941016  1
  Lu  Lu11  1  0.206754  0.793246  0.058984  1
  Lu  Lu12  1  0.206754  0.413507  0.058984  1
  Lu  Lu13  1  0.586493  0.793246  0.058984  1
  Lu  Lu14  1  0.541464  0.458536  0.250000  1
  Lu  Lu15  1  0.541464  0.082929  0.250000  1
  Lu  Lu16  1  0.917071  0.458536  0.250000  1
  Lu  Lu17  1  0.458536  0.541464  0.750000  1
  Lu  Lu18  1  0.458536  0.917071  0.750000  1
  Lu  Lu19  1  0.082929  0.541464  0.750000  1
  Al  Al20  1  0.888999  0.111001  0.250000  1
  Al  Al21  1  0.888999  0.778001  0.250000  1
  Al  Al22  1  0.221999  0.111001  0.250000  1
  Al  Al23  1  0.111001  0.888999  0.750000  1
  Al  Al24  1  0.111001  0.221999  0.750000  1
  Al  Al25  1  0.778001  0.888999  0.750000  1
  Rh  Rh26  1  0.333333  0.666667  0.250000  1
  Rh  Rh27  1  0.666667  0.333333  0.750000  1
