# generated using pymatgen
data_Ho3ZrMn4(Co2P3)2
_symmetry_space_group_name_H-M   'P 1'
_cell_length_a   3.69801600
_cell_length_b   10.92339900
_cell_length_c   12.54981500
_cell_angle_alpha   90.00000000
_cell_angle_beta   90.00000000
_cell_angle_gamma   90.00000000
_symmetry_Int_Tables_number   1
_chemical_formula_structural   Ho3ZrMn4(Co2P3)2
_chemical_formula_sum   'Ho6 Zr2 Mn8 Co8 P12'
_cell_volume   506.94857561
_cell_formula_units_Z   2
loop_
 _symmetry_equiv_pos_site_id
 _symmetry_equiv_pos_as_xyz
  1  'x, y, z'
loop_
 _atom_site_type_symbol
 _atom_site_label
 _atom_site_symmetry_multiplicity
 _atom_site_fract_x
 _atom_site_fract_y
 _atom_site_fract_z
 _atom_site_occupancy
  Ho  Ho0  1  0.000000  0.500000  0.536303  1
  Ho  Ho1  1  0.500000  0.000000  0.463697  1
  Ho  Ho2  1  0.500000  0.825548  0.200339  1
  Ho  Ho3  1  0.500000  0.174452  0.200339  1
  Ho  Ho4  1  0.000000  0.674452  0.799661  1
  Ho  Ho5  1  0.000000  0.325548  0.799661  1
  Zr  Zr6  1  0.500000  0.500000  0.158486  1
  Zr  Zr7  1  0.000000  0.000000  0.841514  1
  Mn  Mn8  1  0.500000  0.295513  0.434056  1
  Mn  Mn9  1  0.500000  0.704487  0.434056  1
  Mn  Mn10  1  0.000000  0.204487  0.565944  1
  Mn  Mn11  1  0.000000  0.795513  0.565944  1
  Mn  Mn12  1  0.500000  0.878058  0.698196  1
  Mn  Mn13  1  0.500000  0.121942  0.698196  1
  Mn  Mn14  1  0.000000  0.621942  0.301804  1
  Mn  Mn15  1  0.000000  0.378058  0.301804  1
  Co  Co16  1  0.000000  0.500000  0.986811  1
  Co  Co17  1  0.500000  0.000000  0.013189  1
  Co  Co18  1  0.500000  0.332085  0.993747  1
  Co  Co19  1  0.500000  0.667915  0.993747  1
  Co  Co20  1  0.000000  0.167915  0.006253  1
  Co  Co21  1  0.000000  0.832085  0.006253  1
  Co  Co22  1  0.500000  0.500000  0.710083  1
  Co  Co23  1  0.000000  0.000000  0.289917  1
  P  P24  1  0.500000  0.318697  0.620548  1
  P  P25  1  0.500000  0.681303  0.620548  1
  P  P26  1  0.000000  0.181303  0.379452  1
  P  P27  1  0.000000  0.818697  0.379452  1
  P  P28  1  0.500000  0.500000  0.887144  1
  P  P29  1  0.000000  0.000000  0.112856  1
  P  P30  1  0.500000  0.837580  0.894937  1
  P  P31  1  0.500000  0.162420  0.894937  1
  P  P32  1  0.000000  0.662420  0.105063  1
  P  P33  1  0.000000  0.337580  0.105063  1
  P  P34  1  0.500000  0.500000  0.367602  1
  P  P35  1  0.000000  0.000000  0.632398  1
