# generated using pymatgen
data_LiTb16Cd3PdPt3
_symmetry_space_group_name_H-M   'P 1'
_cell_length_a   9.72320748
_cell_length_b   9.72320676
_cell_length_c   9.72320602
_cell_angle_alpha   60.11016616
_cell_angle_beta   60.11017263
_cell_angle_gamma   60.11016775
_symmetry_Int_Tables_number   1
_chemical_formula_structural   LiTb16Cd3PdPt3
_chemical_formula_sum   'Li1 Tb16 Cd3 Pd1 Pt3'
_cell_volume   651.62275235
_cell_formula_units_Z   1
loop_
 _symmetry_equiv_pos_site_id
 _symmetry_equiv_pos_as_xyz
  1  'x, y, z'
loop_
 _atom_site_type_symbol
 _atom_site_label
 _atom_site_symmetry_multiplicity
 _atom_site_fract_x
 _atom_site_fract_y
 _atom_site_fract_z
 _atom_site_occupancy
  Li  Li0  1  0.571760  0.571760  0.571760  1
  Tb  Tb1  1  0.350474  0.350474  0.350474  1
  Tb  Tb2  1  0.353306  0.353306  0.943099  1
  Tb  Tb3  1  0.353306  0.943099  0.353306  1
  Tb  Tb4  1  0.943099  0.353306  0.353306  1
  Tb  Tb5  1  0.808945  0.192467  0.192467  1
  Tb  Tb6  1  0.188472  0.812539  0.812539  1
  Tb  Tb7  1  0.192467  0.808945  0.192467  1
  Tb  Tb8  1  0.812539  0.188472  0.812539  1
  Tb  Tb9  1  0.192467  0.192467  0.808945  1
  Tb  Tb10  1  0.812539  0.812539  0.188472  1
  Tb  Tb11  1  0.936105  0.565380  0.565380  1
  Tb  Tb12  1  0.564331  0.935809  0.935809  1
  Tb  Tb13  1  0.565380  0.936105  0.565380  1
  Tb  Tb14  1  0.935809  0.564331  0.935809  1
  Tb  Tb15  1  0.565380  0.565380  0.936105  1
  Tb  Tb16  1  0.935809  0.935809  0.564331  1
  Cd  Cd17  1  0.582160  0.582160  0.253333  1
  Cd  Cd18  1  0.582160  0.253333  0.582160  1
  Cd  Cd19  1  0.253333  0.582160  0.582160  1
  Pd  Pd20  1  0.144559  0.144559  0.144559  1
  Pt  Pt21  1  0.142651  0.142651  0.570297  1
  Pt  Pt22  1  0.142651  0.570297  0.142651  1
  Pt  Pt23  1  0.570297  0.142651  0.142651  1
