# generated using pymatgen
data_HoZnCu2NiAg
_symmetry_space_group_name_H-M   'P 1'
_cell_length_a   5.09726745
_cell_length_b   5.09726668
_cell_length_c   4.96346011
_cell_angle_alpha   60.08520857
_cell_angle_beta   60.08520192
_cell_angle_gamma   60.27302760
_symmetry_Int_Tables_number   1
_chemical_formula_structural   HoZnCu2NiAg
_chemical_formula_sum   'Ho1 Zn1 Cu2 Ni1 Ag1'
_cell_volume   91.49405284
_cell_formula_units_Z   1
loop_
 _symmetry_equiv_pos_site_id
 _symmetry_equiv_pos_as_xyz
  1  'x, y, z'
loop_
 _atom_site_type_symbol
 _atom_site_label
 _atom_site_symmetry_multiplicity
 _atom_site_fract_x
 _atom_site_fract_y
 _atom_site_fract_z
 _atom_site_occupancy
  Ho  Ho0  1  0.246650  0.246650  0.248122  1
  Zn  Zn1  1  0.628014  0.628014  0.627376  1
  Cu  Cu2  1  0.627010  0.123604  0.625003  1
  Cu  Cu3  1  0.123604  0.627010  0.625003  1
  Ni  Ni4  1  0.627217  0.627217  0.123508  1
  Ag  Ag5  1  0.997506  0.997506  0.000988  1
