# generated using pymatgen
data_Y4Hf2Sn6Ir5Rh
_symmetry_space_group_name_H-M   'P 1'
_cell_length_a   7.51726610
_cell_length_b   7.45070791
_cell_length_c   7.66555400
_cell_angle_alpha   90.00000000
_cell_angle_beta   90.00000000
_cell_angle_gamma   119.69528177
_symmetry_Int_Tables_number   1
_chemical_formula_structural   Y4Hf2Sn6Ir5Rh
_chemical_formula_sum   'Y4 Hf2 Sn6 Ir5 Rh1'
_cell_volume   372.95547584
_cell_formula_units_Z   1
loop_
 _symmetry_equiv_pos_site_id
 _symmetry_equiv_pos_as_xyz
  1  'x, y, z'
loop_
 _atom_site_type_symbol
 _atom_site_label
 _atom_site_symmetry_multiplicity
 _atom_site_fract_x
 _atom_site_fract_y
 _atom_site_fract_z
 _atom_site_occupancy
  Y  Y0  1  0.000263  0.404898  0.750000  1
  Y  Y1  1  0.587913  0.591713  0.750000  1
  Y  Y2  1  0.411496  0.003353  0.750000  1
  Y  Y3  1  0.998113  0.400417  0.250000  1
  Hf  Hf4  1  0.607117  0.602263  0.250000  1
  Hf  Hf5  1  0.394183  0.997425  0.250000  1
  Sn  Sn6  1  0.261247  0.263659  0.491892  1
  Sn  Sn7  1  0.000763  0.733860  0.503808  1
  Sn  Sn8  1  0.000763  0.733860  0.996192  1
  Sn  Sn9  1  0.738110  0.000960  0.492554  1
  Sn  Sn10  1  0.738110  0.000960  0.007446  1
  Sn  Sn11  1  0.261247  0.263659  0.008108  1
  Ir  Ir12  1  0.345807  0.676781  0.468950  1
  Ir  Ir13  1  0.654417  0.331183  0.472559  1
  Ir  Ir14  1  0.345807  0.676781  0.031050  1
  Ir  Ir15  1  0.999871  0.984841  0.250000  1
  Ir  Ir16  1  0.654417  0.331183  0.027441  1
  Rh  Rh17  1  0.000357  0.002205  0.750000  1
