# generated using pymatgen
data_Tb8SbPd11Pt13
_symmetry_space_group_name_H-M   'P 1'
_cell_length_a   8.42615545
_cell_length_b   8.42417837
_cell_length_c   8.42545610
_cell_angle_alpha   90.00589197
_cell_angle_beta   90.01673575
_cell_angle_gamma   89.96651365
_symmetry_Int_Tables_number   1
_chemical_formula_structural   Tb8SbPd11Pt13
_chemical_formula_sum   'Tb8 Sb1 Pd11 Pt13'
_cell_volume   598.06769722
_cell_formula_units_Z   1
loop_
 _symmetry_equiv_pos_site_id
 _symmetry_equiv_pos_as_xyz
  1  'x, y, z'
loop_
 _atom_site_type_symbol
 _atom_site_label
 _atom_site_symmetry_multiplicity
 _atom_site_fract_x
 _atom_site_fract_y
 _atom_site_fract_z
 _atom_site_occupancy
  Tb  Tb0  1  0.745865  0.745824  0.253972  1
  Tb  Tb1  1  0.745440  0.254101  0.745519  1
  Tb  Tb2  1  0.254558  0.745386  0.745975  1
  Tb  Tb3  1  0.745457  0.746027  0.746009  1
  Tb  Tb4  1  0.745868  0.254258  0.254466  1
  Tb  Tb5  1  0.254605  0.254635  0.745454  1
  Tb  Tb6  1  0.254210  0.745381  0.253934  1
  Tb  Tb7  1  0.254264  0.254635  0.254471  1
  Sb  Sb8  1  0.000006  0.999973  0.000136  1
  Pd  Pd9  1  0.000151  0.999922  0.305372  1
  Pd  Pd10  1  0.500093  0.745983  0.500124  1
  Pd  Pd11  1  0.746019  0.499905  0.499900  1
  Pd  Pd12  1  0.305321  0.000292  0.000071  1
  Pd  Pd13  1  0.000234  0.999905  0.694643  1
  Pd  Pd14  1  0.999902  0.305429  0.999745  1
  Pd  Pd15  1  0.999829  0.694991  0.999742  1
  Pd  Pd16  1  0.695056  0.000190  0.000096  1
  Pd  Pd17  1  0.263336  0.000125  0.499985  1
  Pd  Pd18  1  0.000211  0.500046  0.736428  1
  Pd  Pd19  1  0.500073  0.263242  0.999829  1
  Pt  Pt20  1  0.736164  0.000248  0.499999  1
  Pt  Pt21  1  0.736248  0.499931  0.000178  1
  Pt  Pt22  1  0.500003  0.999966  0.736275  1
  Pt  Pt23  1  0.999952  0.736228  0.500036  1
  Pt  Pt24  1  0.499996  0.999963  0.263805  1
  Pt  Pt25  1  0.999924  0.263471  0.500046  1
  Pt  Pt26  1  0.500072  0.736184  0.999808  1
  Pt  Pt27  1  0.253801  0.499859  0.499906  1
  Pt  Pt28  1  0.499772  0.499980  0.746185  1
  Pt  Pt29  1  0.499786  0.499999  0.253718  1
  Pt  Pt30  1  0.500087  0.253886  0.500120  1
  Pt  Pt31  1  0.000314  0.500052  0.263949  1
  Pt  Pt32  1  0.263379  0.499981  0.000106  1
