# generated using pymatgen
data_Tm4CdCo2Bi
_symmetry_space_group_name_H-M   'P 1'
_cell_length_a   8.87516155
_cell_length_b   8.87516130
_cell_length_c   8.87516038
_cell_angle_alpha   131.71733728
_cell_angle_beta   131.71733088
_cell_angle_gamma   70.67583027
_symmetry_Int_Tables_number   1
_chemical_formula_structural   Tm4CdCo2Bi
_chemical_formula_sum   'Tm8 Cd2 Co4 Bi2'
_cell_volume   381.56756843
_cell_formula_units_Z   2
loop_
 _symmetry_equiv_pos_site_id
 _symmetry_equiv_pos_as_xyz
  1  'x, y, z'
loop_
 _atom_site_type_symbol
 _atom_site_label
 _atom_site_symmetry_multiplicity
 _atom_site_fract_x
 _atom_site_fract_y
 _atom_site_fract_z
 _atom_site_occupancy
  Tm  Tm0  1  0.800181  0.300181  0.859349  1
  Tm  Tm1  1  0.199819  0.699819  0.140651  1
  Tm  Tm2  1  0.440833  0.940833  0.140651  1
  Tm  Tm3  1  0.300181  0.440833  0.500000  1
  Tm  Tm4  1  0.059167  0.199819  0.500000  1
  Tm  Tm5  1  0.559167  0.059167  0.859349  1
  Tm  Tm6  1  0.699819  0.559167  0.500000  1
  Tm  Tm7  1  0.940833  0.800181  0.500000  1
  Cd  Cd8  1  0.000000  0.000000  0.000000  1
  Cd  Cd9  1  0.500000  0.500000  0.000000  1
  Co  Co10  1  0.110531  0.610531  0.721063  1
  Co  Co11  1  0.889469  0.389469  0.278937  1
  Co  Co12  1  0.610531  0.889469  0.500000  1
  Co  Co13  1  0.389469  0.110531  0.500000  1
  Bi  Bi14  1  0.250000  0.250000  0.000000  1
  Bi  Bi15  1  0.750000  0.750000  0.000000  1
