# generated using pymatgen
data_Ce2Sc3(SiAu)2
_symmetry_space_group_name_H-M   'P 1'
_cell_length_a   7.32208700
_cell_length_b   7.27078500
_cell_length_c   15.14856500
_cell_angle_alpha   90.00000000
_cell_angle_beta   90.00000000
_cell_angle_gamma   90.00000000
_symmetry_Int_Tables_number   1
_chemical_formula_structural   Ce2Sc3(SiAu)2
_chemical_formula_sum   'Ce8 Sc12 Si8 Au8'
_cell_volume   806.46900742
_cell_formula_units_Z   4
loop_
 _symmetry_equiv_pos_site_id
 _symmetry_equiv_pos_as_xyz
  1  'x, y, z'
loop_
 _atom_site_type_symbol
 _atom_site_label
 _atom_site_symmetry_multiplicity
 _atom_site_fract_x
 _atom_site_fract_y
 _atom_site_fract_z
 _atom_site_occupancy
  Ce  Ce0  1  0.012658  0.675866  0.605233  1
  Ce  Ce1  1  0.987342  0.324134  0.394767  1
  Ce  Ce2  1  0.487342  0.175866  0.394767  1
  Ce  Ce3  1  0.987342  0.324134  0.105233  1
  Ce  Ce4  1  0.512658  0.824134  0.605233  1
  Ce  Ce5  1  0.012658  0.675866  0.894767  1
  Ce  Ce6  1  0.512658  0.824134  0.894767  1
  Ce  Ce7  1  0.487342  0.175866  0.105233  1
  Sc  Sc8  1  0.189340  0.000513  0.750000  1
  Sc  Sc9  1  0.810660  0.999487  0.250000  1
  Sc  Sc10  1  0.310660  0.500513  0.250000  1
  Sc  Sc11  1  0.689340  0.499487  0.750000  1
  Sc  Sc12  1  0.360626  0.329436  0.629591  1
  Sc  Sc13  1  0.639374  0.670564  0.370409  1
  Sc  Sc14  1  0.139374  0.829436  0.370409  1
  Sc  Sc15  1  0.639374  0.670564  0.129591  1
  Sc  Sc16  1  0.860626  0.170564  0.629591  1
  Sc  Sc17  1  0.360626  0.329436  0.870409  1
  Sc  Sc18  1  0.860626  0.170564  0.870409  1
  Sc  Sc19  1  0.139374  0.829436  0.129591  1
  Si  Si20  1  0.062748  0.377236  0.750000  1
  Si  Si21  1  0.937252  0.622764  0.250000  1
  Si  Si22  1  0.437252  0.877236  0.250000  1
  Si  Si23  1  0.562748  0.122764  0.750000  1
  Si  Si24  1  0.311884  0.624979  0.750000  1
  Si  Si25  1  0.688116  0.375021  0.250000  1
  Si  Si26  1  0.188116  0.124979  0.250000  1
  Si  Si27  1  0.811884  0.875021  0.750000  1
  Au  Au28  1  0.183530  0.043101  0.536421  1
  Au  Au29  1  0.816470  0.956899  0.463579  1
  Au  Au30  1  0.316470  0.543101  0.463579  1
  Au  Au31  1  0.816470  0.956899  0.036421  1
  Au  Au32  1  0.683530  0.456899  0.536421  1
  Au  Au33  1  0.183530  0.043101  0.963579  1
  Au  Au34  1  0.683530  0.456899  0.963579  1
  Au  Au35  1  0.316470  0.543101  0.036421  1
