# generated using pymatgen
data_La5Pr5(Sn2Ir)2
_symmetry_space_group_name_H-M   'P 1'
_cell_length_a   8.30456393
_cell_length_b   9.17485800
_cell_length_c   12.88329400
_cell_angle_alpha   90.00000000
_cell_angle_beta   90.18422575
_cell_angle_gamma   90.00000000
_symmetry_Int_Tables_number   1
_chemical_formula_structural   La5Pr5(Sn2Ir)2
_chemical_formula_sum   'La10 Pr10 Sn8 Ir4'
_cell_volume   981.61425510
_cell_formula_units_Z   2
loop_
 _symmetry_equiv_pos_site_id
 _symmetry_equiv_pos_as_xyz
  1  'x, y, z'
loop_
 _atom_site_type_symbol
 _atom_site_label
 _atom_site_symmetry_multiplicity
 _atom_site_fract_x
 _atom_site_fract_y
 _atom_site_fract_z
 _atom_site_occupancy
  La  La0  1  0.839673  0.750000  0.790431  1
  La  La1  1  0.160327  0.250000  0.209569  1
  La  La2  1  0.677151  0.031481  0.568406  1
  La  La3  1  0.322849  0.968519  0.431594  1
  La  La4  1  0.178274  0.968585  0.931006  1
  La  La5  1  0.322849  0.531481  0.431594  1
  La  La6  1  0.821726  0.031415  0.068994  1
  La  La7  1  0.677151  0.468519  0.568406  1
  La  La8  1  0.821726  0.468585  0.068994  1
  La  La9  1  0.178274  0.531415  0.931006  1
  Pr  Pr10  1  0.337944  0.250000  0.712575  1
  Pr  Pr11  1  0.662056  0.750000  0.287425  1
  Pr  Pr12  1  0.362573  0.750000  0.701448  1
  Pr  Pr13  1  0.637427  0.250000  0.298552  1
  Pr  Pr14  1  0.863434  0.250000  0.799515  1
  Pr  Pr15  1  0.136566  0.750000  0.200485  1
  Pr  Pr16  1  0.953342  0.750000  0.501739  1
  Pr  Pr17  1  0.046658  0.250000  0.498261  1
  Pr  Pr18  1  0.456035  0.250000  0.999627  1
  Pr  Pr19  1  0.543965  0.750000  0.000373  1
  Sn  Sn20  1  0.564626  0.493024  0.828711  1
  Sn  Sn21  1  0.435374  0.506976  0.171289  1
  Sn  Sn22  1  0.067027  0.504646  0.671050  1
  Sn  Sn23  1  0.435374  0.993024  0.171289  1
  Sn  Sn24  1  0.932973  0.495354  0.328950  1
  Sn  Sn25  1  0.564626  0.006976  0.828711  1
  Sn  Sn26  1  0.932973  0.004646  0.328950  1
  Sn  Sn27  1  0.067027  0.995354  0.671050  1
  Ir  Ir28  1  0.578315  0.750000  0.514252  1
  Ir  Ir29  1  0.421685  0.250000  0.485748  1
  Ir  Ir30  1  0.078794  0.250000  0.986881  1
  Ir  Ir31  1  0.921206  0.750000  0.013119  1
