# generated using pymatgen
data_SrLi8Ac7Ge8
_symmetry_space_group_name_H-M   'P 1'
_cell_length_a   9.27627300
_cell_length_b   9.27627125
_cell_length_c   7.94926300
_cell_angle_alpha   90.00157503
_cell_angle_beta   89.99834467
_cell_angle_gamma   120.00040212
_symmetry_Int_Tables_number   1
_chemical_formula_structural   SrLi8Ac7Ge8
_chemical_formula_sum   'Sr1 Li8 Ac7 Ge8'
_cell_volume   592.38315226
_cell_formula_units_Z   1
loop_
 _symmetry_equiv_pos_site_id
 _symmetry_equiv_pos_as_xyz
  1  'x, y, z'
loop_
 _atom_site_type_symbol
 _atom_site_label
 _atom_site_symmetry_multiplicity
 _atom_site_fract_x
 _atom_site_fract_y
 _atom_site_fract_z
 _atom_site_occupancy
  Sr  Sr0  1  0.000010  0.999988  0.001293  1
  Li  Li1  1  0.166141  0.332299  0.281906  1
  Li  Li2  1  0.166156  0.833846  0.281908  1
  Li  Li3  1  0.667693  0.833848  0.281901  1
  Li  Li4  1  0.834986  0.669978  0.793566  1
  Li  Li5  1  0.834982  0.165021  0.793569  1
  Li  Li6  1  0.330022  0.165015  0.793566  1
  Li  Li7  1  0.333340  0.666670  0.668665  1
  Li  Li8  1  0.666667  0.333342  0.164960  1
  Ac  Ac9  1  0.513819  0.027656  0.497341  1
  Ac  Ac10  1  0.513823  0.486175  0.497324  1
  Ac  Ac11  1  0.972343  0.486177  0.497338  1
  Ac  Ac12  1  0.486330  0.972653  0.997668  1
  Ac  Ac13  1  0.486330  0.513662  0.997655  1
  Ac  Ac14  1  0.027357  0.513673  0.997669  1
  Ac  Ac15  1  0.999990  0.000014  0.504061  1
  Ge  Ge16  1  0.167812  0.335602  0.721841  1
  Ge  Ge17  1  0.167781  0.832212  0.721809  1
  Ge  Ge18  1  0.664400  0.832180  0.721843  1
  Ge  Ge19  1  0.832155  0.664304  0.222103  1
  Ge  Ge20  1  0.832164  0.167841  0.222077  1
  Ge  Ge21  1  0.335698  0.167852  0.222094  1
  Ge  Ge22  1  0.333347  0.666651  0.281425  1
  Ge  Ge23  1  0.666652  0.333345  0.778397  1
