# generated using pymatgen
data_Yb3YOs8
_symmetry_space_group_name_H-M   'P 1'
_cell_length_a   5.29193900
_cell_length_b   5.29193772
_cell_length_c   8.79650200
_cell_angle_alpha   90.00000000
_cell_angle_beta   90.00000000
_cell_angle_gamma   119.99998923
_symmetry_Int_Tables_number   1
_chemical_formula_structural   Yb3YOs8
_chemical_formula_sum   'Yb3 Y1 Os8'
_cell_volume   213.33899193
_cell_formula_units_Z   1
loop_
 _symmetry_equiv_pos_site_id
 _symmetry_equiv_pos_as_xyz
  1  'x, y, z'
loop_
 _atom_site_type_symbol
 _atom_site_label
 _atom_site_symmetry_multiplicity
 _atom_site_fract_x
 _atom_site_fract_y
 _atom_site_fract_z
 _atom_site_occupancy
  Yb  Yb0  1  0.666667  0.333333  0.569115  1
  Yb  Yb1  1  0.666667  0.333333  0.934552  1
  Yb  Yb2  1  0.333333  0.666667  0.061251  1
  Y  Y3  1  0.333333  0.666667  0.433253  1
  Os  Os4  1  0.000000  0.000000  0.500738  1
  Os  Os5  1  0.000000  0.000000  0.001283  1
  Os  Os6  1  0.827482  0.172518  0.249623  1
  Os  Os7  1  0.827482  0.654964  0.249623  1
  Os  Os8  1  0.345036  0.172518  0.249623  1
  Os  Os9  1  0.171943  0.828057  0.750313  1
  Os  Os10  1  0.171943  0.343887  0.750313  1
  Os  Os11  1  0.656113  0.828057  0.750313  1
