# generated using pymatgen
data_CsLa3CI6
_symmetry_space_group_name_H-M   'P 1'
_cell_length_a   9.74470948
_cell_length_b   9.77826832
_cell_length_c   10.38200399
_cell_angle_alpha   70.92700566
_cell_angle_beta   84.80809585
_cell_angle_gamma   89.40058234
_symmetry_Int_Tables_number   1
_chemical_formula_structural   CsLa3CI6
_chemical_formula_sum   'Cs2 La6 C2 I12'
_cell_volume   930.92820043
_cell_formula_units_Z   2
loop_
 _symmetry_equiv_pos_site_id
 _symmetry_equiv_pos_as_xyz
  1  'x, y, z'
loop_
 _atom_site_type_symbol
 _atom_site_label
 _atom_site_symmetry_multiplicity
 _atom_site_fract_x
 _atom_site_fract_y
 _atom_site_fract_z
 _atom_site_occupancy
  Cs  Cs0  1  0.465745  0.364942  0.327189  1
  Cs  Cs1  1  0.534256  0.635058  0.672811  1
  La  La2  1  0.917664  0.746872  0.004001  1
  La  La3  1  0.082336  0.253128  0.995998  1
  La  La4  1  0.745037  0.084206  0.001562  1
  La  La5  1  0.254962  0.915794  0.998439  1
  La  La6  1  0.974167  0.892199  0.314013  1
  La  La7  1  0.025832  0.107801  0.685988  1
  C  C8  1  0.005922  0.024513  0.927809  1
  C  C9  1  0.994077  0.975487  0.072191  1
  I  I10  1  0.078232  0.203032  0.327243  1
  I  I11  1  0.921768  0.796968  0.672757  1
  I  I12  1  0.209995  0.587883  0.999943  1
  I  I13  1  0.790006  0.412117  0.000057  1
  I  I14  1  0.408492  0.205445  0.002752  1
  I  I15  1  0.591507  0.794556  0.997247  1
  I  I16  1  0.661878  0.003508  0.330091  1
  I  I17  1  0.338122  0.996492  0.669909  1
  I  I18  1  0.284613  0.772536  0.324946  1
  I  I19  1  0.715387  0.227464  0.675054  1
  I  I20  1  0.845736  0.586639  0.329700  1
  I  I21  1  0.154263  0.413361  0.670300  1
