# generated using pymatgen
data_Er2TmIn3Cu2Ir
_symmetry_space_group_name_H-M   'P 1'
_cell_length_a   7.49744300
_cell_length_b   7.50389083
_cell_length_c   3.86682700
_cell_angle_alpha   90.00000000
_cell_angle_beta   90.00000000
_cell_angle_gamma   119.97322048
_symmetry_Int_Tables_number   1
_chemical_formula_structural   Er2TmIn3Cu2Ir
_chemical_formula_sum   'Er2 Tm1 In3 Cu2 Ir1'
_cell_volume   188.45262189
_cell_formula_units_Z   1
loop_
 _symmetry_equiv_pos_site_id
 _symmetry_equiv_pos_as_xyz
  1  'x, y, z'
loop_
 _atom_site_type_symbol
 _atom_site_label
 _atom_site_symmetry_multiplicity
 _atom_site_fract_x
 _atom_site_fract_y
 _atom_site_fract_z
 _atom_site_occupancy
  Er  Er0  1  0.400998  0.418844  0.500000  1
  Er  Er1  1  0.580887  0.982345  0.500000  1
  Tm  Tm2  1  0.018656  0.599462  0.500000  1
  In  In3  1  0.750068  0.743086  0.000000  1
  In  In4  1  0.993094  0.250238  0.000000  1
  In  In5  1  0.256550  0.006613  0.000000  1
  Cu  Cu6  1  0.999799  0.999104  0.500000  1
  Cu  Cu7  1  0.667074  0.333679  0.000000  1
  Ir  Ir8  1  0.332874  0.666629  0.000000  1
