# generated using pymatgen
data_Ho5(HgTe)2
_symmetry_space_group_name_H-M   'P 1'
_cell_length_a   8.71927400
_cell_length_b   8.71927451
_cell_length_c   7.96666300
_cell_angle_alpha   90.00000000
_cell_angle_beta   90.00000000
_cell_angle_gamma   125.86917551
_symmetry_Int_Tables_number   1
_chemical_formula_structural   Ho5(HgTe)2
_chemical_formula_sum   'Ho10 Hg4 Te4'
_cell_volume   490.81011263
_cell_formula_units_Z   2
loop_
 _symmetry_equiv_pos_site_id
 _symmetry_equiv_pos_as_xyz
  1  'x, y, z'
loop_
 _atom_site_type_symbol
 _atom_site_label
 _atom_site_symmetry_multiplicity
 _atom_site_fract_x
 _atom_site_fract_y
 _atom_site_fract_z
 _atom_site_occupancy
  Ho  Ho0  1  0.034209  0.295571  0.335609  1
  Ho  Ho1  1  0.965791  0.704429  0.664391  1
  Ho  Ho2  1  0.465791  0.204429  0.835609  1
  Ho  Ho3  1  0.795571  0.534209  0.164391  1
  Ho  Ho4  1  0.534209  0.795571  0.164391  1
  Ho  Ho5  1  0.204429  0.465791  0.835609  1
  Ho  Ho6  1  0.704429  0.965791  0.664391  1
  Ho  Ho7  1  0.295571  0.034209  0.335609  1
  Ho  Ho8  1  0.000000  0.000000  0.000000  1
  Ho  Ho9  1  0.500000  0.500000  0.500000  1
  Hg  Hg10  1  0.365587  0.365587  0.131651  1
  Hg  Hg11  1  0.634413  0.634413  0.868349  1
  Hg  Hg12  1  0.134413  0.134413  0.631651  1
  Hg  Hg13  1  0.865587  0.865587  0.368349  1
  Te  Te14  1  0.795736  0.204264  0.000000  1
  Te  Te15  1  0.204264  0.795736  0.000000  1
  Te  Te16  1  0.704264  0.295736  0.500000  1
  Te  Te17  1  0.295736  0.704264  0.500000  1
