# generated using pymatgen
data_ErTi7Bi9
_symmetry_space_group_name_H-M   'P 1'
_cell_length_a   10.41329900
_cell_length_b   10.41329900
_cell_length_c   7.49397700
_cell_angle_alpha   90.00000000
_cell_angle_beta   90.00000000
_cell_angle_gamma   90.00000000
_symmetry_Int_Tables_number   1
_chemical_formula_structural   ErTi7Bi9
_chemical_formula_sum   'Er2 Ti14 Bi18'
_cell_volume   812.62285565
_cell_formula_units_Z   2
loop_
 _symmetry_equiv_pos_site_id
 _symmetry_equiv_pos_as_xyz
  1  'x, y, z'
loop_
 _atom_site_type_symbol
 _atom_site_label
 _atom_site_symmetry_multiplicity
 _atom_site_fract_x
 _atom_site_fract_y
 _atom_site_fract_z
 _atom_site_occupancy
  Er  Er0  1  0.750000  0.750000  0.925649  1
  Er  Er1  1  0.250000  0.250000  0.074351  1
  Ti  Ti2  1  0.000000  0.500000  0.000000  1
  Ti  Ti3  1  0.500000  0.000000  0.000000  1
  Ti  Ti4  1  0.500000  0.500000  0.000000  1
  Ti  Ti5  1  0.000000  0.000000  0.000000  1
  Ti  Ti6  1  0.892056  0.250000  0.147194  1
  Ti  Ti7  1  0.607944  0.250000  0.147194  1
  Ti  Ti8  1  0.107944  0.750000  0.852808  1
  Ti  Ti9  1  0.392056  0.750000  0.852808  1
  Ti  Ti10  1  0.750000  0.107944  0.852808  1
  Ti  Ti11  1  0.750000  0.392056  0.852808  1
  Ti  Ti12  1  0.250000  0.892056  0.147194  1
  Ti  Ti13  1  0.250000  0.607944  0.147194  1
  Ti  Ti14  1  0.750000  0.750000  0.427322  1
  Ti  Ti15  1  0.250000  0.250000  0.572678  1
  Bi  Bi16  1  0.418868  0.081132  0.351952  1
  Bi  Bi17  1  0.081132  0.418868  0.351952  1
  Bi  Bi18  1  0.581132  0.581132  0.648048  1
  Bi  Bi19  1  0.918868  0.918868  0.648048  1
  Bi  Bi20  1  0.918868  0.581132  0.648048  1
  Bi  Bi21  1  0.581132  0.918868  0.648048  1
  Bi  Bi22  1  0.418868  0.418868  0.351952  1
  Bi  Bi23  1  0.081132  0.081132  0.351952  1
  Bi  Bi24  1  0.250000  0.750000  0.499999  1
  Bi  Bi25  1  0.750000  0.250000  0.499999  1
  Bi  Bi26  1  0.492245  0.250000  0.802994  1
  Bi  Bi27  1  0.007754  0.250000  0.802994  1
  Bi  Bi28  1  0.507754  0.750000  0.197005  1
  Bi  Bi29  1  0.992246  0.750000  0.197005  1
  Bi  Bi30  1  0.750000  0.507754  0.197005  1
  Bi  Bi31  1  0.750000  0.992246  0.197005  1
  Bi  Bi32  1  0.250000  0.492245  0.802994  1
  Bi  Bi33  1  0.250000  0.007754  0.802994  1
