# generated using pymatgen
data_Sr4NbIn2SbO12
_symmetry_space_group_name_H-M   'P 1'
_cell_length_a   5.79429647
_cell_length_b   5.84239181
_cell_length_c   8.20355663
_cell_angle_alpha   90.17304811
_cell_angle_beta   90.09910548
_cell_angle_gamma   90.02595767
_symmetry_Int_Tables_number   1
_chemical_formula_structural   Sr4NbIn2SbO12
_chemical_formula_sum   'Sr4 Nb1 In2 Sb1 O12'
_cell_volume   277.70960164
_cell_formula_units_Z   1
loop_
 _symmetry_equiv_pos_site_id
 _symmetry_equiv_pos_as_xyz
  1  'x, y, z'
loop_
 _atom_site_type_symbol
 _atom_site_label
 _atom_site_symmetry_multiplicity
 _atom_site_fract_x
 _atom_site_fract_y
 _atom_site_fract_z
 _atom_site_occupancy
  Sr  Sr0  1  0.991493  0.465727  0.249695  1
  Sr  Sr1  1  0.506543  0.965661  0.250229  1
  Sr  Sr2  1  0.493457  0.034339  0.749771  1
  Sr  Sr3  1  0.008506  0.534273  0.750305  1
  Nb  Nb4  1  0.000001  0.000000  0.500000  1
  In  In5  1  0.000000  0.000000  0.000000  1
  In  In6  1  0.500000  0.500000  0.500000  1
  Sb  Sb7  1  0.500001  0.500000  0.000000  1
  O  O8  1  0.775944  0.703291  0.040673  1
  O  O9  1  0.700510  0.223740  0.042856  1
  O  O10  1  0.421235  0.520424  0.238614  1
  O  O11  1  0.072377  0.018502  0.259356  1
  O  O12  1  0.797009  0.723749  0.460379  1
  O  O13  1  0.724025  0.204661  0.463410  1
  O  O14  1  0.275977  0.795339  0.536590  1
  O  O15  1  0.202992  0.276251  0.539620  1
  O  O16  1  0.927623  0.981498  0.740644  1
  O  O17  1  0.578765  0.479576  0.761386  1
  O  O18  1  0.299491  0.776260  0.957143  1
  O  O19  1  0.224058  0.296709  0.959327  1
