# generated using pymatgen
data_Tm(NbRe6)4
_symmetry_space_group_name_H-M   'P 1'
_cell_length_a   8.44080546
_cell_length_b   8.44080460
_cell_length_c   8.44080600
_cell_angle_alpha   109.47121678
_cell_angle_beta   109.47121472
_cell_angle_gamma   109.47122861
_symmetry_Int_Tables_number   1
_chemical_formula_structural   Tm(NbRe6)4
_chemical_formula_sum   'Tm1 Nb4 Re24'
_cell_volume   462.94540266
_cell_formula_units_Z   1
loop_
 _symmetry_equiv_pos_site_id
 _symmetry_equiv_pos_as_xyz
  1  'x, y, z'
loop_
 _atom_site_type_symbol
 _atom_site_label
 _atom_site_symmetry_multiplicity
 _atom_site_fract_x
 _atom_site_fract_y
 _atom_site_fract_z
 _atom_site_occupancy
  Tm  Tm0  1  0.000000  0.000000  0.000000  1
  Nb  Nb1  1  0.629636  0.000000  0.000000  1
  Nb  Nb2  1  0.000000  0.629636  0.000000  1
  Nb  Nb3  1  0.000000  0.000000  0.629636  1
  Nb  Nb4  1  0.370364  0.370364  0.370364  1
  Re  Re5  1  0.399998  0.681729  0.000000  1
  Re  Re6  1  0.718269  0.318271  0.318271  1
  Re  Re7  1  0.399998  0.000000  0.681729  1
  Re  Re8  1  0.681729  0.399998  0.000000  1
  Re  Re9  1  0.000000  0.399998  0.681729  1
  Re  Re10  1  0.318271  0.718269  0.318271  1
  Re  Re11  1  0.318271  0.318271  0.718269  1
  Re  Re12  1  0.000000  0.681729  0.399998  1
  Re  Re13  1  0.681729  0.000000  0.399998  1
  Re  Re14  1  0.600002  0.600002  0.281731  1
  Re  Re15  1  0.281731  0.600002  0.600002  1
  Re  Re16  1  0.600002  0.281731  0.600002  1
  Re  Re17  1  0.377694  0.195343  0.000000  1
  Re  Re18  1  0.182352  0.804657  0.804657  1
  Re  Re19  1  0.377694  0.000000  0.195343  1
  Re  Re20  1  0.195343  0.377694  0.000000  1
  Re  Re21  1  0.000000  0.377694  0.195343  1
  Re  Re22  1  0.804657  0.182352  0.804657  1
  Re  Re23  1  0.804657  0.804657  0.182352  1
  Re  Re24  1  0.000000  0.195343  0.377694  1
  Re  Re25  1  0.195343  0.000000  0.377694  1
  Re  Re26  1  0.622306  0.622306  0.817648  1
  Re  Re27  1  0.817648  0.622306  0.622306  1
  Re  Re28  1  0.622306  0.817648  0.622306  1
