# generated using pymatgen
data_Nb4Tc3P4Rh
_symmetry_space_group_name_H-M   'P 1'
_cell_length_a   3.79021300
_cell_length_b   6.36740974
_cell_length_c   7.29529004
_cell_angle_alpha   90.08517487
_cell_angle_beta   90.00000000
_cell_angle_gamma   90.00000000
_symmetry_Int_Tables_number   1
_chemical_formula_structural   Nb4Tc3P4Rh
_chemical_formula_sum   'Nb4 Tc3 P4 Rh1'
_cell_volume   176.06316193
_cell_formula_units_Z   1
loop_
 _symmetry_equiv_pos_site_id
 _symmetry_equiv_pos_as_xyz
  1  'x, y, z'
loop_
 _atom_site_type_symbol
 _atom_site_label
 _atom_site_symmetry_multiplicity
 _atom_site_fract_x
 _atom_site_fract_y
 _atom_site_fract_z
 _atom_site_occupancy
  Nb  Nb0  1  0.250000  0.020978  0.826560  1
  Nb  Nb1  1  0.250000  0.534038  0.672963  1
  Nb  Nb2  1  0.750000  0.973027  0.174497  1
  Nb  Nb3  1  0.750000  0.476683  0.329587  1
  Tc  Tc4  1  0.250000  0.149751  0.443656  1
  Tc  Tc5  1  0.250000  0.643657  0.057641  1
  Tc  Tc6  1  0.750000  0.846932  0.558798  1
  P  P7  1  0.250000  0.775415  0.369512  1
  P  P8  1  0.250000  0.270615  0.129263  1
  P  P9  1  0.750000  0.229971  0.625032  1
  P  P10  1  0.750000  0.732005  0.876900  1
  Rh  Rh11  1  0.750000  0.346928  0.935590  1
