# generated using pymatgen
data_KRb2Ta2Br10N
_symmetry_space_group_name_H-M   'P 1'
_cell_length_a   7.48835100
_cell_length_b   7.48835100
_cell_length_c   19.97301000
_cell_angle_alpha   90.00000000
_cell_angle_beta   90.00000000
_cell_angle_gamma   90.00000000
_symmetry_Int_Tables_number   1
_chemical_formula_structural   KRb2Ta2Br10N
_chemical_formula_sum   'K2 Rb4 Ta4 Br20 N2'
_cell_volume   1119.99453892
_cell_formula_units_Z   2
loop_
 _symmetry_equiv_pos_site_id
 _symmetry_equiv_pos_as_xyz
  1  'x, y, z'
loop_
 _atom_site_type_symbol
 _atom_site_label
 _atom_site_symmetry_multiplicity
 _atom_site_fract_x
 _atom_site_fract_y
 _atom_site_fract_z
 _atom_site_occupancy
  K  K0  1  0.500000  0.500000  0.000000  1
  K  K1  1  0.000000  0.000000  0.500000  1
  Rb  Rb2  1  0.000000  0.500000  0.250000  1
  Rb  Rb3  1  0.500000  0.000000  0.750000  1
  Rb  Rb4  1  0.500000  0.000000  0.250000  1
  Rb  Rb5  1  0.000000  0.500000  0.750000  1
  Ta  Ta6  1  0.500000  0.500000  0.406290  1
  Ta  Ta7  1  0.000000  0.000000  0.906290  1
  Ta  Ta8  1  0.500000  0.500000  0.593710  1
  Ta  Ta9  1  0.000000  0.000000  0.093710  1
  Br  Br10  1  0.783108  0.690714  0.396967  1
  Br  Br11  1  0.216892  0.309286  0.396967  1
  Br  Br12  1  0.716892  0.190714  0.896967  1
  Br  Br13  1  0.283108  0.809286  0.896967  1
  Br  Br14  1  0.690714  0.216892  0.396967  1
  Br  Br15  1  0.309286  0.783108  0.396967  1
  Br  Br16  1  0.190714  0.283108  0.896967  1
  Br  Br17  1  0.809286  0.716892  0.896967  1
  Br  Br18  1  0.216892  0.309286  0.603033  1
  Br  Br19  1  0.783108  0.690714  0.603033  1
  Br  Br20  1  0.283108  0.809286  0.103033  1
  Br  Br21  1  0.716892  0.190714  0.103033  1
  Br  Br22  1  0.309286  0.783108  0.603033  1
  Br  Br23  1  0.690714  0.216892  0.603033  1
  Br  Br24  1  0.809286  0.716892  0.103033  1
  Br  Br25  1  0.190714  0.283108  0.103033  1
  Br  Br26  1  0.500000  0.500000  0.265959  1
  Br  Br27  1  0.000000  0.000000  0.765959  1
  Br  Br28  1  0.500000  0.500000  0.734041  1
  Br  Br29  1  0.000000  0.000000  0.234041  1
  N  N30  1  0.500000  0.500000  0.500000  1
  N  N31  1  0.000000  0.000000  0.000000  1
