# generated using pymatgen
data_Ac3ZnSn6
_symmetry_space_group_name_H-M   'P 1'
_cell_length_a   9.56766063
_cell_length_b   9.56766171
_cell_length_c   13.78283900
_cell_angle_alpha   90.00000000
_cell_angle_beta   90.00000000
_cell_angle_gamma   150.78340653
_symmetry_Int_Tables_number   1
_chemical_formula_structural   Ac3ZnSn6
_chemical_formula_sum   'Ac6 Zn2 Sn12'
_cell_volume   615.84318274
_cell_formula_units_Z   2
loop_
 _symmetry_equiv_pos_site_id
 _symmetry_equiv_pos_as_xyz
  1  'x, y, z'
loop_
 _atom_site_type_symbol
 _atom_site_label
 _atom_site_symmetry_multiplicity
 _atom_site_fract_x
 _atom_site_fract_y
 _atom_site_fract_z
 _atom_site_occupancy
  Ac  Ac0  1  0.606862  0.393138  0.250000  1
  Ac  Ac1  1  0.393138  0.606862  0.750000  1
  Ac  Ac2  1  0.395789  0.604211  0.412222  1
  Ac  Ac3  1  0.604211  0.395789  0.587778  1
  Ac  Ac4  1  0.395789  0.604211  0.087778  1
  Ac  Ac5  1  0.604211  0.395789  0.912222  1
  Zn  Zn6  1  0.817342  0.182658  0.250000  1
  Zn  Zn7  1  0.182658  0.817342  0.750000  1
  Sn  Sn8  1  0.941430  0.058570  0.922096  1
  Sn  Sn9  1  0.058570  0.941430  0.077904  1
  Sn  Sn10  1  0.941430  0.058570  0.577904  1
  Sn  Sn11  1  0.058570  0.941430  0.422096  1
  Sn  Sn12  1  0.963266  0.036734  0.250000  1
  Sn  Sn13  1  0.036734  0.963266  0.750000  1
  Sn  Sn14  1  0.748865  0.251136  0.429240  1
  Sn  Sn15  1  0.251136  0.748864  0.570760  1
  Sn  Sn16  1  0.748865  0.251136  0.070760  1
  Sn  Sn17  1  0.251136  0.748864  0.929240  1
  Sn  Sn18  1  0.239579  0.760421  0.250000  1
  Sn  Sn19  1  0.760421  0.239579  0.750000  1
