# generated using pymatgen
data_Tb11Ho(CoPd)2
_symmetry_space_group_name_H-M   'P 1'
_cell_length_a   6.33647280
_cell_length_b   7.07158611
_cell_length_c   9.64264828
_cell_angle_alpha   89.92988911
_cell_angle_beta   91.26145400
_cell_angle_gamma   90.06130550
_symmetry_Int_Tables_number   1
_chemical_formula_structural   Tb11Ho(CoPd)2
_chemical_formula_sum   'Tb11 Ho1 Co2 Pd2'
_cell_volume   431.97131429
_cell_formula_units_Z   1
loop_
 _symmetry_equiv_pos_site_id
 _symmetry_equiv_pos_as_xyz
  1  'x, y, z'
loop_
 _atom_site_type_symbol
 _atom_site_label
 _atom_site_symmetry_multiplicity
 _atom_site_fract_x
 _atom_site_fract_y
 _atom_site_fract_z
 _atom_site_occupancy
  Tb  Tb0  1  0.669845  0.169065  0.065451  1
  Tb  Tb1  1  0.373960  0.544043  0.248777  1
  Tb  Tb2  1  0.149395  0.026150  0.250297  1
  Tb  Tb3  1  0.818915  0.690385  0.438646  1
  Tb  Tb4  1  0.321586  0.811479  0.939544  1
  Tb  Tb5  1  0.167730  0.330856  0.563548  1
  Tb  Tb6  1  0.662663  0.166500  0.433669  1
  Tb  Tb7  1  0.165042  0.333798  0.932643  1
  Tb  Tb8  1  0.319719  0.812640  0.566313  1
  Tb  Tb9  1  0.873794  0.956223  0.750641  1
  Tb  Tb10  1  0.649546  0.473560  0.751098  1
  Ho  Ho11  1  0.823258  0.684978  0.067798  1
  Co  Co12  1  0.558605  0.884119  0.237333  1
  Co  Co13  1  0.057025  0.615119  0.738827  1
  Pd  Pd14  1  0.945023  0.389752  0.258259  1
  Pd  Pd15  1  0.443894  0.111333  0.757155  1
