# generated using pymatgen
data_TcOs3Ru3W
_symmetry_space_group_name_H-M   'P 1'
_cell_length_a   5.53266505
_cell_length_b   5.53702439
_cell_length_c   4.35605500
_cell_angle_alpha   90.00000000
_cell_angle_beta   90.00000000
_cell_angle_gamma   120.07254324
_symmetry_Int_Tables_number   1
_chemical_formula_structural   TcOs3Ru3W
_chemical_formula_sum   'Tc1 Os3 Ru3 W1'
_cell_volume   115.48268435
_cell_formula_units_Z   1
loop_
 _symmetry_equiv_pos_site_id
 _symmetry_equiv_pos_as_xyz
  1  'x, y, z'
loop_
 _atom_site_type_symbol
 _atom_site_label
 _atom_site_symmetry_multiplicity
 _atom_site_fract_x
 _atom_site_fract_y
 _atom_site_fract_z
 _atom_site_occupancy
  Tc  Tc0  1  0.669516  0.341174  0.250000  1
  Os  Os1  1  0.166269  0.330007  0.250000  1
  Os  Os2  1  0.829433  0.663440  0.750000  1
  Os  Os3  1  0.337570  0.170897  0.750000  1
  Ru  Ru4  1  0.670144  0.829169  0.250000  1
  Ru  Ru5  1  0.161763  0.830639  0.250000  1
  Ru  Ru6  1  0.830387  0.167908  0.750000  1
  W  W7  1  0.334919  0.666764  0.750000  1
