# generated using pymatgen
data_TbHfTcB6
_symmetry_space_group_name_H-M   'P 1'
_cell_length_a   3.59367200
_cell_length_b   9.01874600
_cell_length_c   11.41079900
_cell_angle_alpha   90.00000000
_cell_angle_beta   90.00000000
_cell_angle_gamma   90.00000000
_symmetry_Int_Tables_number   1
_chemical_formula_structural   TbHfTcB6
_chemical_formula_sum   'Tb4 Hf4 Tc4 B24'
_cell_volume   369.82873079
_cell_formula_units_Z   4
loop_
 _symmetry_equiv_pos_site_id
 _symmetry_equiv_pos_as_xyz
  1  'x, y, z'
loop_
 _atom_site_type_symbol
 _atom_site_label
 _atom_site_symmetry_multiplicity
 _atom_site_fract_x
 _atom_site_fract_y
 _atom_site_fract_z
 _atom_site_occupancy
  Tb  Tb0  1  0.000000  0.322239  0.414346  1
  Tb  Tb1  1  0.000000  0.677761  0.585654  1
  Tb  Tb2  1  0.000000  0.822239  0.085654  1
  Tb  Tb3  1  0.000000  0.177761  0.914346  1
  Hf  Hf4  1  0.000000  0.944859  0.372037  1
  Hf  Hf5  1  0.000000  0.055141  0.627963  1
  Hf  Hf6  1  0.000000  0.444859  0.127963  1
  Hf  Hf7  1  0.000000  0.555141  0.872037  1
  Tc  Tc8  1  0.000000  0.640846  0.317558  1
  Tc  Tc9  1  0.000000  0.359154  0.682442  1
  Tc  Tc10  1  0.000000  0.140846  0.182442  1
  Tc  Tc11  1  0.000000  0.859154  0.817558  1
  B  B12  1  0.500000  0.554806  0.432846  1
  B  B13  1  0.500000  0.445194  0.567154  1
  B  B14  1  0.500000  0.054806  0.067154  1
  B  B15  1  0.500000  0.945194  0.932846  1
  B  B16  1  0.500000  0.752769  0.417621  1
  B  B17  1  0.500000  0.247231  0.582379  1
  B  B18  1  0.500000  0.252769  0.082379  1
  B  B19  1  0.500000  0.747231  0.917621  1
  B  B20  1  0.500000  0.794671  0.264506  1
  B  B21  1  0.500000  0.205329  0.735494  1
  B  B22  1  0.500000  0.294671  0.235494  1
  B  B23  1  0.500000  0.705329  0.764506  1
  B  B24  1  0.500000  0.629682  0.183082  1
  B  B25  1  0.500000  0.370318  0.816918  1
  B  B26  1  0.500000  0.129682  0.316918  1
  B  B27  1  0.500000  0.870318  0.683082  1
  B  B28  1  0.500000  0.982262  0.213849  1
  B  B29  1  0.500000  0.017738  0.786151  1
  B  B30  1  0.500000  0.482262  0.286151  1
  B  B31  1  0.500000  0.517738  0.713849  1
  B  B32  1  0.500000  0.599339  0.026545  1
  B  B33  1  0.500000  0.400661  0.973455  1
  B  B34  1  0.500000  0.099339  0.473455  1
  B  B35  1  0.500000  0.900661  0.526545  1
