# generated using pymatgen
data_Nd2BePd6
_symmetry_space_group_name_H-M   'P 1'
_cell_length_a   6.07908608
_cell_length_b   6.07908606
_cell_length_c   6.07908500
_cell_angle_alpha   60.00000034
_cell_angle_beta   60.00000043
_cell_angle_gamma   60.00000020
_symmetry_Int_Tables_number   1
_chemical_formula_structural   Nd2BePd6
_chemical_formula_sum   'Nd2 Be1 Pd6'
_cell_volume   158.85460393
_cell_formula_units_Z   1
loop_
 _symmetry_equiv_pos_site_id
 _symmetry_equiv_pos_as_xyz
  1  'x, y, z'
loop_
 _atom_site_type_symbol
 _atom_site_label
 _atom_site_symmetry_multiplicity
 _atom_site_fract_x
 _atom_site_fract_y
 _atom_site_fract_z
 _atom_site_occupancy
  Nd  Nd0  1  0.250000  0.250000  0.250000  1
  Nd  Nd1  1  0.750000  0.750000  0.750000  1
  Be  Be2  1  0.500000  0.500000  0.500000  1
  Pd  Pd3  1  0.762264  0.237736  0.237736  1
  Pd  Pd4  1  0.237736  0.762264  0.237736  1
  Pd  Pd5  1  0.762264  0.762264  0.237736  1
  Pd  Pd6  1  0.237736  0.237736  0.762264  1
  Pd  Pd7  1  0.762264  0.237736  0.762264  1
  Pd  Pd8  1  0.237736  0.762264  0.762264  1
