# generated using pymatgen
data_Y4ScIrPt2
_symmetry_space_group_name_H-M   'P 1'
_cell_length_a   10.98907700
_cell_length_b   10.98907700
_cell_length_c   6.27730800
_cell_angle_alpha   90.00000000
_cell_angle_beta   90.00000000
_cell_angle_gamma   90.00000000
_symmetry_Int_Tables_number   1
_chemical_formula_structural   Y4ScIrPt2
_chemical_formula_sum   'Y16 Sc4 Ir4 Pt8'
_cell_volume   758.04654218
_cell_formula_units_Z   4
loop_
 _symmetry_equiv_pos_site_id
 _symmetry_equiv_pos_as_xyz
  1  'x, y, z'
loop_
 _atom_site_type_symbol
 _atom_site_label
 _atom_site_symmetry_multiplicity
 _atom_site_fract_x
 _atom_site_fract_y
 _atom_site_fract_z
 _atom_site_occupancy
  Y  Y0  1  0.290952  0.085653  0.377025  1
  Y  Y1  1  0.290952  0.914347  0.877025  1
  Y  Y2  1  0.709048  0.085653  0.877025  1
  Y  Y3  1  0.709048  0.914347  0.377025  1
  Y  Y4  1  0.585653  0.790952  0.877025  1
  Y  Y5  1  0.585653  0.209048  0.377025  1
  Y  Y6  1  0.414347  0.790952  0.377025  1
  Y  Y7  1  0.414347  0.209048  0.877025  1
  Y  Y8  1  0.209048  0.414347  0.622975  1
  Y  Y9  1  0.209048  0.585653  0.122975  1
  Y  Y10  1  0.790952  0.414347  0.122975  1
  Y  Y11  1  0.790952  0.585653  0.622975  1
  Y  Y12  1  0.914347  0.709048  0.122975  1
  Y  Y13  1  0.914347  0.290952  0.622975  1
  Y  Y14  1  0.085653  0.709048  0.622975  1
  Y  Y15  1  0.085653  0.290952  0.122975  1
  Sc  Sc16  1  0.000000  0.000000  0.500000  1
  Sc  Sc17  1  0.000000  0.000000  0.000000  1
  Sc  Sc18  1  0.500000  0.500000  0.000000  1
  Sc  Sc19  1  0.500000  0.500000  0.500000  1
  Ir  Ir20  1  0.500000  0.000000  0.122842  1
  Ir  Ir21  1  0.500000  0.000000  0.622842  1
  Ir  Ir22  1  0.000000  0.500000  0.877158  1
  Ir  Ir23  1  0.000000  0.500000  0.377158  1
  Pt  Pt24  1  0.853627  0.146373  0.250000  1
  Pt  Pt25  1  0.853627  0.853627  0.750000  1
  Pt  Pt26  1  0.146373  0.146373  0.750000  1
  Pt  Pt27  1  0.146373  0.853627  0.250000  1
  Pt  Pt28  1  0.646373  0.353627  0.750000  1
  Pt  Pt29  1  0.646373  0.646373  0.250000  1
  Pt  Pt30  1  0.353627  0.353627  0.250000  1
  Pt  Pt31  1  0.353627  0.646373  0.750000  1
