# generated using pymatgen
data_Dy2Er4Al24Ru3Rh5
_symmetry_space_group_name_H-M   'P 1'
_cell_length_a   8.76853200
_cell_length_b   8.81253439
_cell_length_c   9.53418744
_cell_angle_alpha   90.15676078
_cell_angle_beta   90.00000000
_cell_angle_gamma   119.83495713
_symmetry_Int_Tables_number   1
_chemical_formula_structural   Dy2Er4Al24Ru3Rh5
_chemical_formula_sum   'Dy2 Er4 Al24 Ru3 Rh5'
_cell_volume   639.08664232
_cell_formula_units_Z   1
loop_
 _symmetry_equiv_pos_site_id
 _symmetry_equiv_pos_as_xyz
  1  'x, y, z'
loop_
 _atom_site_type_symbol
 _atom_site_label
 _atom_site_symmetry_multiplicity
 _atom_site_fract_x
 _atom_site_fract_y
 _atom_site_fract_z
 _atom_site_occupancy
  Dy  Dy0  1  0.192260  0.384520  0.250296  1
  Dy  Dy1  1  0.807740  0.615480  0.749704  1
  Er  Er2  1  0.613274  0.809041  0.250764  1
  Er  Er3  1  0.386726  0.190959  0.749236  1
  Er  Er4  1  0.195767  0.809041  0.250764  1
  Er  Er5  1  0.804233  0.190959  0.749236  1
  Al  Al6  1  0.333623  0.667248  0.027873  1
  Al  Al7  1  0.666377  0.332752  0.972127  1
  Al  Al8  1  0.665499  0.330997  0.526865  1
  Al  Al9  1  0.334501  0.669003  0.473135  1
  Al  Al10  1  0.162826  0.325653  0.577486  1
  Al  Al11  1  0.837174  0.674347  0.422514  1
  Al  Al12  1  0.673028  0.837715  0.577196  1
  Al  Al13  1  0.837359  0.674718  0.077891  1
  Al  Al14  1  0.326972  0.162285  0.422804  1
  Al  Al15  1  0.162641  0.325282  0.922109  1
  Al  Al16  1  0.164687  0.837715  0.577196  1
  Al  Al17  1  0.326717  0.164205  0.077472  1
  Al  Al18  1  0.835313  0.162285  0.422804  1
  Al  Al19  1  0.673283  0.835795  0.922528  1
  Al  Al20  1  0.837489  0.164205  0.077472  1
  Al  Al21  1  0.162511  0.835795  0.922528  1
  Al  Al22  1  0.562251  0.124503  0.250649  1
  Al  Al23  1  0.437749  0.875497  0.749351  1
  Al  Al24  1  0.876528  0.439261  0.249661  1
  Al  Al25  1  0.123472  0.560739  0.750339  1
  Al  Al26  1  0.562732  0.439261  0.249661  1
  Al  Al27  1  0.437268  0.560739  0.750339  1
  Al  Al28  1  0.000434  0.000867  0.250044  1
  Al  Al29  1  0.999566  0.999133  0.749956  1
  Ru  Ru30  1  0.500000  0.000000  0.500000  1
  Ru  Ru31  1  0.000000  0.000000  0.000000  1
  Ru  Ru32  1  0.000000  0.000000  0.500000  1
  Rh  Rh33  1  0.500000  0.000000  0.000000  1
  Rh  Rh34  1  0.000000  0.500000  0.000000  1
  Rh  Rh35  1  0.500000  0.500000  0.000000  1
  Rh  Rh36  1  0.000000  0.500000  0.500000  1
  Rh  Rh37  1  0.500000  0.500000  0.500000  1
