# generated using pymatgen
data_Dy4TcOsC4
_symmetry_space_group_name_H-M   'P 1'
_cell_length_a   5.11355700
_cell_length_b   6.52631072
_cell_length_c   9.82905360
_cell_angle_alpha   89.68917227
_cell_angle_beta   90.00000000
_cell_angle_gamma   90.00000000
_symmetry_Int_Tables_number   1
_chemical_formula_structural   Dy4TcOsC4
_chemical_formula_sum   'Dy8 Tc2 Os2 C8'
_cell_volume   328.01685528
_cell_formula_units_Z   2
loop_
 _symmetry_equiv_pos_site_id
 _symmetry_equiv_pos_as_xyz
  1  'x, y, z'
loop_
 _atom_site_type_symbol
 _atom_site_label
 _atom_site_symmetry_multiplicity
 _atom_site_fract_x
 _atom_site_fract_y
 _atom_site_fract_z
 _atom_site_occupancy
  Dy  Dy0  1  0.250000  0.680547  0.555001  1
  Dy  Dy1  1  0.750000  0.319453  0.444999  1
  Dy  Dy2  1  0.750000  0.820509  0.055201  1
  Dy  Dy3  1  0.250000  0.179491  0.944799  1
  Dy  Dy4  1  0.250000  0.530283  0.216049  1
  Dy  Dy5  1  0.750000  0.469717  0.783951  1
  Dy  Dy6  1  0.750000  0.971490  0.714433  1
  Dy  Dy7  1  0.250000  0.028510  0.285567  1
  Tc  Tc8  1  0.250000  0.722930  0.864791  1
  Tc  Tc9  1  0.750000  0.277070  0.135209  1
  Os  Os10  1  0.750000  0.775917  0.364653  1
  Os  Os11  1  0.250000  0.224083  0.635347  1
  C  C12  1  0.250000  0.457090  0.758278  1
  C  C13  1  0.750000  0.542910  0.241722  1
  C  C14  1  0.750000  0.041562  0.259188  1
  C  C15  1  0.250000  0.958438  0.740812  1
  C  C16  1  0.250000  0.822038  0.050055  1
  C  C17  1  0.750000  0.177962  0.949945  1
  C  C18  1  0.750000  0.676936  0.550413  1
  C  C19  1  0.250000  0.323064  0.449587  1
