# generated using pymatgen
data_Li4Tb3SmSb4
_symmetry_space_group_name_H-M   'P 1'
_cell_length_a   4.60645600
_cell_length_b   7.25826581
_cell_length_c   8.27202597
_cell_angle_alpha   89.92004625
_cell_angle_beta   90.00000000
_cell_angle_gamma   90.00000000
_symmetry_Int_Tables_number   1
_chemical_formula_structural   Li4Tb3SmSb4
_chemical_formula_sum   'Li4 Tb3 Sm1 Sb4'
_cell_volume   276.57394349
_cell_formula_units_Z   1
loop_
 _symmetry_equiv_pos_site_id
 _symmetry_equiv_pos_as_xyz
  1  'x, y, z'
loop_
 _atom_site_type_symbol
 _atom_site_label
 _atom_site_symmetry_multiplicity
 _atom_site_fract_x
 _atom_site_fract_y
 _atom_site_fract_z
 _atom_site_occupancy
  Li  Li0  1  0.250000  0.819698  0.921422  1
  Li  Li1  1  0.750000  0.180476  0.077955  1
  Li  Li2  1  0.750000  0.680981  0.421573  1
  Li  Li3  1  0.250000  0.318089  0.578595  1
  Tb  Tb4  1  0.250000  0.493110  0.212354  1
  Tb  Tb5  1  0.750000  0.507664  0.787567  1
  Tb  Tb6  1  0.750000  0.006339  0.711760  1
  Sm  Sm7  1  0.250000  0.993796  0.287622  1
  Sb  Sb8  1  0.250000  0.727644  0.593615  1
  Sb  Sb9  1  0.750000  0.273670  0.410332  1
  Sb  Sb10  1  0.750000  0.767814  0.088653  1
  Sb  Sb11  1  0.250000  0.230718  0.908552  1
