# generated using pymatgen
data_CeEu(ZnRh)2
_symmetry_space_group_name_H-M   'P 1'
_cell_length_a   4.05535700
_cell_length_b   7.17473890
_cell_length_c   8.34991607
_cell_angle_alpha   90.83667995
_cell_angle_beta   90.00000000
_cell_angle_gamma   90.00000000
_symmetry_Int_Tables_number   1
_chemical_formula_structural   CeEu(ZnRh)2
_chemical_formula_sum   'Ce2 Eu2 Zn4 Rh4'
_cell_volume   242.92432047
_cell_formula_units_Z   2
loop_
 _symmetry_equiv_pos_site_id
 _symmetry_equiv_pos_as_xyz
  1  'x, y, z'
loop_
 _atom_site_type_symbol
 _atom_site_label
 _atom_site_symmetry_multiplicity
 _atom_site_fract_x
 _atom_site_fract_y
 _atom_site_fract_z
 _atom_site_occupancy
  Ce  Ce0  1  0.250000  0.539140  0.187033  1
  Ce  Ce1  1  0.750000  0.460860  0.812967  1
  Eu  Eu2  1  0.250000  0.041955  0.316362  1
  Eu  Eu3  1  0.750000  0.958045  0.683638  1
  Zn  Zn4  1  0.250000  0.127896  0.938635  1
  Zn  Zn5  1  0.750000  0.872104  0.061365  1
  Zn  Zn6  1  0.250000  0.634617  0.558555  1
  Zn  Zn7  1  0.750000  0.365383  0.441445  1
  Rh  Rh8  1  0.750000  0.725586  0.359115  1
  Rh  Rh9  1  0.250000  0.274414  0.640885  1
  Rh  Rh10  1  0.750000  0.265672  0.116242  1
  Rh  Rh11  1  0.250000  0.734328  0.883758  1
