# generated using pymatgen
data_Dy4YSiPb3
_symmetry_space_group_name_H-M   'P 1'
_cell_length_a   9.34949200
_cell_length_b   9.34949149
_cell_length_c   6.53575400
_cell_angle_alpha   90.00000000
_cell_angle_beta   90.00000000
_cell_angle_gamma   120.00000179
_symmetry_Int_Tables_number   1
_chemical_formula_structural   Dy4YSiPb3
_chemical_formula_sum   'Dy8 Y2 Si2 Pb6'
_cell_volume   494.76882401
_cell_formula_units_Z   2
loop_
 _symmetry_equiv_pos_site_id
 _symmetry_equiv_pos_as_xyz
  1  'x, y, z'
loop_
 _atom_site_type_symbol
 _atom_site_label
 _atom_site_symmetry_multiplicity
 _atom_site_fract_x
 _atom_site_fract_y
 _atom_site_fract_z
 _atom_site_occupancy
  Dy  Dy0  1  0.248591  0.000000  0.249846  1
  Dy  Dy1  1  0.000000  0.751409  0.750154  1
  Dy  Dy2  1  0.000000  0.248591  0.249846  1
  Dy  Dy3  1  0.751409  0.000000  0.750154  1
  Dy  Dy4  1  0.248591  0.248591  0.750154  1
  Dy  Dy5  1  0.333333  0.666667  0.000000  1
  Dy  Dy6  1  0.666667  0.333333  0.000000  1
  Dy  Dy7  1  0.751409  0.751409  0.249846  1
  Y  Y8  1  0.333333  0.666667  0.500000  1
  Y  Y9  1  0.666667  0.333333  0.500000  1
  Si  Si10  1  0.000000  0.000000  0.000000  1
  Si  Si11  1  0.000000  0.000000  0.500000  1
  Pb  Pb12  1  0.607825  0.000000  0.249755  1
  Pb  Pb13  1  0.392175  0.000000  0.750245  1
  Pb  Pb14  1  0.000000  0.607825  0.249755  1
  Pb  Pb15  1  0.607825  0.607825  0.750245  1
  Pb  Pb16  1  0.392175  0.392175  0.249755  1
  Pb  Pb17  1  0.000000  0.392175  0.750245  1
