# generated using pymatgen
data_SmH2Cl
_symmetry_space_group_name_H-M   'P 1'
_cell_length_a   10.46793463
_cell_length_b   10.46793512
_cell_length_c   10.46793440
_cell_angle_alpha   21.09043555
_cell_angle_beta   21.09042758
_cell_angle_gamma   21.09043413
_symmetry_Int_Tables_number   1
_chemical_formula_structural   SmH2Cl
_chemical_formula_sum   'Sm2 H4 Cl2'
_cell_volume   130.07971600
_cell_formula_units_Z   2
loop_
 _symmetry_equiv_pos_site_id
 _symmetry_equiv_pos_as_xyz
  1  'x, y, z'
loop_
 _atom_site_type_symbol
 _atom_site_label
 _atom_site_symmetry_multiplicity
 _atom_site_fract_x
 _atom_site_fract_y
 _atom_site_fract_z
 _atom_site_occupancy
  Sm  Sm0  1  0.887494  0.887494  0.887494  1
  Sm  Sm1  1  0.112506  0.112506  0.112506  1
  H  H2  1  0.813273  0.813273  0.813273  1
  H  H3  1  0.186727  0.186727  0.186727  1
  H  H4  1  0.546249  0.546249  0.546249  1
  H  H5  1  0.453751  0.453751  0.453751  1
  Cl  Cl6  1  0.721051  0.721051  0.721051  1
  Cl  Cl7  1  0.278949  0.278949  0.278949  1
