# generated using pymatgen
data_Hf2Zr8Zn2SnSb5
_symmetry_space_group_name_H-M   'P 1'
_cell_length_a   8.65862929
_cell_length_b   8.65903816
_cell_length_c   5.85230200
_cell_angle_alpha   89.99559010
_cell_angle_beta   90.00221304
_cell_angle_gamma   120.00156839
_symmetry_Int_Tables_number   1
_chemical_formula_structural   Hf2Zr8Zn2SnSb5
_chemical_formula_sum   'Hf2 Zr8 Zn2 Sn1 Sb5'
_cell_volume   379.98748720
_cell_formula_units_Z   1
loop_
 _symmetry_equiv_pos_site_id
 _symmetry_equiv_pos_as_xyz
  1  'x, y, z'
loop_
 _atom_site_type_symbol
 _atom_site_label
 _atom_site_symmetry_multiplicity
 _atom_site_fract_x
 _atom_site_fract_y
 _atom_site_fract_z
 _atom_site_occupancy
  Hf  Hf0  1  0.666138  0.333130  0.000519  1
  Hf  Hf1  1  0.333862  0.666992  0.000519  1
  Zr  Zr2  1  0.334060  0.667227  0.499619  1
  Zr  Zr3  1  0.665940  0.333166  0.499619  1
  Zr  Zr4  1  0.730332  0.730288  0.750223  1
  Zr  Zr5  1  0.269668  0.999956  0.750223  1
  Zr  Zr6  1  0.000000  0.269164  0.750056  1
  Zr  Zr7  1  0.270400  0.270014  0.249794  1
  Zr  Zr8  1  0.729600  0.999615  0.249794  1
  Zr  Zr9  1  0.000000  0.730874  0.249719  1
  Zn  Zn10  1  0.000000  0.000643  0.000420  1
  Zn  Zn11  1  0.000000  0.000668  0.499595  1
  Sn  Sn12  1  0.000000  0.383766  0.249210  1
  Sb  Sb13  1  0.384599  0.385090  0.750781  1
  Sb  Sb14  1  0.615401  0.000491  0.750781  1
  Sb  Sb15  1  0.000000  0.613945  0.750785  1
  Sb  Sb16  1  0.614952  0.614962  0.249172  1
  Sb  Sb17  1  0.385048  0.000010  0.249172  1
