# generated using pymatgen
data_Y2Er10Tc3Ni
_symmetry_space_group_name_H-M   'P 1'
_cell_length_a   6.24448821
_cell_length_b   7.30682808
_cell_length_c   9.10818700
_cell_angle_alpha   90.00000000
_cell_angle_beta   90.00000000
_cell_angle_gamma   90.20230289
_symmetry_Int_Tables_number   1
_chemical_formula_structural   Y2Er10Tc3Ni
_chemical_formula_sum   'Y2 Er10 Tc3 Ni1'
_cell_volume   415.58031771
_cell_formula_units_Z   1
loop_
 _symmetry_equiv_pos_site_id
 _symmetry_equiv_pos_as_xyz
  1  'x, y, z'
loop_
 _atom_site_type_symbol
 _atom_site_label
 _atom_site_symmetry_multiplicity
 _atom_site_fract_x
 _atom_site_fract_y
 _atom_site_fract_z
 _atom_site_occupancy
  Y  Y0  1  0.139201  0.458572  0.750000  1
  Y  Y1  1  0.374888  0.957535  0.750000  1
  Er  Er2  1  0.329456  0.677668  0.067117  1
  Er  Er3  1  0.162832  0.177009  0.436814  1
  Er  Er4  1  0.665469  0.323336  0.561711  1
  Er  Er5  1  0.835029  0.823557  0.939292  1
  Er  Er6  1  0.665469  0.323336  0.938289  1
  Er  Er7  1  0.835029  0.823557  0.560708  1
  Er  Er8  1  0.329456  0.677668  0.432883  1
  Er  Er9  1  0.162832  0.177009  0.063186  1
  Er  Er10  1  0.872014  0.540445  0.250000  1
  Er  Er11  1  0.623135  0.039926  0.250000  1
  Tc  Tc12  1  0.037213  0.885643  0.250000  1
  Tc  Tc13  1  0.460961  0.387763  0.250000  1
  Tc  Tc14  1  0.956926  0.113136  0.750000  1
  Ni  Ni15  1  0.550088  0.613840  0.750000  1
