# generated using pymatgen
data_Ho16In6CuOs
_symmetry_space_group_name_H-M   'P 1'
_cell_length_a   10.41107300
_cell_length_b   10.41107351
_cell_length_c   6.94538200
_cell_angle_alpha   90.00000000
_cell_angle_beta   90.00000000
_cell_angle_gamma   120.00000155
_symmetry_Int_Tables_number   1
_chemical_formula_structural   Ho16In6CuOs
_chemical_formula_sum   'Ho16 In6 Cu1 Os1'
_cell_volume   651.95521965
_cell_formula_units_Z   1
loop_
 _symmetry_equiv_pos_site_id
 _symmetry_equiv_pos_as_xyz
  1  'x, y, z'
loop_
 _atom_site_type_symbol
 _atom_site_label
 _atom_site_symmetry_multiplicity
 _atom_site_fract_x
 _atom_site_fract_y
 _atom_site_fract_z
 _atom_site_occupancy
  Ho  Ho0  1  0.527747  0.055494  0.509211  1
  Ho  Ho1  1  0.944506  0.472253  0.509211  1
  Ho  Ho2  1  0.527747  0.472253  0.509211  1
  Ho  Ho3  1  0.467638  0.935276  0.006314  1
  Ho  Ho4  1  0.064724  0.532362  0.006314  1
  Ho  Ho5  1  0.467638  0.532362  0.006314  1
  Ho  Ho6  1  0.176638  0.353275  0.716794  1
  Ho  Ho7  1  0.646725  0.823362  0.716794  1
  Ho  Ho8  1  0.176638  0.823362  0.716794  1
  Ho  Ho9  1  0.824184  0.648368  0.215321  1
  Ho  Ho10  1  0.351632  0.175816  0.215321  1
  Ho  Ho11  1  0.824184  0.175816  0.215321  1
  Ho  Ho12  1  0.666667  0.333333  0.879228  1
  Ho  Ho13  1  0.333333  0.666667  0.384004  1
  Ho  Ho14  1  0.000000  0.000000  0.490010  1
  Ho  Ho15  1  0.000000  0.000000  0.995943  1
  In  In16  1  0.835288  0.670576  0.748847  1
  In  In17  1  0.329424  0.164712  0.748847  1
  In  In18  1  0.835288  0.164712  0.748847  1
  In  In19  1  0.162159  0.324319  0.251460  1
  In  In20  1  0.675681  0.837841  0.251460  1
  In  In21  1  0.162159  0.837841  0.251460  1
  Cu  Cu22  1  0.666667  0.333333  0.280773  1
  Os  Os23  1  0.333333  0.666667  0.784245  1
