# generated using pymatgen
data_Ca2Ag5Pd2
_symmetry_space_group_name_H-M   'P 1'
_cell_length_a   5.43756719
_cell_length_b   5.51011927
_cell_length_c   14.12260100
_cell_angle_alpha   90.00000000
_cell_angle_beta   90.00000000
_cell_angle_gamma   120.24355501
_symmetry_Int_Tables_number   1
_chemical_formula_structural   Ca2Ag5Pd2
_chemical_formula_sum   'Ca4 Ag10 Pd4'
_cell_volume   365.54417010
_cell_formula_units_Z   2
loop_
 _symmetry_equiv_pos_site_id
 _symmetry_equiv_pos_as_xyz
  1  'x, y, z'
loop_
 _atom_site_type_symbol
 _atom_site_label
 _atom_site_symmetry_multiplicity
 _atom_site_fract_x
 _atom_site_fract_y
 _atom_site_fract_z
 _atom_site_occupancy
  Ca  Ca0  1  0.322165  0.321400  0.124467  1
  Ca  Ca1  1  0.677835  0.678600  0.624467  1
  Ca  Ca2  1  0.322165  0.321400  0.375533  1
  Ca  Ca3  1  0.677835  0.678600  0.875533  1
  Ag  Ag4  1  0.327621  0.825555  0.250000  1
  Ag  Ag5  1  0.672379  0.174445  0.750000  1
  Ag  Ag6  1  0.987387  0.658550  0.078076  1
  Ag  Ag7  1  0.012613  0.341450  0.578076  1
  Ag  Ag8  1  0.666146  0.993670  0.422320  1
  Ag  Ag9  1  0.333854  0.006330  0.922320  1
  Ag  Ag10  1  0.012613  0.341450  0.921924  1
  Ag  Ag11  1  0.987387  0.658550  0.421924  1
  Ag  Ag12  1  0.333854  0.006330  0.577680  1
  Ag  Ag13  1  0.666146  0.993670  0.077680  1
  Pd  Pd14  1  0.828327  0.828151  0.250000  1
  Pd  Pd15  1  0.171673  0.171849  0.750000  1
  Pd  Pd16  1  0.825757  0.327888  0.250000  1
  Pd  Pd17  1  0.174243  0.672112  0.750000  1
