# generated using pymatgen
data_Yb7Ti(Si4Mo3)4
_symmetry_space_group_name_H-M   'P 1'
_cell_length_a   6.69651722
_cell_length_b   6.87396218
_cell_length_c   12.97438579
_cell_angle_alpha   89.67509199
_cell_angle_beta   90.04508040
_cell_angle_gamma   90.16450944
_symmetry_Int_Tables_number   1
_chemical_formula_structural   Yb7Ti(Si4Mo3)4
_chemical_formula_sum   'Yb7 Ti1 Si16 Mo12'
_cell_volume   597.21957460
_cell_formula_units_Z   1
loop_
 _symmetry_equiv_pos_site_id
 _symmetry_equiv_pos_as_xyz
  1  'x, y, z'
loop_
 _atom_site_type_symbol
 _atom_site_label
 _atom_site_symmetry_multiplicity
 _atom_site_fract_x
 _atom_site_fract_y
 _atom_site_fract_z
 _atom_site_occupancy
  Yb  Yb0  1  0.997804  0.165481  0.090754  1
  Yb  Yb1  1  0.002043  0.834703  0.907826  1
  Yb  Yb2  1  0.502715  0.664562  0.909989  1
  Yb  Yb3  1  0.002626  0.835407  0.589398  1
  Yb  Yb4  1  0.497898  0.332701  0.090623  1
  Yb  Yb5  1  0.000734  0.166868  0.411481  1
  Yb  Yb6  1  0.499349  0.332061  0.410822  1
  Ti  Ti7  1  0.496494  0.679846  0.603545  1
  Si  Si8  1  0.035496  0.133053  0.747748  1
  Si  Si9  1  0.964211  0.874196  0.251136  1
  Si  Si10  1  0.464981  0.622497  0.249510  1
  Si  Si11  1  0.534119  0.377470  0.745349  1
  Si  Si12  1  0.302887  0.864129  0.748329  1
  Si  Si13  1  0.699103  0.131178  0.251310  1
  Si  Si14  1  0.199607  0.364797  0.250584  1
  Si  Si15  1  0.798009  0.636061  0.747723  1
  Si  Si16  1  0.173126  0.465574  0.546027  1
  Si  Si17  1  0.838064  0.542430  0.458032  1
  Si  Si18  1  0.342924  0.948136  0.459467  1
  Si  Si19  1  0.841880  0.542981  0.044868  1
  Si  Si20  1  0.655902  0.033971  0.545981  1
  Si  Si21  1  0.157228  0.456435  0.952646  1
  Si  Si22  1  0.658616  0.044442  0.953703  1
  Si  Si23  1  0.341467  0.956887  0.044777  1
  Mo  Mo24  1  0.166311  0.500530  0.746243  1
  Mo  Mo25  1  0.838330  0.506519  0.251567  1
  Mo  Mo26  1  0.338610  0.989534  0.250869  1
  Mo  Mo27  1  0.661683  0.004105  0.746865  1
  Mo  Mo28  1  0.332366  0.164453  0.624537  1
  Mo  Mo29  1  0.662237  0.826532  0.375518  1
  Mo  Mo30  1  0.165214  0.666909  0.373131  1
  Mo  Mo31  1  0.664909  0.831176  0.128056  1
  Mo  Mo32  1  0.831465  0.336156  0.624712  1
  Mo  Mo33  1  0.335225  0.167615  0.868695  1
  Mo  Mo34  1  0.832178  0.333077  0.870606  1
  Mo  Mo35  1  0.164186  0.667528  0.127576  1
