# generated using pymatgen
data_Er11Lu9Co3Bi8Pt
_symmetry_space_group_name_H-M   'P 1'
_cell_length_a   7.84085582
_cell_length_b   8.90281100
_cell_length_c   12.30597100
_cell_angle_alpha   90.00000000
_cell_angle_beta   90.11462304
_cell_angle_gamma   90.00000000
_symmetry_Int_Tables_number   1
_chemical_formula_structural   Er11Lu9Co3Bi8Pt
_chemical_formula_sum   'Er11 Lu9 Co3 Bi8 Pt1'
_cell_volume   859.02467724
_cell_formula_units_Z   1
loop_
 _symmetry_equiv_pos_site_id
 _symmetry_equiv_pos_as_xyz
  1  'x, y, z'
loop_
 _atom_site_type_symbol
 _atom_site_label
 _atom_site_symmetry_multiplicity
 _atom_site_fract_x
 _atom_site_fract_y
 _atom_site_fract_z
 _atom_site_occupancy
  Er  Er0  1  0.652373  0.750000  0.699220  1
  Er  Er1  1  0.155286  0.250000  0.798212  1
  Er  Er2  1  0.838442  0.750000  0.211788  1
  Er  Er3  1  0.127480  0.750000  0.804584  1
  Er  Er4  1  0.881421  0.250000  0.186442  1
  Er  Er5  1  0.617407  0.250000  0.687737  1
  Er  Er6  1  0.380054  0.750000  0.312338  1
  Er  Er7  1  0.552471  0.750000  0.998467  1
  Er  Er8  1  0.445921  0.250000  0.002081  1
  Er  Er9  1  0.058743  0.250000  0.503082  1
  Er  Er10  1  0.946018  0.750000  0.498684  1
  Lu  Lu11  1  0.347933  0.250000  0.301821  1
  Lu  Lu12  1  0.826091  0.450631  0.933939  1
  Lu  Lu13  1  0.172487  0.531767  0.065736  1
  Lu  Lu14  1  0.329281  0.538592  0.562012  1
  Lu  Lu15  1  0.172487  0.968233  0.065736  1
  Lu  Lu16  1  0.672325  0.461882  0.436937  1
  Lu  Lu17  1  0.826091  0.049369  0.933939  1
  Lu  Lu18  1  0.672325  0.038118  0.436937  1
  Lu  Lu19  1  0.329281  0.961408  0.562012  1
  Co  Co20  1  0.066592  0.250000  0.006736  1
  Co  Co21  1  0.435786  0.250000  0.507016  1
  Co  Co22  1  0.566536  0.750000  0.490877  1
  Bi  Bi23  1  0.932236  0.008876  0.672640  1
  Bi  Bi24  1  0.067511  0.993135  0.327532  1
  Bi  Bi25  1  0.433298  0.991315  0.826945  1
  Bi  Bi26  1  0.067511  0.506865  0.327532  1
  Bi  Bi27  1  0.565654  0.009983  0.173717  1
  Bi  Bi28  1  0.932236  0.491124  0.672640  1
  Bi  Bi29  1  0.565654  0.490017  0.173717  1
  Bi  Bi30  1  0.433298  0.508685  0.826945  1
  Pt  Pt31  1  0.929769  0.750000  0.991998  1
