# generated using pymatgen
data_Nb6TlCoS12
_symmetry_space_group_name_H-M   'P 1'
_cell_length_a   5.77893200
_cell_length_b   5.77893207
_cell_length_c   13.23485300
_cell_angle_alpha   90.00000000
_cell_angle_beta   90.00000000
_cell_angle_gamma   119.99999960
_symmetry_Int_Tables_number   1
_chemical_formula_structural   Nb6TlCoS12
_chemical_formula_sum   'Nb6 Tl1 Co1 S12'
_cell_volume   382.77620213
_cell_formula_units_Z   1
loop_
 _symmetry_equiv_pos_site_id
 _symmetry_equiv_pos_as_xyz
  1  'x, y, z'
loop_
 _atom_site_type_symbol
 _atom_site_label
 _atom_site_symmetry_multiplicity
 _atom_site_fract_x
 _atom_site_fract_y
 _atom_site_fract_z
 _atom_site_occupancy
  Nb  Nb0  1  0.333333  0.666667  0.033429  1
  Nb  Nb1  1  0.666667  0.333333  0.462430  1
  Nb  Nb2  1  0.333333  0.666667  0.466571  1
  Nb  Nb3  1  0.000000  0.000000  0.038210  1
  Nb  Nb4  1  0.666667  0.333333  0.037570  1
  Nb  Nb5  1  0.000000  0.000000  0.461790  1
  Tl  Tl6  1  0.666667  0.333333  0.750000  1
  Co  Co7  1  0.333333  0.666667  0.250000  1
  S  S8  1  0.001581  0.665714  0.153296  1
  S  S9  1  0.670651  0.671024  0.582574  1
  S  S10  1  0.001581  0.335868  0.346704  1
  S  S11  1  0.334286  0.335868  0.153296  1
  S  S12  1  0.328976  0.999627  0.582574  1
  S  S13  1  0.328976  0.329349  0.917426  1
  S  S14  1  0.664132  0.665714  0.346704  1
  S  S15  1  0.000373  0.671024  0.917426  1
  S  S16  1  0.670651  0.999627  0.917426  1
  S  S17  1  0.334286  0.998419  0.346704  1
  S  S18  1  0.664132  0.998419  0.153296  1
  S  S19  1  0.000373  0.329349  0.582574  1
