# generated using pymatgen
data_Tb2Ho6In3Fe
_symmetry_space_group_name_H-M   'P 1'
_cell_length_a   10.30939401
_cell_length_b   10.30669415
_cell_length_c   7.05277282
_cell_angle_alpha   89.92375507
_cell_angle_beta   90.00626461
_cell_angle_gamma   120.00379554
_symmetry_Int_Tables_number   1
_chemical_formula_structural   Tb2Ho6In3Fe
_chemical_formula_sum   'Tb4 Ho12 In6 Fe2'
_cell_volume   648.97201180
_cell_formula_units_Z   2
loop_
 _symmetry_equiv_pos_site_id
 _symmetry_equiv_pos_as_xyz
  1  'x, y, z'
loop_
 _atom_site_type_symbol
 _atom_site_label
 _atom_site_symmetry_multiplicity
 _atom_site_fract_x
 _atom_site_fract_y
 _atom_site_fract_z
 _atom_site_occupancy
  Tb  Tb0  1  0.072088  0.536174  0.287502  1
  Tb  Tb1  1  0.464073  0.536187  0.287504  1
  Tb  Tb2  1  0.999916  0.999896  0.775231  1
  Tb  Tb3  1  0.999915  0.999781  0.274525  1
  Ho  Ho4  1  0.821361  0.642763  0.492651  1
  Ho  Ho5  1  0.357590  0.178529  0.492285  1
  Ho  Ho6  1  0.820929  0.178536  0.492258  1
  Ho  Ho7  1  0.178267  0.356498  0.991344  1
  Ho  Ho8  1  0.642827  0.821582  0.991558  1
  Ho  Ho9  1  0.178789  0.821573  0.991521  1
  Ho  Ho10  1  0.666336  0.332724  0.177934  1
  Ho  Ho11  1  0.333578  0.667112  0.679003  1
  Ho  Ho12  1  0.536606  0.073205  0.788022  1
  Ho  Ho13  1  0.926635  0.463396  0.787685  1
  Ho  Ho14  1  0.536763  0.463373  0.787689  1
  Ho  Ho15  1  0.463893  0.927789  0.288062  1
  In  In16  1  0.836507  0.673011  0.036179  1
  In  In17  1  0.326957  0.163418  0.036300  1
  In  In18  1  0.836435  0.163443  0.036322  1
  In  In19  1  0.163174  0.326335  0.537022  1
  In  In20  1  0.673428  0.837026  0.536851  1
  In  In21  1  0.163601  0.836996  0.536884  1
  Fe  Fe22  1  0.666764  0.333473  0.561376  1
  Fe  Fe23  1  0.333567  0.667179  0.060364  1
