# generated using pymatgen
data_Hf16NbNi4Ru2Rh
_symmetry_space_group_name_H-M   'P 1'
_cell_length_a   8.64925480
_cell_length_b   8.64925422
_cell_length_c   8.69911079
_cell_angle_alpha   60.17011428
_cell_angle_beta   60.17011585
_cell_angle_gamma   60.02160382
_symmetry_Int_Tables_number   1
_chemical_formula_structural   Hf16NbNi4Ru2Rh
_chemical_formula_sum   'Hf16 Nb1 Ni4 Ru2 Rh1'
_cell_volume   461.42419290
_cell_formula_units_Z   1
loop_
 _symmetry_equiv_pos_site_id
 _symmetry_equiv_pos_as_xyz
  1  'x, y, z'
loop_
 _atom_site_type_symbol
 _atom_site_label
 _atom_site_symmetry_multiplicity
 _atom_site_fract_x
 _atom_site_fract_y
 _atom_site_fract_z
 _atom_site_occupancy
  Hf  Hf0  1  0.689133  0.102680  0.104932  1
  Hf  Hf1  1  0.102680  0.689133  0.104932  1
  Hf  Hf2  1  0.108085  0.108085  0.675782  1
  Hf  Hf3  1  0.102817  0.102817  0.103712  1
  Hf  Hf4  1  0.315810  0.315810  0.690064  1
  Hf  Hf5  1  0.684310  0.684310  0.316656  1
  Hf  Hf6  1  0.315657  0.686866  0.316803  1
  Hf  Hf7  1  0.682098  0.315402  0.687905  1
  Hf  Hf8  1  0.686866  0.315657  0.316803  1
  Hf  Hf9  1  0.315402  0.682098  0.687905  1
  Hf  Hf10  1  0.951134  0.951134  0.548516  1
  Hf  Hf11  1  0.553930  0.553930  0.944158  1
  Hf  Hf12  1  0.949544  0.551428  0.947175  1
  Hf  Hf13  1  0.549294  0.950131  0.549192  1
  Hf  Hf14  1  0.551428  0.949544  0.947175  1
  Hf  Hf15  1  0.950131  0.549294  0.549192  1
  Nb  Nb16  1  0.330023  0.330023  0.009107  1
  Ni  Ni17  1  0.320700  0.894520  0.888748  1
  Ni  Ni18  1  0.894520  0.320700  0.888748  1
  Ni  Ni19  1  0.891433  0.891433  0.324653  1
  Ni  Ni20  1  0.894968  0.894968  0.890038  1
  Ru  Ru21  1  0.990134  0.335202  0.336123  1
  Ru  Ru22  1  0.335202  0.990134  0.336123  1
  Rh  Rh23  1  0.334696  0.334696  0.335555  1
