# generated using pymatgen
data_NbCo4Si4Tc3
_symmetry_space_group_name_H-M   'P 1'
_cell_length_a   3.73738500
_cell_length_b   5.91189514
_cell_length_c   6.87469081
_cell_angle_alpha   89.47282311
_cell_angle_beta   90.00000000
_cell_angle_gamma   90.00000000
_symmetry_Int_Tables_number   1
_chemical_formula_structural   NbCo4Si4Tc3
_chemical_formula_sum   'Nb1 Co4 Si4 Tc3'
_cell_volume   151.89005788
_cell_formula_units_Z   1
loop_
 _symmetry_equiv_pos_site_id
 _symmetry_equiv_pos_as_xyz
  1  'x, y, z'
loop_
 _atom_site_type_symbol
 _atom_site_label
 _atom_site_symmetry_multiplicity
 _atom_site_fract_x
 _atom_site_fract_y
 _atom_site_fract_z
 _atom_site_occupancy
  Nb  Nb0  1  0.750000  0.473729  0.320602  1
  Co  Co1  1  0.250000  0.150216  0.441262  1
  Co  Co2  1  0.250000  0.640666  0.061630  1
  Co  Co3  1  0.750000  0.856820  0.560023  1
  Co  Co4  1  0.750000  0.355341  0.943131  1
  Si  Si5  1  0.250000  0.781494  0.377798  1
  Si  Si6  1  0.250000  0.248948  0.109972  1
  Si  Si7  1  0.750000  0.229264  0.636501  1
  Si  Si8  1  0.750000  0.736868  0.880857  1
  Tc  Tc9  1  0.250000  0.022593  0.817062  1
  Tc  Tc10  1  0.250000  0.530651  0.673785  1
  Tc  Tc11  1  0.750000  0.973411  0.177377  1
