# generated using pymatgen
data_PrNd7(B4Br5)2
_symmetry_space_group_name_H-M   'P 1'
_cell_length_a   9.32535005
_cell_length_b   9.32535169
_cell_length_c   19.39083479
_cell_angle_alpha   75.48239944
_cell_angle_beta   75.48239684
_cell_angle_gamma   26.60896515
_symmetry_Int_Tables_number   1
_chemical_formula_structural   PrNd7(B4Br5)2
_chemical_formula_sum   'Pr1 Nd7 B8 Br10'
_cell_volume   729.79063506
_cell_formula_units_Z   1
loop_
 _symmetry_equiv_pos_site_id
 _symmetry_equiv_pos_as_xyz
  1  'x, y, z'
loop_
 _atom_site_type_symbol
 _atom_site_label
 _atom_site_symmetry_multiplicity
 _atom_site_fract_x
 _atom_site_fract_y
 _atom_site_fract_z
 _atom_site_occupancy
  Pr  Pr0  1  0.029073  0.029073  0.114303  1
  Nd  Nd1  1  0.611925  0.611925  0.721270  1
  Nd  Nd2  1  0.387886  0.387886  0.279198  1
  Nd  Nd3  1  0.976382  0.976382  0.627547  1
  Nd  Nd4  1  0.023685  0.023685  0.372527  1
  Nd  Nd5  1  0.333964  0.333964  0.790606  1
  Nd  Nd6  1  0.666049  0.666049  0.209507  1
  Nd  Nd7  1  0.970975  0.970975  0.884372  1
  B  B8  1  0.158364  0.787796  0.756134  1
  B  B9  1  0.211969  0.841681  0.243921  1
  B  B10  1  0.841681  0.211969  0.243921  1
  B  B11  1  0.787796  0.158364  0.756134  1
  B  B12  1  0.472886  0.472886  0.805651  1
  B  B13  1  0.526944  0.526944  0.194489  1
  B  B14  1  0.472329  0.472329  0.706816  1
  B  B15  1  0.527627  0.527627  0.293247  1
  Br  Br16  1  0.146961  0.146961  0.603872  1
  Br  Br17  1  0.853116  0.853116  0.396712  1
  Br  Br18  1  0.147857  0.147857  0.824824  1
  Br  Br19  1  0.851397  0.851397  0.175916  1
  Br  Br20  1  0.800088  0.800088  0.908864  1
  Br  Br21  1  0.200909  0.200909  0.091398  1
  Br  Br22  1  0.799086  0.799086  0.685549  1
  Br  Br23  1  0.200787  0.200787  0.314622  1
  Br  Br24  1  0.500024  0.500024  0.500053  1
  Br  Br25  1  0.500243  0.500243  0.998553  1
