# generated using pymatgen
data_Yb2CuReN4
_symmetry_space_group_name_H-M   'P 1'
_cell_length_a   5.70143500
_cell_length_b   5.86758044
_cell_length_c   6.45045240
_cell_angle_alpha   73.71792541
_cell_angle_beta   90.00000000
_cell_angle_gamma   90.00000000
_symmetry_Int_Tables_number   1
_chemical_formula_structural   Yb2CuReN4
_chemical_formula_sum   'Yb4 Cu2 Re2 N8'
_cell_volume   207.13631872
_cell_formula_units_Z   2
loop_
 _symmetry_equiv_pos_site_id
 _symmetry_equiv_pos_as_xyz
  1  'x, y, z'
loop_
 _atom_site_type_symbol
 _atom_site_label
 _atom_site_symmetry_multiplicity
 _atom_site_fract_x
 _atom_site_fract_y
 _atom_site_fract_z
 _atom_site_occupancy
  Yb  Yb0  1  0.250000  0.276876  0.055149  1
  Yb  Yb1  1  0.750000  0.723124  0.944851  1
  Yb  Yb2  1  0.750000  0.766864  0.434547  1
  Yb  Yb3  1  0.250000  0.233136  0.565453  1
  Cu  Cu4  1  0.750000  0.277532  0.313162  1
  Cu  Cu5  1  0.250000  0.722468  0.686838  1
  Re  Re6  1  0.250000  0.734771  0.194948  1
  Re  Re7  1  0.750000  0.265229  0.805052  1
  N  N8  1  0.500506  0.469547  0.752784  1
  N  N9  1  0.000506  0.530453  0.247216  1
  N  N10  1  0.499494  0.530453  0.247216  1
  N  N11  1  0.999494  0.469547  0.752784  1
  N  N12  1  0.750000  0.069064  0.623991  1
  N  N13  1  0.250000  0.930936  0.376009  1
  N  N14  1  0.750000  0.083479  0.089091  1
  N  N15  1  0.250000  0.916521  0.910909  1
