# generated using pymatgen
data_Ho11Lu5MgHg3PtRh3
_symmetry_space_group_name_H-M   'P 1'
_cell_length_a   9.53691099
_cell_length_b   9.50728756
_cell_length_c   9.53472200
_cell_angle_alpha   59.90449837
_cell_angle_beta   60.00759244
_cell_angle_gamma   59.98522232
_symmetry_Int_Tables_number   1
_chemical_formula_structural   Ho11Lu5MgHg3PtRh3
_chemical_formula_sum   'Ho11 Lu5 Mg1 Hg3 Pt1 Rh3'
_cell_volume   610.82861993
_cell_formula_units_Z   1
loop_
 _symmetry_equiv_pos_site_id
 _symmetry_equiv_pos_as_xyz
  1  'x, y, z'
loop_
 _atom_site_type_symbol
 _atom_site_label
 _atom_site_symmetry_multiplicity
 _atom_site_fract_x
 _atom_site_fract_y
 _atom_site_fract_z
 _atom_site_occupancy
  Ho  Ho0  1  0.811590  0.812234  0.187757  1
  Ho  Ho1  1  0.937198  0.562171  0.564014  1
  Ho  Ho2  1  0.562334  0.938167  0.935808  1
  Ho  Ho3  1  0.561864  0.938253  0.564662  1
  Ho  Ho4  1  0.937782  0.562541  0.936696  1
  Ho  Ho5  1  0.563251  0.564667  0.936193  1
  Ho  Ho6  1  0.936103  0.938619  0.563751  1
  Ho  Ho7  1  0.351288  0.349319  0.348295  1
  Ho  Ho8  1  0.354230  0.350548  0.948407  1
  Ho  Ho9  1  0.353831  0.947701  0.350719  1
  Ho  Ho10  1  0.935033  0.356249  0.355475  1
  Lu  Lu11  1  0.806984  0.189361  0.189853  1
  Lu  Lu12  1  0.184387  0.814041  0.814241  1
  Lu  Lu13  1  0.185641  0.810448  0.187357  1
  Lu  Lu14  1  0.810998  0.188060  0.812388  1
  Lu  Lu15  1  0.185039  0.186270  0.811805  1
  Mg  Mg16  1  0.283538  0.570435  0.573096  1
  Hg  Hg17  1  0.581800  0.587027  0.588110  1
  Hg  Hg18  1  0.581879  0.586667  0.244066  1
  Hg  Hg19  1  0.582136  0.243487  0.587393  1
  Pt  Pt20  1  0.139405  0.144063  0.143228  1
  Rh  Rh21  1  0.138269  0.143679  0.573521  1
  Rh  Rh22  1  0.141777  0.572179  0.142179  1
  Rh  Rh23  1  0.573649  0.143814  0.140983  1
