# generated using pymatgen
data_Y2Nb3Co9As7
_symmetry_space_group_name_H-M   'P 1'
_cell_length_a   3.81802100
_cell_length_b   9.53704007
_cell_length_c   9.53704000
_cell_angle_alpha   119.99999975
_cell_angle_beta   90.00000000
_cell_angle_gamma   90.00000000
_symmetry_Int_Tables_number   1
_chemical_formula_structural   Y2Nb3Co9As7
_chemical_formula_sum   'Y2 Nb3 Co9 As7'
_cell_volume   300.74343593
_cell_formula_units_Z   1
loop_
 _symmetry_equiv_pos_site_id
 _symmetry_equiv_pos_as_xyz
  1  'x, y, z'
loop_
 _atom_site_type_symbol
 _atom_site_label
 _atom_site_symmetry_multiplicity
 _atom_site_fract_x
 _atom_site_fract_y
 _atom_site_fract_z
 _atom_site_occupancy
  Y  Y0  1  0.000000  0.666667  0.333333  1
  Y  Y1  1  0.500000  0.333333  0.666667  1
  Nb  Nb2  1  0.500000  0.776183  0.897350  1
  Nb  Nb3  1  0.500000  0.121167  0.223817  1
  Nb  Nb4  1  0.500000  0.102650  0.878833  1
  Co  Co5  1  0.000000  0.570446  0.938412  1
  Co  Co6  1  0.000000  0.367966  0.429554  1
  Co  Co7  1  0.000000  0.061588  0.632034  1
  Co  Co8  1  0.000000  0.876731  0.160879  1
  Co  Co9  1  0.000000  0.284148  0.123269  1
  Co  Co10  1  0.000000  0.839121  0.715852  1
  Co  Co11  1  0.500000  0.948257  0.384693  1
  Co  Co12  1  0.500000  0.436435  0.051743  1
  Co  Co13  1  0.500000  0.615307  0.563565  1
  As  As14  1  0.000000  0.000000  0.000000  1
  As  As15  1  0.500000  0.708251  0.124560  1
  As  As16  1  0.500000  0.416310  0.291749  1
  As  As17  1  0.500000  0.875440  0.583690  1
  As  As18  1  0.000000  0.580804  0.692684  1
  As  As19  1  0.000000  0.111881  0.419196  1
  As  As20  1  0.000000  0.307316  0.888119  1
