# generated using pymatgen
data_NaNdH12Ir2Pb
_symmetry_space_group_name_H-M   'P 1'
_cell_length_a   5.04351200
_cell_length_b   5.04351378
_cell_length_c   8.38785300
_cell_angle_alpha   90.00000000
_cell_angle_beta   90.00000000
_cell_angle_gamma   120.00000141
_symmetry_Int_Tables_number   1
_chemical_formula_structural   NaNdH12Ir2Pb
_chemical_formula_sum   'Na1 Nd1 H12 Ir2 Pb1'
_cell_volume   184.77691285
_cell_formula_units_Z   1
loop_
 _symmetry_equiv_pos_site_id
 _symmetry_equiv_pos_as_xyz
  1  'x, y, z'
loop_
 _atom_site_type_symbol
 _atom_site_label
 _atom_site_symmetry_multiplicity
 _atom_site_fract_x
 _atom_site_fract_y
 _atom_site_fract_z
 _atom_site_occupancy
  Na  Na0  1  0.666667  0.333333  0.357813  1
  Nd  Nd1  1  0.333333  0.666667  0.627151  1
  H  H2  1  0.176107  0.823893  0.370340  1
  H  H3  1  0.647787  0.823893  0.370340  1
  H  H4  1  0.176107  0.352213  0.370340  1
  H  H5  1  0.828789  0.171211  0.623442  1
  H  H6  1  0.342422  0.171211  0.623442  1
  H  H7  1  0.828789  0.657578  0.623442  1
  H  H8  1  0.515464  0.030928  0.856288  1
  H  H9  1  0.515464  0.484536  0.856288  1
  H  H10  1  0.969072  0.484536  0.856288  1
  H  H11  1  0.489033  0.978065  0.137017  1
  H  H12  1  0.489033  0.510967  0.137017  1
  H  H13  1  0.021935  0.510967  0.137017  1
  Ir  Ir14  1  0.666667  0.333333  0.734230  1
  Ir  Ir15  1  0.333333  0.666667  0.253890  1
  Pb  Pb16  1  0.000000  0.000000  0.065660  1
