# generated using pymatgen
data_Cs4Rb2DyInAs4
_symmetry_space_group_name_H-M   'P 1'
_cell_length_a   9.97920011
_cell_length_b   9.97919884
_cell_length_c   9.97919966
_cell_angle_alpha   130.64527616
_cell_angle_beta   137.95400284
_cell_angle_gamma   66.79753954
_symmetry_Int_Tables_number   1
_chemical_formula_structural   Cs4Rb2DyInAs4
_chemical_formula_sum   'Cs4 Rb2 Dy1 In1 As4'
_cell_volume   497.05965099
_cell_formula_units_Z   1
loop_
 _symmetry_equiv_pos_site_id
 _symmetry_equiv_pos_as_xyz
  1  'x, y, z'
loop_
 _atom_site_type_symbol
 _atom_site_label
 _atom_site_symmetry_multiplicity
 _atom_site_fract_x
 _atom_site_fract_y
 _atom_site_fract_z
 _atom_site_occupancy
  Cs  Cs0  1  0.693705  0.466660  0.793581  1
  Cs  Cs1  1  0.806295  0.099876  0.272956  1
  Cs  Cs2  1  0.173079  0.900124  0.706419  1
  Cs  Cs3  1  0.326921  0.533340  0.227044  1
  Rb  Rb4  1  0.750000  0.000000  0.750000  1
  Rb  Rb5  1  0.250000  0.000000  0.250000  1
  Dy  Dy6  1  0.250000  0.500000  0.750000  1
  In  In7  1  0.750000  0.500000  0.250000  1
  As  As8  1  0.411797  0.220148  0.818525  1
  As  As9  1  0.598377  0.779852  0.191650  1
  As  As10  1  0.088203  0.406727  0.308350  1
  As  As11  1  0.901623  0.593273  0.681475  1
