# generated using pymatgen
data_Y20NiBi8Rh3
_symmetry_space_group_name_H-M   'P 1'
_cell_length_a   8.05635350
_cell_length_b   9.02445100
_cell_length_c   12.45876966
_cell_angle_alpha   90.00000000
_cell_angle_beta   89.79331718
_cell_angle_gamma   90.00000000
_symmetry_Int_Tables_number   1
_chemical_formula_structural   Y20NiBi8Rh3
_chemical_formula_sum   'Y20 Ni1 Bi8 Rh3'
_cell_volume   905.79858085
_cell_formula_units_Z   1
loop_
 _symmetry_equiv_pos_site_id
 _symmetry_equiv_pos_as_xyz
  1  'x, y, z'
loop_
 _atom_site_type_symbol
 _atom_site_label
 _atom_site_symmetry_multiplicity
 _atom_site_fract_x
 _atom_site_fract_y
 _atom_site_fract_z
 _atom_site_occupancy
  Y  Y0  1  0.342793  0.750000  0.704763  1
  Y  Y1  1  0.659028  0.250000  0.291698  1
  Y  Y2  1  0.842000  0.250000  0.792484  1
  Y  Y3  1  0.157567  0.750000  0.206611  1
  Y  Y4  1  0.876899  0.750000  0.804009  1
  Y  Y5  1  0.122903  0.250000  0.195311  1
  Y  Y6  1  0.376785  0.250000  0.694898  1
  Y  Y7  1  0.619995  0.750000  0.307729  1
  Y  Y8  1  0.678809  0.542163  0.565844  1
  Y  Y9  1  0.323198  0.460717  0.435116  1
  Y  Y10  1  0.178019  0.457721  0.933305  1
  Y  Y11  1  0.323198  0.039283  0.435116  1
  Y  Y12  1  0.821399  0.542388  0.066605  1
  Y  Y13  1  0.678809  0.957837  0.565844  1
  Y  Y14  1  0.821399  0.957612  0.066605  1
  Y  Y15  1  0.178019  0.042279  0.933305  1
  Y  Y16  1  0.047335  0.750000  0.499621  1
  Y  Y17  1  0.952491  0.250000  0.500403  1
  Y  Y18  1  0.546798  0.250000  0.000933  1
  Y  Y19  1  0.452111  0.750000  0.998721  1
  Ni  Ni20  1  0.428733  0.750000  0.490723  1
  Bi  Bi21  1  0.570054  0.509304  0.826491  1
  Bi  Bi22  1  0.429986  0.491382  0.173724  1
  Bi  Bi23  1  0.071739  0.491041  0.672209  1
  Bi  Bi24  1  0.429986  0.008618  0.173724  1
  Bi  Bi25  1  0.929130  0.509951  0.327933  1
  Bi  Bi26  1  0.570054  0.990696  0.826491  1
  Bi  Bi27  1  0.929130  0.990049  0.327933  1
  Bi  Bi28  1  0.071739  0.008959  0.672209  1
  Rh  Rh29  1  0.071557  0.750000  0.989186  1
  Rh  Rh30  1  0.927127  0.250000  0.010683  1
  Rh  Rh31  1  0.571208  0.250000  0.509775  1
