# generated using pymatgen
data_Nd7(AsSe3)2
_symmetry_space_group_name_H-M   'P 1'
_cell_length_a   8.39696400
_cell_length_b   8.39696458
_cell_length_c   8.39696400
_cell_angle_alpha   119.99999773
_cell_angle_beta   90.00000000
_cell_angle_gamma   119.99999773
_symmetry_Int_Tables_number   1
_chemical_formula_structural   Nd7(AsSe3)2
_chemical_formula_sum   'Nd7 As2 Se6'
_cell_volume   418.65080969
_cell_formula_units_Z   1
loop_
 _symmetry_equiv_pos_site_id
 _symmetry_equiv_pos_as_xyz
  1  'x, y, z'
loop_
 _atom_site_type_symbol
 _atom_site_label
 _atom_site_symmetry_multiplicity
 _atom_site_fract_x
 _atom_site_fract_y
 _atom_site_fract_z
 _atom_site_occupancy
  Nd  Nd0  1  0.249995  0.000000  0.249995  1
  Nd  Nd1  1  0.249995  0.499990  0.249995  1
  Nd  Nd2  1  0.750005  0.000000  0.249996  1
  Nd  Nd3  1  0.250001  0.500001  0.750002  1
  Nd  Nd4  1  0.249996  0.000000  0.750005  1
  Nd  Nd5  1  0.750005  0.000000  0.750005  1
  Nd  Nd6  1  0.750005  0.500009  0.750005  1
  As  As7  1  0.000000  0.000000  0.000000  1
  As  As8  1  0.500000  0.000000  0.500000  1
  Se  Se9  1  0.998917  0.997834  0.498919  1
  Se  Se10  1  0.998917  0.500001  0.498919  1
  Se  Se11  1  0.501084  0.500001  0.498919  1
  Se  Se12  1  0.998919  0.500001  0.001083  1
  Se  Se13  1  0.501082  0.500001  0.001083  1
  Se  Se14  1  0.501082  0.002165  0.001083  1
