# generated using pymatgen
data_Y12In2CoRu3
_symmetry_space_group_name_H-M   'P 1'
_cell_length_a   8.48921383
_cell_length_b   8.48921421
_cell_length_c   8.48921462
_cell_angle_alpha   112.63505849
_cell_angle_beta   110.78367607
_cell_angle_gamma   105.08781867
_symmetry_Int_Tables_number   1
_chemical_formula_structural   Y12In2CoRu3
_chemical_formula_sum   'Y12 In2 Co1 Ru3'
_cell_volume   468.77662921
_cell_formula_units_Z   1
loop_
 _symmetry_equiv_pos_site_id
 _symmetry_equiv_pos_as_xyz
  1  'x, y, z'
loop_
 _atom_site_type_symbol
 _atom_site_label
 _atom_site_symmetry_multiplicity
 _atom_site_fract_x
 _atom_site_fract_y
 _atom_site_fract_z
 _atom_site_occupancy
  Y  Y0  1  0.445174  0.242133  0.203041  1
  Y  Y1  1  0.557385  0.759682  0.797703  1
  Y  Y2  1  0.039092  0.242133  0.796959  1
  Y  Y3  1  0.961979  0.759682  0.202297  1
  Y  Y4  1  0.186800  0.285735  0.470699  1
  Y  Y5  1  0.815036  0.716101  0.529301  1
  Y  Y6  1  0.186800  0.716101  0.901066  1
  Y  Y7  1  0.815036  0.285735  0.098934  1
  Y  Y8  1  0.324608  0.638947  0.314340  1
  Y  Y9  1  0.676687  0.361503  0.684814  1
  Y  Y10  1  0.324608  0.010268  0.685660  1
  Y  Y11  1  0.676687  0.991873  0.315186  1
  In  In12  1  0.501070  0.501070  0.000000  1
  In  In13  1  0.000173  0.000173  0.000000  1
  Co  Co14  1  0.877923  0.377923  0.500000  1
  Ru  Ru15  1  0.329322  0.000736  0.328585  1
  Ru  Ru16  1  0.672151  0.000736  0.671415  1
  Ru  Ru17  1  0.109470  0.609470  0.500000  1
