# generated using pymatgen
data_Nd12IrRuAu2
_symmetry_space_group_name_H-M   'P 1'
_cell_length_a   6.62773039
_cell_length_b   7.41136585
_cell_length_c   10.00593000
_cell_angle_alpha   90.00000000
_cell_angle_beta   90.00000000
_cell_angle_gamma   89.85311416
_symmetry_Int_Tables_number   1
_chemical_formula_structural   Nd12IrRuAu2
_chemical_formula_sum   'Nd12 Ir1 Ru1 Au2'
_cell_volume   491.49501672
_cell_formula_units_Z   1
loop_
 _symmetry_equiv_pos_site_id
 _symmetry_equiv_pos_as_xyz
  1  'x, y, z'
loop_
 _atom_site_type_symbol
 _atom_site_label
 _atom_site_symmetry_multiplicity
 _atom_site_fract_x
 _atom_site_fract_y
 _atom_site_fract_z
 _atom_site_occupancy
  Nd  Nd0  1  0.337116  0.671842  0.063859  1
  Nd  Nd1  1  0.173301  0.188948  0.438568  1
  Nd  Nd2  1  0.663435  0.326836  0.561055  1
  Nd  Nd3  1  0.828686  0.811302  0.939536  1
  Nd  Nd4  1  0.663435  0.326836  0.938945  1
  Nd  Nd5  1  0.828686  0.811302  0.560464  1
  Nd  Nd6  1  0.337116  0.671842  0.436141  1
  Nd  Nd7  1  0.173301  0.188948  0.061432  1
  Nd  Nd8  1  0.848539  0.519860  0.250000  1
  Nd  Nd9  1  0.619584  0.045735  0.250000  1
  Nd  Nd10  1  0.150669  0.480898  0.750000  1
  Nd  Nd11  1  0.377545  0.956532  0.750000  1
  Ir  Ir12  1  0.571140  0.616710  0.750000  1
  Ru  Ru13  1  0.429939  0.382369  0.250000  1
  Au  Au14  1  0.056006  0.887768  0.250000  1
  Au  Au15  1  0.941498  0.112272  0.750000  1
