# generated using pymatgen
data_LaDy2(ZnPt)4
_symmetry_space_group_name_H-M   'P 1'
_cell_length_a   8.26111791
_cell_length_b   8.26111756
_cell_length_c   8.26111712
_cell_angle_alpha   151.49989800
_cell_angle_beta   125.84486283
_cell_angle_gamma   62.32803066
_symmetry_Int_Tables_number   1
_chemical_formula_structural   LaDy2(ZnPt)4
_chemical_formula_sum   'La1 Dy2 Zn4 Pt4'
_cell_volume   216.22131839
_cell_formula_units_Z   1
loop_
 _symmetry_equiv_pos_site_id
 _symmetry_equiv_pos_as_xyz
  1  'x, y, z'
loop_
 _atom_site_type_symbol
 _atom_site_label
 _atom_site_symmetry_multiplicity
 _atom_site_fract_x
 _atom_site_fract_y
 _atom_site_fract_z
 _atom_site_occupancy
  La  La0  1  0.500000  0.000000  0.500000  1
  Dy  Dy1  1  0.873556  0.873556  0.000000  1
  Dy  Dy2  1  0.126444  0.126444  0.000000  1
  Zn  Zn3  1  0.477379  0.674401  0.802977  1
  Zn  Zn4  1  0.871424  0.674401  0.197023  1
  Zn  Zn5  1  0.128576  0.325599  0.802977  1
  Zn  Zn6  1  0.522621  0.325599  0.197023  1
  Pt  Pt7  1  0.276852  0.776852  0.500000  1
  Pt  Pt8  1  0.723148  0.223148  0.500000  1
  Pt  Pt9  1  0.810730  0.500000  0.310730  1
  Pt  Pt10  1  0.189270  0.500000  0.689270  1
