# generated using pymatgen
data_Nd2B4Ir2OsRu
_symmetry_space_group_name_H-M   'P 1'
_cell_length_a   6.94611168
_cell_length_b   6.07763382
_cell_length_c   5.64155023
_cell_angle_alpha   72.59152791
_cell_angle_beta   56.60462385
_cell_angle_gamma   50.25248190
_symmetry_Int_Tables_number   1
_chemical_formula_structural   Nd2B4Ir2OsRu
_chemical_formula_sum   'Nd2 B4 Ir2 Os1 Ru1'
_cell_volume   152.36535614
_cell_formula_units_Z   1
loop_
 _symmetry_equiv_pos_site_id
 _symmetry_equiv_pos_as_xyz
  1  'x, y, z'
loop_
 _atom_site_type_symbol
 _atom_site_label
 _atom_site_symmetry_multiplicity
 _atom_site_fract_x
 _atom_site_fract_y
 _atom_site_fract_z
 _atom_site_occupancy
  Nd  Nd0  1  0.500240  0.500240  0.499760  1
  Nd  Nd1  1  0.747302  0.747302  0.752698  1
  B  B2  1  0.167473  0.828187  0.184888  1
  B  B3  1  0.070552  0.433357  0.059559  1
  B  B4  1  0.828187  0.167473  0.819452  1
  B  B5  1  0.433357  0.070552  0.436532  1
  Ir  Ir6  1  0.385773  0.385773  0.114227  1
  Ir  Ir7  1  0.118153  0.118153  0.381847  1
  Os  Os8  1  0.864728  0.864728  0.135272  1
  Ru  Ru9  1  0.134236  0.134236  0.865764  1
