# generated using pymatgen
data_YHo2Fe9
_symmetry_space_group_name_H-M   'P 1'
_cell_length_a   8.59468843
_cell_length_b   8.59468846
_cell_length_c   8.59468940
_cell_angle_alpha   34.35403472
_cell_angle_beta   34.35403374
_cell_angle_gamma   34.35403032
_symmetry_Int_Tables_number   1
_chemical_formula_structural   YHo2Fe9
_chemical_formula_sum   'Y1 Ho2 Fe9'
_cell_volume   180.31677568
_cell_formula_units_Z   1
loop_
 _symmetry_equiv_pos_site_id
 _symmetry_equiv_pos_as_xyz
  1  'x, y, z'
loop_
 _atom_site_type_symbol
 _atom_site_label
 _atom_site_symmetry_multiplicity
 _atom_site_fract_x
 _atom_site_fract_y
 _atom_site_fract_z
 _atom_site_occupancy
  Y  Y0  1  0.000000  0.000000  0.000000  1
  Ho  Ho1  1  0.142045  0.142045  0.142045  1
  Ho  Ho2  1  0.857955  0.857955  0.857955  1
  Fe  Fe3  1  0.500000  0.500000  0.500000  1
  Fe  Fe4  1  0.332587  0.332587  0.332587  1
  Fe  Fe5  1  0.667413  0.667413  0.667413  1
  Fe  Fe6  1  0.082640  0.581404  0.581404  1
  Fe  Fe7  1  0.581404  0.581404  0.082640  1
  Fe  Fe8  1  0.581404  0.082640  0.581404  1
  Fe  Fe9  1  0.418596  0.917360  0.418596  1
  Fe  Fe10  1  0.917360  0.418596  0.418596  1
  Fe  Fe11  1  0.418596  0.418596  0.917360  1
