# generated using pymatgen
data_Tb9Ho7(InNi)4
_symmetry_space_group_name_H-M   'P 1'
_cell_length_a   9.58444926
_cell_length_b   9.58460800
_cell_length_c   9.58668257
_cell_angle_alpha   60.02063463
_cell_angle_beta   60.01869933
_cell_angle_gamma   60.05473269
_symmetry_Int_Tables_number   1
_chemical_formula_structural   Tb9Ho7(InNi)4
_chemical_formula_sum   'Tb9 Ho7 In4 Ni4'
_cell_volume   623.16539995
_cell_formula_units_Z   1
loop_
 _symmetry_equiv_pos_site_id
 _symmetry_equiv_pos_as_xyz
  1  'x, y, z'
loop_
 _atom_site_type_symbol
 _atom_site_label
 _atom_site_symmetry_multiplicity
 _atom_site_fract_x
 _atom_site_fract_y
 _atom_site_fract_z
 _atom_site_occupancy
  Tb  Tb0  1  0.347143  0.347084  0.346924  1
  Tb  Tb1  1  0.347745  0.347675  0.955845  1
  Tb  Tb2  1  0.348124  0.955658  0.347517  1
  Tb  Tb3  1  0.955823  0.347984  0.347435  1
  Tb  Tb4  1  0.811307  0.188601  0.189107  1
  Tb  Tb5  1  0.189071  0.811546  0.811956  1
  Tb  Tb6  1  0.188491  0.811306  0.189157  1
  Tb  Tb7  1  0.811326  0.189175  0.811926  1
  Tb  Tb8  1  0.188814  0.188989  0.811459  1
  Ho  Ho9  1  0.811279  0.811423  0.189670  1
  Ho  Ho10  1  0.936927  0.563391  0.562753  1
  Ho  Ho11  1  0.564332  0.936967  0.937366  1
  Ho  Ho12  1  0.563283  0.937048  0.562702  1
  Ho  Ho13  1  0.937150  0.564339  0.937460  1
  Ho  Ho14  1  0.563010  0.563055  0.937208  1
  Ho  Ho15  1  0.937336  0.937242  0.564006  1
  In  In16  1  0.582978  0.582950  0.582228  1
  In  In17  1  0.582352  0.582342  0.252545  1
  In  In18  1  0.582241  0.252707  0.582197  1
  In  In19  1  0.252783  0.582114  0.582140  1
  Ni  Ni20  1  0.142526  0.142397  0.142338  1
  Ni  Ni21  1  0.141672  0.141559  0.572907  1
  Ni  Ni22  1  0.140884  0.573562  0.141527  1
  Ni  Ni23  1  0.573406  0.140888  0.141628  1
