# generated using pymatgen
data_Pr8Er3TmIn20
_symmetry_space_group_name_H-M   'P 1'
_cell_length_a   6.69229504
_cell_length_b   10.56169500
_cell_length_c   12.49458000
_cell_angle_alpha   90.00000000
_cell_angle_beta   90.00602726
_cell_angle_gamma   90.00000000
_symmetry_Int_Tables_number   1
_chemical_formula_structural   Pr8Er3TmIn20
_chemical_formula_sum   'Pr8 Er3 Tm1 In20'
_cell_volume   883.14163668
_cell_formula_units_Z   1
loop_
 _symmetry_equiv_pos_site_id
 _symmetry_equiv_pos_as_xyz
  1  'x, y, z'
loop_
 _atom_site_type_symbol
 _atom_site_label
 _atom_site_symmetry_multiplicity
 _atom_site_fract_x
 _atom_site_fract_y
 _atom_site_fract_z
 _atom_site_occupancy
  Pr  Pr0  1  0.889145  0.489808  0.143520  1
  Pr  Pr1  1  0.610743  0.010078  0.643652  1
  Pr  Pr2  1  0.111018  0.989692  0.856429  1
  Pr  Pr3  1  0.388879  0.510410  0.356437  1
  Pr  Pr4  1  0.111018  0.510308  0.856429  1
  Pr  Pr5  1  0.388879  0.989590  0.356437  1
  Pr  Pr6  1  0.889145  0.010192  0.143520  1
  Pr  Pr7  1  0.610743  0.489922  0.643652  1
  Er  Er8  1  0.349525  0.750000  0.059780  1
  Er  Er9  1  0.150459  0.750000  0.559710  1
  Er  Er10  1  0.650485  0.250000  0.940276  1
  Tm  Tm11  1  0.849467  0.250000  0.440057  1
  In  In12  1  0.616201  0.750000  0.503104  1
  In  In13  1  0.883861  0.750000  0.003060  1
  In  In14  1  0.384052  0.250000  0.496888  1
  In  In15  1  0.116248  0.250000  0.996902  1
  In  In16  1  0.654092  0.750000  0.243120  1
  In  In17  1  0.846059  0.750000  0.743174  1
  In  In18  1  0.346012  0.250000  0.756867  1
  In  In19  1  0.153761  0.250000  0.256980  1
  In  In20  1  0.110086  0.750000  0.283769  1
  In  In21  1  0.389949  0.750000  0.783818  1
  In  In22  1  0.889790  0.250000  0.716141  1
  In  In23  1  0.610422  0.250000  0.216301  1
  In  In24  1  0.874615  0.544776  0.404694  1
  In  In25  1  0.625416  0.954957  0.904692  1
  In  In26  1  0.125274  0.045023  0.595311  1
  In  In27  1  0.374675  0.455053  0.095292  1
  In  In28  1  0.125274  0.454977  0.595311  1
  In  In29  1  0.374675  0.044947  0.095292  1
  In  In30  1  0.874615  0.955224  0.404694  1
  In  In31  1  0.625416  0.545043  0.904692  1
