# generated using pymatgen
data_Y2Hf2TaSi4
_symmetry_space_group_name_H-M   'P 1'
_cell_length_a   7.21965600
_cell_length_b   7.21965600
_cell_length_c   13.21745300
_cell_angle_alpha   90.00000000
_cell_angle_beta   90.00000000
_cell_angle_gamma   90.00000000
_symmetry_Int_Tables_number   1
_chemical_formula_structural   Y2Hf2TaSi4
_chemical_formula_sum   'Y8 Hf8 Ta4 Si16'
_cell_volume   688.93902268
_cell_formula_units_Z   4
loop_
 _symmetry_equiv_pos_site_id
 _symmetry_equiv_pos_as_xyz
  1  'x, y, z'
loop_
 _atom_site_type_symbol
 _atom_site_label
 _atom_site_symmetry_multiplicity
 _atom_site_fract_x
 _atom_site_fract_y
 _atom_site_fract_z
 _atom_site_occupancy
  Y  Y0  1  0.497237  0.154844  0.534532  1
  Y  Y1  1  0.502763  0.845156  0.034532  1
  Y  Y2  1  0.654844  0.002763  0.284532  1
  Y  Y3  1  0.345156  0.997237  0.784532  1
  Y  Y4  1  0.845156  0.502763  0.965468  1
  Y  Y5  1  0.154844  0.497237  0.465468  1
  Y  Y6  1  0.002763  0.654844  0.715468  1
  Y  Y7  1  0.997237  0.345156  0.215468  1
  Hf  Hf8  1  0.493589  0.352689  0.125061  1
  Hf  Hf9  1  0.506411  0.647311  0.625061  1
  Hf  Hf10  1  0.852689  0.006411  0.875061  1
  Hf  Hf11  1  0.147311  0.993589  0.375061  1
  Hf  Hf12  1  0.647311  0.506411  0.374939  1
  Hf  Hf13  1  0.352689  0.493589  0.874939  1
  Hf  Hf14  1  0.006411  0.852689  0.124939  1
  Hf  Hf15  1  0.993589  0.147311  0.624939  1
  Ta  Ta16  1  0.676757  0.323243  0.750000  1
  Ta  Ta17  1  0.323243  0.676757  0.250000  1
  Ta  Ta18  1  0.823243  0.823243  0.500000  1
  Ta  Ta19  1  0.176757  0.176757  0.000000  1
  Si  Si20  1  0.797108  0.139377  0.067090  1
  Si  Si21  1  0.202892  0.860623  0.567090  1
  Si  Si22  1  0.639377  0.702892  0.817090  1
  Si  Si23  1  0.360623  0.297108  0.317090  1
  Si  Si24  1  0.860623  0.202892  0.432910  1
  Si  Si25  1  0.139377  0.797108  0.932910  1
  Si  Si26  1  0.702892  0.639377  0.182910  1
  Si  Si27  1  0.297108  0.360623  0.682910  1
  Si  Si28  1  0.549601  0.204384  0.934689  1
  Si  Si29  1  0.450399  0.795616  0.434689  1
  Si  Si30  1  0.704384  0.950399  0.684689  1
  Si  Si31  1  0.295616  0.049601  0.184689  1
  Si  Si32  1  0.795616  0.450399  0.565311  1
  Si  Si33  1  0.204384  0.549601  0.065311  1
  Si  Si34  1  0.950399  0.704384  0.315311  1
  Si  Si35  1  0.049601  0.295616  0.815311  1
