# generated using pymatgen
data_Dy12ZnCo4Sb
_symmetry_space_group_name_H-M   'P 1'
_cell_length_a   8.32612021
_cell_length_b   8.32593784
_cell_length_c   8.32612004
_cell_angle_alpha   112.01088291
_cell_angle_beta   108.89282225
_cell_angle_gamma   107.54369422
_symmetry_Int_Tables_number   1
_chemical_formula_structural   Dy12ZnCo4Sb
_chemical_formula_sum   'Dy12 Zn1 Co4 Sb1'
_cell_volume   443.59941452
_cell_formula_units_Z   1
loop_
 _symmetry_equiv_pos_site_id
 _symmetry_equiv_pos_as_xyz
  1  'x, y, z'
loop_
 _atom_site_type_symbol
 _atom_site_label
 _atom_site_symmetry_multiplicity
 _atom_site_fract_x
 _atom_site_fract_y
 _atom_site_fract_z
 _atom_site_occupancy
  Dy  Dy0  1  0.428279  0.227503  0.200799  1
  Dy  Dy1  1  0.571721  0.772497  0.799201  1
  Dy  Dy2  1  0.026704  0.227503  0.799224  1
  Dy  Dy3  1  0.973296  0.772497  0.200776  1
  Dy  Dy4  1  0.179993  0.282710  0.462698  1
  Dy  Dy5  1  0.820007  0.717290  0.537302  1
  Dy  Dy6  1  0.179989  0.717290  0.897283  1
  Dy  Dy7  1  0.820011  0.282710  0.102717  1
  Dy  Dy8  1  0.322936  0.636123  0.313187  1
  Dy  Dy9  1  0.677064  0.363877  0.686813  1
  Dy  Dy10  1  0.322924  0.009738  0.686814  1
  Dy  Dy11  1  0.677076  0.990262  0.313186  1
  Zn  Zn12  1  0.000000  0.000000  0.000000  1
  Co  Co13  1  0.345976  0.000000  0.345976  1
  Co  Co14  1  0.654024  0.000000  0.654024  1
  Co  Co15  1  0.114199  0.614195  0.499996  1
  Co  Co16  1  0.885801  0.385805  0.500004  1
  Sb  Sb17  1  0.500000  0.500000  0.000000  1
