# generated using pymatgen
data_Eu2In4NiIr17
_symmetry_space_group_name_H-M   'P 1'
_cell_length_a   8.84240908
_cell_length_b   8.84240908
_cell_length_c   5.24748100
_cell_angle_alpha   90.00000000
_cell_angle_beta   90.00000000
_cell_angle_gamma   89.50325497
_symmetry_Int_Tables_number   1
_chemical_formula_structural   Eu2In4NiIr17
_chemical_formula_sum   'Eu2 In4 Ni1 Ir17'
_cell_volume   410.27566541
_cell_formula_units_Z   1
loop_
 _symmetry_equiv_pos_site_id
 _symmetry_equiv_pos_as_xyz
  1  'x, y, z'
loop_
 _atom_site_type_symbol
 _atom_site_label
 _atom_site_symmetry_multiplicity
 _atom_site_fract_x
 _atom_site_fract_y
 _atom_site_fract_z
 _atom_site_occupancy
  Eu  Eu0  1  0.000000  0.000000  0.000000  1
  Eu  Eu1  1  0.500000  0.500000  0.000000  1
  In  In2  1  0.375736  0.124264  0.000000  1
  In  In3  1  0.878885  0.378885  0.000000  1
  In  In4  1  0.121115  0.621115  0.000000  1
  In  In5  1  0.624264  0.875736  0.000000  1
  Ni  Ni6  1  0.000000  0.500000  0.500001  1
  Ir  Ir7  1  0.678386  0.178386  0.242961  1
  Ir  Ir8  1  0.175063  0.324937  0.242348  1
  Ir  Ir9  1  0.824937  0.675063  0.242348  1
  Ir  Ir10  1  0.321614  0.821614  0.242961  1
  Ir  Ir11  1  0.500000  0.000000  0.500001  1
  Ir  Ir12  1  0.201469  0.061932  0.500001  1
  Ir  Ir13  1  0.937921  0.208793  0.500001  1
  Ir  Ir14  1  0.438068  0.298531  0.500001  1
  Ir  Ir15  1  0.708793  0.437921  0.500001  1
  Ir  Ir16  1  0.291207  0.562079  0.500001  1
  Ir  Ir17  1  0.561932  0.701469  0.500001  1
  Ir  Ir18  1  0.062079  0.791207  0.500001  1
  Ir  Ir19  1  0.798531  0.938068  0.500001  1
  Ir  Ir20  1  0.678386  0.178386  0.757038  1
  Ir  Ir21  1  0.175063  0.324937  0.757651  1
  Ir  Ir22  1  0.824937  0.675063  0.757651  1
  Ir  Ir23  1  0.321614  0.821614  0.757038  1
