# generated using pymatgen
data_La5Er(GePd)6
_symmetry_space_group_name_H-M   'P 1'
_cell_length_a   4.50816186
_cell_length_b   7.79595506
_cell_length_c   12.05041797
_cell_angle_alpha   108.87689184
_cell_angle_beta   100.78092129
_cell_angle_gamma   89.99999833
_symmetry_Int_Tables_number   1
_chemical_formula_structural   La5Er(GePd)6
_chemical_formula_sum   'La5 Er1 Ge6 Pd6'
_cell_volume   392.83014528
_cell_formula_units_Z   1
loop_
 _symmetry_equiv_pos_site_id
 _symmetry_equiv_pos_as_xyz
  1  'x, y, z'
loop_
 _atom_site_type_symbol
 _atom_site_label
 _atom_site_symmetry_multiplicity
 _atom_site_fract_x
 _atom_site_fract_y
 _atom_site_fract_z
 _atom_site_occupancy
  La  La0  1  0.998022  0.523052  0.996045  1
  La  La1  1  0.498529  0.959698  0.997058  1
  La  La2  1  0.666707  0.194181  0.333416  1
  La  La3  1  0.169774  0.640787  0.339548  1
  La  La4  1  0.832386  0.286322  0.664771  1
  Er  Er5  1  0.334754  0.859805  0.669507  1
  Ge  Ge6  1  0.063774  0.221731  0.127548  1
  Ge  Ge7  1  0.586265  0.743894  0.172531  1
  Ge  Ge8  1  0.234856  0.065036  0.469712  1
  Ge  Ge9  1  0.769569  0.604175  0.539138  1
  Ge  Ge10  1  0.405954  0.571032  0.811909  1
  Ge  Ge11  1  0.933259  0.087078  0.866519  1
  Pd  Pd12  1  0.575847  0.401583  0.151695  1
  Pd  Pd13  1  0.101858  0.927653  0.203717  1
  Pd  Pd14  1  0.748177  0.908689  0.496354  1
  Pd  Pd15  1  0.266820  0.434606  0.533640  1
  Pd  Pd16  1  0.892996  0.723540  0.785991  1
  Pd  Pd17  1  0.420451  0.240759  0.840902  1
