# generated using pymatgen
data_Er2ZnP6(Ir3Rh)3
_symmetry_space_group_name_H-M   'P 1'
_cell_length_a   9.65378300
_cell_length_b   9.65378251
_cell_length_c   3.94528900
_cell_angle_alpha   90.00000000
_cell_angle_beta   90.00000000
_cell_angle_gamma   119.99999875
_symmetry_Int_Tables_number   1
_chemical_formula_structural   Er2ZnP6(Ir3Rh)3
_chemical_formula_sum   'Er2 Zn1 P6 Ir9 Rh3'
_cell_volume   318.42305263
_cell_formula_units_Z   1
loop_
 _symmetry_equiv_pos_site_id
 _symmetry_equiv_pos_as_xyz
  1  'x, y, z'
loop_
 _atom_site_type_symbol
 _atom_site_label
 _atom_site_symmetry_multiplicity
 _atom_site_fract_x
 _atom_site_fract_y
 _atom_site_fract_z
 _atom_site_occupancy
  Er  Er0  1  0.333333  0.666667  0.748252  1
  Er  Er1  1  0.666667  0.333333  0.243716  1
  Zn  Zn2  1  0.000000  0.000000  0.585978  1
  P  P3  1  0.407347  0.285112  0.744519  1
  P  P4  1  0.714888  0.122235  0.744519  1
  P  P5  1  0.877765  0.592653  0.744519  1
  P  P6  1  0.599602  0.721059  0.247059  1
  P  P7  1  0.278941  0.878541  0.247059  1
  P  P8  1  0.121459  0.400398  0.247059  1
  Ir  Ir9  1  0.453209  0.070693  0.745317  1
  Ir  Ir10  1  0.929307  0.382515  0.745317  1
  Ir  Ir11  1  0.617485  0.546791  0.745317  1
  Ir  Ir12  1  0.540001  0.933224  0.246648  1
  Ir  Ir13  1  0.066776  0.606777  0.246648  1
  Ir  Ir14  1  0.393223  0.459999  0.246648  1
  Ir  Ir15  1  0.168535  0.292785  0.748762  1
  Ir  Ir16  1  0.707215  0.875750  0.748762  1
  Ir  Ir17  1  0.124250  0.831465  0.748762  1
  Rh  Rh18  1  0.845457  0.723150  0.241713  1
  Rh  Rh19  1  0.276850  0.122307  0.241713  1
  Rh  Rh20  1  0.877693  0.154543  0.241713  1
