# generated using pymatgen
data_CePr3(CrSe3)4
_symmetry_space_group_name_H-M   'P 1'
_cell_length_a   3.97797600
_cell_length_b   8.24485469
_cell_length_c   13.75583225
_cell_angle_alpha   90.05621308
_cell_angle_beta   90.00000000
_cell_angle_gamma   90.00000000
_symmetry_Int_Tables_number   1
_chemical_formula_structural   CePr3(CrSe3)4
_chemical_formula_sum   'Ce1 Pr3 Cr4 Se12'
_cell_volume   451.16128665
_cell_formula_units_Z   1
loop_
 _symmetry_equiv_pos_site_id
 _symmetry_equiv_pos_as_xyz
  1  'x, y, z'
loop_
 _atom_site_type_symbol
 _atom_site_label
 _atom_site_symmetry_multiplicity
 _atom_site_fract_x
 _atom_site_fract_y
 _atom_site_fract_z
 _atom_site_occupancy
  Ce  Ce0  1  0.750000  0.405553  0.672824  1
  Pr  Pr1  1  0.250000  0.094600  0.171740  1
  Pr  Pr2  1  0.750000  0.905684  0.827845  1
  Pr  Pr3  1  0.250000  0.594189  0.328263  1
  Cr  Cr4  1  0.250000  0.337655  0.948367  1
  Cr  Cr5  1  0.750000  0.662324  0.050637  1
  Cr  Cr6  1  0.250000  0.837365  0.550966  1
  Cr  Cr7  1  0.750000  0.162852  0.449427  1
  Se  Se8  1  0.750000  0.011504  0.607664  1
  Se  Se9  1  0.250000  0.989471  0.392891  1
  Se  Se10  1  0.750000  0.511100  0.891762  1
  Se  Se11  1  0.250000  0.488785  0.107152  1
  Se  Se12  1  0.750000  0.309143  0.288084  1
  Se  Se13  1  0.250000  0.689836  0.712086  1
  Se  Se14  1  0.750000  0.809259  0.212020  1
  Se  Se15  1  0.250000  0.190533  0.787137  1
  Se  Se16  1  0.750000  0.157345  0.003516  1
  Se  Se17  1  0.250000  0.842742  0.995655  1
  Se  Se18  1  0.750000  0.657011  0.495958  1
  Se  Se19  1  0.250000  0.343047  0.506007  1
