# generated using pymatgen
data_Ho3Er3TcIr
_symmetry_space_group_name_H-M   'P 1'
_cell_length_a   6.28622194
_cell_length_b   7.29600800
_cell_length_c   9.08377170
_cell_angle_alpha   90.00000000
_cell_angle_beta   90.12832588
_cell_angle_gamma   90.00000000
_symmetry_Int_Tables_number   1
_chemical_formula_structural   Ho3Er3TcIr
_chemical_formula_sum   'Ho6 Er6 Tc2 Ir2'
_cell_volume   416.62001757
_cell_formula_units_Z   2
loop_
 _symmetry_equiv_pos_site_id
 _symmetry_equiv_pos_as_xyz
  1  'x, y, z'
loop_
 _atom_site_type_symbol
 _atom_site_label
 _atom_site_symmetry_multiplicity
 _atom_site_fract_x
 _atom_site_fract_y
 _atom_site_fract_z
 _atom_site_occupancy
  Ho  Ho0  1  0.329310  0.676640  0.065177  1
  Ho  Ho1  1  0.170690  0.176640  0.434823  1
  Ho  Ho2  1  0.873324  0.538191  0.250001  1
  Ho  Ho3  1  0.626676  0.038191  0.249999  1
  Ho  Ho4  1  0.133127  0.460224  0.750099  1
  Ho  Ho5  1  0.366873  0.960224  0.749901  1
  Er  Er6  1  0.668496  0.323774  0.560902  1
  Er  Er7  1  0.831504  0.823774  0.939098  1
  Er  Er8  1  0.668263  0.323687  0.938976  1
  Er  Er9  1  0.831737  0.823687  0.561024  1
  Er  Er10  1  0.329899  0.676398  0.434867  1
  Er  Er11  1  0.170101  0.176398  0.065133  1
  Tc  Tc12  1  0.036072  0.886149  0.250052  1
  Tc  Tc13  1  0.463928  0.386149  0.249948  1
  Ir  Ir14  1  0.955543  0.114936  0.750456  1
  Ir  Ir15  1  0.544457  0.614936  0.749544  1
