# generated using pymatgen
data_Lu10Ga4SbTe
_symmetry_space_group_name_H-M   'P 1'
_cell_length_a   8.49160306
_cell_length_b   8.49160130
_cell_length_c   6.33182700
_cell_angle_alpha   90.00000000
_cell_angle_beta   90.00000000
_cell_angle_gamma   119.82961700
_symmetry_Int_Tables_number   1
_chemical_formula_structural   Lu10Ga4SbTe
_chemical_formula_sum   'Lu10 Ga4 Sb1 Te1'
_cell_volume   396.07919541
_cell_formula_units_Z   1
loop_
 _symmetry_equiv_pos_site_id
 _symmetry_equiv_pos_as_xyz
  1  'x, y, z'
loop_
 _atom_site_type_symbol
 _atom_site_label
 _atom_site_symmetry_multiplicity
 _atom_site_fract_x
 _atom_site_fract_y
 _atom_site_fract_z
 _atom_site_occupancy
  Lu  Lu0  1  0.678907  0.322893  0.001581  1
  Lu  Lu1  1  0.322893  0.678907  0.001581  1
  Lu  Lu2  1  0.322893  0.678907  0.498419  1
  Lu  Lu3  1  0.678907  0.322893  0.498419  1
  Lu  Lu4  1  0.768043  0.768043  0.750000  1
  Lu  Lu5  1  0.232066  0.981446  0.750000  1
  Lu  Lu6  1  0.981446  0.232066  0.750000  1
  Lu  Lu7  1  0.233934  0.233934  0.250000  1
  Lu  Lu8  1  0.767766  0.016053  0.250000  1
  Lu  Lu9  1  0.016053  0.767766  0.250000  1
  Ga  Ga10  1  0.598583  0.991862  0.750000  1
  Ga  Ga11  1  0.991862  0.598583  0.750000  1
  Ga  Ga12  1  0.402138  0.006842  0.250000  1
  Ga  Ga13  1  0.006842  0.402138  0.250000  1
  Sb  Sb14  1  0.607913  0.607913  0.250000  1
  Te  Te15  1  0.389754  0.389754  0.750000  1
