# generated using pymatgen
data_Rb6(RhO3)5
_symmetry_space_group_name_H-M   'P 1'
_cell_length_a   7.76721347
_cell_length_b   7.76720856
_cell_length_c   7.76721159
_cell_angle_alpha   90.53955550
_cell_angle_beta   90.53951091
_cell_angle_gamma   90.53957033
_symmetry_Int_Tables_number   1
_chemical_formula_structural   Rb6(RhO3)5
_chemical_formula_sum   'Rb6 Rh5 O15'
_cell_volume   468.52978813
_cell_formula_units_Z   1
loop_
 _symmetry_equiv_pos_site_id
 _symmetry_equiv_pos_as_xyz
  1  'x, y, z'
loop_
 _atom_site_type_symbol
 _atom_site_label
 _atom_site_symmetry_multiplicity
 _atom_site_fract_x
 _atom_site_fract_y
 _atom_site_fract_z
 _atom_site_occupancy
  Rb  Rb0  1  0.317492  0.682487  0.000003  1
  Rb  Rb1  1  0.000003  0.317494  0.682486  1
  Rb  Rb2  1  0.682486  0.000002  0.317494  1
  Rb  Rb3  1  0.146335  0.853508  0.500129  1
  Rb  Rb4  1  0.500129  0.146336  0.853508  1
  Rb  Rb5  1  0.853507  0.500129  0.146335  1
  Rh  Rh6  1  0.500021  0.500020  0.500020  1
  Rh  Rh7  1  0.295646  0.295646  0.295646  1
  Rh  Rh8  1  0.704345  0.704345  0.704345  1
  Rh  Rh9  1  0.101273  0.101273  0.101273  1
  Rh  Rh10  1  0.898685  0.898685  0.898686  1
  O  O11  1  0.134651  0.000115  0.865489  1
  O  O12  1  0.865490  0.134651  0.000116  1
  O  O13  1  0.000115  0.865490  0.134651  1
  O  O14  1  0.049705  0.217624  0.325178  1
  O  O15  1  0.325178  0.049705  0.217624  1
  O  O16  1  0.217624  0.325178  0.049705  1
  O  O17  1  0.782378  0.950427  0.674675  1
  O  O18  1  0.674675  0.782379  0.950427  1
  O  O19  1  0.950427  0.674675  0.782379  1
  O  O20  1  0.350558  0.294609  0.547179  1
  O  O21  1  0.547179  0.350558  0.294609  1
  O  O22  1  0.294610  0.547179  0.350558  1
  O  O23  1  0.705365  0.649401  0.452720  1
  O  O24  1  0.452720  0.705365  0.649401  1
  O  O25  1  0.649402  0.452720  0.705365  1
