# generated using pymatgen
data_La12Mn2Br17
_symmetry_space_group_name_H-M   'P 1'
_cell_length_a   9.45341419
_cell_length_b   11.63813008
_cell_length_c   11.74860648
_cell_angle_alpha   73.07141780
_cell_angle_beta   74.42937227
_cell_angle_gamma   67.08809148
_symmetry_Int_Tables_number   1
_chemical_formula_structural   La12Mn2Br17
_chemical_formula_sum   'La12 Mn2 Br17'
_cell_volume   1121.23863877
_cell_formula_units_Z   1
loop_
 _symmetry_equiv_pos_site_id
 _symmetry_equiv_pos_as_xyz
  1  'x, y, z'
loop_
 _atom_site_type_symbol
 _atom_site_label
 _atom_site_symmetry_multiplicity
 _atom_site_fract_x
 _atom_site_fract_y
 _atom_site_fract_z
 _atom_site_occupancy
  La  La0  1  0.452847  0.471709  0.327686  1
  La  La1  1  0.571175  0.671159  0.995387  1
  La  La2  1  0.280169  0.003713  0.090680  1
  La  La3  1  0.848807  0.284415  0.849307  1
  La  La4  1  0.402319  0.236970  0.723300  1
  La  La5  1  0.719831  0.996287  0.909320  1
  La  La6  1  0.547153  0.528291  0.672314  1
  La  La7  1  0.428825  0.328841  0.004613  1
  La  La8  1  0.597681  0.763030  0.276700  1
  La  La9  1  0.840370  0.189210  0.571211  1
  La  La10  1  0.159630  0.810790  0.428789  1
  La  La11  1  0.151193  0.715585  0.150693  1
  Mn  Mn12  1  0.351558  0.734474  0.206968  1
  Mn  Mn13  1  0.648442  0.265526  0.793032  1
  Br  Br14  1  0.063252  0.094734  0.320991  1
  Br  Br15  1  0.463625  0.945854  0.829244  1
  Br  Br16  1  0.422894  0.819050  0.524116  1
  Br  Br17  1  0.577106  0.180950  0.475884  1
  Br  Br18  1  0.856076  0.694107  0.054156  1
  Br  Br19  1  0.213814  0.422049  0.246480  1
  Br  Br20  1  0.677524  0.372392  0.101089  1
  Br  Br21  1  0.536375  0.054146  0.170756  1
  Br  Br22  1  0.732075  0.478099  0.416689  1
  Br  Br23  1  0.887117  0.783623  0.367735  1
  Br  Br24  1  0.936748  0.905266  0.679009  1
  Br  Br25  1  0.143924  0.305893  0.945844  1
  Br  Br26  1  0.322476  0.627608  0.898911  1
  Br  Br27  1  0.000000  0.000000  0.000000  1
  Br  Br28  1  0.112883  0.216377  0.632265  1
  Br  Br29  1  0.786186  0.577951  0.753520  1
  Br  Br30  1  0.267925  0.521901  0.583311  1
