# generated using pymatgen
data_Y4Er8InCo4Rh
_symmetry_space_group_name_H-M   'P 1'
_cell_length_a   8.30115547
_cell_length_b   8.30105483
_cell_length_c   8.30115648
_cell_angle_alpha   110.54332315
_cell_angle_beta   110.64846961
_cell_angle_gamma   107.24503806
_symmetry_Int_Tables_number   1
_chemical_formula_structural   Y4Er8InCo4Rh
_chemical_formula_sum   'Y4 Er8 In1 Co4 Rh1'
_cell_volume   439.84122696
_cell_formula_units_Z   1
loop_
 _symmetry_equiv_pos_site_id
 _symmetry_equiv_pos_as_xyz
  1  'x, y, z'
loop_
 _atom_site_type_symbol
 _atom_site_label
 _atom_site_symmetry_multiplicity
 _atom_site_fract_x
 _atom_site_fract_y
 _atom_site_fract_z
 _atom_site_occupancy
  Y  Y0  1  0.188531  0.291682  0.480212  1
  Y  Y1  1  0.811469  0.708318  0.519788  1
  Y  Y2  1  0.188530  0.708318  0.896849  1
  Y  Y3  1  0.811470  0.291682  0.103151  1
  Er  Er4  1  0.314023  0.621029  0.307006  1
  Er  Er5  1  0.685977  0.378971  0.692994  1
  Er  Er6  1  0.314024  0.007018  0.692994  1
  Er  Er7  1  0.685976  0.992982  0.307006  1
  Er  Er8  1  0.405841  0.211724  0.194116  1
  Er  Er9  1  0.594159  0.788276  0.805884  1
  Er  Er10  1  0.017609  0.211724  0.805883  1
  Er  Er11  1  0.982391  0.788276  0.194117  1
  In  In12  1  0.500000  0.500000  0.000000  1
  Co  Co13  1  0.112341  0.612343  0.500003  1
  Co  Co14  1  0.887659  0.387657  0.499997  1
  Co  Co15  1  0.380157  0.000000  0.380157  1
  Co  Co16  1  0.619843  0.000000  0.619843  1
  Rh  Rh17  1  0.000000  0.000000  0.000000  1
