# generated using pymatgen
data_Y10Si4BiIr
_symmetry_space_group_name_H-M   'P 1'
_cell_length_a   8.89605596
_cell_length_b   8.89605500
_cell_length_c   8.89605700
_cell_angle_alpha   129.64171579
_cell_angle_beta   129.64171071
_cell_angle_gamma   73.98019809
_symmetry_Int_Tables_number   1
_chemical_formula_structural   Y10Si4BiIr
_chemical_formula_sum   'Y10 Si4 Bi1 Ir1'
_cell_volume   407.15006294
_cell_formula_units_Z   1
loop_
 _symmetry_equiv_pos_site_id
 _symmetry_equiv_pos_as_xyz
  1  'x, y, z'
loop_
 _atom_site_type_symbol
 _atom_site_label
 _atom_site_symmetry_multiplicity
 _atom_site_fract_x
 _atom_site_fract_y
 _atom_site_fract_z
 _atom_site_occupancy
  Y  Y0  1  0.982017  0.982017  0.000000  1
  Y  Y1  1  0.517983  0.517983  0.000000  1
  Y  Y2  1  0.835932  0.290231  0.843660  1
  Y  Y3  1  0.209769  0.664068  0.156340  1
  Y  Y4  1  0.446572  0.992275  0.156340  1
  Y  Y5  1  0.290231  0.446572  0.454298  1
  Y  Y6  1  0.053428  0.209769  0.545702  1
  Y  Y7  1  0.507725  0.053428  0.843660  1
  Y  Y8  1  0.664068  0.507725  0.454298  1
  Y  Y9  1  0.992275  0.835932  0.545702  1
  Si  Si10  1  0.124256  0.624256  0.748514  1
  Si  Si11  1  0.875744  0.375744  0.251486  1
  Si  Si12  1  0.624256  0.875744  0.500000  1
  Si  Si13  1  0.375744  0.124256  0.500000  1
  Bi  Bi14  1  0.750000  0.750000  0.000000  1
  Ir  Ir15  1  0.250000  0.250000  0.000000  1
