# generated using pymatgen
data_Er4Si2B8Mo
_symmetry_space_group_name_H-M   'P 1'
_cell_length_a   7.08524500
_cell_length_b   7.08524500
_cell_length_c   7.56767400
_cell_angle_alpha   90.00000000
_cell_angle_beta   90.00000000
_cell_angle_gamma   90.00000000
_symmetry_Int_Tables_number   1
_chemical_formula_structural   Er4Si2B8Mo
_chemical_formula_sum   'Er8 Si4 B16 Mo2'
_cell_volume   379.90250727
_cell_formula_units_Z   2
loop_
 _symmetry_equiv_pos_site_id
 _symmetry_equiv_pos_as_xyz
  1  'x, y, z'
loop_
 _atom_site_type_symbol
 _atom_site_label
 _atom_site_symmetry_multiplicity
 _atom_site_fract_x
 _atom_site_fract_y
 _atom_site_fract_z
 _atom_site_occupancy
  Er  Er0  1  0.679630  0.179630  0.237311  1
  Er  Er1  1  0.320370  0.820370  0.762689  1
  Er  Er2  1  0.320370  0.820370  0.237311  1
  Er  Er3  1  0.820370  0.679630  0.237311  1
  Er  Er4  1  0.820370  0.679630  0.762689  1
  Er  Er5  1  0.679630  0.179630  0.762689  1
  Er  Er6  1  0.179630  0.320370  0.762689  1
  Er  Er7  1  0.179630  0.320370  0.237311  1
  Si  Si8  1  0.123975  0.623975  0.500000  1
  Si  Si9  1  0.876025  0.376025  0.500000  1
  Si  Si10  1  0.376025  0.123975  0.500000  1
  Si  Si11  1  0.623975  0.876025  0.500000  1
  B  B12  1  0.172228  0.039172  0.000000  1
  B  B13  1  0.827772  0.960828  0.000000  1
  B  B14  1  0.960828  0.172228  0.000000  1
  B  B15  1  0.327772  0.539172  0.000000  1
  B  B16  1  0.039172  0.827772  0.000000  1
  B  B17  1  0.672228  0.460828  0.000000  1
  B  B18  1  0.539172  0.672228  0.000000  1
  B  B19  1  0.460828  0.327772  0.000000  1
  B  B20  1  0.089638  0.589638  0.000000  1
  B  B21  1  0.910362  0.410362  0.000000  1
  B  B22  1  0.410362  0.089638  0.000000  1
  B  B23  1  0.589638  0.910362  0.000000  1
  B  B24  1  0.000000  0.000000  0.176925  1
  B  B25  1  0.000000  0.000000  0.823075  1
  B  B26  1  0.500000  0.500000  0.823075  1
  B  B27  1  0.500000  0.500000  0.176925  1
  Mo  Mo28  1  0.000000  0.000000  0.500000  1
  Mo  Mo29  1  0.500000  0.500000  0.500000  1
