# generated using pymatgen
data_K3Si4Au
_symmetry_space_group_name_H-M   'P 1'
_cell_length_a   5.95447100
_cell_length_b   6.66948500
_cell_length_c   12.08620000
_cell_angle_alpha   90.00000000
_cell_angle_beta   90.00000000
_cell_angle_gamma   90.00000000
_symmetry_Int_Tables_number   1
_chemical_formula_structural   K3Si4Au
_chemical_formula_sum   'K6 Si8 Au2'
_cell_volume   479.98234279
_cell_formula_units_Z   2
loop_
 _symmetry_equiv_pos_site_id
 _symmetry_equiv_pos_as_xyz
  1  'x, y, z'
loop_
 _atom_site_type_symbol
 _atom_site_label
 _atom_site_symmetry_multiplicity
 _atom_site_fract_x
 _atom_site_fract_y
 _atom_site_fract_z
 _atom_site_occupancy
  K  K0  1  0.424209  0.500000  0.500000  1
  K  K1  1  0.575791  0.000000  0.000000  1
  K  K2  1  0.166141  0.000000  0.766199  1
  K  K3  1  0.166141  0.000000  0.233801  1
  K  K4  1  0.833859  0.500000  0.733801  1
  K  K5  1  0.833859  0.500000  0.266199  1
  Si  Si6  1  0.325734  0.500000  0.107187  1
  Si  Si7  1  0.325734  0.500000  0.892813  1
  Si  Si8  1  0.062765  0.305889  0.000000  1
  Si  Si9  1  0.062765  0.694111  0.000000  1
  Si  Si10  1  0.937235  0.805889  0.500000  1
  Si  Si11  1  0.937235  0.194111  0.500000  1
  Si  Si12  1  0.674266  0.000000  0.392813  1
  Si  Si13  1  0.674266  0.000000  0.607187  1
  Au  Au14  1  0.693228  0.500000  0.000000  1
  Au  Au15  1  0.306772  0.000000  0.500000  1
