# generated using pymatgen
data_La9Pr3(NdSn2)8
_symmetry_space_group_name_H-M   'P 1'
_cell_length_a   8.32004100
_cell_length_b   8.47448808
_cell_length_c   16.03296900
_cell_angle_alpha   90.00752496
_cell_angle_beta   89.99803047
_cell_angle_gamma   90.00169726
_symmetry_Int_Tables_number   1
_chemical_formula_structural   La9Pr3(NdSn2)8
_chemical_formula_sum   'La9 Pr3 Nd8 Sn16'
_cell_volume   1130.45398296
_cell_formula_units_Z   1
loop_
 _symmetry_equiv_pos_site_id
 _symmetry_equiv_pos_as_xyz
  1  'x, y, z'
loop_
 _atom_site_type_symbol
 _atom_site_label
 _atom_site_symmetry_multiplicity
 _atom_site_fract_x
 _atom_site_fract_y
 _atom_site_fract_z
 _atom_site_occupancy
  La  La0  1  0.868397  0.664382  0.879971  1
  La  La1  1  0.517735  0.318620  0.901372  1
  La  La2  1  0.018482  0.180972  0.598477  1
  La  La3  1  0.481385  0.680909  0.401203  1
  La  La4  1  0.981575  0.819187  0.098859  1
  La  La5  1  0.481474  0.680692  0.098999  1
  La  La6  1  0.981546  0.818965  0.401200  1
  La  La7  1  0.518250  0.318980  0.598599  1
  La  La8  1  0.018878  0.180684  0.901290  1
  Pr  Pr9  1  0.697325  0.997830  0.749846  1
  Pr  Pr10  1  0.802283  0.498002  0.250185  1
  Pr  Pr11  1  0.302381  0.002128  0.250103  1
  Nd  Nd12  1  0.367261  0.835875  0.879515  1
  Nd  Nd13  1  0.867531  0.664422  0.620313  1
  Nd  Nd14  1  0.632659  0.164254  0.379481  1
  Nd  Nd15  1  0.132650  0.335891  0.120844  1
  Nd  Nd16  1  0.632386  0.164256  0.120659  1
  Nd  Nd17  1  0.132677  0.335659  0.379262  1
  Nd  Nd18  1  0.367575  0.835581  0.620336  1
  Nd  Nd19  1  0.197848  0.501948  0.749998  1
  Sn  Sn20  1  0.293875  0.036268  0.042285  1
  Sn  Sn21  1  0.794150  0.463961  0.457669  1
  Sn  Sn22  1  0.706014  0.963977  0.542214  1
  Sn  Sn23  1  0.208629  0.535577  0.958389  1
  Sn  Sn24  1  0.704223  0.966147  0.958081  1
  Sn  Sn25  1  0.205955  0.536360  0.541942  1
  Sn  Sn26  1  0.294018  0.036116  0.457632  1
  Sn  Sn27  1  0.793706  0.462691  0.043489  1
  Sn  Sn28  1  0.566275  0.616573  0.749180  1
  Sn  Sn29  1  0.068705  0.884476  0.749452  1
  Sn  Sn30  1  0.432498  0.383274  0.249962  1
  Sn  Sn31  1  0.932317  0.116646  0.249991  1
  Sn  Sn32  1  0.322229  0.141027  0.749878  1
  Sn  Sn33  1  0.821639  0.357434  0.749314  1
  Sn  Sn34  1  0.677882  0.859113  0.250021  1
  Sn  Sn35  1  0.177585  0.641121  0.249987  1
