# generated using pymatgen
data_Sc4Ga2OsAu
_symmetry_space_group_name_H-M   'P 1'
_cell_length_a   6.76940400
_cell_length_b   6.52550000
_cell_length_c   6.76631100
_cell_angle_alpha   90.00000000
_cell_angle_beta   89.99985608
_cell_angle_gamma   90.00000000
_symmetry_Int_Tables_number   1
_chemical_formula_structural   Sc4Ga2OsAu
_chemical_formula_sum   'Sc8 Ga4 Os2 Au2'
_cell_volume   298.89330213
_cell_formula_units_Z   2
loop_
 _symmetry_equiv_pos_site_id
 _symmetry_equiv_pos_as_xyz
  1  'x, y, z'
loop_
 _atom_site_type_symbol
 _atom_site_label
 _atom_site_symmetry_multiplicity
 _atom_site_fract_x
 _atom_site_fract_y
 _atom_site_fract_z
 _atom_site_occupancy
  Sc  Sc0  1  0.761535  0.500589  0.261520  1
  Sc  Sc1  1  0.761535  0.999411  0.261520  1
  Sc  Sc2  1  0.238459  0.000591  0.261532  1
  Sc  Sc3  1  0.238459  0.499409  0.261532  1
  Sc  Sc4  1  0.761541  0.500590  0.738468  1
  Sc  Sc5  1  0.761541  0.999410  0.738468  1
  Sc  Sc6  1  0.238463  0.000590  0.738479  1
  Sc  Sc7  1  0.238463  0.499410  0.738479  1
  Ga  Ga8  1  0.998937  0.250000  0.999999  1
  Ga  Ga9  1  0.001062  0.750000  0.000001  1
  Ga  Ga10  1  0.498872  0.750000  0.499999  1
  Ga  Ga11  1  0.501128  0.250000  0.500000  1
  Os  Os12  1  0.999358  0.250000  0.500002  1
  Os  Os13  1  0.000643  0.750000  0.499998  1
  Au  Au14  1  0.500936  0.250000  0.999998  1
  Au  Au15  1  0.499065  0.750000  0.000002  1
