# generated using pymatgen
data_Pr2NdBi(Pt2O7)2
_symmetry_space_group_name_H-M   'P 1'
_cell_length_a   7.44921281
_cell_length_b   7.45266799
_cell_length_c   7.44921282
_cell_angle_alpha   60.23172477
_cell_angle_beta   60.22896957
_cell_angle_gamma   60.23171601
_symmetry_Int_Tables_number   1
_chemical_formula_structural   Pr2NdBi(Pt2O7)2
_chemical_formula_sum   'Pr2 Nd1 Bi1 Pt4 O14'
_cell_volume   293.95504414
_cell_formula_units_Z   1
loop_
 _symmetry_equiv_pos_site_id
 _symmetry_equiv_pos_as_xyz
  1  'x, y, z'
loop_
 _atom_site_type_symbol
 _atom_site_label
 _atom_site_symmetry_multiplicity
 _atom_site_fract_x
 _atom_site_fract_y
 _atom_site_fract_z
 _atom_site_occupancy
  Pr  Pr0  1  0.125000  0.125000  0.625000  1
  Pr  Pr1  1  0.625000  0.125000  0.125000  1
  Nd  Nd2  1  0.125000  0.625000  0.125000  1
  Bi  Bi3  1  0.125000  0.125000  0.125000  1
  Pt  Pt4  1  0.625000  0.625000  0.125000  1
  Pt  Pt5  1  0.625000  0.125000  0.625000  1
  Pt  Pt6  1  0.125000  0.625000  0.625000  1
  Pt  Pt7  1  0.625000  0.625000  0.625000  1
  O  O8  1  0.248832  0.252155  0.248832  1
  O  O9  1  0.001168  0.997845  0.001168  1
  O  O10  1  0.540055  0.959463  0.540055  1
  O  O11  1  0.291522  0.706891  0.291522  1
  O  O12  1  0.538848  0.540791  0.959730  1
  O  O13  1  0.959730  0.540791  0.538848  1
  O  O14  1  0.542469  0.958185  0.958223  1
  O  O15  1  0.958223  0.958185  0.542469  1
  O  O16  1  0.958478  0.543109  0.958478  1
  O  O17  1  0.707531  0.291815  0.291777  1
  O  O18  1  0.290270  0.709209  0.711152  1
  O  O19  1  0.709945  0.290537  0.709945  1
  O  O20  1  0.291777  0.291815  0.707531  1
  O  O21  1  0.711152  0.709209  0.290270  1
