# generated using pymatgen
data_Er2Tm2ZnPt3
_symmetry_space_group_name_H-M   'P 1'
_cell_length_a   4.53385700
_cell_length_b   5.51978453
_cell_length_c   7.00648637
_cell_angle_alpha   90.39029668
_cell_angle_beta   90.00000000
_cell_angle_gamma   90.00000000
_symmetry_Int_Tables_number   1
_chemical_formula_structural   Er2Tm2ZnPt3
_chemical_formula_sum   'Er2 Tm2 Zn1 Pt3'
_cell_volume   175.33965526
_cell_formula_units_Z   1
loop_
 _symmetry_equiv_pos_site_id
 _symmetry_equiv_pos_as_xyz
  1  'x, y, z'
loop_
 _atom_site_type_symbol
 _atom_site_label
 _atom_site_symmetry_multiplicity
 _atom_site_fract_x
 _atom_site_fract_y
 _atom_site_fract_z
 _atom_site_occupancy
  Er  Er0  1  0.250000  0.641378  0.186718  1
  Er  Er1  1  0.750000  0.369292  0.807980  1
  Tm  Tm2  1  0.750000  0.139897  0.329058  1
  Tm  Tm3  1  0.250000  0.849270  0.677754  1
  Zn  Zn4  1  0.250000  0.137764  0.032001  1
  Pt  Pt5  1  0.750000  0.872298  0.969461  1
  Pt  Pt6  1  0.750000  0.656399  0.454468  1
  Pt  Pt7  1  0.250000  0.333702  0.542560  1
