# generated using pymatgen
data_Nd3In3Cu2Pt
_symmetry_space_group_name_H-M   'P 1'
_cell_length_a   7.74356300
_cell_length_b   7.74356265
_cell_length_c   4.04906900
_cell_angle_alpha   90.00000000
_cell_angle_beta   90.00000000
_cell_angle_gamma   120.00001432
_symmetry_Int_Tables_number   1
_chemical_formula_structural   Nd3In3Cu2Pt
_chemical_formula_sum   'Nd3 In3 Cu2 Pt1'
_cell_volume   210.26519917
_cell_formula_units_Z   1
loop_
 _symmetry_equiv_pos_site_id
 _symmetry_equiv_pos_as_xyz
  1  'x, y, z'
loop_
 _atom_site_type_symbol
 _atom_site_label
 _atom_site_symmetry_multiplicity
 _atom_site_fract_x
 _atom_site_fract_y
 _atom_site_fract_z
 _atom_site_occupancy
  Nd  Nd0  1  0.007656  0.590792  0.500000  1
  Nd  Nd1  1  0.409208  0.416864  0.500000  1
  Nd  Nd2  1  0.583136  0.992344  0.500000  1
  In  In3  1  0.755443  0.748368  0.000000  1
  In  In4  1  0.992923  0.244557  0.000000  1
  In  In5  1  0.251632  0.007077  0.000000  1
  Cu  Cu6  1  0.000000  0.000000  0.500000  1
  Cu  Cu7  1  0.666667  0.333333  0.000000  1
  Pt  Pt8  1  0.333333  0.666667  0.000000  1
