# generated using pymatgen
data_ErLu(ScRh)2
_symmetry_space_group_name_H-M   'P 1'
_cell_length_a   4.25850900
_cell_length_b   7.13841500
_cell_length_c   8.52752600
_cell_angle_alpha   90.00000000
_cell_angle_beta   90.00000000
_cell_angle_gamma   90.00000000
_symmetry_Int_Tables_number   1
_chemical_formula_structural   ErLu(ScRh)2
_chemical_formula_sum   'Er2 Lu2 Sc4 Rh4'
_cell_volume   259.22830145
_cell_formula_units_Z   2
loop_
 _symmetry_equiv_pos_site_id
 _symmetry_equiv_pos_as_xyz
  1  'x, y, z'
loop_
 _atom_site_type_symbol
 _atom_site_label
 _atom_site_symmetry_multiplicity
 _atom_site_fract_x
 _atom_site_fract_y
 _atom_site_fract_z
 _atom_site_occupancy
  Er  Er0  1  0.750000  0.017925  0.670985  1
  Er  Er1  1  0.750000  0.517925  0.829015  1
  Lu  Lu2  1  0.250000  0.981048  0.328004  1
  Lu  Lu3  1  0.250000  0.481048  0.171996  1
  Sc  Sc4  1  0.250000  0.360371  0.567533  1
  Sc  Sc5  1  0.250000  0.860371  0.932467  1
  Sc  Sc6  1  0.750000  0.640870  0.428820  1
  Sc  Sc7  1  0.750000  0.140870  0.071180  1
  Rh  Rh8  1  0.250000  0.245527  0.900144  1
  Rh  Rh9  1  0.250000  0.745527  0.599856  1
  Rh  Rh10  1  0.750000  0.754259  0.103049  1
  Rh  Rh11  1  0.750000  0.254259  0.396951  1
