# generated using pymatgen
data_Sr6Sn8BiAs
_symmetry_space_group_name_H-M   'P 1'
_cell_length_a   8.98295471
_cell_length_b   8.98295469
_cell_length_c   8.98295463
_cell_angle_alpha   120.12777626
_cell_angle_beta   120.12778181
_cell_angle_gamma   89.77882435
_symmetry_Int_Tables_number   1
_chemical_formula_structural   Sr6Sn8BiAs
_chemical_formula_sum   'Sr6 Sn8 Bi1 As1'
_cell_volume   511.56345905
_cell_formula_units_Z   1
loop_
 _symmetry_equiv_pos_site_id
 _symmetry_equiv_pos_as_xyz
  1  'x, y, z'
loop_
 _atom_site_type_symbol
 _atom_site_label
 _atom_site_symmetry_multiplicity
 _atom_site_fract_x
 _atom_site_fract_y
 _atom_site_fract_z
 _atom_site_occupancy
  Sr  Sr0  1  0.262430  0.262430  0.000000  1
  Sr  Sr1  1  0.737570  0.737570  0.000000  1
  Sr  Sr2  1  0.178338  0.653058  0.831396  1
  Sr  Sr3  1  0.821662  0.346942  0.168604  1
  Sr  Sr4  1  0.653058  0.821662  0.474720  1
  Sr  Sr5  1  0.346942  0.178338  0.525280  1
  Sn  Sn6  1  0.834510  0.328302  0.786000  1
  Sn  Sn7  1  0.165490  0.671698  0.214000  1
  Sn  Sn8  1  0.542302  0.048511  0.214000  1
  Sn  Sn9  1  0.328302  0.542302  0.493791  1
  Sn  Sn10  1  0.951489  0.165490  0.493791  1
  Sn  Sn11  1  0.457698  0.951489  0.786000  1
  Sn  Sn12  1  0.671698  0.457698  0.506209  1
  Sn  Sn13  1  0.048511  0.834510  0.506209  1
  Bi  Bi14  1  0.000000  0.000000  0.000000  1
  As  As15  1  0.500000  0.500000  0.000000  1
