# generated using pymatgen
data_Ca5Ag2Rh
_symmetry_space_group_name_H-M   'P 1'
_cell_length_a   9.14022195
_cell_length_b   9.14022248
_cell_length_c   9.14022253
_cell_angle_alpha   128.38633881
_cell_angle_beta   128.64876035
_cell_angle_gamma   75.78829893
_symmetry_Int_Tables_number   1
_chemical_formula_structural   Ca5Ag2Rh
_chemical_formula_sum   'Ca10 Ag4 Rh2'
_cell_volume   454.65223942
_cell_formula_units_Z   2
loop_
 _symmetry_equiv_pos_site_id
 _symmetry_equiv_pos_as_xyz
  1  'x, y, z'
loop_
 _atom_site_type_symbol
 _atom_site_label
 _atom_site_symmetry_multiplicity
 _atom_site_fract_x
 _atom_site_fract_y
 _atom_site_fract_z
 _atom_site_occupancy
  Ca  Ca0  1  0.468127  0.959182  0.155400  1
  Ca  Ca1  1  0.196219  0.687274  0.155400  1
  Ca  Ca2  1  0.528545  0.015988  0.823208  1
  Ca  Ca3  1  0.028545  0.205338  0.512556  1
  Ca  Ca4  1  0.696219  0.540818  0.508945  1
  Ca  Ca5  1  0.968127  0.812726  0.508945  1
  Ca  Ca6  1  0.993824  0.986641  0.980465  1
  Ca  Ca7  1  0.493824  0.513359  0.007183  1
  Ca  Ca8  1  0.807219  0.294662  0.823208  1
  Ca  Ca9  1  0.307219  0.484012  0.512556  1
  Ag  Ag10  1  0.372677  0.127052  0.499730  1
  Ag  Ag11  1  0.872677  0.372948  0.245626  1
  Ag  Ag12  1  0.753191  0.750000  0.003191  1
  Ag  Ag13  1  0.253191  0.250000  0.003191  1
  Rh  Rh14  1  0.130199  0.629182  0.759380  1
  Rh  Rh15  1  0.630199  0.870818  0.501017  1
