# generated using pymatgen
data_SmPuCl6
_symmetry_space_group_name_H-M   'P 1'
_cell_length_a   7.51876159
_cell_length_b   4.20875100
_cell_length_c   7.48289121
_cell_angle_alpha   90.00000000
_cell_angle_beta   120.63713102
_cell_angle_gamma   90.00000000
_symmetry_Int_Tables_number   1
_chemical_formula_structural   SmPuCl6
_chemical_formula_sum   'Sm1 Pu1 Cl6'
_cell_volume   203.73958432
_cell_formula_units_Z   1
loop_
 _symmetry_equiv_pos_site_id
 _symmetry_equiv_pos_as_xyz
  1  'x, y, z'
loop_
 _atom_site_type_symbol
 _atom_site_label
 _atom_site_symmetry_multiplicity
 _atom_site_fract_x
 _atom_site_fract_y
 _atom_site_fract_z
 _atom_site_occupancy
  Sm  Sm0  1  0.333117  0.000000  0.666197  1
  Pu  Pu1  1  0.666614  0.500001  0.333670  1
  Cl  Cl2  1  0.694570  0.000000  0.086820  1
  Cl  Cl3  1  0.391354  0.000000  0.304783  1
  Cl  Cl4  1  0.087187  0.500001  0.392471  1
  Cl  Cl5  1  0.914749  0.000000  0.609588  1
  Cl  Cl6  1  0.606475  0.500001  0.695089  1
  Cl  Cl7  1  0.305935  0.500001  0.911383  1
