# generated using pymatgen
data_Cs12Li8Ti3SiAs12
_symmetry_space_group_name_H-M   'P 1'
_cell_length_a   10.34693924
_cell_length_b   10.34693962
_cell_length_c   17.22736151
_cell_angle_alpha   89.95379543
_cell_angle_beta   89.95379562
_cell_angle_gamma   142.80983892
_symmetry_Int_Tables_number   1
_chemical_formula_structural   Cs12Li8Ti3SiAs12
_chemical_formula_sum   'Cs12 Li8 Ti3 Si1 As12'
_cell_volume   1114.83457464
_cell_formula_units_Z   1
loop_
 _symmetry_equiv_pos_site_id
 _symmetry_equiv_pos_as_xyz
  1  'x, y, z'
loop_
 _atom_site_type_symbol
 _atom_site_label
 _atom_site_symmetry_multiplicity
 _atom_site_fract_x
 _atom_site_fract_y
 _atom_site_fract_z
 _atom_site_occupancy
  Cs  Cs0  1  0.104282  0.449318  0.664519  1
  Cs  Cs1  1  0.716053  0.713419  0.677101  1
  Cs  Cs2  1  0.213212  0.213436  0.823837  1
  Cs  Cs3  1  0.786564  0.786788  0.176163  1
  Cs  Cs4  1  0.947418  0.605584  0.832854  1
  Cs  Cs5  1  0.550682  0.895718  0.335481  1
  Cs  Cs6  1  0.394416  0.052582  0.167146  1
  Cs  Cs7  1  0.052478  0.394955  0.168393  1
  Cs  Cs8  1  0.894738  0.556909  0.336656  1
  Cs  Cs9  1  0.443091  0.105262  0.663344  1
  Cs  Cs10  1  0.605045  0.947523  0.831607  1
  Cs  Cs11  1  0.286581  0.283947  0.322899  1
  Li  Li12  1  0.918379  0.081621  0.000000  1
  Li  Li13  1  0.583473  0.416527  0.500000  1
  Li  Li14  1  0.081394  0.918606  0.000000  1
  Li  Li15  1  0.420656  0.579344  0.500000  1
  Li  Li16  1  0.749466  0.250534  0.000000  1
  Li  Li17  1  0.750770  0.249230  0.500000  1
  Li  Li18  1  0.250719  0.749281  0.000000  1
  Li  Li19  1  0.248919  0.751081  0.500000  1
  Ti  Ti20  1  0.413781  0.586219  0.000000  1
  Ti  Ti21  1  0.917614  0.082386  0.500000  1
  Ti  Ti22  1  0.586018  0.413982  0.000000  1
  Si  Si23  1  0.083758  0.916242  0.500000  1
  As  As24  1  0.887218  0.568319  0.077312  1
  As  As25  1  0.431681  0.112782  0.922688  1
  As  As26  1  0.615892  0.931329  0.577105  1
  As  As27  1  0.934665  0.623299  0.577157  1
  As  As28  1  0.112846  0.431949  0.922467  1
  As  As29  1  0.568051  0.887154  0.077533  1
  As  As30  1  0.376701  0.065335  0.422843  1
  As  As31  1  0.213655  0.208633  0.577427  1
  As  As32  1  0.714974  0.715226  0.924503  1
  As  As33  1  0.284774  0.285026  0.075497  1
  As  As34  1  0.068671  0.384108  0.422895  1
  As  As35  1  0.791367  0.786345  0.422573  1
