# generated using pymatgen
data_ThNpS6
_symmetry_space_group_name_H-M   'P 1'
_cell_length_a   5.46542661
_cell_length_b   4.00250800
_cell_length_c   9.42547700
_cell_angle_alpha   90.00000000
_cell_angle_beta   94.40650609
_cell_angle_gamma   90.00000000
_symmetry_Int_Tables_number   1
_chemical_formula_structural   ThNpS6
_chemical_formula_sum   'Th1 Np1 S6'
_cell_volume   205.57672975
_cell_formula_units_Z   1
loop_
 _symmetry_equiv_pos_site_id
 _symmetry_equiv_pos_as_xyz
  1  'x, y, z'
loop_
 _atom_site_type_symbol
 _atom_site_label
 _atom_site_symmetry_multiplicity
 _atom_site_fract_x
 _atom_site_fract_y
 _atom_site_fract_z
 _atom_site_occupancy
  Th  Th0  1  0.230722  0.250000  0.853926  1
  Np  Np1  1  0.770196  0.750001  0.148133  1
  S  S2  1  0.260269  0.750001  0.069046  1
  S  S3  1  0.984113  0.250000  0.315792  1
  S  S4  1  0.607477  0.250000  0.318566  1
  S  S5  1  0.393551  0.750001  0.671434  1
  S  S6  1  0.010735  0.750001  0.675937  1
  S  S7  1  0.742934  0.250000  0.947168  1
