# generated using pymatgen
data_Ac6TeO12
_symmetry_space_group_name_H-M   'P 1'
_cell_length_a   7.08569928
_cell_length_b   7.08569940
_cell_length_c   7.08569948
_cell_angle_alpha   98.57738725
_cell_angle_beta   98.57739104
_cell_angle_gamma   98.57738901
_symmetry_Int_Tables_number   1
_chemical_formula_structural   Ac6TeO12
_chemical_formula_sum   'Ac6 Te1 O12'
_cell_volume   342.45365194
_cell_formula_units_Z   1
loop_
 _symmetry_equiv_pos_site_id
 _symmetry_equiv_pos_as_xyz
  1  'x, y, z'
loop_
 _atom_site_type_symbol
 _atom_site_label
 _atom_site_symmetry_multiplicity
 _atom_site_fract_x
 _atom_site_fract_y
 _atom_site_fract_z
 _atom_site_occupancy
  Ac  Ac0  1  0.856463  0.397600  0.697956  1
  Ac  Ac1  1  0.143537  0.602400  0.302044  1
  Ac  Ac2  1  0.602400  0.302044  0.143537  1
  Ac  Ac3  1  0.397600  0.697956  0.856463  1
  Ac  Ac4  1  0.697956  0.856463  0.397600  1
  Ac  Ac5  1  0.302044  0.143537  0.602400  1
  Te  Te6  1  0.000000  0.000000  0.000000  1
  O  O7  1  0.277312  0.066388  0.971818  1
  O  O8  1  0.028182  0.722688  0.933612  1
  O  O9  1  0.066388  0.971818  0.277312  1
  O  O10  1  0.822385  0.555133  0.403307  1
  O  O11  1  0.596693  0.177615  0.444867  1
  O  O12  1  0.555133  0.403307  0.822385  1
  O  O13  1  0.403307  0.822385  0.555133  1
  O  O14  1  0.971818  0.277312  0.066388  1
  O  O15  1  0.933612  0.028182  0.722688  1
  O  O16  1  0.444867  0.596693  0.177615  1
  O  O17  1  0.722688  0.933612  0.028182  1
  O  O18  1  0.177615  0.444867  0.596693  1
