# generated using pymatgen
data_Nd3SbTe2
_symmetry_space_group_name_H-M   'P 1'
_cell_length_a   7.77738793
_cell_length_b   7.77738771
_cell_length_c   7.77738807
_cell_angle_alpha   146.10102022
_cell_angle_beta   131.35493340
_cell_angle_gamma   60.61051543
_symmetry_Int_Tables_number   1
_chemical_formula_structural   Nd3SbTe2
_chemical_formula_sum   'Nd3 Sb1 Te2'
_cell_volume   195.07065623
_cell_formula_units_Z   1
loop_
 _symmetry_equiv_pos_site_id
 _symmetry_equiv_pos_as_xyz
  1  'x, y, z'
loop_
 _atom_site_type_symbol
 _atom_site_label
 _atom_site_symmetry_multiplicity
 _atom_site_fract_x
 _atom_site_fract_y
 _atom_site_fract_z
 _atom_site_occupancy
  Nd  Nd0  1  0.000000  0.000000  0.000000  1
  Nd  Nd1  1  0.659814  0.659814  0.000000  1
  Nd  Nd2  1  0.340186  0.340186  0.000000  1
  Sb  Sb3  1  0.500000  0.000000  0.500000  1
  Te  Te4  1  0.168138  0.668138  0.500000  1
  Te  Te5  1  0.831862  0.331862  0.500000  1
