# generated using pymatgen
data_NaSrRhF6
_symmetry_space_group_name_H-M   'P 1'
_cell_length_a   5.54391700
_cell_length_b   9.58291700
_cell_length_c   10.52462900
_cell_angle_alpha   90.00000000
_cell_angle_beta   90.00000000
_cell_angle_gamma   90.00000000
_symmetry_Int_Tables_number   1
_chemical_formula_structural   NaSrRhF6
_chemical_formula_sum   'Na4 Sr4 Rh4 F24'
_cell_volume   559.14087522
_cell_formula_units_Z   4
loop_
 _symmetry_equiv_pos_site_id
 _symmetry_equiv_pos_as_xyz
  1  'x, y, z'
loop_
 _atom_site_type_symbol
 _atom_site_label
 _atom_site_symmetry_multiplicity
 _atom_site_fract_x
 _atom_site_fract_y
 _atom_site_fract_z
 _atom_site_occupancy
  Na  Na0  1  0.041821  0.650311  0.088595  1
  Na  Na1  1  0.458179  0.349689  0.588595  1
  Na  Na2  1  0.958179  0.150311  0.411405  1
  Na  Na3  1  0.541821  0.849689  0.911405  1
  Sr  Sr4  1  0.506919  0.318454  0.171736  1
  Sr  Sr5  1  0.993081  0.681546  0.671736  1
  Sr  Sr6  1  0.493081  0.818454  0.328264  1
  Sr  Sr7  1  0.006919  0.181546  0.828264  1
  Rh  Rh8  1  0.036618  0.999302  0.127671  1
  Rh  Rh9  1  0.463382  0.000698  0.627671  1
  Rh  Rh10  1  0.963382  0.499302  0.372329  1
  Rh  Rh11  1  0.536618  0.500698  0.872329  1
  F  F12  1  0.209745  0.144472  0.580792  1
  F  F13  1  0.290255  0.855528  0.080792  1
  F  F14  1  0.790255  0.644472  0.919208  1
  F  F15  1  0.709745  0.355528  0.419208  1
  F  F16  1  0.215026  0.629220  0.302517  1
  F  F17  1  0.284974  0.370780  0.802517  1
  F  F18  1  0.784974  0.129220  0.197483  1
  F  F19  1  0.715026  0.870780  0.697483  1
  F  F20  1  0.222134  0.162405  0.051805  1
  F  F21  1  0.277866  0.837595  0.551805  1
  F  F22  1  0.777866  0.662405  0.448195  1
  F  F23  1  0.722134  0.337595  0.948195  1
  F  F24  1  0.156487  0.336113  0.309687  1
  F  F25  1  0.343513  0.663887  0.809687  1
  F  F26  1  0.843513  0.836113  0.190313  1
  F  F27  1  0.656487  0.163887  0.690313  1
  F  F28  1  0.353252  0.509180  0.037278  1
  F  F29  1  0.146748  0.490820  0.537278  1
  F  F30  1  0.646748  0.009180  0.462722  1
  F  F31  1  0.853252  0.990820  0.962722  1
  F  F32  1  0.218431  0.016390  0.292037  1
  F  F33  1  0.281569  0.983610  0.792037  1
  F  F34  1  0.781569  0.516390  0.207963  1
  F  F35  1  0.718431  0.483610  0.707963  1
