# generated using pymatgen
data_Ta2GeTe4
_symmetry_space_group_name_H-M   'P 1'
_cell_length_a   7.95256900
_cell_length_b   6.53706486
_cell_length_c   16.07244255
_cell_angle_alpha   73.76263416
_cell_angle_beta   90.00000000
_cell_angle_gamma   90.00000000
_symmetry_Int_Tables_number   1
_chemical_formula_structural   Ta2GeTe4
_chemical_formula_sum   'Ta8 Ge4 Te16'
_cell_volume   802.22059948
_cell_formula_units_Z   4
loop_
 _symmetry_equiv_pos_site_id
 _symmetry_equiv_pos_as_xyz
  1  'x, y, z'
loop_
 _atom_site_type_symbol
 _atom_site_label
 _atom_site_symmetry_multiplicity
 _atom_site_fract_x
 _atom_site_fract_y
 _atom_site_fract_z
 _atom_site_occupancy
  Ta  Ta0  1  0.033929  0.643771  0.249972  1
  Ta  Ta1  1  0.533929  0.356229  0.250028  1
  Ta  Ta2  1  0.966071  0.356229  0.750028  1
  Ta  Ta3  1  0.466071  0.643771  0.749972  1
  Ta  Ta4  1  0.784583  0.856415  0.750051  1
  Ta  Ta5  1  0.284583  0.143585  0.749949  1
  Ta  Ta6  1  0.215417  0.143585  0.249949  1
  Ta  Ta7  1  0.715417  0.856415  0.250051  1
  Ge  Ge8  1  0.625211  0.249851  0.750073  1
  Ge  Ge9  1  0.125211  0.750149  0.749927  1
  Ge  Ge10  1  0.374789  0.750149  0.249927  1
  Ge  Ge11  1  0.874789  0.249851  0.250073  1
  Te  Te12  1  0.990507  0.877520  0.373375  1
  Te  Te13  1  0.490507  0.122480  0.126625  1
  Te  Te14  1  0.009493  0.122480  0.626625  1
  Te  Te15  1  0.509493  0.877520  0.873375  1
  Te  Te16  1  0.758821  0.622416  0.126712  1
  Te  Te17  1  0.258821  0.377584  0.373288  1
  Te  Te18  1  0.241179  0.377584  0.873288  1
  Te  Te19  1  0.741179  0.622416  0.626712  1
  Te  Te20  1  0.490464  0.952769  0.373385  1
  Te  Te21  1  0.990464  0.047231  0.126615  1
  Te  Te22  1  0.509536  0.047231  0.626615  1
  Te  Te23  1  0.009536  0.952769  0.873385  1
  Te  Te24  1  0.258760  0.546852  0.126646  1
  Te  Te25  1  0.758760  0.453148  0.373354  1
  Te  Te26  1  0.741240  0.453148  0.873354  1
  Te  Te27  1  0.241240  0.546852  0.626646  1
