# generated using pymatgen
data_Ce3Dy5(Nb3Si4)4
_symmetry_space_group_name_H-M   'P 1'
_cell_length_a   6.91662004
_cell_length_b   7.11520688
_cell_length_c   13.46879129
_cell_angle_alpha   89.94659791
_cell_angle_beta   89.94059441
_cell_angle_gamma   89.97943926
_symmetry_Int_Tables_number   1
_chemical_formula_structural   Ce3Dy5(Nb3Si4)4
_chemical_formula_sum   'Ce3 Dy5 Nb12 Si16'
_cell_volume   662.84139690
_cell_formula_units_Z   1
loop_
 _symmetry_equiv_pos_site_id
 _symmetry_equiv_pos_as_xyz
  1  'x, y, z'
loop_
 _atom_site_type_symbol
 _atom_site_label
 _atom_site_symmetry_multiplicity
 _atom_site_fract_x
 _atom_site_fract_y
 _atom_site_fract_z
 _atom_site_occupancy
  Ce  Ce0  1  0.505696  0.328904  0.094517  1
  Ce  Ce1  1  0.004677  0.170779  0.404935  1
  Ce  Ce2  1  0.494516  0.671304  0.596545  1
  Dy  Dy3  1  0.996799  0.828591  0.903876  1
  Dy  Dy4  1  0.496736  0.670864  0.903500  1
  Dy  Dy5  1  0.997634  0.829308  0.596833  1
  Dy  Dy6  1  0.502226  0.329309  0.403435  1
  Dy  Dy7  1  0.002244  0.171607  0.096005  1
  Nb  Nb8  1  0.663424  0.006319  0.750044  1
  Nb  Nb9  1  0.164196  0.492241  0.749896  1
  Nb  Nb10  1  0.335648  0.994259  0.249075  1
  Nb  Nb11  1  0.836134  0.506382  0.250184  1
  Nb  Nb12  1  0.837333  0.325821  0.626025  1
  Nb  Nb13  1  0.337006  0.174223  0.874680  1
  Nb  Nb14  1  0.163847  0.673829  0.125725  1
  Nb  Nb15  1  0.663249  0.826709  0.374282  1
  Nb  Nb16  1  0.161331  0.674557  0.373994  1
  Nb  Nb17  1  0.660871  0.825200  0.125901  1
  Nb  Nb18  1  0.839041  0.324345  0.874462  1
  Nb  Nb19  1  0.337950  0.173524  0.626264  1
  Si  Si20  1  0.797952  0.624629  0.750990  1
  Si  Si21  1  0.295783  0.875786  0.751165  1
  Si  Si22  1  0.202708  0.376581  0.249692  1
  Si  Si23  1  0.702547  0.123593  0.249864  1
  Si  Si24  1  0.541789  0.375082  0.750989  1
  Si  Si25  1  0.041403  0.124234  0.750068  1
  Si  Si26  1  0.458682  0.625095  0.250660  1
  Si  Si27  1  0.958333  0.874710  0.249207  1
  Si  Si28  1  0.663518  0.040666  0.542049  1
  Si  Si29  1  0.162000  0.462644  0.957676  1
  Si  Si30  1  0.335475  0.960229  0.040952  1
  Si  Si31  1  0.836615  0.540177  0.458175  1
  Si  Si32  1  0.339979  0.961961  0.457777  1
  Si  Si33  1  0.840248  0.539304  0.040886  1
  Si  Si34  1  0.662439  0.035696  0.957517  1
  Si  Si35  1  0.159970  0.461538  0.542156  1
