# generated using pymatgen
data_KNbOF4
_symmetry_space_group_name_H-M   'P 1'
_cell_length_a   5.53096751
_cell_length_b   5.53096687
_cell_length_c   6.80014022
_cell_angle_alpha   118.92035424
_cell_angle_beta   118.92035383
_cell_angle_gamma   43.44626171
_symmetry_Int_Tables_number   1
_chemical_formula_structural   KNbOF4
_chemical_formula_sum   'K1 Nb1 O1 F4'
_cell_volume   122.14364983
_cell_formula_units_Z   1
loop_
 _symmetry_equiv_pos_site_id
 _symmetry_equiv_pos_as_xyz
  1  'x, y, z'
loop_
 _atom_site_type_symbol
 _atom_site_label
 _atom_site_symmetry_multiplicity
 _atom_site_fract_x
 _atom_site_fract_y
 _atom_site_fract_z
 _atom_site_occupancy
  K  K0  1  0.992027  0.007973  0.000000  1
  Nb  Nb1  1  0.447707  0.552293  0.500000  1
  O  O2  1  0.008634  0.991366  0.500000  1
  F  F3  1  0.325080  0.286866  0.212467  1
  F  F4  1  0.602839  0.590120  0.315506  1
  F  F5  1  0.409880  0.397160  0.684494  1
  F  F6  1  0.713135  0.674921  0.787532  1
