# generated using pymatgen
data_Na2AgPd3
_symmetry_space_group_name_H-M   'P 1'
_cell_length_a   5.42430171
_cell_length_b   5.53481887
_cell_length_c   5.42430100
_cell_angle_alpha   60.65835259
_cell_angle_beta   59.99999826
_cell_angle_gamma   60.65835316
_symmetry_Int_Tables_number   1
_chemical_formula_structural   Na2AgPd3
_chemical_formula_sum   'Na2 Ag1 Pd3'
_cell_volume   116.28582178
_cell_formula_units_Z   1
loop_
 _symmetry_equiv_pos_site_id
 _symmetry_equiv_pos_as_xyz
  1  'x, y, z'
loop_
 _atom_site_type_symbol
 _atom_site_label
 _atom_site_symmetry_multiplicity
 _atom_site_fract_x
 _atom_site_fract_y
 _atom_site_fract_z
 _atom_site_occupancy
  Na  Na0  1  0.500795  0.497616  0.500795  1
  Na  Na1  1  0.749205  0.752384  0.749205  1
  Ag  Ag2  1  0.125000  0.625000  0.125000  1
  Pd  Pd3  1  0.625000  0.125000  0.125000  1
  Pd  Pd4  1  0.125000  0.125000  0.125000  1
  Pd  Pd5  1  0.125000  0.125000  0.625000  1
