# generated using pymatgen
data_Zr8Ti12Si15Sb
_symmetry_space_group_name_H-M   'P 1'
_cell_length_a   6.90925430
_cell_length_b   6.88006138
_cell_length_c   12.60272300
_cell_angle_alpha   89.98432708
_cell_angle_beta   89.77706080
_cell_angle_gamma   89.93720616
_symmetry_Int_Tables_number   1
_chemical_formula_structural   Zr8Ti12Si15Sb
_chemical_formula_sum   'Zr8 Ti12 Si15 Sb1'
_cell_volume   599.07930489
_cell_formula_units_Z   1
loop_
 _symmetry_equiv_pos_site_id
 _symmetry_equiv_pos_as_xyz
  1  'x, y, z'
loop_
 _atom_site_type_symbol
 _atom_site_label
 _atom_site_symmetry_multiplicity
 _atom_site_fract_x
 _atom_site_fract_y
 _atom_site_fract_z
 _atom_site_occupancy
  Zr  Zr0  1  0.346753  0.995675  0.461435  1
  Zr  Zr1  1  0.507859  0.839201  0.720047  1
  Zr  Zr2  1  0.499177  0.155754  0.217258  1
  Zr  Zr3  1  0.844161  0.500254  0.281774  1
  Zr  Zr4  1  0.156377  0.506429  0.785178  1
  Zr  Zr5  1  0.658701  0.998775  0.969313  1
  Zr  Zr6  1  0.987011  0.353123  0.525750  1
  Zr  Zr7  1  0.002607  0.656116  0.033430  1
  Ti  Ti8  1  0.327273  0.327933  0.001177  1
  Ti  Ti9  1  0.173327  0.827935  0.249561  1
  Ti  Ti10  1  0.819671  0.172139  0.751607  1
  Ti  Ti11  1  0.671615  0.671645  0.499786  1
  Ti  Ti12  1  0.153751  0.004115  0.878566  1
  Ti  Ti13  1  0.496868  0.651744  0.123229  1
  Ti  Ti14  1  0.511438  0.353017  0.623780  1
  Ti  Ti15  1  0.654882  0.497885  0.878930  1
  Ti  Ti16  1  0.345812  0.504591  0.376217  1
  Ti  Ti17  1  0.845735  0.996453  0.372273  1
  Ti  Ti18  1  0.005399  0.152491  0.126622  1
  Ti  Ti19  1  0.982568  0.833908  0.622752  1
  Si  Si20  1  0.367519  0.705900  0.929186  1
  Si  Si21  1  0.631358  0.294999  0.426083  1
  Si  Si22  1  0.706845  0.364884  0.073569  1
  Si  Si23  1  0.293932  0.635965  0.571846  1
  Si  Si24  1  0.795439  0.865286  0.177303  1
  Si  Si25  1  0.133809  0.205593  0.321469  1
  Si  Si26  1  0.867341  0.795813  0.823287  1
  Si  Si27  1  0.294842  0.953375  0.065599  1
  Si  Si28  1  0.548652  0.790026  0.312412  1
  Si  Si29  1  0.462282  0.209024  0.820947  1
  Si  Si30  1  0.793682  0.544055  0.688274  1
  Si  Si31  1  0.207758  0.453625  0.186170  1
  Si  Si32  1  0.704392  0.047475  0.563118  1
  Si  Si33  1  0.953913  0.293437  0.936470  1
  Si  Si34  1  0.046943  0.709425  0.433257  1
  Sb  Sb35  1  0.200309  0.131942  0.672327  1
