# generated using pymatgen
data_Nd2In2PdPt3
_symmetry_space_group_name_H-M   'P 1'
_cell_length_a   4.62298000
_cell_length_b   4.62298076
_cell_length_c   9.38768000
_cell_angle_alpha   90.00000000
_cell_angle_beta   90.00000000
_cell_angle_gamma   119.99999455
_symmetry_Int_Tables_number   1
_chemical_formula_structural   Nd2In2PdPt3
_chemical_formula_sum   'Nd2 In2 Pd1 Pt3'
_cell_volume   173.75328873
_cell_formula_units_Z   1
loop_
 _symmetry_equiv_pos_site_id
 _symmetry_equiv_pos_as_xyz
  1  'x, y, z'
loop_
 _atom_site_type_symbol
 _atom_site_label
 _atom_site_symmetry_multiplicity
 _atom_site_fract_x
 _atom_site_fract_y
 _atom_site_fract_z
 _atom_site_occupancy
  Nd  Nd0  1  0.333333  0.666667  0.250659  1
  Nd  Nd1  1  0.666667  0.333333  0.747581  1
  In  In2  1  0.000000  0.000000  0.500367  1
  In  In3  1  0.000000  0.000000  0.000748  1
  Pd  Pd4  1  0.333333  0.666667  0.911229  1
  Pt  Pt5  1  0.666667  0.333333  0.087732  1
  Pt  Pt6  1  0.666667  0.333333  0.408989  1
  Pt  Pt7  1  0.333333  0.666667  0.592696  1
