# generated using pymatgen
data_SrHgBPt3
_symmetry_space_group_name_H-M   'P 1'
_cell_length_a   5.72150800
_cell_length_b   5.72150949
_cell_length_c   7.69138600
_cell_angle_alpha   90.00000000
_cell_angle_beta   90.00000000
_cell_angle_gamma   119.99999137
_symmetry_Int_Tables_number   1
_chemical_formula_structural   SrHgBPt3
_chemical_formula_sum   'Sr2 Hg2 B2 Pt6'
_cell_volume   218.05015979
_cell_formula_units_Z   2
loop_
 _symmetry_equiv_pos_site_id
 _symmetry_equiv_pos_as_xyz
  1  'x, y, z'
loop_
 _atom_site_type_symbol
 _atom_site_label
 _atom_site_symmetry_multiplicity
 _atom_site_fract_x
 _atom_site_fract_y
 _atom_site_fract_z
 _atom_site_occupancy
  Sr  Sr0  1  0.000000  0.000000  0.000000  1
  Sr  Sr1  1  0.000000  0.000000  0.500000  1
  Hg  Hg2  1  0.666666  0.333332  0.000000  1
  Hg  Hg3  1  0.333333  0.666667  0.000000  1
  B  B4  1  0.666666  0.333332  0.500000  1
  B  B5  1  0.333333  0.666667  0.500000  1
  Pt  Pt6  1  0.500000  0.000000  0.310664  1
  Pt  Pt7  1  0.000000  0.500001  0.310664  1
  Pt  Pt8  1  0.500001  0.500001  0.310664  1
  Pt  Pt9  1  0.500000  0.000000  0.689336  1
  Pt  Pt10  1  0.000000  0.500001  0.689336  1
  Pt  Pt11  1  0.500001  0.500001  0.689336  1
