# generated using pymatgen
data_Dy3Zn2In3Rh
_symmetry_space_group_name_H-M   'P 1'
_cell_length_a   7.79099400
_cell_length_b   7.79099547
_cell_length_c   3.81082200
_cell_angle_alpha   90.00000000
_cell_angle_beta   90.00000000
_cell_angle_gamma   119.99999262
_symmetry_Int_Tables_number   1
_chemical_formula_structural   Dy3Zn2In3Rh
_chemical_formula_sum   'Dy3 Zn2 In3 Rh1'
_cell_volume   200.32499911
_cell_formula_units_Z   1
loop_
 _symmetry_equiv_pos_site_id
 _symmetry_equiv_pos_as_xyz
  1  'x, y, z'
loop_
 _atom_site_type_symbol
 _atom_site_label
 _atom_site_symmetry_multiplicity
 _atom_site_fract_x
 _atom_site_fract_y
 _atom_site_fract_z
 _atom_site_occupancy
  Dy  Dy0  1  0.026684  0.612126  0.500000  1
  Dy  Dy1  1  0.585442  0.973316  0.500000  1
  Dy  Dy2  1  0.387874  0.414558  0.500000  1
  Zn  Zn3  1  0.000000  0.000000  0.500000  1
  Zn  Zn4  1  0.666667  0.333333  0.000000  1
  In  In5  1  0.992898  0.260940  0.000000  1
  In  In6  1  0.268041  0.007102  0.000000  1
  In  In7  1  0.739060  0.731959  0.000000  1
  Rh  Rh8  1  0.333333  0.666667  0.000000  1
