# generated using pymatgen
data_Dy8Ho2InSb5
_symmetry_space_group_name_H-M   'P 1'
_cell_length_a   6.37679501
_cell_length_b   8.99570687
_cell_length_c   8.97789198
_cell_angle_alpha   120.06567938
_cell_angle_beta   89.99710789
_cell_angle_gamma   90.00577691
_symmetry_Int_Tables_number   1
_chemical_formula_structural   Dy8Ho2InSb5
_chemical_formula_sum   'Dy8 Ho2 In1 Sb5'
_cell_volume   445.71263661
_cell_formula_units_Z   1
loop_
 _symmetry_equiv_pos_site_id
 _symmetry_equiv_pos_as_xyz
  1  'x, y, z'
loop_
 _atom_site_type_symbol
 _atom_site_label
 _atom_site_symmetry_multiplicity
 _atom_site_fract_x
 _atom_site_fract_y
 _atom_site_fract_z
 _atom_site_occupancy
  Dy  Dy0  1  0.000987  0.666108  0.331245  1
  Dy  Dy1  1  0.000987  0.334863  0.668755  1
  Dy  Dy2  1  0.749970  0.244088  0.000000  1
  Dy  Dy3  1  0.749932  0.754355  0.757592  1
  Dy  Dy4  1  0.749932  0.996764  0.242408  1
  Dy  Dy5  1  0.250144  0.756908  0.000000  1
  Dy  Dy6  1  0.250058  0.246254  0.244815  1
  Dy  Dy7  1  0.250058  0.001439  0.755185  1
  Ho  Ho8  1  0.499034  0.334815  0.668705  1
  Ho  Ho9  1  0.499034  0.666110  0.331295  1
  In  In10  1  0.749501  0.606120  0.000000  1
  Sb  Sb11  1  0.749555  0.389262  0.390061  1
  Sb  Sb12  1  0.749555  0.999200  0.609939  1
  Sb  Sb13  1  0.250463  0.390958  0.000000  1
  Sb  Sb14  1  0.250397  0.611401  0.610049  1
  Sb  Sb15  1  0.250397  0.001352  0.389951  1
