# generated using pymatgen
data_As(NF7)2
_symmetry_space_group_name_H-M   'P 1'
_cell_length_a   7.08760117
_cell_length_b   7.24150897
_cell_length_c   7.07081481
_cell_angle_alpha   95.76826411
_cell_angle_beta   117.01533971
_cell_angle_gamma   117.90561440
_symmetry_Int_Tables_number   1
_chemical_formula_structural   As(NF7)2
_chemical_formula_sum   'As1 N2 F14'
_cell_volume   262.15079103
_cell_formula_units_Z   1
loop_
 _symmetry_equiv_pos_site_id
 _symmetry_equiv_pos_as_xyz
  1  'x, y, z'
loop_
 _atom_site_type_symbol
 _atom_site_label
 _atom_site_symmetry_multiplicity
 _atom_site_fract_x
 _atom_site_fract_y
 _atom_site_fract_z
 _atom_site_occupancy
  As  As0  1  0.999610  0.994785  0.002056  1
  N  N1  1  0.493626  0.748894  0.249614  1
  N  N2  1  0.497186  0.262247  0.743204  1
  F  F3  1  0.414659  0.719681  0.030658  1
  F  F4  1  0.894565  0.786245  0.114007  1
  F  F5  1  0.994999  0.176573  0.185359  1
  F  F6  1  0.327994  0.110833  0.221844  1
  F  F7  1  0.293545  0.685632  0.266257  1
  F  F8  1  0.579910  0.620856  0.312186  1
  F  F9  1  0.685133  0.968097  0.388912  1
  F  F10  1  0.294077  0.034769  0.617505  1
  F  F11  1  0.378680  0.375047  0.689670  1
  F  F12  1  0.782517  0.330649  0.714543  1
  F  F13  1  0.669351  0.873070  0.780178  1
  F  F14  1  0.002300  0.812919  0.817835  1
  F  F15  1  0.108776  0.206539  0.896688  1
  F  F16  1  0.583074  0.293166  0.969486  1
