# generated using pymatgen
data_Zr3Sc(MnB4)4
_symmetry_space_group_name_H-M   'P 1'
_cell_length_a   5.79817077
_cell_length_b   11.21582359
_cell_length_c   3.29064000
_cell_angle_alpha   90.00000000
_cell_angle_beta   90.00000000
_cell_angle_gamma   90.01080119
_symmetry_Int_Tables_number   1
_chemical_formula_structural   Zr3Sc(MnB4)4
_chemical_formula_sum   'Zr3 Sc1 Mn4 B16'
_cell_volume   213.99446320
_cell_formula_units_Z   1
loop_
 _symmetry_equiv_pos_site_id
 _symmetry_equiv_pos_as_xyz
  1  'x, y, z'
loop_
 _atom_site_type_symbol
 _atom_site_label
 _atom_site_symmetry_multiplicity
 _atom_site_fract_x
 _atom_site_fract_y
 _atom_site_fract_z
 _atom_site_occupancy
  Zr  Zr0  1  0.628436  0.351097  0.000000  1
  Zr  Zr1  1  0.371422  0.649137  0.000000  1
  Zr  Zr2  1  0.128539  0.150557  0.000000  1
  Sc  Sc3  1  0.871743  0.849458  0.000000  1
  Mn  Mn4  1  0.629591  0.086891  0.000000  1
  Mn  Mn5  1  0.370207  0.913901  0.000000  1
  Mn  Mn6  1  0.131890  0.412294  0.000000  1
  Mn  Mn7  1  0.868241  0.587148  0.000000  1
  B  B8  1  0.788035  0.185479  0.500000  1
  B  B9  1  0.210808  0.814208  0.500000  1
  B  B10  1  0.287370  0.314015  0.500000  1
  B  B11  1  0.713335  0.686469  0.500000  1
  B  B12  1  0.866160  0.031422  0.500000  1
  B  B13  1  0.133737  0.967360  0.500000  1
  B  B14  1  0.364551  0.467754  0.500000  1
  B  B15  1  0.634633  0.532717  0.500000  1
  B  B16  1  0.885912  0.453243  0.500000  1
  B  B17  1  0.113205  0.547711  0.500000  1
  B  B18  1  0.386934  0.046633  0.500000  1
  B  B19  1  0.616621  0.951905  0.500000  1
  B  B20  1  0.975486  0.307035  0.500000  1
  B  B21  1  0.022495  0.693888  0.500000  1
  B  B22  1  0.476106  0.193254  0.500000  1
  B  B23  1  0.524546  0.806423  0.500000  1
