# generated using pymatgen
data_Ca5Zn2Sb5Cl
_symmetry_space_group_name_H-M   'P 1'
_cell_length_a   4.51747500
_cell_length_b   11.10769749
_cell_length_c   14.21059400
_cell_angle_alpha   89.99990199
_cell_angle_beta   90.00000000
_cell_angle_gamma   78.26437222
_symmetry_Int_Tables_number   1
_chemical_formula_structural   Ca5Zn2Sb5Cl
_chemical_formula_sum   'Ca10 Zn4 Sb10 Cl2'
_cell_volume   698.16414561
_cell_formula_units_Z   2
loop_
 _symmetry_equiv_pos_site_id
 _symmetry_equiv_pos_as_xyz
  1  'x, y, z'
loop_
 _atom_site_type_symbol
 _atom_site_label
 _atom_site_symmetry_multiplicity
 _atom_site_fract_x
 _atom_site_fract_y
 _atom_site_fract_z
 _atom_site_occupancy
  Ca  Ca0  1  0.000000  0.000000  0.000000  1
  Ca  Ca1  1  0.738019  0.523599  0.112299  1
  Ca  Ca2  1  0.898938  0.202184  0.250000  1
  Ca  Ca3  1  0.081385  0.837568  0.250000  1
  Ca  Ca4  1  0.738020  0.523599  0.387701  1
  Ca  Ca5  1  0.000000  0.000000  0.500000  1
  Ca  Ca6  1  0.261980  0.476401  0.612299  1
  Ca  Ca7  1  0.918614  0.162432  0.750000  1
  Ca  Ca8  1  0.101061  0.797816  0.750000  1
  Ca  Ca9  1  0.261980  0.476401  0.887701  1
  Zn  Zn10  1  0.366708  0.267031  0.087324  1
  Zn  Zn11  1  0.366708  0.267031  0.412676  1
  Zn  Zn12  1  0.633291  0.732968  0.587324  1
  Zn  Zn13  1  0.633291  0.732968  0.912676  1
  Sb  Sb14  1  0.145660  0.708014  0.021562  1
  Sb  Sb15  1  0.487939  0.024168  0.149513  1
  Sb  Sb16  1  0.295171  0.409233  0.250000  1
  Sb  Sb17  1  0.487939  0.024168  0.350487  1
  Sb  Sb18  1  0.145660  0.708015  0.478434  1
  Sb  Sb19  1  0.854339  0.291985  0.521566  1
  Sb  Sb20  1  0.512060  0.975832  0.649513  1
  Sb  Sb21  1  0.704828  0.590766  0.750000  1
  Sb  Sb22  1  0.512060  0.975832  0.850487  1
  Sb  Sb23  1  0.854338  0.291986  0.978438  1
  Cl  Cl24  1  0.650543  0.699224  0.250000  1
  Cl  Cl25  1  0.349455  0.300776  0.750000  1
