# generated using pymatgen
data_Li6MgZn2(Sn3O8)3
_symmetry_space_group_name_H-M   'P 1'
_cell_length_a   10.66814772
_cell_length_b   10.66814746
_cell_length_c   10.04948900
_cell_angle_alpha   90.00000000
_cell_angle_beta   90.00000000
_cell_angle_gamma   120.04564700
_symmetry_Int_Tables_number   1
_chemical_formula_structural   Li6MgZn2(Sn3O8)3
_chemical_formula_sum   'Li12 Mg2 Zn4 Sn18 O48'
_cell_volume   990.03989547
_cell_formula_units_Z   2
loop_
 _symmetry_equiv_pos_site_id
 _symmetry_equiv_pos_as_xyz
  1  'x, y, z'
loop_
 _atom_site_type_symbol
 _atom_site_label
 _atom_site_symmetry_multiplicity
 _atom_site_fract_x
 _atom_site_fract_y
 _atom_site_fract_z
 _atom_site_occupancy
  Li  Li0  1  0.334455  0.832903  0.009138  1
  Li  Li1  1  0.693390  0.333189  0.780721  1
  Li  Li2  1  0.306611  0.666812  0.280720  1
  Li  Li3  1  0.333189  0.693390  0.780721  1
  Li  Li4  1  0.666812  0.306611  0.280720  1
  Li  Li5  1  0.982243  0.982243  0.783600  1
  Li  Li6  1  0.017756  0.017756  0.283601  1
  Li  Li7  1  0.165276  0.165276  0.508999  1
  Li  Li8  1  0.834724  0.834724  0.009000  1
  Li  Li9  1  0.167098  0.665546  0.509138  1
  Li  Li10  1  0.832903  0.334455  0.009138  1
  Li  Li11  1  0.665546  0.167098  0.509138  1
  Mg  Mg12  1  0.666497  0.666497  0.690765  1
  Mg  Mg13  1  0.333504  0.333504  0.190765  1
  Zn  Zn14  1  0.333971  0.999846  0.695059  1
  Zn  Zn15  1  0.666030  0.000155  0.195058  1
  Zn  Zn16  1  0.999846  0.333971  0.695059  1
  Zn  Zn17  1  0.000155  0.666030  0.195058  1
  Sn  Sn18  1  0.016317  0.841063  0.504086  1
  Sn  Sn19  1  0.983682  0.158937  0.004087  1
  Sn  Sn20  1  0.841063  0.016317  0.504086  1
  Sn  Sn21  1  0.158937  0.983682  0.004087  1
  Sn  Sn22  1  0.839632  0.494462  0.503230  1
  Sn  Sn23  1  0.160369  0.505539  0.003231  1
  Sn  Sn24  1  0.494462  0.839632  0.503230  1
  Sn  Sn25  1  0.505539  0.160369  0.003231  1
  Sn  Sn26  1  0.491053  0.318686  0.503588  1
  Sn  Sn27  1  0.508947  0.681314  0.003588  1
  Sn  Sn28  1  0.318686  0.491053  0.503588  1
  Sn  Sn29  1  0.681314  0.508947  0.003588  1
  Sn  Sn30  1  0.004238  0.667001  0.782950  1
  Sn  Sn31  1  0.995763  0.333000  0.282949  1
  Sn  Sn32  1  0.667001  0.004238  0.782950  1
  Sn  Sn33  1  0.333000  0.995763  0.282949  1
  Sn  Sn34  1  0.328765  0.328765  0.782700  1
  Sn  Sn35  1  0.671235  0.671235  0.282702  1
  O  O36  1  0.850454  0.668863  0.629145  1
  O  O37  1  0.149544  0.331136  0.129144  1
  O  O38  1  0.668863  0.850454  0.629145  1
  O  O39  1  0.331136  0.149544  0.129144  1
  O  O40  1  0.337945  0.183747  0.642812  1
  O  O41  1  0.662054  0.816252  0.142812  1
  O  O42  1  0.183747  0.337945  0.642812  1
  O  O43  1  0.816252  0.662054  0.142812  1
  O  O44  1  0.151801  0.821221  0.640557  1
  O  O45  1  0.848199  0.178779  0.140557  1
  O  O46  1  0.821221  0.151801  0.640557  1
  O  O47  1  0.178779  0.848199  0.140557  1
  O  O48  1  0.992240  0.510311  0.641184  1
  O  O49  1  0.007761  0.489689  0.141184  1
  O  O50  1  0.510311  0.992240  0.641184  1
  O  O51  1  0.489689  0.007761  0.141184  1
  O  O52  1  0.665613  0.335912  0.601802  1
  O  O53  1  0.334386  0.664087  0.101802  1
  O  O54  1  0.335912  0.665613  0.601802  1
  O  O55  1  0.664087  0.334386  0.101802  1
  O  O56  1  0.841853  0.841853  0.387936  1
  O  O57  1  0.158147  0.158147  0.887937  1
  O  O58  1  0.166506  0.000096  0.383559  1
  O  O59  1  0.833494  0.999904  0.883558  1
  O  O60  1  0.000096  0.166506  0.383559  1
  O  O61  1  0.999904  0.833494  0.883558  1
  O  O62  1  0.337646  0.337646  0.392106  1
  O  O63  1  0.662353  0.662353  0.892104  1
  O  O64  1  0.665062  0.495711  0.389663  1
  O  O65  1  0.334938  0.504289  0.889663  1
  O  O66  1  0.495711  0.665062  0.389663  1
  O  O67  1  0.504289  0.334938  0.889663  1
  O  O68  1  0.830656  0.334720  0.383988  1
  O  O69  1  0.169344  0.665281  0.883987  1
  O  O70  1  0.334720  0.830656  0.383988  1
  O  O71  1  0.665281  0.169344  0.883987  1
  O  O72  1  0.497744  0.168682  0.382560  1
  O  O73  1  0.502257  0.831319  0.882559  1
  O  O74  1  0.168682  0.497744  0.382560  1
  O  O75  1  0.831319  0.502257  0.882559  1
  O  O76  1  0.997614  0.666929  0.396731  1
  O  O77  1  0.002387  0.333072  0.896731  1
  O  O78  1  0.666929  0.997614  0.396731  1
  O  O79  1  0.333072  0.002387  0.896731  1
  O  O80  1  0.998206  0.998206  0.602568  1
  O  O81  1  0.001794  0.001794  0.102570  1
  O  O82  1  0.482122  0.482122  0.631783  1
  O  O83  1  0.517879  0.517879  0.131782  1
