# generated using pymatgen
data_Tb3Sc3NiTe2
_symmetry_space_group_name_H-M   'P 1'
_cell_length_a   7.99974600
_cell_length_b   7.99974577
_cell_length_c   3.95929000
_cell_angle_alpha   90.00000000
_cell_angle_beta   90.00000000
_cell_angle_gamma   120.00000093
_symmetry_Int_Tables_number   1
_chemical_formula_structural   Tb3Sc3NiTe2
_chemical_formula_sum   'Tb3 Sc3 Ni1 Te2'
_cell_volume   219.43218330
_cell_formula_units_Z   1
loop_
 _symmetry_equiv_pos_site_id
 _symmetry_equiv_pos_as_xyz
  1  'x, y, z'
loop_
 _atom_site_type_symbol
 _atom_site_label
 _atom_site_symmetry_multiplicity
 _atom_site_fract_x
 _atom_site_fract_y
 _atom_site_fract_z
 _atom_site_occupancy
  Tb  Tb0  1  0.607486  0.000000  0.000000  1
  Tb  Tb1  1  0.392514  0.392514  0.000000  1
  Tb  Tb2  1  0.000000  0.607486  0.000000  1
  Sc  Sc3  1  0.230766  0.000000  0.500000  1
  Sc  Sc4  1  0.769234  0.769234  0.500000  1
  Sc  Sc5  1  0.000000  0.230766  0.500000  1
  Ni  Ni6  1  0.000000  0.000000  0.000000  1
  Te  Te7  1  0.333333  0.666667  0.500000  1
  Te  Te8  1  0.666667  0.333333  0.500000  1
