# generated using pymatgen
data_Nd6Sc2HgAu9
_symmetry_space_group_name_H-M   'P 1'
_cell_length_a   8.17820740
_cell_length_b   8.17820723
_cell_length_c   8.17820736
_cell_angle_alpha   65.49103007
_cell_angle_beta   65.49102617
_cell_angle_gamma   65.49101121
_symmetry_Int_Tables_number   1
_chemical_formula_structural   Nd6Sc2HgAu9
_chemical_formula_sum   'Nd6 Sc2 Hg1 Au9'
_cell_volume   432.95091596
_cell_formula_units_Z   1
loop_
 _symmetry_equiv_pos_site_id
 _symmetry_equiv_pos_as_xyz
  1  'x, y, z'
loop_
 _atom_site_type_symbol
 _atom_site_label
 _atom_site_symmetry_multiplicity
 _atom_site_fract_x
 _atom_site_fract_y
 _atom_site_fract_z
 _atom_site_occupancy
  Nd  Nd0  1  0.895515  0.184825  0.621706  1
  Nd  Nd1  1  0.621706  0.895515  0.184825  1
  Nd  Nd2  1  0.184825  0.621706  0.895515  1
  Nd  Nd3  1  0.104485  0.815175  0.378294  1
  Nd  Nd4  1  0.378294  0.104485  0.815175  1
  Nd  Nd5  1  0.815175  0.378294  0.104485  1
  Sc  Sc6  1  0.660160  0.660160  0.660160  1
  Sc  Sc7  1  0.339840  0.339840  0.339840  1
  Hg  Hg8  1  0.500000  0.500000  0.500000  1
  Au  Au9  1  0.000000  0.000000  0.000000  1
  Au  Au10  1  0.801798  0.801798  0.801798  1
  Au  Au11  1  0.198202  0.198202  0.198202  1
  Au  Au12  1  0.938672  0.547547  0.326278  1
  Au  Au13  1  0.326278  0.938672  0.547547  1
  Au  Au14  1  0.547547  0.326278  0.938672  1
  Au  Au15  1  0.061328  0.452453  0.673722  1
  Au  Au16  1  0.673722  0.061328  0.452453  1
  Au  Au17  1  0.452453  0.673722  0.061328  1
