# generated using pymatgen
data_Y14Lu2MgAg3Rh4
_symmetry_space_group_name_H-M   'P 1'
_cell_length_a   9.58540800
_cell_length_b   9.60597430
_cell_length_c   9.61188100
_cell_angle_alpha   59.97842169
_cell_angle_beta   59.90734752
_cell_angle_gamma   59.86769918
_symmetry_Int_Tables_number   1
_chemical_formula_structural   Y14Lu2MgAg3Rh4
_chemical_formula_sum   'Y14 Lu2 Mg1 Ag3 Rh4'
_cell_volume   624.64640142
_cell_formula_units_Z   1
loop_
 _symmetry_equiv_pos_site_id
 _symmetry_equiv_pos_as_xyz
  1  'x, y, z'
loop_
 _atom_site_type_symbol
 _atom_site_label
 _atom_site_symmetry_multiplicity
 _atom_site_fract_x
 _atom_site_fract_y
 _atom_site_fract_z
 _atom_site_occupancy
  Y  Y0  1  0.599527  0.203597  0.598444  1
  Y  Y1  1  0.185788  0.604087  0.605062  1
  Y  Y2  1  0.058413  0.438788  0.440511  1
  Y  Y3  1  0.436067  0.061977  0.063880  1
  Y  Y4  1  0.436077  0.061970  0.438071  1
  Y  Y5  1  0.058413  0.438788  0.062284  1
  Y  Y6  1  0.437243  0.437815  0.062470  1
  Y  Y7  1  0.060150  0.061748  0.439048  1
  Y  Y8  1  0.186276  0.813112  0.813509  1
  Y  Y9  1  0.814017  0.187002  0.185328  1
  Y  Y10  1  0.814013  0.186998  0.813663  1
  Y  Y11  1  0.186279  0.813115  0.187104  1
  Y  Y12  1  0.812271  0.812554  0.187583  1
  Y  Y13  1  0.184701  0.185861  0.814719  1
  Lu  Lu14  1  0.599201  0.597333  0.596556  1
  Lu  Lu15  1  0.599201  0.597331  0.206905  1
  Mg  Mg16  1  0.540139  0.818906  0.820482  1
  Ag  Ag17  1  0.831617  0.834433  0.835617  1
  Ag  Ag18  1  0.831613  0.834430  0.498336  1
  Ag  Ag19  1  0.831367  0.499039  0.834794  1
  Rh  Rh20  1  0.391889  0.398237  0.389780  1
  Rh  Rh21  1  0.391896  0.398245  0.820085  1
  Rh  Rh22  1  0.395503  0.816219  0.394141  1
  Rh  Rh23  1  0.818339  0.398418  0.391627  1
