# generated using pymatgen
data_HoEr7(TmIr2)2
_symmetry_space_group_name_H-M   'P 1'
_cell_length_a   6.43865679
_cell_length_b   7.16348339
_cell_length_c   8.40500770
_cell_angle_alpha   96.41936663
_cell_angle_beta   112.45127335
_cell_angle_gamma   89.96909290
_symmetry_Int_Tables_number   1
_chemical_formula_structural   HoEr7(TmIr2)2
_chemical_formula_sum   'Ho1 Er7 Tm2 Ir4'
_cell_volume   355.66098945
_cell_formula_units_Z   1
loop_
 _symmetry_equiv_pos_site_id
 _symmetry_equiv_pos_as_xyz
  1  'x, y, z'
loop_
 _atom_site_type_symbol
 _atom_site_label
 _atom_site_symmetry_multiplicity
 _atom_site_fract_x
 _atom_site_fract_y
 _atom_site_fract_z
 _atom_site_occupancy
  Ho  Ho0  1  0.969904  0.919052  0.181786  1
  Er  Er1  1  0.788481  0.581391  0.818097  1
  Er  Er2  1  0.029929  0.081184  0.818193  1
  Er  Er3  1  0.211499  0.418511  0.181742  1
  Er  Er4  1  0.653889  0.817758  0.441945  1
  Er  Er5  1  0.212325  0.681826  0.558063  1
  Er  Er6  1  0.346141  0.182322  0.558331  1
  Er  Er7  1  0.787736  0.318123  0.442074  1
  Tm  Tm8  1  0.427747  0.750029  0.999944  1
  Tm  Tm9  1  0.572048  0.249980  0.999891  1
  Ir  Ir10  1  0.825592  0.572745  0.218049  1
  Ir  Ir11  1  0.607372  0.926847  0.782031  1
  Ir  Ir12  1  0.174264  0.426861  0.782009  1
  Ir  Ir13  1  0.393074  0.073371  0.217845  1
