# generated using pymatgen
data_YEr3As3Se
_symmetry_space_group_name_H-M   'P 1'
_cell_length_a   7.07151204
_cell_length_b   7.07151075
_cell_length_c   7.08313700
_cell_angle_alpha   80.30971128
_cell_angle_beta   80.30972128
_cell_angle_gamma   33.70478905
_symmetry_Int_Tables_number   1
_chemical_formula_structural   YEr3As3Se
_chemical_formula_sum   'Y1 Er3 As3 Se1'
_cell_volume   193.48749066
_cell_formula_units_Z   1
loop_
 _symmetry_equiv_pos_site_id
 _symmetry_equiv_pos_as_xyz
  1  'x, y, z'
loop_
 _atom_site_type_symbol
 _atom_site_label
 _atom_site_symmetry_multiplicity
 _atom_site_fract_x
 _atom_site_fract_y
 _atom_site_fract_z
 _atom_site_occupancy
  Y  Y0  1  0.003947  0.003947  0.005274  1
  Er  Er1  1  0.248958  0.248958  0.256166  1
  Er  Er2  1  0.501516  0.501516  0.493619  1
  Er  Er3  1  0.745514  0.745514  0.745000  1
  As  As4  1  0.627602  0.627602  0.123957  1
  As  As5  1  0.874700  0.874700  0.376818  1
  As  As6  1  0.124044  0.124044  0.625555  1
  Se  Se7  1  0.373719  0.373719  0.873613  1
