# generated using pymatgen
data_NaLa9(Si2Sn)2
_symmetry_space_group_name_H-M   'P 1'
_cell_length_a   9.29661357
_cell_length_b   9.29661319
_cell_length_c   9.29661294
_cell_angle_alpha   128.48887710
_cell_angle_beta   128.48886596
_cell_angle_gamma   75.83439906
_symmetry_Int_Tables_number   1
_chemical_formula_structural   NaLa9(Si2Sn)2
_chemical_formula_sum   'Na1 La9 Si4 Sn2'
_cell_volume   478.74144244
_cell_formula_units_Z   1
loop_
 _symmetry_equiv_pos_site_id
 _symmetry_equiv_pos_as_xyz
  1  'x, y, z'
loop_
 _atom_site_type_symbol
 _atom_site_label
 _atom_site_symmetry_multiplicity
 _atom_site_fract_x
 _atom_site_fract_y
 _atom_site_fract_z
 _atom_site_occupancy
  Na  Na0  1  0.500000  0.500000  0.000000  1
  La  La1  1  0.534569  0.043026  0.855569  1
  La  La2  1  0.187458  0.678999  0.144431  1
  La  La3  1  0.043026  0.187458  0.508458  1
  La  La4  1  0.678999  0.534569  0.491542  1
  La  La5  1  0.465431  0.956974  0.144431  1
  La  La6  1  0.812542  0.321001  0.855569  1
  La  La7  1  0.956974  0.812542  0.491542  1
  La  La8  1  0.321001  0.465431  0.508458  1
  La  La9  1  0.000000  0.000000  0.000000  1
  Si  Si10  1  0.894939  0.383876  0.278816  1
  Si  Si11  1  0.105061  0.616124  0.721184  1
  Si  Si12  1  0.383876  0.105061  0.488937  1
  Si  Si13  1  0.616124  0.894939  0.511063  1
  Sn  Sn14  1  0.241751  0.241751  0.000000  1
  Sn  Sn15  1  0.758249  0.758249  0.000000  1
