# generated using pymatgen
data_CaYb(FeBr4)4
_symmetry_space_group_name_H-M   'P 1'
_cell_length_a   7.66493513
_cell_length_b   7.79867507
_cell_length_c   14.24048708
_cell_angle_alpha   87.49205890
_cell_angle_beta   89.99120508
_cell_angle_gamma   90.10352041
_symmetry_Int_Tables_number   1
_chemical_formula_structural   CaYb(FeBr4)4
_chemical_formula_sum   'Ca1 Yb1 Fe4 Br16'
_cell_volume   850.42741539
_cell_formula_units_Z   1
loop_
 _symmetry_equiv_pos_site_id
 _symmetry_equiv_pos_as_xyz
  1  'x, y, z'
loop_
 _atom_site_type_symbol
 _atom_site_label
 _atom_site_symmetry_multiplicity
 _atom_site_fract_x
 _atom_site_fract_y
 _atom_site_fract_z
 _atom_site_occupancy
  Ca  Ca0  1  0.246135  0.075232  0.313182  1
  Yb  Yb1  1  0.753573  0.074565  0.812718  1
  Fe  Fe2  1  0.932490  0.217591  0.580428  1
  Fe  Fe3  1  0.067016  0.218484  0.079310  1
  Fe  Fe4  1  0.573797  0.641051  0.779931  1
  Fe  Fe5  1  0.426471  0.640962  0.279724  1
  Br  Br6  1  0.426905  0.615558  0.640939  1
  Br  Br7  1  0.573359  0.615471  0.140733  1
  Br  Br8  1  0.868190  0.734777  0.758384  1
  Br  Br9  1  0.131721  0.732120  0.257986  1
  Br  Br10  1  0.937521  0.476208  0.497480  1
  Br  Br11  1  0.062595  0.477017  0.997072  1
  Br  Br12  1  0.917661  0.001898  0.995549  1
  Br  Br13  1  0.081106  0.000478  0.497446  1
  Br  Br14  1  0.641193  0.129368  0.617450  1
  Br  Br15  1  0.358277  0.130125  0.115885  1
  Br  Br16  1  0.566098  0.376846  0.872642  1
  Br  Br17  1  0.435665  0.378630  0.373883  1
  Br  Br18  1  0.447172  0.867563  0.865330  1
  Br  Br19  1  0.554566  0.866406  0.365606  1
  Br  Br20  1  0.932328  0.232631  0.230829  1
  Br  Br21  1  0.066162  0.231822  0.731895  1
