# generated using pymatgen
data_Lu2Ta3B4Ru10W
_symmetry_space_group_name_H-M   'P 1'
_cell_length_a   9.50808904
_cell_length_b   9.50263533
_cell_length_c   3.06389400
_cell_angle_alpha   90.00000000
_cell_angle_beta   90.00000000
_cell_angle_gamma   90.34853239
_symmetry_Int_Tables_number   1
_chemical_formula_structural   Lu2Ta3B4Ru10W
_chemical_formula_sum   'Lu2 Ta3 B4 Ru10 W1'
_cell_volume   276.82353122
_cell_formula_units_Z   1
loop_
 _symmetry_equiv_pos_site_id
 _symmetry_equiv_pos_as_xyz
  1  'x, y, z'
loop_
 _atom_site_type_symbol
 _atom_site_label
 _atom_site_symmetry_multiplicity
 _atom_site_fract_x
 _atom_site_fract_y
 _atom_site_fract_z
 _atom_site_occupancy
  Lu  Lu0  1  0.824516  0.675836  0.000000  1
  Lu  Lu1  1  0.175484  0.324164  0.000000  1
  Ta  Ta2  1  0.323430  0.825048  0.000000  1
  Ta  Ta3  1  0.676570  0.174952  0.000000  1
  Ta  Ta4  1  0.000000  0.000000  0.000000  1
  B  B5  1  0.621771  0.879939  0.000000  1
  B  B6  1  0.378229  0.120061  0.000000  1
  B  B7  1  0.119859  0.621317  0.000000  1
  B  B8  1  0.880141  0.378683  0.000000  1
  Ru  Ru9  1  0.561184  0.719518  0.500000  1
  Ru  Ru10  1  0.438816  0.280482  0.500000  1
  Ru  Ru11  1  0.080779  0.784221  0.500000  1
  Ru  Ru12  1  0.919221  0.215779  0.500000  1
  Ru  Ru13  1  0.287282  0.577078  0.500000  1
  Ru  Ru14  1  0.712718  0.422922  0.500000  1
  Ru  Ru15  1  0.222014  0.063165  0.500000  1
  Ru  Ru16  1  0.777986  0.936835  0.500000  1
  Ru  Ru17  1  0.500000  0.000000  0.500000  1
  Ru  Ru18  1  0.000000  0.500000  0.500000  1
  W  W19  1  0.500000  0.500000  0.000000  1
