# generated using pymatgen
data_KAg3F7
_symmetry_space_group_name_H-M   'P 1'
_cell_length_a   8.00356273
_cell_length_b   8.00356261
_cell_length_c   7.79640050
_cell_angle_alpha   63.52834530
_cell_angle_beta   63.52834302
_cell_angle_gamma   60.78783474
_symmetry_Int_Tables_number   1
_chemical_formula_structural   KAg3F7
_chemical_formula_sum   'K2 Ag6 F14'
_cell_volume   373.18090952
_cell_formula_units_Z   2
loop_
 _symmetry_equiv_pos_site_id
 _symmetry_equiv_pos_as_xyz
  1  'x, y, z'
loop_
 _atom_site_type_symbol
 _atom_site_label
 _atom_site_symmetry_multiplicity
 _atom_site_fract_x
 _atom_site_fract_y
 _atom_site_fract_z
 _atom_site_occupancy
  K  K0  1  0.500000  0.500000  0.000000  1
  K  K1  1  0.500000  0.500000  0.500000  1
  Ag  Ag2  1  0.500000  0.000000  0.500000  1
  Ag  Ag3  1  0.000000  0.500000  0.000000  1
  Ag  Ag4  1  0.000000  0.000000  0.500000  1
  Ag  Ag5  1  0.000000  0.000000  0.000000  1
  Ag  Ag6  1  0.000000  0.500000  0.500000  1
  Ag  Ag7  1  0.500000  0.000000  0.000000  1
  F  F8  1  0.103659  0.896341  0.250000  1
  F  F9  1  0.896341  0.103659  0.750000  1
  F  F10  1  0.627364  0.691468  0.102435  1
  F  F11  1  0.308532  0.372636  0.397565  1
  F  F12  1  0.372636  0.308532  0.897565  1
  F  F13  1  0.691468  0.627364  0.602435  1
  F  F14  1  0.614747  0.031045  0.178265  1
  F  F15  1  0.968955  0.385253  0.321735  1
  F  F16  1  0.900132  0.295193  0.003939  1
  F  F17  1  0.704807  0.099868  0.496061  1
  F  F18  1  0.099868  0.704807  0.996061  1
  F  F19  1  0.295193  0.900132  0.503939  1
  F  F20  1  0.031045  0.614747  0.678265  1
  F  F21  1  0.385253  0.968955  0.821735  1
