# generated using pymatgen
data_DyHo3GaNi13
_symmetry_space_group_name_H-M   'P 1'
_cell_length_a   4.92594520
_cell_length_b   4.92594659
_cell_length_c   12.43909120
_cell_angle_alpha   78.58305882
_cell_angle_beta   78.58306849
_cell_angle_gamma   60.44125288
_symmetry_Int_Tables_number   1
_chemical_formula_structural   DyHo3GaNi13
_chemical_formula_sum   'Dy1 Ho3 Ga1 Ni13'
_cell_volume   255.56838786
_cell_formula_units_Z   1
loop_
 _symmetry_equiv_pos_site_id
 _symmetry_equiv_pos_as_xyz
  1  'x, y, z'
loop_
 _atom_site_type_symbol
 _atom_site_label
 _atom_site_symmetry_multiplicity
 _atom_site_fract_x
 _atom_site_fract_y
 _atom_site_fract_z
 _atom_site_occupancy
  Dy  Dy0  1  0.946926  0.946926  0.159061  1
  Ho  Ho1  1  0.053110  0.053110  0.840913  1
  Ho  Ho2  1  0.852221  0.852221  0.442938  1
  Ho  Ho3  1  0.147733  0.147733  0.557160  1
  Ga  Ga4  1  0.500049  0.500049  0.999803  1
  Ni  Ni5  1  0.499982  0.499982  0.500018  1
  Ni  Ni6  1  0.723946  0.723946  0.833181  1
  Ni  Ni7  1  0.276072  0.276072  0.166808  1
  Ni  Ni8  1  0.612501  0.612501  0.166705  1
  Ni  Ni9  1  0.387511  0.387511  0.833270  1
  Ni  Ni10  1  0.000002  0.500066  0.999852  1
  Ni  Ni11  1  0.500066  0.000002  0.999852  1
  Ni  Ni12  1  0.388750  0.388750  0.330905  1
  Ni  Ni13  1  0.890879  0.389050  0.330772  1
  Ni  Ni14  1  0.389050  0.890879  0.330772  1
  Ni  Ni15  1  0.611190  0.611190  0.669236  1
  Ni  Ni16  1  0.109128  0.610882  0.669377  1
  Ni  Ni17  1  0.610882  0.109128  0.669377  1
