# generated using pymatgen
data_Ce4In(ReB3)2
_symmetry_space_group_name_H-M   'P 1'
_cell_length_a   5.43653790
_cell_length_b   5.43653741
_cell_length_c   8.68860735
_cell_angle_alpha   71.76867295
_cell_angle_beta   71.76867764
_cell_angle_gamma   60.00001825
_symmetry_Int_Tables_number   1
_chemical_formula_structural   Ce4In(ReB3)2
_chemical_formula_sum   'Ce4 In1 Re2 B6'
_cell_volume   207.37650305
_cell_formula_units_Z   1
loop_
 _symmetry_equiv_pos_site_id
 _symmetry_equiv_pos_as_xyz
  1  'x, y, z'
loop_
 _atom_site_type_symbol
 _atom_site_label
 _atom_site_symmetry_multiplicity
 _atom_site_fract_x
 _atom_site_fract_y
 _atom_site_fract_z
 _atom_site_occupancy
  Ce  Ce0  1  0.748539  0.748539  0.754382  1
  Ce  Ce1  1  0.251461  0.251461  0.245618  1
  Ce  Ce2  1  0.585044  0.585044  0.244869  1
  Ce  Ce3  1  0.414956  0.414956  0.755131  1
  In  In4  1  0.000000  0.000000  0.000000  1
  Re  Re5  1  0.886667  0.886667  0.339996  1
  Re  Re6  1  0.113333  0.113333  0.660004  1
  B  B7  1  0.500000  0.171320  0.500000  1
  B  B8  1  0.828680  0.500000  0.500000  1
  B  B9  1  0.171320  0.828680  0.500000  1
  B  B10  1  0.171320  0.500000  0.500000  1
  B  B11  1  0.828680  0.171320  0.500000  1
  B  B12  1  0.500000  0.828680  0.500000  1
