# generated using pymatgen
data_Y4ErTm3(B6Os)4
_symmetry_space_group_name_H-M   'P 1'
_cell_length_a   3.63368400
_cell_length_b   9.11628401
_cell_length_c   11.50286201
_cell_angle_alpha   90.00386212
_cell_angle_beta   90.00000000
_cell_angle_gamma   90.00000000
_symmetry_Int_Tables_number   1
_chemical_formula_structural   Y4ErTm3(B6Os)4
_chemical_formula_sum   'Y4 Er1 Tm3 B24 Os4'
_cell_volume   381.04030138
_cell_formula_units_Z   1
loop_
 _symmetry_equiv_pos_site_id
 _symmetry_equiv_pos_as_xyz
  1  'x, y, z'
loop_
 _atom_site_type_symbol
 _atom_site_label
 _atom_site_symmetry_multiplicity
 _atom_site_fract_x
 _atom_site_fract_y
 _atom_site_fract_z
 _atom_site_occupancy
  Y  Y0  1  0.000000  0.321430  0.414053  1
  Y  Y1  1  0.000000  0.678596  0.586091  1
  Y  Y2  1  0.000000  0.821294  0.085903  1
  Y  Y3  1  0.000000  0.178718  0.913987  1
  Er  Er4  1  0.000000  0.944039  0.372877  1
  Tm  Tm5  1  0.000000  0.056039  0.627300  1
  Tm  Tm6  1  0.000000  0.444039  0.127030  1
  Tm  Tm7  1  0.000000  0.555962  0.872893  1
  B  B8  1  0.500000  0.554195  0.432791  1
  B  B9  1  0.500000  0.445622  0.567279  1
  B  B10  1  0.500000  0.054358  0.067139  1
  B  B11  1  0.500000  0.945664  0.932742  1
  B  B12  1  0.500000  0.748645  0.419423  1
  B  B13  1  0.500000  0.251077  0.580657  1
  B  B14  1  0.500000  0.249094  0.080556  1
  B  B15  1  0.500000  0.750996  0.919391  1
  B  B16  1  0.500000  0.791244  0.266295  1
  B  B17  1  0.500000  0.208493  0.733645  1
  B  B18  1  0.500000  0.291742  0.233561  1
  B  B19  1  0.500000  0.708453  0.766390  1
  B  B20  1  0.500000  0.630763  0.184787  1
  B  B21  1  0.500000  0.369124  0.815134  1
  B  B22  1  0.500000  0.131154  0.315013  1
  B  B23  1  0.500000  0.869083  0.684956  1
  B  B24  1  0.500000  0.983077  0.213357  1
  B  B25  1  0.500000  0.017106  0.786410  1
  B  B26  1  0.500000  0.482763  0.286340  1
  B  B27  1  0.500000  0.517128  0.713623  1
  B  B28  1  0.500000  0.605298  0.029020  1
  B  B29  1  0.500000  0.394694  0.970950  1
  B  B30  1  0.500000  0.105804  0.471112  1
  B  B31  1  0.500000  0.894443  0.529380  1
  Os  Os32  1  0.000000  0.637461  0.320601  1
  Os  Os33  1  0.000000  0.362211  0.679443  1
  Os  Os34  1  0.000000  0.138042  0.179213  1
  Os  Os35  1  0.000000  0.862150  0.820660  1
