# generated using pymatgen
data_Ca3ErAs6Ir7
_symmetry_space_group_name_H-M   'P 1'
_cell_length_a   7.31108707
_cell_length_b   7.27014648
_cell_length_c   7.27014642
_cell_angle_alpha   109.35686001
_cell_angle_beta   109.58533691
_cell_angle_gamma   109.58534004
_symmetry_Int_Tables_number   1
_chemical_formula_structural   Ca3ErAs6Ir7
_chemical_formula_sum   'Ca3 Er1 As6 Ir7'
_cell_volume   297.05222524
_cell_formula_units_Z   1
loop_
 _symmetry_equiv_pos_site_id
 _symmetry_equiv_pos_as_xyz
  1  'x, y, z'
loop_
 _atom_site_type_symbol
 _atom_site_label
 _atom_site_symmetry_multiplicity
 _atom_site_fract_x
 _atom_site_fract_y
 _atom_site_fract_z
 _atom_site_occupancy
  Ca  Ca0  1  0.000000  0.000000  0.500000  1
  Ca  Ca1  1  0.000000  0.500000  0.000000  1
  Ca  Ca2  1  0.500000  0.500000  0.500000  1
  Er  Er3  1  0.500000  0.000000  0.000000  1
  As  As4  1  0.680651  0.678440  0.000000  1
  As  As5  1  0.319349  0.321560  0.000000  1
  As  As6  1  0.997789  0.678440  0.678440  1
  As  As7  1  0.002211  0.321560  0.321560  1
  As  As8  1  0.680651  0.000000  0.678440  1
  As  As9  1  0.319349  0.000000  0.321560  1
  Ir  Ir10  1  0.000000  0.000000  0.000000  1
  Ir  Ir11  1  0.251631  0.503262  0.751631  1
  Ir  Ir12  1  0.748369  0.248369  0.496738  1
  Ir  Ir13  1  0.500000  0.248369  0.751631  1
  Ir  Ir14  1  0.500000  0.751631  0.248369  1
  Ir  Ir15  1  0.748369  0.496738  0.248369  1
  Ir  Ir16  1  0.251631  0.751631  0.503262  1
