# generated using pymatgen
data_SmY2Ho(WO6)2
_symmetry_space_group_name_H-M   'P 1'
_cell_length_a   5.43394700
_cell_length_b   7.74881372
_cell_length_c   11.52440613
_cell_angle_alpha   75.58690836
_cell_angle_beta   90.00000000
_cell_angle_gamma   90.00000000
_symmetry_Int_Tables_number   1
_chemical_formula_structural   SmY2Ho(WO6)2
_chemical_formula_sum   'Sm2 Y4 Ho2 W4 O24'
_cell_volume   469.98132108
_cell_formula_units_Z   2
loop_
 _symmetry_equiv_pos_site_id
 _symmetry_equiv_pos_as_xyz
  1  'x, y, z'
loop_
 _atom_site_type_symbol
 _atom_site_label
 _atom_site_symmetry_multiplicity
 _atom_site_fract_x
 _atom_site_fract_y
 _atom_site_fract_z
 _atom_site_occupancy
  Sm  Sm0  1  0.683932  0.500431  0.749783  1
  Sm  Sm1  1  0.316068  0.500431  0.249783  1
  Y  Y2  1  0.740403  0.999544  0.749916  1
  Y  Y3  1  0.259597  0.999544  0.249916  1
  Y  Y4  1  0.186252  0.203844  0.922814  1
  Y  Y5  1  0.813748  0.203844  0.422814  1
  Ho  Ho6  1  0.185934  0.795624  0.577585  1
  Ho  Ho7  1  0.814066  0.795624  0.077585  1
  W  W8  1  0.253993  0.725791  0.885084  1
  W  W9  1  0.746007  0.725791  0.385084  1
  W  W10  1  0.253950  0.274663  0.614978  1
  W  W11  1  0.746050  0.274663  0.114978  1
  O  O12  1  0.042355  0.939681  0.895966  1
  O  O13  1  0.532335  0.846608  0.931213  1
  O  O14  1  0.957645  0.939681  0.395966  1
  O  O15  1  0.455196  0.792093  0.727352  1
  O  O16  1  0.467665  0.846608  0.431213  1
  O  O17  1  0.984022  0.714361  0.770826  1
  O  O18  1  0.544804  0.792093  0.227352  1
  O  O19  1  0.852752  0.639176  0.546904  1
  O  O20  1  0.354758  0.492433  0.887065  1
  O  O21  1  0.015978  0.714361  0.270826  1
  O  O22  1  0.353916  0.508706  0.613038  1
  O  O23  1  0.850925  0.361628  0.953143  1
  O  O24  1  0.147248  0.639176  0.046904  1
  O  O25  1  0.645242  0.492433  0.387065  1
  O  O26  1  0.983095  0.285613  0.728420  1
  O  O27  1  0.646084  0.508706  0.113038  1
  O  O28  1  0.149075  0.361628  0.453143  1
  O  O29  1  0.456488  0.208387  0.772036  1
  O  O30  1  0.016905  0.285613  0.228420  1
  O  O31  1  0.531246  0.152751  0.569443  1
  O  O32  1  0.543512  0.208387  0.272036  1
  O  O33  1  0.044185  0.058666  0.604432  1
  O  O34  1  0.468754  0.152751  0.069443  1
  O  O35  1  0.955815  0.058666  0.104432  1
