# generated using pymatgen
data_Sc3Ta(Co4P3)2
_symmetry_space_group_name_H-M   'P 1'
_cell_length_a   12.05894895
_cell_length_b   12.04297405
_cell_length_c   3.62335700
_cell_angle_alpha   90.00000000
_cell_angle_beta   90.00000000
_cell_angle_gamma   119.95618165
_symmetry_Int_Tables_number   1
_chemical_formula_structural   Sc3Ta(Co4P3)2
_chemical_formula_sum   'Sc6 Ta2 Co16 P12'
_cell_volume   455.90730956
_cell_formula_units_Z   2
loop_
 _symmetry_equiv_pos_site_id
 _symmetry_equiv_pos_as_xyz
  1  'x, y, z'
loop_
 _atom_site_type_symbol
 _atom_site_label
 _atom_site_symmetry_multiplicity
 _atom_site_fract_x
 _atom_site_fract_y
 _atom_site_fract_z
 _atom_site_occupancy
  Sc  Sc0  1  0.000000  0.556482  0.000000  1
  Sc  Sc1  1  0.665864  0.333635  0.000000  1
  Sc  Sc2  1  0.334136  0.667772  0.000000  1
  Sc  Sc3  1  0.817867  0.818847  0.500000  1
  Sc  Sc4  1  0.182133  0.000979  0.500000  1
  Sc  Sc5  1  0.000000  0.180470  0.500000  1
  Ta  Ta6  1  0.443706  0.444786  0.000000  1
  Ta  Ta7  1  0.556294  0.001080  0.000000  1
  Co  Co8  1  0.196084  0.370939  0.000000  1
  Co  Co9  1  0.179781  0.806591  0.000000  1
  Co  Co10  1  0.820219  0.626810  0.000000  1
  Co  Co11  1  0.803916  0.174856  0.000000  1
  Co  Co12  1  0.373066  0.196319  0.000000  1
  Co  Co13  1  0.127035  0.480354  0.500000  1
  Co  Co14  1  0.357132  0.875448  0.500000  1
  Co  Co15  1  0.517035  0.645153  0.500000  1
  Co  Co16  1  0.642868  0.518316  0.500000  1
  Co  Co17  1  0.872965  0.353319  0.500000  1
  Co  Co18  1  0.482965  0.128119  0.500000  1
  Co  Co19  1  0.000000  0.999099  0.000000  1
  Co  Co20  1  0.720448  0.998630  0.500000  1
  Co  Co21  1  0.000000  0.721448  0.500000  1
  Co  Co22  1  0.626934  0.823252  0.000000  1
  Co  Co23  1  0.279552  0.278182  0.500000  1
  P  P24  1  0.650008  0.650940  0.000000  1
  P  P25  1  0.349992  0.000933  0.000000  1
  P  P26  1  0.000000  0.347838  0.000000  1
  P  P27  1  0.483236  0.312248  0.500000  1
  P  P28  1  0.689214  0.171967  0.500000  1
  P  P29  1  0.826313  0.516297  0.500000  1
  P  P30  1  0.516764  0.829012  0.500000  1
  P  P31  1  0.173687  0.689984  0.500000  1
  P  P32  1  0.825559  0.999467  0.000000  1
  P  P33  1  0.000000  0.823765  0.000000  1
  P  P34  1  0.310786  0.482753  0.500000  1
  P  P35  1  0.174441  0.173908  0.000000  1
