# generated using pymatgen
data_Tb8Ho12Co3Bi8Os
_symmetry_space_group_name_H-M   'P 1'
_cell_length_a   7.98865526
_cell_length_b   8.92841500
_cell_length_c   12.41075800
_cell_angle_alpha   90.00000000
_cell_angle_beta   89.75241059
_cell_angle_gamma   90.00000000
_symmetry_Int_Tables_number   1
_chemical_formula_structural   Tb8Ho12Co3Bi8Os
_chemical_formula_sum   'Tb8 Ho12 Co3 Bi8 Os1'
_cell_volume   885.20182582
_cell_formula_units_Z   1
loop_
 _symmetry_equiv_pos_site_id
 _symmetry_equiv_pos_as_xyz
  1  'x, y, z'
loop_
 _atom_site_type_symbol
 _atom_site_label
 _atom_site_symmetry_multiplicity
 _atom_site_fract_x
 _atom_site_fract_y
 _atom_site_fract_z
 _atom_site_occupancy
  Tb  Tb0  1  0.346031  0.750000  0.700828  1
  Tb  Tb1  1  0.653140  0.250000  0.300724  1
  Tb  Tb2  1  0.847435  0.250000  0.800097  1
  Tb  Tb3  1  0.155048  0.750000  0.206074  1
  Tb  Tb4  1  0.880571  0.750000  0.805543  1
  Tb  Tb5  1  0.115115  0.250000  0.189376  1
  Tb  Tb6  1  0.384540  0.250000  0.688518  1
  Tb  Tb7  1  0.615285  0.750000  0.312522  1
  Ho  Ho8  1  0.675179  0.536941  0.562924  1
  Ho  Ho9  1  0.324177  0.461565  0.437082  1
  Ho  Ho10  1  0.176538  0.457759  0.935485  1
  Ho  Ho11  1  0.324177  0.038435  0.437082  1
  Ho  Ho12  1  0.824325  0.537461  0.063569  1
  Ho  Ho13  1  0.675179  0.963059  0.562924  1
  Ho  Ho14  1  0.824325  0.962539  0.063569  1
  Ho  Ho15  1  0.176538  0.042241  0.935485  1
  Ho  Ho16  1  0.052500  0.750000  0.497787  1
  Ho  Ho17  1  0.947198  0.250000  0.502648  1
  Ho  Ho18  1  0.554503  0.250000  0.003023  1
  Ho  Ho19  1  0.444320  0.750000  0.996674  1
  Co  Co20  1  0.930839  0.250000  0.008843  1
  Co  Co21  1  0.565139  0.250000  0.507939  1
  Co  Co22  1  0.433751  0.750000  0.492426  1
  Bi  Bi23  1  0.571543  0.508559  0.826893  1
  Bi  Bi24  1  0.429738  0.490721  0.172862  1
  Bi  Bi25  1  0.071846  0.490363  0.671583  1
  Bi  Bi26  1  0.429738  0.009279  0.172862  1
  Bi  Bi27  1  0.927894  0.508785  0.328060  1
  Bi  Bi28  1  0.571543  0.991441  0.826893  1
  Bi  Bi29  1  0.927894  0.991215  0.328060  1
  Bi  Bi30  1  0.071846  0.009637  0.671583  1
  Os  Os31  1  0.072106  0.750000  0.990063  1
