# generated using pymatgen
data_Dy8Al(PdPt11)2
_symmetry_space_group_name_H-M   'P 1'
_cell_length_a   8.34908900
_cell_length_b   8.34908918
_cell_length_c   8.33936600
_cell_angle_alpha   90.00000000
_cell_angle_beta   90.00000000
_cell_angle_gamma   90.11622369
_symmetry_Int_Tables_number   1
_chemical_formula_structural   Dy8Al(PdPt11)2
_chemical_formula_sum   'Dy8 Al1 Pd2 Pt22'
_cell_volume   581.31339660
_cell_formula_units_Z   1
loop_
 _symmetry_equiv_pos_site_id
 _symmetry_equiv_pos_as_xyz
  1  'x, y, z'
loop_
 _atom_site_type_symbol
 _atom_site_label
 _atom_site_symmetry_multiplicity
 _atom_site_fract_x
 _atom_site_fract_y
 _atom_site_fract_z
 _atom_site_occupancy
  Dy  Dy0  1  0.250481  0.250481  0.749678  1
  Dy  Dy1  1  0.251476  0.748644  0.251248  1
  Dy  Dy2  1  0.748644  0.251476  0.251248  1
  Dy  Dy3  1  0.748032  0.748032  0.748001  1
  Dy  Dy4  1  0.748032  0.748032  0.251999  1
  Dy  Dy5  1  0.748644  0.251476  0.748752  1
  Dy  Dy6  1  0.251476  0.748644  0.748752  1
  Dy  Dy7  1  0.250481  0.250481  0.250322  1
  Al  Al8  1  0.004870  0.004870  0.000000  1
  Pd  Pd9  1  0.999095  0.711611  0.000000  1
  Pd  Pd10  1  0.711611  0.999095  0.000000  1
  Pt  Pt11  1  0.499518  0.499518  0.746866  1
  Pt  Pt12  1  0.499364  0.253241  0.500000  1
  Pt  Pt13  1  0.253241  0.499364  0.500000  1
  Pt  Pt14  1  0.499518  0.499518  0.253134  1
  Pt  Pt15  1  0.499560  0.746480  0.500000  1
  Pt  Pt16  1  0.746480  0.499560  0.500000  1
  Pt  Pt17  1  0.998515  0.998515  0.708435  1
  Pt  Pt18  1  0.998274  0.296036  0.000000  1
  Pt  Pt19  1  0.296036  0.998274  0.000000  1
  Pt  Pt20  1  0.998515  0.998515  0.291565  1
  Pt  Pt21  1  0.999973  0.500338  0.739403  1
  Pt  Pt22  1  0.500214  0.259981  0.000000  1
  Pt  Pt23  1  0.260215  0.999883  0.500000  1
  Pt  Pt24  1  0.999883  0.260215  0.500000  1
  Pt  Pt25  1  0.500338  0.999973  0.739403  1
  Pt  Pt26  1  0.259981  0.500214  0.000000  1
  Pt  Pt27  1  0.999973  0.500338  0.260597  1
  Pt  Pt28  1  0.500612  0.738473  0.000000  1
  Pt  Pt29  1  0.000161  0.737974  0.500000  1
  Pt  Pt30  1  0.500338  0.999973  0.260597  1
  Pt  Pt31  1  0.737974  0.000161  0.500000  1
  Pt  Pt32  1  0.738473  0.500612  0.000000  1
