# generated using pymatgen
data_Nd4Sc4OsPt3
_symmetry_space_group_name_H-M   'P 1'
_cell_length_a   4.57621900
_cell_length_b   7.19587582
_cell_length_c   8.63961033
_cell_angle_alpha   92.78027233
_cell_angle_beta   90.00000000
_cell_angle_gamma   90.00000000
_symmetry_Int_Tables_number   1
_chemical_formula_structural   Nd4Sc4OsPt3
_chemical_formula_sum   'Nd4 Sc4 Os1 Pt3'
_cell_volume   284.16664846
_cell_formula_units_Z   1
loop_
 _symmetry_equiv_pos_site_id
 _symmetry_equiv_pos_as_xyz
  1  'x, y, z'
loop_
 _atom_site_type_symbol
 _atom_site_label
 _atom_site_symmetry_multiplicity
 _atom_site_fract_x
 _atom_site_fract_y
 _atom_site_fract_z
 _atom_site_occupancy
  Nd  Nd0  1  0.250000  0.521376  0.826912  1
  Nd  Nd1  1  0.250000  0.024308  0.682802  1
  Nd  Nd2  1  0.750000  0.967854  0.312958  1
  Nd  Nd3  1  0.750000  0.490323  0.173029  1
  Sc  Sc4  1  0.250000  0.139202  0.075360  1
  Sc  Sc5  1  0.750000  0.363185  0.568464  1
  Sc  Sc6  1  0.250000  0.634351  0.430654  1
  Sc  Sc7  1  0.750000  0.858327  0.931893  1
  Os  Os8  1  0.250000  0.768776  0.100472  1
  Pt  Pt9  1  0.250000  0.263524  0.406805  1
  Pt  Pt10  1  0.750000  0.736223  0.595306  1
  Pt  Pt11  1  0.750000  0.232554  0.895345  1
