# generated using pymatgen
data_La3Yb5SbPd24
_symmetry_space_group_name_H-M   'P 1'
_cell_length_a   8.43768795
_cell_length_b   8.46481783
_cell_length_c   8.46481783
_cell_angle_alpha   89.77800090
_cell_angle_beta   90.23659145
_cell_angle_gamma   90.23659145
_symmetry_Int_Tables_number   1
_chemical_formula_structural   La3Yb5SbPd24
_chemical_formula_sum   'La3 Yb5 Sb1 Pd24'
_cell_volume   604.57203645
_cell_formula_units_Z   1
loop_
 _symmetry_equiv_pos_site_id
 _symmetry_equiv_pos_as_xyz
  1  'x, y, z'
loop_
 _atom_site_type_symbol
 _atom_site_label
 _atom_site_symmetry_multiplicity
 _atom_site_fract_x
 _atom_site_fract_y
 _atom_site_fract_z
 _atom_site_occupancy
  La  La0  1  0.255107  0.252380  0.745371  1
  La  La1  1  0.255107  0.745371  0.252380  1
  La  La2  1  0.252795  0.254668  0.254668  1
  Yb  Yb3  1  0.746335  0.748869  0.253686  1
  Yb  Yb4  1  0.746335  0.253686  0.748869  1
  Yb  Yb5  1  0.251410  0.748331  0.748331  1
  Yb  Yb6  1  0.749202  0.746481  0.746481  1
  Yb  Yb7  1  0.748581  0.250984  0.250984  1
  Sb  Sb8  1  0.998420  0.999864  0.999864  1
  Pd  Pd9  1  0.992658  0.000743  0.311252  1
  Pd  Pd10  1  0.732901  0.002785  0.500299  1
  Pd  Pd11  1  0.732901  0.500299  0.002785  1
  Pd  Pd12  1  0.502892  0.993457  0.733849  1
  Pd  Pd13  1  0.998456  0.733703  0.502547  1
  Pd  Pd14  1  0.505436  0.002088  0.266015  1
  Pd  Pd15  1  0.990217  0.265542  0.500011  1
  Pd  Pd16  1  0.502892  0.733849  0.993457  1
  Pd  Pd17  1  0.255736  0.504398  0.504398  1
  Pd  Pd18  1  0.502581  0.504616  0.744840  1
  Pd  Pd19  1  0.508224  0.498952  0.255402  1
  Pd  Pd20  1  0.508224  0.255402  0.498952  1
  Pd  Pd21  1  0.502581  0.744840  0.504616  1
  Pd  Pd22  1  0.744934  0.498754  0.498754  1
  Pd  Pd23  1  0.313047  0.996122  0.996122  1
  Pd  Pd24  1  0.997429  0.995982  0.690021  1
  Pd  Pd25  1  0.990217  0.500011  0.265542  1
  Pd  Pd26  1  0.992658  0.311252  0.000743  1
  Pd  Pd27  1  0.997429  0.690021  0.995982  1
  Pd  Pd28  1  0.690699  0.000683  0.000683  1
  Pd  Pd29  1  0.265353  0.502833  0.994471  1
  Pd  Pd30  1  0.265353  0.994471  0.502833  1
  Pd  Pd31  1  0.998456  0.502547  0.733703  1
  Pd  Pd32  1  0.505436  0.266015  0.002088  1
