# generated using pymatgen
data_Cd2Ir3Pd(PbO7)2
_symmetry_space_group_name_H-M   'P 1'
_cell_length_a   7.28298835
_cell_length_b   7.28298775
_cell_length_c   7.22408447
_cell_angle_alpha   60.41597957
_cell_angle_beta   60.41599936
_cell_angle_gamma   60.55262969
_symmetry_Int_Tables_number   1
_chemical_formula_structural   Cd2Ir3Pd(PbO7)2
_chemical_formula_sum   'Cd2 Ir3 Pd1 Pb2 O14'
_cell_volume   273.77452298
_cell_formula_units_Z   1
loop_
 _symmetry_equiv_pos_site_id
 _symmetry_equiv_pos_as_xyz
  1  'x, y, z'
loop_
 _atom_site_type_symbol
 _atom_site_label
 _atom_site_symmetry_multiplicity
 _atom_site_fract_x
 _atom_site_fract_y
 _atom_site_fract_z
 _atom_site_occupancy
  Cd  Cd0  1  0.125000  0.125000  0.625000  1
  Cd  Cd1  1  0.125000  0.125000  0.125000  1
  Ir  Ir2  1  0.125000  0.625000  0.625000  1
  Ir  Ir3  1  0.625000  0.125000  0.625000  1
  Ir  Ir4  1  0.625000  0.625000  0.125000  1
  Pd  Pd5  1  0.625000  0.625000  0.625000  1
  Pb  Pb6  1  0.625000  0.125000  0.125000  1
  Pb  Pb7  1  0.125000  0.625000  0.125000  1
  O  O8  1  0.708386  0.708386  0.288326  1
  O  O9  1  0.307593  0.307593  0.711007  1
  O  O10  1  0.709946  0.286570  0.707834  1
  O  O11  1  0.301032  0.694279  0.296655  1
  O  O12  1  0.286570  0.709946  0.707834  1
  O  O13  1  0.694279  0.301032  0.296655  1
  O  O14  1  0.541614  0.541614  0.961674  1
  O  O15  1  0.942407  0.942407  0.538993  1
  O  O16  1  0.540054  0.963430  0.542166  1
  O  O17  1  0.948968  0.555721  0.953345  1
  O  O18  1  0.963430  0.540054  0.542166  1
  O  O19  1  0.555721  0.948968  0.953345  1
  O  O20  1  0.243412  0.243412  0.253690  1
  O  O21  1  0.006588  0.006588  0.996310  1
