# generated using pymatgen
data_Sr6NpOsO12
_symmetry_space_group_name_H-M   'P 1'
_cell_length_a   6.98578957
_cell_length_b   6.98578891
_cell_length_c   6.98578946
_cell_angle_alpha   92.59667317
_cell_angle_beta   92.59667844
_cell_angle_gamma   92.59667233
_symmetry_Int_Tables_number   1
_chemical_formula_structural   Sr6NpOsO12
_chemical_formula_sum   'Sr6 Np1 Os1 O12'
_cell_volume   339.83222988
_cell_formula_units_Z   1
loop_
 _symmetry_equiv_pos_site_id
 _symmetry_equiv_pos_as_xyz
  1  'x, y, z'
loop_
 _atom_site_type_symbol
 _atom_site_label
 _atom_site_symmetry_multiplicity
 _atom_site_fract_x
 _atom_site_fract_y
 _atom_site_fract_z
 _atom_site_occupancy
  Sr  Sr0  1  0.069599  0.260801  0.562988  1
  Sr  Sr1  1  0.437012  0.930401  0.739199  1
  Sr  Sr2  1  0.739199  0.437012  0.930401  1
  Sr  Sr3  1  0.260801  0.562988  0.069599  1
  Sr  Sr4  1  0.562988  0.069599  0.260801  1
  Sr  Sr5  1  0.930401  0.739199  0.437012  1
  Np  Np6  1  0.000000  0.000000  0.000000  1
  Os  Os7  1  0.500000  0.500000  0.500000  1
  O  O8  1  0.062846  0.284710  0.934714  1
  O  O9  1  0.065286  0.937154  0.715290  1
  O  O10  1  0.453204  0.574662  0.768075  1
  O  O11  1  0.715290  0.065286  0.937154  1
  O  O12  1  0.231925  0.546796  0.425338  1
  O  O13  1  0.425338  0.231925  0.546796  1
  O  O14  1  0.574662  0.768075  0.453204  1
  O  O15  1  0.768075  0.453204  0.574662  1
  O  O16  1  0.284710  0.934714  0.062846  1
  O  O17  1  0.546796  0.425338  0.231925  1
  O  O18  1  0.934714  0.062846  0.284710  1
  O  O19  1  0.937154  0.715290  0.065286  1
