# generated using pymatgen
data_Tb11YSc8(GaO4)12
_symmetry_space_group_name_H-M   'P 1'
_cell_length_a   10.93285681
_cell_length_b   10.93208418
_cell_length_c   10.93208400
_cell_angle_alpha   109.47282139
_cell_angle_beta   109.46885540
_cell_angle_gamma   109.46919008
_symmetry_Int_Tables_number   1
_chemical_formula_structural   Tb11YSc8(GaO4)12
_chemical_formula_sum   'Tb11 Y1 Sc8 Ga12 O48'
_cell_volume   1005.84873949
_cell_formula_units_Z   1
loop_
 _symmetry_equiv_pos_site_id
 _symmetry_equiv_pos_as_xyz
  1  'x, y, z'
loop_
 _atom_site_type_symbol
 _atom_site_label
 _atom_site_symmetry_multiplicity
 _atom_site_fract_x
 _atom_site_fract_y
 _atom_site_fract_z
 _atom_site_occupancy
  Tb  Tb0  1  0.249996  0.374999  0.124996  1
  Tb  Tb1  1  0.374996  0.750010  0.124988  1
  Tb  Tb2  1  0.874985  0.624987  0.249930  1
  Tb  Tb3  1  0.374994  0.124985  0.250008  1
  Tb  Tb4  1  0.125004  0.249989  0.375010  1
  Tb  Tb5  1  0.750001  0.125002  0.375000  1
  Tb  Tb6  1  0.874983  0.749993  0.625052  1
  Tb  Tb7  1  0.250000  0.875002  0.625000  1
  Tb  Tb8  1  0.125007  0.375012  0.749993  1
  Tb  Tb9  1  0.625016  0.874942  0.750005  1
  Tb  Tb10  1  0.625016  0.250072  0.875013  1
  Y  Y11  1  0.750006  0.624995  0.874998  1
  Sc  Sc12  1  0.999974  0.999967  0.999954  1
  Sc  Sc13  1  0.500053  0.000023  0.000049  1
  Sc  Sc14  1  0.999935  0.499989  0.999978  1
  Sc  Sc15  1  0.499985  0.500000  0.999988  1
  Sc  Sc16  1  0.999974  0.999966  0.499948  1
  Sc  Sc17  1  0.499962  0.499992  0.500007  1
  Sc  Sc18  1  0.499983  0.000010  0.500045  1
  Sc  Sc19  1  0.000036  0.500047  0.500063  1
  Ga  Ga20  1  0.750001  0.874955  0.124955  1
  Ga  Ga21  1  0.874999  0.250005  0.125006  1
  Ga  Ga22  1  0.625007  0.374998  0.249995  1
  Ga  Ga23  1  0.124960  0.874993  0.249944  1
  Ga  Ga24  1  0.625005  0.750010  0.375011  1
  Ga  Ga25  1  0.249999  0.625013  0.375007  1
  Ga  Ga26  1  0.749999  0.375042  0.625036  1
  Ga  Ga27  1  0.375047  0.250060  0.625014  1
  Ga  Ga28  1  0.875001  0.124993  0.749992  1
  Ga  Ga29  1  0.375050  0.624991  0.750034  1
  Ga  Ga30  1  0.124957  0.749967  0.875013  1
  Ga  Ga31  1  0.250001  0.124987  0.874987  1
  O  O32  1  0.317464  0.904189  0.030317  1
  O  O33  1  0.212842  0.126125  0.030327  1
  O  O34  1  0.712939  0.682415  0.086389  1
  O  O35  1  0.873874  0.404203  0.086707  1
  O  O36  1  0.969649  0.682533  0.095768  1
  O  O37  1  0.626128  0.413293  0.095798  1
  O  O38  1  0.595810  0.913274  0.126137  1
  O  O39  1  0.030310  0.212824  0.126114  1
  O  O40  1  0.212843  0.586717  0.182514  1
  O  O41  1  0.469692  0.595806  0.182515  1
  O  O42  1  0.586718  0.182511  0.212849  1
  O  O43  1  0.126149  0.030375  0.212863  1
  O  O44  1  0.317467  0.913278  0.287147  1
  O  O45  1  0.469691  0.373882  0.287174  1
  O  O46  1  0.904191  0.030328  0.317463  1
  O  O47  1  0.913286  0.287151  0.317487  1
  O  O48  1  0.586719  0.904203  0.373867  1
  O  O49  1  0.287159  0.469672  0.373875  1
  O  O50  1  0.817459  0.530327  0.404236  1
  O  O51  1  0.086716  0.873852  0.404192  1
  O  O52  1  0.095789  0.626127  0.413271  1
  O  O53  1  0.817458  0.787129  0.413218  1
  O  O54  1  0.595813  0.182537  0.469672  1
  O  O55  1  0.373851  0.287136  0.469623  1
  O  O56  1  0.626128  0.712835  0.530328  1
  O  O57  1  0.404216  0.817484  0.530340  1
  O  O58  1  0.182538  0.212853  0.586723  1
  O  O59  1  0.904194  0.373863  0.586728  1
  O  O60  1  0.913284  0.126133  0.595795  1
  O  O61  1  0.182538  0.469682  0.595811  1
  O  O62  1  0.413284  0.095806  0.626144  1
  O  O63  1  0.712938  0.530523  0.626546  1
  O  O64  1  0.086719  0.712863  0.682524  1
  O  O65  1  0.095787  0.969660  0.682515  1
  O  O66  1  0.682546  0.086780  0.712871  1
  O  O67  1  0.530354  0.626120  0.712886  1
  O  O68  1  0.413285  0.817476  0.787135  1
  O  O69  1  0.873874  0.969670  0.787164  1
  O  O70  1  0.530356  0.404233  0.817466  1
  O  O71  1  0.787067  0.413602  0.817585  1
  O  O72  1  0.969645  0.787109  0.873878  1
  O  O73  1  0.404216  0.086732  0.873874  1
  O  O74  1  0.030309  0.317484  0.904192  1
  O  O75  1  0.373851  0.586715  0.904226  1
  O  O76  1  0.287160  0.317488  0.913283  1
  O  O77  1  0.126151  0.595774  0.913283  1
  O  O78  1  0.682544  0.095763  0.969671  1
  O  O79  1  0.787064  0.873457  0.969478  1
