# generated using pymatgen
data_Sc2U(GaRu)3
_symmetry_space_group_name_H-M   'P 1'
_cell_length_a   7.09539464
_cell_length_b   7.09539422
_cell_length_c   3.56133000
_cell_angle_alpha   90.00000000
_cell_angle_beta   90.00000000
_cell_angle_gamma   118.40693752
_symmetry_Int_Tables_number   1
_chemical_formula_structural   Sc2U(GaRu)3
_chemical_formula_sum   'Sc2 U1 Ga3 Ru3'
_cell_volume   157.70521999
_cell_formula_units_Z   1
loop_
 _symmetry_equiv_pos_site_id
 _symmetry_equiv_pos_as_xyz
  1  'x, y, z'
loop_
 _atom_site_type_symbol
 _atom_site_label
 _atom_site_symmetry_multiplicity
 _atom_site_fract_x
 _atom_site_fract_y
 _atom_site_fract_z
 _atom_site_occupancy
  Sc  Sc0  1  0.401472  0.002409  0.500000  1
  Sc  Sc1  1  0.002409  0.401472  0.500000  1
  U  U2  1  0.603593  0.603593  0.500000  1
  Ga  Ga3  1  0.733367  0.028584  0.000000  1
  Ga  Ga4  1  0.028584  0.733367  0.000000  1
  Ga  Ga5  1  0.238749  0.238749  0.000000  1
  Ru  Ru6  1  0.363919  0.657432  0.000000  1
  Ru  Ru7  1  0.657432  0.363919  0.000000  1
  Ru  Ru8  1  0.970476  0.970476  0.500000  1
