# generated using pymatgen
data_Dy3Al9Si3Ru4
_symmetry_space_group_name_H-M   'P 1'
_cell_length_a   8.68296000
_cell_length_b   8.66402921
_cell_length_c   9.53652200
_cell_angle_alpha   90.00000000
_cell_angle_beta   90.00000000
_cell_angle_gamma   120.07231279
_symmetry_Int_Tables_number   1
_chemical_formula_structural   Dy3Al9Si3Ru4
_chemical_formula_sum   'Dy6 Al18 Si6 Ru8'
_cell_volume   620.85679024
_cell_formula_units_Z   2
loop_
 _symmetry_equiv_pos_site_id
 _symmetry_equiv_pos_as_xyz
  1  'x, y, z'
loop_
 _atom_site_type_symbol
 _atom_site_label
 _atom_site_symmetry_multiplicity
 _atom_site_fract_x
 _atom_site_fract_y
 _atom_site_fract_z
 _atom_site_occupancy
  Dy  Dy0  1  0.193132  0.386263  0.250000  1
  Dy  Dy1  1  0.806868  0.613737  0.750000  1
  Dy  Dy2  1  0.610813  0.808395  0.250000  1
  Dy  Dy3  1  0.389187  0.191605  0.750000  1
  Dy  Dy4  1  0.197581  0.808395  0.250000  1
  Dy  Dy5  1  0.802419  0.191605  0.750000  1
  Al  Al6  1  0.164697  0.329394  0.580765  1
  Al  Al7  1  0.835303  0.670606  0.419235  1
  Al  Al8  1  0.670375  0.834644  0.579033  1
  Al  Al9  1  0.835303  0.670606  0.080765  1
  Al  Al10  1  0.329625  0.165356  0.420967  1
  Al  Al11  1  0.164697  0.329394  0.919235  1
  Al  Al12  1  0.164269  0.834644  0.579033  1
  Al  Al13  1  0.329625  0.165356  0.079033  1
  Al  Al14  1  0.835731  0.165356  0.420967  1
  Al  Al15  1  0.670375  0.834644  0.920967  1
  Al  Al16  1  0.835731  0.165356  0.079033  1
  Al  Al17  1  0.164269  0.834644  0.920967  1
  Al  Al18  1  0.873593  0.433879  0.250000  1
  Al  Al19  1  0.126407  0.566121  0.750000  1
  Al  Al20  1  0.560285  0.433879  0.250000  1
  Al  Al21  1  0.439715  0.566121  0.750000  1
  Al  Al22  1  0.999440  0.998881  0.250000  1
  Al  Al23  1  0.000560  0.001119  0.750000  1
  Si  Si24  1  0.331891  0.663783  0.039428  1
  Si  Si25  1  0.668109  0.336217  0.960572  1
  Si  Si26  1  0.668109  0.336217  0.539428  1
  Si  Si27  1  0.331891  0.663783  0.460572  1
  Si  Si28  1  0.563032  0.126062  0.250000  1
  Si  Si29  1  0.436968  0.873938  0.750000  1
  Ru  Ru30  1  0.500000  0.000000  0.000000  1
  Ru  Ru31  1  0.000000  0.500000  0.000000  1
  Ru  Ru32  1  0.500000  0.000000  0.500000  1
  Ru  Ru33  1  0.500000  0.500000  0.000000  1
  Ru  Ru34  1  0.000000  0.500000  0.500000  1
  Ru  Ru35  1  0.500000  0.500000  0.500000  1
  Ru  Ru36  1  0.000000  0.000000  0.000000  1
  Ru  Ru37  1  0.000000  0.000000  0.500000  1
