# generated using pymatgen
data_Pa(NbS2)5
_symmetry_space_group_name_H-M   'P 1'
_cell_length_a   5.84896999
_cell_length_b   7.70185128
_cell_length_c   8.44367808
_cell_angle_alpha   113.17696825
_cell_angle_beta   96.88308052
_cell_angle_gamma   104.45270970
_symmetry_Int_Tables_number   1
_chemical_formula_structural   Pa(NbS2)5
_chemical_formula_sum   'Pa1 Nb5 S10'
_cell_volume   328.28892488
_cell_formula_units_Z   1
loop_
 _symmetry_equiv_pos_site_id
 _symmetry_equiv_pos_as_xyz
  1  'x, y, z'
loop_
 _atom_site_type_symbol
 _atom_site_label
 _atom_site_symmetry_multiplicity
 _atom_site_fract_x
 _atom_site_fract_y
 _atom_site_fract_z
 _atom_site_occupancy
  Pa  Pa0  1  0.668915  0.512029  0.990688  1
  Nb  Nb1  1  0.003929  0.996225  0.000264  1
  Nb  Nb2  1  0.597269  0.204525  0.205283  1
  Nb  Nb3  1  0.194715  0.397644  0.397433  1
  Nb  Nb4  1  0.798365  0.600089  0.603701  1
  Nb  Nb5  1  0.403321  0.794760  0.797988  1
  S  S6  1  0.234340  0.059217  0.295560  1
  S  S7  1  0.052065  0.654579  0.895379  1
  S  S8  1  0.834230  0.258682  0.493971  1
  S  S9  1  0.637709  0.869842  0.105640  1
  S  S10  1  0.422089  0.441097  0.681250  1
  S  S11  1  0.896987  0.549287  0.310314  1
  S  S12  1  0.699554  0.139508  0.905552  1
  S  S13  1  0.497077  0.739798  0.507159  1
  S  S14  1  0.292864  0.342511  0.103619  1
  S  S15  1  0.099371  0.937806  0.707799  1
