# generated using pymatgen
data_Tm4GaPt11
_symmetry_space_group_name_H-M   'P 1'
_cell_length_a   4.13117900
_cell_length_b   5.77951759
_cell_length_c   11.53154244
_cell_angle_alpha   87.74861314
_cell_angle_beta   90.00000000
_cell_angle_gamma   90.00000000
_symmetry_Int_Tables_number   1
_chemical_formula_structural   Tm4GaPt11
_chemical_formula_sum   'Tm4 Ga1 Pt11'
_cell_volume   275.11713291
_cell_formula_units_Z   1
loop_
 _symmetry_equiv_pos_site_id
 _symmetry_equiv_pos_as_xyz
  1  'x, y, z'
loop_
 _atom_site_type_symbol
 _atom_site_label
 _atom_site_symmetry_multiplicity
 _atom_site_fract_x
 _atom_site_fract_y
 _atom_site_fract_z
 _atom_site_occupancy
  Tm  Tm0  1  0.500000  0.755335  0.374531  1
  Tm  Tm1  1  0.500000  0.721862  0.865711  1
  Tm  Tm2  1  0.500000  0.278138  0.134289  1
  Tm  Tm3  1  0.500000  0.244665  0.625469  1
  Ga  Ga4  1  0.000000  0.000000  0.000000  1
  Pt  Pt5  1  0.000000  0.013721  0.244847  1
  Pt  Pt6  1  0.000000  0.986279  0.755153  1
  Pt  Pt7  1  0.000000  0.500000  0.000000  1
  Pt  Pt8  1  0.000000  0.500000  0.500000  1
  Pt  Pt9  1  0.000000  0.516891  0.248453  1
  Pt  Pt10  1  0.000000  0.483109  0.751547  1
  Pt  Pt11  1  0.500000  0.253877  0.376526  1
  Pt  Pt12  1  0.500000  0.222902  0.885558  1
  Pt  Pt13  1  0.500000  0.777098  0.114442  1
  Pt  Pt14  1  0.500000  0.746123  0.623474  1
  Pt  Pt15  1  0.000000  0.000000  0.500000  1
