# generated using pymatgen
data_YbY2Ga(SiIr3)2
_symmetry_space_group_name_H-M   'P 1'
_cell_length_a   5.57700400
_cell_length_b   5.57700438
_cell_length_c   15.40973400
_cell_angle_alpha   90.00000000
_cell_angle_beta   90.00000000
_cell_angle_gamma   120.00000962
_symmetry_Int_Tables_number   1
_chemical_formula_structural   YbY2Ga(SiIr3)2
_chemical_formula_sum   'Yb2 Y4 Ga2 Si4 Ir12'
_cell_volume   415.07604795
_cell_formula_units_Z   2
loop_
 _symmetry_equiv_pos_site_id
 _symmetry_equiv_pos_as_xyz
  1  'x, y, z'
loop_
 _atom_site_type_symbol
 _atom_site_label
 _atom_site_symmetry_multiplicity
 _atom_site_fract_x
 _atom_site_fract_y
 _atom_site_fract_z
 _atom_site_occupancy
  Yb  Yb0  1  0.333333  0.666667  0.750000  1
  Yb  Yb1  1  0.666667  0.333333  0.250000  1
  Y  Y2  1  0.333333  0.666667  0.543330  1
  Y  Y3  1  0.666667  0.333333  0.456670  1
  Y  Y4  1  0.666667  0.333333  0.043330  1
  Y  Y5  1  0.333333  0.666667  0.956670  1
  Ga  Ga6  1  0.000000  0.000000  0.000000  1
  Ga  Ga7  1  0.000000  0.000000  0.500000  1
  Si  Si8  1  0.000000  0.000000  0.250000  1
  Si  Si9  1  0.000000  0.000000  0.750000  1
  Si  Si10  1  0.333333  0.666667  0.250000  1
  Si  Si11  1  0.666667  0.333333  0.750000  1
  Ir  Ir12  1  0.168318  0.336638  0.132539  1
  Ir  Ir13  1  0.831682  0.663362  0.867461  1
  Ir  Ir14  1  0.663362  0.831682  0.132539  1
  Ir  Ir15  1  0.831682  0.663362  0.632539  1
  Ir  Ir16  1  0.336638  0.168318  0.867461  1
  Ir  Ir17  1  0.168318  0.336638  0.367461  1
  Ir  Ir18  1  0.168318  0.831682  0.132539  1
  Ir  Ir19  1  0.336638  0.168318  0.632539  1
  Ir  Ir20  1  0.831682  0.168318  0.867461  1
  Ir  Ir21  1  0.663362  0.831682  0.367461  1
  Ir  Ir22  1  0.831682  0.168318  0.632539  1
  Ir  Ir23  1  0.168318  0.831682  0.367461  1
