# generated using pymatgen
data_Y2Al2GaCu7
_symmetry_space_group_name_H-M   'P 1'
_cell_length_a   4.17339700
_cell_length_b   5.10806813
_cell_length_c   8.79959534
_cell_angle_alpha   90.65211619
_cell_angle_beta   90.00000000
_cell_angle_gamma   90.00000000
_symmetry_Int_Tables_number   1
_chemical_formula_structural   Y2Al2GaCu7
_chemical_formula_sum   'Y2 Al2 Ga1 Cu7'
_cell_volume   187.57758994
_cell_formula_units_Z   1
loop_
 _symmetry_equiv_pos_site_id
 _symmetry_equiv_pos_as_xyz
  1  'x, y, z'
loop_
 _atom_site_type_symbol
 _atom_site_label
 _atom_site_symmetry_multiplicity
 _atom_site_fract_x
 _atom_site_fract_y
 _atom_site_fract_z
 _atom_site_occupancy
  Y  Y0  1  0.000000  0.001915  0.000251  1
  Y  Y1  1  0.000000  0.498043  0.499739  1
  Al  Al2  1  0.500000  0.512269  0.995423  1
  Al  Al3  1  0.500000  0.987677  0.504570  1
  Ga  Ga4  1  0.500000  0.249973  0.249992  1
  Cu  Cu5  1  0.000000  0.995299  0.336342  1
  Cu  Cu6  1  0.000000  0.500230  0.833485  1
  Cu  Cu7  1  0.000000  0.504668  0.163645  1
  Cu  Cu8  1  0.000000  0.999751  0.666511  1
  Cu  Cu9  1  0.500000  0.750036  0.750106  1
  Cu  Cu10  1  0.500000  0.749920  0.249965  1
  Cu  Cu11  1  0.500000  0.250019  0.749973  1
