# generated using pymatgen
data_La2YbNiSn3Pd2
_symmetry_space_group_name_H-M   'P 1'
_cell_length_a   7.60387100
_cell_length_b   7.60543792
_cell_length_c   4.13057600
_cell_angle_alpha   90.00000000
_cell_angle_beta   90.00000000
_cell_angle_gamma   119.99318060
_symmetry_Int_Tables_number   1
_chemical_formula_structural   La2YbNiSn3Pd2
_chemical_formula_sum   'La2 Yb1 Ni1 Sn3 Pd2'
_cell_volume   206.88550045
_cell_formula_units_Z   1
loop_
 _symmetry_equiv_pos_site_id
 _symmetry_equiv_pos_as_xyz
  1  'x, y, z'
loop_
 _atom_site_type_symbol
 _atom_site_label
 _atom_site_symmetry_multiplicity
 _atom_site_fract_x
 _atom_site_fract_y
 _atom_site_fract_z
 _atom_site_occupancy
  La  La0  1  0.000766  0.589117  0.000000  1
  La  La1  1  0.411648  0.410883  0.000000  1
  Yb  Yb2  1  0.594853  0.000000  0.000000  1
  Ni  Ni3  1  0.998689  0.000000  0.000000  1
  Sn  Sn4  1  0.755799  0.764247  0.500000  1
  Sn  Sn5  1  0.991552  0.235753  0.500000  1
  Sn  Sn6  1  0.246217  0.000000  0.500000  1
  Pd  Pd7  1  0.335897  0.671319  0.500000  1
  Pd  Pd8  1  0.664578  0.328681  0.500000  1
