# generated using pymatgen
data_Tb4Lu12MgCd3Ni4
_symmetry_space_group_name_H-M   'P 1'
_cell_length_a   9.43171887
_cell_length_b   9.40485795
_cell_length_c   9.40485900
_cell_angle_alpha   59.99999983
_cell_angle_beta   60.09416410
_cell_angle_gamma   60.09416059
_symmetry_Int_Tables_number   1
_chemical_formula_structural   Tb4Lu12MgCd3Ni4
_chemical_formula_sum   'Tb4 Lu12 Mg1 Cd3 Ni4'
_cell_volume   590.74088519
_cell_formula_units_Z   1
loop_
 _symmetry_equiv_pos_site_id
 _symmetry_equiv_pos_as_xyz
  1  'x, y, z'
loop_
 _atom_site_type_symbol
 _atom_site_label
 _atom_site_symmetry_multiplicity
 _atom_site_fract_x
 _atom_site_fract_y
 _atom_site_fract_z
 _atom_site_occupancy
  Tb  Tb0  1  0.599527  0.599398  0.599398  1
  Tb  Tb1  1  0.599527  0.599398  0.201676  1
  Tb  Tb2  1  0.599527  0.201676  0.599398  1
  Tb  Tb3  1  0.197705  0.600765  0.600765  1
  Lu  Lu4  1  0.062846  0.436799  0.436799  1
  Lu  Lu5  1  0.435341  0.064430  0.064430  1
  Lu  Lu6  1  0.435341  0.064430  0.435797  1
  Lu  Lu7  1  0.062846  0.436799  0.063554  1
  Lu  Lu8  1  0.435341  0.435797  0.064430  1
  Lu  Lu9  1  0.062846  0.063554  0.436799  1
  Lu  Lu10  1  0.183508  0.815665  0.815665  1
  Lu  Lu11  1  0.814911  0.184815  0.184815  1
  Lu  Lu12  1  0.814911  0.184815  0.815458  1
  Lu  Lu13  1  0.183508  0.815665  0.185161  1
  Lu  Lu14  1  0.814911  0.815458  0.184815  1
  Lu  Lu15  1  0.183508  0.185161  0.815665  1
  Mg  Mg16  1  0.519721  0.826759  0.826759  1
  Cd  Cd17  1  0.832685  0.832922  0.832922  1
  Cd  Cd18  1  0.832685  0.832922  0.501471  1
  Cd  Cd19  1  0.832685  0.501471  0.832922  1
  Ni  Ni20  1  0.390127  0.391867  0.391867  1
  Ni  Ni21  1  0.390127  0.391867  0.826138  1
  Ni  Ni22  1  0.390127  0.826138  0.391867  1
  Ni  Ni23  1  0.825736  0.391421  0.391421  1
