# generated using pymatgen
data_La2Tc17C3
_symmetry_space_group_name_H-M   'P 1'
_cell_length_a   7.03283220
_cell_length_b   7.03283175
_cell_length_c   7.03283211
_cell_angle_alpha   83.06906681
_cell_angle_beta   83.06905669
_cell_angle_gamma   83.06906680
_symmetry_Int_Tables_number   1
_chemical_formula_structural   La2Tc17C3
_chemical_formula_sum   'La2 Tc17 C3'
_cell_volume   340.79058382
_cell_formula_units_Z   1
loop_
 _symmetry_equiv_pos_site_id
 _symmetry_equiv_pos_as_xyz
  1  'x, y, z'
loop_
 _atom_site_type_symbol
 _atom_site_label
 _atom_site_symmetry_multiplicity
 _atom_site_fract_x
 _atom_site_fract_y
 _atom_site_fract_z
 _atom_site_occupancy
  La  La0  1  0.650158  0.650158  0.650158  1
  La  La1  1  0.349842  0.349842  0.349842  1
  Tc  Tc2  1  0.000000  0.000000  0.500000  1
  Tc  Tc3  1  0.500000  0.000000  0.000000  1
  Tc  Tc4  1  0.000000  0.500000  0.000000  1
  Tc  Tc5  1  0.722116  0.277884  0.000000  1
  Tc  Tc6  1  0.000000  0.722116  0.277884  1
  Tc  Tc7  1  0.277884  0.000000  0.722116  1
  Tc  Tc8  1  0.000000  0.277884  0.722116  1
  Tc  Tc9  1  0.722116  0.000000  0.277884  1
  Tc  Tc10  1  0.277884  0.722116  0.000000  1
  Tc  Tc11  1  0.347008  0.347008  0.866531  1
  Tc  Tc12  1  0.866531  0.347008  0.347008  1
  Tc  Tc13  1  0.347008  0.866531  0.347008  1
  Tc  Tc14  1  0.652992  0.652992  0.133469  1
  Tc  Tc15  1  0.133469  0.652992  0.652992  1
  Tc  Tc16  1  0.652992  0.133469  0.652992  1
  Tc  Tc17  1  0.903076  0.903076  0.903076  1
  Tc  Tc18  1  0.096924  0.096924  0.096924  1
  C  C19  1  0.500000  0.500000  0.000000  1
  C  C20  1  0.000000  0.500000  0.500000  1
  C  C21  1  0.500000  0.000000  0.500000  1
