# generated using pymatgen
data_Li2PPt
_symmetry_space_group_name_H-M   'P 1'
_cell_length_a   4.07472400
_cell_length_b   4.07472270
_cell_length_c   8.12212700
_cell_angle_alpha   90.00000000
_cell_angle_beta   90.00000000
_cell_angle_gamma   120.00001053
_symmetry_Int_Tables_number   1
_chemical_formula_structural   Li2PPt
_chemical_formula_sum   'Li4 P2 Pt2'
_cell_volume   116.78756887
_cell_formula_units_Z   2
loop_
 _symmetry_equiv_pos_site_id
 _symmetry_equiv_pos_as_xyz
  1  'x, y, z'
loop_
 _atom_site_type_symbol
 _atom_site_label
 _atom_site_symmetry_multiplicity
 _atom_site_fract_x
 _atom_site_fract_y
 _atom_site_fract_z
 _atom_site_occupancy
  Li  Li0  1  0.666667  0.333333  0.919133  1
  Li  Li1  1  0.333333  0.666667  0.419133  1
  Li  Li2  1  0.666667  0.333333  0.580867  1
  Li  Li3  1  0.333333  0.666667  0.080867  1
  P  P4  1  0.666667  0.333333  0.250000  1
  P  P5  1  0.333333  0.666667  0.750000  1
  Pt  Pt6  1  0.000000  0.000000  0.750000  1
  Pt  Pt7  1  0.000000  0.000000  0.250000  1
