# generated using pymatgen
data_Li(MnCl3)2
_symmetry_space_group_name_H-M   'P 1'
_cell_length_a   6.23102636
_cell_length_b   6.50434266
_cell_length_c   7.25192245
_cell_angle_alpha   112.84544365
_cell_angle_beta   74.96119380
_cell_angle_gamma   121.42220269
_symmetry_Int_Tables_number   1
_chemical_formula_structural   Li(MnCl3)2
_chemical_formula_sum   'Li1 Mn2 Cl6'
_cell_volume   230.52490382
_cell_formula_units_Z   1
loop_
 _symmetry_equiv_pos_site_id
 _symmetry_equiv_pos_as_xyz
  1  'x, y, z'
loop_
 _atom_site_type_symbol
 _atom_site_label
 _atom_site_symmetry_multiplicity
 _atom_site_fract_x
 _atom_site_fract_y
 _atom_site_fract_z
 _atom_site_occupancy
  Li  Li0  1  0.431404  0.740627  0.892276  1
  Mn  Mn1  1  0.791559  0.420805  0.898324  1
  Mn  Mn2  1  0.100363  0.074039  0.893198  1
  Cl  Cl3  1  0.077786  0.813605  0.108423  1
  Cl  Cl4  1  0.452493  0.027041  0.696899  1
  Cl  Cl5  1  0.113210  0.329672  0.682828  1
  Cl  Cl6  1  0.414020  0.454451  0.092974  1
  Cl  Cl7  1  0.816733  0.687849  0.690841  1
  Cl  Cl8  1  0.777763  0.154515  0.099101  1
