# generated using pymatgen
data_Ho3Co7P6RhW
_symmetry_space_group_name_H-M   'P 1'
_cell_length_a   3.70599100
_cell_length_b   10.66308400
_cell_length_c   12.33632200
_cell_angle_alpha   90.00000000
_cell_angle_beta   90.00000000
_cell_angle_gamma   90.00000000
_symmetry_Int_Tables_number   1
_chemical_formula_structural   Ho3Co7P6RhW
_chemical_formula_sum   'Ho6 Co14 P12 Rh2 W2'
_cell_volume   487.49805516
_cell_formula_units_Z   2
loop_
 _symmetry_equiv_pos_site_id
 _symmetry_equiv_pos_as_xyz
  1  'x, y, z'
loop_
 _atom_site_type_symbol
 _atom_site_label
 _atom_site_symmetry_multiplicity
 _atom_site_fract_x
 _atom_site_fract_y
 _atom_site_fract_z
 _atom_site_occupancy
  Ho  Ho0  1  0.000000  0.500000  0.520339  1
  Ho  Ho1  1  0.500000  0.000000  0.479661  1
  Ho  Ho2  1  0.500000  0.816272  0.202997  1
  Ho  Ho3  1  0.500000  0.183728  0.202997  1
  Ho  Ho4  1  0.000000  0.683728  0.797003  1
  Ho  Ho5  1  0.000000  0.316272  0.797003  1
  Co  Co6  1  0.000000  0.500000  0.988873  1
  Co  Co7  1  0.500000  0.000000  0.011127  1
  Co  Co8  1  0.500000  0.297271  0.431062  1
  Co  Co9  1  0.500000  0.702729  0.431062  1
  Co  Co10  1  0.000000  0.202729  0.568938  1
  Co  Co11  1  0.000000  0.797271  0.568938  1
  Co  Co12  1  0.500000  0.879662  0.708628  1
  Co  Co13  1  0.500000  0.120338  0.708628  1
  Co  Co14  1  0.000000  0.620338  0.291372  1
  Co  Co15  1  0.000000  0.379662  0.291372  1
  Co  Co16  1  0.500000  0.331945  0.991425  1
  Co  Co17  1  0.500000  0.668055  0.991425  1
  Co  Co18  1  0.000000  0.168055  0.008575  1
  Co  Co19  1  0.000000  0.831945  0.008575  1
  P  P20  1  0.500000  0.303824  0.614106  1
  P  P21  1  0.500000  0.696176  0.614106  1
  P  P22  1  0.000000  0.196176  0.385894  1
  P  P23  1  0.000000  0.803824  0.385894  1
  P  P24  1  0.500000  0.500000  0.888284  1
  P  P25  1  0.000000  0.000000  0.111716  1
  P  P26  1  0.500000  0.844072  0.892745  1
  P  P27  1  0.500000  0.155928  0.892745  1
  P  P28  1  0.000000  0.655928  0.107255  1
  P  P29  1  0.000000  0.344072  0.107255  1
  P  P30  1  0.500000  0.500000  0.349130  1
  P  P31  1  0.000000  0.000000  0.650870  1
  Rh  Rh32  1  0.500000  0.500000  0.701065  1
  Rh  Rh33  1  0.000000  0.000000  0.298935  1
  W  W34  1  0.500000  0.500000  0.155971  1
  W  W35  1  0.000000  0.000000  0.844029  1
