# generated using pymatgen
data_Nd8Ho5Tm7Sn16
_symmetry_space_group_name_H-M   'P 1'
_cell_length_a   8.03640256
_cell_length_b   8.20660385
_cell_length_c   15.48343500
_cell_angle_alpha   89.98225260
_cell_angle_beta   90.02148128
_cell_angle_gamma   89.96585932
_symmetry_Int_Tables_number   1
_chemical_formula_structural   Nd8Ho5Tm7Sn16
_chemical_formula_sum   'Nd8 Ho5 Tm7 Sn16'
_cell_volume   1021.15657978
_cell_formula_units_Z   1
loop_
 _symmetry_equiv_pos_site_id
 _symmetry_equiv_pos_as_xyz
  1  'x, y, z'
loop_
 _atom_site_type_symbol
 _atom_site_label
 _atom_site_symmetry_multiplicity
 _atom_site_fract_x
 _atom_site_fract_y
 _atom_site_fract_z
 _atom_site_occupancy
  Nd  Nd0  1  0.514852  0.321577  0.903341  1
  Nd  Nd1  1  0.014750  0.178513  0.596075  1
  Nd  Nd2  1  0.485359  0.678565  0.403869  1
  Nd  Nd3  1  0.984964  0.821132  0.096158  1
  Nd  Nd4  1  0.484305  0.678770  0.096486  1
  Nd  Nd5  1  0.984773  0.821153  0.403803  1
  Nd  Nd6  1  0.515636  0.321396  0.596444  1
  Nd  Nd7  1  0.015391  0.178536  0.903706  1
  Ho  Ho8  1  0.361044  0.836318  0.876758  1
  Ho  Ho9  1  0.860873  0.663775  0.623256  1
  Ho  Ho10  1  0.639311  0.163953  0.376885  1
  Ho  Ho11  1  0.139260  0.336255  0.123335  1
  Ho  Ho12  1  0.639986  0.163602  0.123037  1
  Tm  Tm13  1  0.140420  0.336800  0.376768  1
  Tm  Tm14  1  0.359506  0.836480  0.623634  1
  Tm  Tm15  1  0.859850  0.663076  0.875960  1
  Tm  Tm16  1  0.192587  0.503666  0.749627  1
  Tm  Tm17  1  0.692525  0.996258  0.750100  1
  Tm  Tm18  1  0.807516  0.496536  0.250068  1
  Tm  Tm19  1  0.307258  0.003587  0.250522  1
  Sn  Sn20  1  0.302646  0.040043  0.042321  1
  Sn  Sn21  1  0.804539  0.459322  0.457793  1
  Sn  Sn22  1  0.695140  0.959217  0.542385  1
  Sn  Sn23  1  0.195384  0.540671  0.957504  1
  Sn  Sn24  1  0.698572  0.958428  0.957587  1
  Sn  Sn25  1  0.198132  0.540804  0.541812  1
  Sn  Sn26  1  0.302362  0.040727  0.458528  1
  Sn  Sn27  1  0.802489  0.460538  0.041389  1
  Sn  Sn28  1  0.558035  0.622583  0.749813  1
  Sn  Sn29  1  0.058147  0.877481  0.750050  1
  Sn  Sn30  1  0.441289  0.378289  0.250132  1
  Sn  Sn31  1  0.942185  0.122429  0.250722  1
  Sn  Sn32  1  0.323657  0.144768  0.749593  1
  Sn  Sn33  1  0.823807  0.355002  0.750081  1
  Sn  Sn34  1  0.676986  0.855044  0.250056  1
  Sn  Sn35  1  0.176465  0.644704  0.250398  1
