# generated using pymatgen
data_Nd3Lu3Co16(P6Ru)2
_symmetry_space_group_name_H-M   'P 1'
_cell_length_a   3.72535900
_cell_length_b   10.56818687
_cell_length_c   12.30773234
_cell_angle_alpha   89.91557863
_cell_angle_beta   90.00000000
_cell_angle_gamma   90.00000000
_symmetry_Int_Tables_number   1
_chemical_formula_structural   Nd3Lu3Co16(P6Ru)2
_chemical_formula_sum   'Nd3 Lu3 Co16 P12 Ru2'
_cell_volume   484.55846625
_cell_formula_units_Z   1
loop_
 _symmetry_equiv_pos_site_id
 _symmetry_equiv_pos_as_xyz
  1  'x, y, z'
loop_
 _atom_site_type_symbol
 _atom_site_label
 _atom_site_symmetry_multiplicity
 _atom_site_fract_x
 _atom_site_fract_y
 _atom_site_fract_z
 _atom_site_occupancy
  Nd  Nd0  1  0.000000  0.500706  0.523979  1
  Nd  Nd1  1  0.500000  0.999936  0.474493  1
  Nd  Nd2  1  0.000000  0.317630  0.793614  1
  Lu  Lu3  1  0.500000  0.816992  0.206742  1
  Lu  Lu4  1  0.500000  0.181865  0.204889  1
  Lu  Lu5  1  0.000000  0.684304  0.795000  1
  Co  Co6  1  0.500000  0.504930  0.707270  1
  Co  Co7  1  0.000000  0.999070  0.292392  1
  Co  Co8  1  0.000000  0.502556  0.988583  1
  Co  Co9  1  0.500000  0.997608  0.015904  1
  Co  Co10  1  0.500000  0.332582  0.994128  1
  Co  Co11  1  0.500000  0.669972  0.991180  1
  Co  Co12  1  0.000000  0.165629  0.011809  1
  Co  Co13  1  0.000000  0.831752  0.011388  1
  Co  Co14  1  0.500000  0.296636  0.425584  1
  Co  Co15  1  0.500000  0.704104  0.429007  1
  Co  Co16  1  0.000000  0.202823  0.566400  1
  Co  Co17  1  0.000000  0.796850  0.570916  1
  Co  Co18  1  0.500000  0.877627  0.711593  1
  Co  Co19  1  0.500000  0.117742  0.708253  1
  Co  Co20  1  0.000000  0.621562  0.289739  1
  Co  Co21  1  0.000000  0.378356  0.286961  1
  P  P22  1  0.500000  0.503901  0.885042  1
  P  P23  1  0.000000  0.998483  0.118900  1
  P  P24  1  0.500000  0.499784  0.345386  1
  P  P25  1  0.000000  0.000186  0.653972  1
  P  P26  1  0.500000  0.306905  0.612352  1
  P  P27  1  0.500000  0.692514  0.619166  1
  P  P28  1  0.000000  0.190767  0.378192  1
  P  P29  1  0.000000  0.808471  0.381120  1
  P  P30  1  0.500000  0.845878  0.894013  1
  P  P31  1  0.500000  0.150808  0.897162  1
  P  P32  1  0.000000  0.655476  0.108203  1
  P  P33  1  0.000000  0.344874  0.105980  1
  Ru  Ru34  1  0.500000  0.502800  0.157463  1
  Ru  Ru35  1  0.000000  0.997921  0.843225  1
