# generated using pymatgen
data_CaLaZr2(NiAs)4
_symmetry_space_group_name_H-M   'P 1'
_cell_length_a   4.04044900
_cell_length_b   4.04044747
_cell_length_c   15.43260700
_cell_angle_alpha   90.00000000
_cell_angle_beta   90.00000000
_cell_angle_gamma   120.00000433
_symmetry_Int_Tables_number   1
_chemical_formula_structural   CaLaZr2(NiAs)4
_chemical_formula_sum   'Ca1 La1 Zr2 Ni4 As4'
_cell_volume   218.18706677
_cell_formula_units_Z   1
loop_
 _symmetry_equiv_pos_site_id
 _symmetry_equiv_pos_as_xyz
  1  'x, y, z'
loop_
 _atom_site_type_symbol
 _atom_site_label
 _atom_site_symmetry_multiplicity
 _atom_site_fract_x
 _atom_site_fract_y
 _atom_site_fract_z
 _atom_site_occupancy
  Ca  Ca0  1  0.000000  0.000000  0.000000  1
  La  La1  1  0.000000  0.000000  0.500000  1
  Zr  Zr2  1  0.000000  0.000000  0.246924  1
  Zr  Zr3  1  0.000000  0.000000  0.753076  1
  Ni  Ni4  1  0.333333  0.666667  0.158113  1
  Ni  Ni5  1  0.666667  0.333333  0.841887  1
  Ni  Ni6  1  0.666667  0.333333  0.660170  1
  Ni  Ni7  1  0.333333  0.666667  0.339830  1
  As  As8  1  0.333333  0.666667  0.629400  1
  As  As9  1  0.666667  0.333333  0.370600  1
  As  As10  1  0.666667  0.333333  0.127598  1
  As  As11  1  0.333333  0.666667  0.872402  1
