# generated using pymatgen
data_Tb3Mg2ScPt3
_symmetry_space_group_name_H-M   'P 1'
_cell_length_a   7.34358600
_cell_length_b   7.43657097
_cell_length_c   4.17899600
_cell_angle_alpha   90.00000000
_cell_angle_beta   90.00000000
_cell_angle_gamma   119.58723434
_symmetry_Int_Tables_number   1
_chemical_formula_structural   Tb3Mg2ScPt3
_chemical_formula_sum   'Tb3 Mg2 Sc1 Pt3'
_cell_volume   198.46086309
_cell_formula_units_Z   1
loop_
 _symmetry_equiv_pos_site_id
 _symmetry_equiv_pos_as_xyz
  1  'x, y, z'
loop_
 _atom_site_type_symbol
 _atom_site_label
 _atom_site_symmetry_multiplicity
 _atom_site_fract_x
 _atom_site_fract_y
 _atom_site_fract_z
 _atom_site_occupancy
  Tb  Tb0  1  0.398102  0.000000  0.499999  1
  Tb  Tb1  1  0.007424  0.421394  0.499999  1
  Tb  Tb2  1  0.586030  0.578605  0.499999  1
  Mg  Mg3  1  0.248160  0.247514  0.000000  1
  Mg  Mg4  1  0.000646  0.752485  0.000000  1
  Sc  Sc5  1  0.758624  0.000000  0.000000  1
  Pt  Pt6  1  0.668082  0.324597  0.000000  1
  Pt  Pt7  1  0.343486  0.675404  0.000000  1
  Pt  Pt8  1  0.989449  0.000000  0.499999  1
