# generated using pymatgen
data_La3SmFe4(WO6)4
_symmetry_space_group_name_H-M   'P 1'
_cell_length_a   5.43837258
_cell_length_b   7.59496888
_cell_length_c   11.11200549
_cell_angle_alpha   90.11549068
_cell_angle_beta   89.85022430
_cell_angle_gamma   89.98253466
_symmetry_Int_Tables_number   1
_chemical_formula_structural   La3SmFe4(WO6)4
_chemical_formula_sum   'La3 Sm1 Fe4 W4 O24'
_cell_volume   458.97075854
_cell_formula_units_Z   1
loop_
 _symmetry_equiv_pos_site_id
 _symmetry_equiv_pos_as_xyz
  1  'x, y, z'
loop_
 _atom_site_type_symbol
 _atom_site_label
 _atom_site_symmetry_multiplicity
 _atom_site_fract_x
 _atom_site_fract_y
 _atom_site_fract_z
 _atom_site_occupancy
  La  La0  1  0.542930  0.252549  0.042876  1
  La  La1  1  0.044509  0.752679  0.456628  1
  La  La2  1  0.955551  0.252768  0.543814  1
  Sm  Sm3  1  0.451008  0.752820  0.954652  1
  Fe  Fe4  1  0.043407  0.509394  0.138531  1
  Fe  Fe5  1  0.542262  0.007047  0.359776  1
  Fe  Fe6  1  0.456630  0.507774  0.640911  1
  Fe  Fe7  1  0.955810  0.005263  0.860771  1
  W  W8  1  0.049661  0.997122  0.141766  1
  W  W9  1  0.549838  0.498234  0.356520  1
  W  W10  1  0.449925  0.998146  0.644643  1
  W  W11  1  0.948971  0.501251  0.857648  1
  O  O12  1  0.764457  0.544064  0.019483  1
  O  O13  1  0.769590  0.958461  0.028471  1
  O  O14  1  0.164695  0.756694  0.120764  1
  O  O15  1  0.955065  0.243952  0.140631  1
  O  O16  1  0.361259  0.060246  0.210683  1
  O  O17  1  0.376716  0.445799  0.215055  1
  O  O18  1  0.878089  0.945024  0.284083  1
  O  O19  1  0.863858  0.559713  0.289025  1
  O  O20  1  0.454904  0.745081  0.356208  1
  O  O21  1  0.656130  0.256491  0.376072  1
  O  O22  1  0.272542  0.463773  0.471167  1
  O  O23  1  0.269005  0.038252  0.481167  1
  O  O24  1  0.731188  0.538329  0.519916  1
  O  O25  1  0.727683  0.963902  0.530158  1
  O  O26  1  0.344635  0.756890  0.623437  1
  O  O27  1  0.545912  0.245072  0.645853  1
  O  O28  1  0.135072  0.059852  0.710633  1
  O  O29  1  0.120010  0.447706  0.714767  1
  O  O30  1  0.617000  0.943548  0.788368  1
  O  O31  1  0.634499  0.565284  0.792129  1
  O  O32  1  0.056275  0.745967  0.855667  1
  O  O33  1  0.847136  0.258469  0.877450  1
  O  O34  1  0.229029  0.467927  0.971075  1
  O  O35  1  0.234753  0.034862  0.979200  1
