# generated using pymatgen
data_YbSb6(S2I)4
_symmetry_space_group_name_H-M   'P 1'
_cell_length_a   7.59253048
_cell_length_b   9.16622099
_cell_length_c   9.23827883
_cell_angle_alpha   92.47262703
_cell_angle_beta   108.09957183
_cell_angle_gamma   95.73696952
_symmetry_Int_Tables_number   1
_chemical_formula_structural   YbSb6(S2I)4
_chemical_formula_sum   'Yb1 Sb6 S8 I4'
_cell_volume   606.18745688
_cell_formula_units_Z   1
loop_
 _symmetry_equiv_pos_site_id
 _symmetry_equiv_pos_as_xyz
  1  'x, y, z'
loop_
 _atom_site_type_symbol
 _atom_site_label
 _atom_site_symmetry_multiplicity
 _atom_site_fract_x
 _atom_site_fract_y
 _atom_site_fract_z
 _atom_site_occupancy
  Yb  Yb0  1  0.000000  0.000000  0.000000  1
  Sb  Sb1  1  0.241378  0.646244  0.146268  1
  Sb  Sb2  1  0.236697  0.930563  0.433819  1
  Sb  Sb3  1  0.758622  0.353756  0.853732  1
  Sb  Sb4  1  0.206805  0.296221  0.779243  1
  Sb  Sb5  1  0.793195  0.703779  0.220757  1
  Sb  Sb6  1  0.763303  0.069437  0.566181  1
  S  S7  1  0.659406  0.079025  0.802624  1
  S  S8  1  0.083785  0.313891  0.011506  1
  S  S9  1  0.916215  0.686109  0.988494  1
  S  S10  1  0.912997  0.981299  0.279264  1
  S  S11  1  0.098722  0.645955  0.388155  1
  S  S12  1  0.901278  0.354045  0.611845  1
  S  S13  1  0.340594  0.920975  0.197376  1
  S  S14  1  0.087003  0.018701  0.720736  1
  I  I15  1  0.351493  0.667864  0.860721  1
  I  I16  1  0.645767  0.728368  0.540506  1
  I  I17  1  0.648507  0.332136  0.139279  1
  I  I18  1  0.354233  0.271632  0.459494  1
