# generated using pymatgen
data_YbGa5Pt3
_symmetry_space_group_name_H-M   'P 1'
_cell_length_a   4.08063400
_cell_length_b   7.50058600
_cell_length_c   21.02163100
_cell_angle_alpha   90.00000000
_cell_angle_beta   90.00000000
_cell_angle_gamma   90.00000000
_symmetry_Int_Tables_number   1
_chemical_formula_structural   YbGa5Pt3
_chemical_formula_sum   'Yb4 Ga20 Pt12'
_cell_volume   643.41213446
_cell_formula_units_Z   4
loop_
 _symmetry_equiv_pos_site_id
 _symmetry_equiv_pos_as_xyz
  1  'x, y, z'
loop_
 _atom_site_type_symbol
 _atom_site_label
 _atom_site_symmetry_multiplicity
 _atom_site_fract_x
 _atom_site_fract_y
 _atom_site_fract_z
 _atom_site_occupancy
  Yb  Yb0  1  0.250000  0.116366  0.639725  1
  Yb  Yb1  1  0.750000  0.883634  0.360275  1
  Yb  Yb2  1  0.250000  0.383634  0.139725  1
  Yb  Yb3  1  0.750000  0.616366  0.860275  1
  Ga  Ga4  1  0.750000  0.349946  0.381561  1
  Ga  Ga5  1  0.750000  0.879933  0.982899  1
  Ga  Ga6  1  0.750000  0.678592  0.199431  1
  Ga  Ga7  1  0.250000  0.873550  0.489333  1
  Ga  Ga8  1  0.250000  0.626450  0.989333  1
  Ga  Ga9  1  0.250000  0.321408  0.800569  1
  Ga  Ga10  1  0.750000  0.078314  0.206824  1
  Ga  Ga11  1  0.250000  0.650054  0.618439  1
  Ga  Ga12  1  0.250000  0.578314  0.293176  1
  Ga  Ga13  1  0.250000  0.178592  0.300569  1
  Ga  Ga14  1  0.750000  0.150054  0.881561  1
  Ga  Ga15  1  0.250000  0.921686  0.793176  1
  Ga  Ga16  1  0.750000  0.373550  0.010667  1
  Ga  Ga17  1  0.750000  0.620067  0.482899  1
  Ga  Ga18  1  0.750000  0.126450  0.510667  1
  Ga  Ga19  1  0.250000  0.120067  0.017101  1
  Ga  Ga20  1  0.250000  0.849946  0.118439  1
  Ga  Ga21  1  0.250000  0.379933  0.517101  1
  Ga  Ga22  1  0.750000  0.421686  0.706824  1
  Ga  Ga23  1  0.750000  0.821408  0.699431  1
  Pt  Pt24  1  0.750000  0.382284  0.260275  1
  Pt  Pt25  1  0.250000  0.882284  0.239725  1
  Pt  Pt26  1  0.250000  0.617716  0.739725  1
  Pt  Pt27  1  0.750000  0.117716  0.760275  1
  Pt  Pt28  1  0.250000  0.163425  0.425142  1
  Pt  Pt29  1  0.750000  0.423577  0.585849  1
  Pt  Pt30  1  0.750000  0.076423  0.085849  1
  Pt  Pt31  1  0.250000  0.923577  0.914151  1
  Pt  Pt32  1  0.750000  0.836575  0.574858  1
  Pt  Pt33  1  0.250000  0.336575  0.925142  1
  Pt  Pt34  1  0.750000  0.663425  0.074858  1
  Pt  Pt35  1  0.250000  0.576423  0.414151  1
