# generated using pymatgen
data_NpNb(Co7B2)3
_symmetry_space_group_name_H-M   'P 1'
_cell_length_a   7.45476263
_cell_length_b   7.45476242
_cell_length_c   7.45476300
_cell_angle_alpha   60.00000188
_cell_angle_beta   60.00000280
_cell_angle_gamma   59.99999839
_symmetry_Int_Tables_number   1
_chemical_formula_structural   NpNb(Co7B2)3
_chemical_formula_sum   'Np1 Nb1 Co21 B6'
_cell_volume   292.94526334
_cell_formula_units_Z   1
loop_
 _symmetry_equiv_pos_site_id
 _symmetry_equiv_pos_as_xyz
  1  'x, y, z'
loop_
 _atom_site_type_symbol
 _atom_site_label
 _atom_site_symmetry_multiplicity
 _atom_site_fract_x
 _atom_site_fract_y
 _atom_site_fract_z
 _atom_site_occupancy
  Np  Np0  1  0.250000  0.250000  0.250000  1
  Nb  Nb1  1  0.750000  0.750000  0.750000  1
  Co  Co2  1  0.000000  0.000000  0.000000  1
  Co  Co3  1  0.850282  0.383239  0.383239  1
  Co  Co4  1  0.383239  0.850282  0.383239  1
  Co  Co5  1  0.383239  0.383239  0.850282  1
  Co  Co6  1  0.383239  0.383239  0.383239  1
  Co  Co7  1  0.151403  0.616199  0.616199  1
  Co  Co8  1  0.616199  0.151403  0.616199  1
  Co  Co9  1  0.616199  0.616199  0.151403  1
  Co  Co10  1  0.616199  0.616199  0.616199  1
  Co  Co11  1  0.663824  0.999104  0.999104  1
  Co  Co12  1  0.663824  0.999104  0.337969  1
  Co  Co13  1  0.663824  0.337969  0.999104  1
  Co  Co14  1  0.999104  0.663824  0.337969  1
  Co  Co15  1  0.999104  0.663824  0.999104  1
  Co  Co16  1  0.337969  0.663824  0.999104  1
  Co  Co17  1  0.999104  0.337969  0.663824  1
  Co  Co18  1  0.337969  0.999104  0.663824  1
  Co  Co19  1  0.999104  0.999104  0.663824  1
  Co  Co20  1  0.337969  0.999104  0.999104  1
  Co  Co21  1  0.999104  0.337969  0.999104  1
  Co  Co22  1  0.999104  0.999104  0.337969  1
  B  B23  1  0.725656  0.274344  0.274344  1
  B  B24  1  0.725656  0.274344  0.725656  1
  B  B25  1  0.725656  0.725656  0.274344  1
  B  B26  1  0.274344  0.725656  0.725656  1
  B  B27  1  0.274344  0.725656  0.274344  1
  B  B28  1  0.274344  0.274344  0.725656  1
