# generated using pymatgen
data_Tm10Ru5Au
_symmetry_space_group_name_H-M   'P 1'
_cell_length_a   10.80088223
_cell_length_b   10.72865300
_cell_length_c   6.32823316
_cell_angle_alpha   90.00000000
_cell_angle_beta   89.71790384
_cell_angle_gamma   90.00000000
_symmetry_Int_Tables_number   1
_chemical_formula_structural   Tm10Ru5Au
_chemical_formula_sum   'Tm20 Ru10 Au2'
_cell_volume   733.29992043
_cell_formula_units_Z   2
loop_
 _symmetry_equiv_pos_site_id
 _symmetry_equiv_pos_as_xyz
  1  'x, y, z'
loop_
 _atom_site_type_symbol
 _atom_site_label
 _atom_site_symmetry_multiplicity
 _atom_site_fract_x
 _atom_site_fract_y
 _atom_site_fract_z
 _atom_site_occupancy
  Tm  Tm0  1  0.291390  0.086684  0.371544  1
  Tm  Tm1  1  0.291390  0.913316  0.871544  1
  Tm  Tm2  1  0.695435  0.091007  0.865179  1
  Tm  Tm3  1  0.695435  0.908993  0.365179  1
  Tm  Tm4  1  0.575740  0.790272  0.871754  1
  Tm  Tm5  1  0.575740  0.209728  0.371754  1
  Tm  Tm6  1  0.410446  0.790963  0.373538  1
  Tm  Tm7  1  0.410446  0.209037  0.873538  1
  Tm  Tm8  1  0.210777  0.413177  0.625540  1
  Tm  Tm9  1  0.210777  0.586823  0.125540  1
  Tm  Tm10  1  0.791861  0.422878  0.127010  1
  Tm  Tm11  1  0.791861  0.577122  0.627010  1
  Tm  Tm12  1  0.919718  0.705351  0.141375  1
  Tm  Tm13  1  0.919718  0.294649  0.641375  1
  Tm  Tm14  1  0.094898  0.701510  0.624607  1
  Tm  Tm15  1  0.094898  0.298490  0.124607  1
  Tm  Tm16  1  0.008918  0.996934  0.499711  1
  Tm  Tm17  1  0.008918  0.003066  0.999711  1
  Tm  Tm18  1  0.500953  0.498583  0.000379  1
  Tm  Tm19  1  0.500953  0.501417  0.500379  1
  Ru  Ru20  1  0.151836  0.152437  0.749280  1
  Ru  Ru21  1  0.151836  0.847563  0.249280  1
  Ru  Ru22  1  0.655895  0.345124  0.748655  1
  Ru  Ru23  1  0.655895  0.654876  0.248655  1
  Ru  Ru24  1  0.347464  0.347392  0.250157  1
  Ru  Ru25  1  0.347464  0.652608  0.750157  1
  Ru  Ru26  1  0.498074  0.000161  0.120671  1
  Ru  Ru27  1  0.498074  0.999839  0.620671  1
  Ru  Ru28  1  0.002315  0.500000  0.879036  1
  Ru  Ru29  1  0.002315  0.500000  0.379036  1
  Au  Au30  1  0.844279  0.155249  0.251563  1
  Au  Au31  1  0.844279  0.844751  0.751563  1
