# generated using pymatgen
data_Tb3Dy13CdNi4Hg3
_symmetry_space_group_name_H-M   'P 1'
_cell_length_a   9.52280130
_cell_length_b   9.51880171
_cell_length_c   9.51880200
_cell_angle_alpha   59.99999901
_cell_angle_beta   60.01389157
_cell_angle_gamma   60.01388906
_symmetry_Int_Tables_number   1
_chemical_formula_structural   Tb3Dy13CdNi4Hg3
_chemical_formula_sum   'Tb3 Dy13 Cd1 Ni4 Hg3'
_cell_volume   610.24670630
_cell_formula_units_Z   1
loop_
 _symmetry_equiv_pos_site_id
 _symmetry_equiv_pos_as_xyz
  1  'x, y, z'
loop_
 _atom_site_type_symbol
 _atom_site_label
 _atom_site_symmetry_multiplicity
 _atom_site_fract_x
 _atom_site_fract_y
 _atom_site_fract_z
 _atom_site_occupancy
  Tb  Tb0  1  0.600037  0.599105  0.599105  1
  Tb  Tb1  1  0.600037  0.599105  0.201754  1
  Tb  Tb2  1  0.600037  0.201754  0.599105  1
  Dy  Dy3  1  0.199824  0.600059  0.600059  1
  Dy  Dy4  1  0.060717  0.438872  0.438872  1
  Dy  Dy5  1  0.437300  0.062061  0.062061  1
  Dy  Dy6  1  0.437300  0.062061  0.438577  1
  Dy  Dy7  1  0.060717  0.438872  0.061540  1
  Dy  Dy8  1  0.437300  0.438577  0.062061  1
  Dy  Dy9  1  0.060717  0.061540  0.438872  1
  Dy  Dy10  1  0.184939  0.814153  0.814153  1
  Dy  Dy11  1  0.812905  0.186634  0.186634  1
  Dy  Dy12  1  0.812905  0.186634  0.813827  1
  Dy  Dy13  1  0.184939  0.814153  0.186755  1
  Dy  Dy14  1  0.812905  0.813827  0.186634  1
  Dy  Dy15  1  0.184939  0.186755  0.814153  1
  Cd  Cd16  1  0.508621  0.830460  0.830460  1
  Ni  Ni17  1  0.392295  0.392445  0.392445  1
  Ni  Ni18  1  0.392295  0.392445  0.822815  1
  Ni  Ni19  1  0.392295  0.822815  0.392445  1
  Ni  Ni20  1  0.822942  0.392353  0.392353  1
  Hg  Hg21  1  0.834678  0.835677  0.835677  1
  Hg  Hg22  1  0.834678  0.835677  0.493967  1
  Hg  Hg23  1  0.834678  0.493967  0.835677  1
