# generated using pymatgen
data_TbNd7(Nb3Si4)4
_symmetry_space_group_name_H-M   'P 1'
_cell_length_a   6.99500410
_cell_length_b   7.21379927
_cell_length_c   13.61403605
_cell_angle_alpha   89.93514092
_cell_angle_beta   89.99823927
_cell_angle_gamma   89.96697106
_symmetry_Int_Tables_number   1
_chemical_formula_structural   TbNd7(Nb3Si4)4
_chemical_formula_sum   'Tb1 Nd7 Nb12 Si16'
_cell_volume   686.97126638
_cell_formula_units_Z   1
loop_
 _symmetry_equiv_pos_site_id
 _symmetry_equiv_pos_as_xyz
  1  'x, y, z'
loop_
 _atom_site_type_symbol
 _atom_site_label
 _atom_site_symmetry_multiplicity
 _atom_site_fract_x
 _atom_site_fract_y
 _atom_site_fract_z
 _atom_site_occupancy
  Tb  Tb0  1  0.003965  0.170194  0.097044  1
  Nd  Nd1  1  0.504616  0.330924  0.095949  1
  Nd  Nd2  1  0.004834  0.168957  0.403760  1
  Nd  Nd3  1  0.495371  0.668648  0.596125  1
  Nd  Nd4  1  0.995105  0.830509  0.904628  1
  Nd  Nd5  1  0.494869  0.669393  0.904752  1
  Nd  Nd6  1  0.995343  0.831050  0.596028  1
  Nd  Nd7  1  0.504707  0.330931  0.403041  1
  Nb  Nb8  1  0.663734  0.011510  0.750430  1
  Nb  Nb9  1  0.163652  0.487894  0.750444  1
  Nb  Nb10  1  0.336073  0.989581  0.249214  1
  Nb  Nb11  1  0.836947  0.511746  0.249564  1
  Nb  Nb12  1  0.837997  0.324048  0.626394  1
  Nb  Nb13  1  0.337630  0.175817  0.874328  1
  Nb  Nb14  1  0.161665  0.676715  0.125854  1
  Nb  Nb15  1  0.662412  0.824817  0.372956  1
  Nb  Nb16  1  0.161493  0.675860  0.373027  1
  Nb  Nb17  1  0.662395  0.824802  0.125514  1
  Nb  Nb18  1  0.839020  0.322782  0.874519  1
  Nb  Nb19  1  0.338450  0.175937  0.626315  1
  Si  Si20  1  0.797908  0.615427  0.750446  1
  Si  Si21  1  0.297974  0.884119  0.750378  1
  Si  Si22  1  0.200790  0.382204  0.248668  1
  Si  Si23  1  0.704088  0.116765  0.248488  1
  Si  Si24  1  0.543496  0.369909  0.750556  1
  Si  Si25  1  0.043585  0.129676  0.750116  1
  Si  Si26  1  0.456416  0.630314  0.249361  1
  Si  Si27  1  0.957171  0.871933  0.248744  1
  Si  Si28  1  0.658054  0.039976  0.541993  1
  Si  Si29  1  0.157829  0.457939  0.959472  1
  Si  Si30  1  0.337807  0.962876  0.042842  1
  Si  Si31  1  0.841536  0.540236  0.457605  1
  Si  Si32  1  0.342108  0.959657  0.457494  1
  Si  Si33  1  0.843007  0.536523  0.042909  1
  Si  Si34  1  0.659736  0.040167  0.959022  1
  Si  Si35  1  0.158220  0.460160  0.542021  1
