# generated using pymatgen
data_Y3Ho9InCo5
_symmetry_space_group_name_H-M   'P 1'
_cell_length_a   8.27158587
_cell_length_b   8.27172325
_cell_length_c   8.26565976
_cell_angle_alpha   110.69764697
_cell_angle_beta   110.70204000
_cell_angle_gamma   107.07080074
_symmetry_Int_Tables_number   1
_chemical_formula_structural   Y3Ho9InCo5
_chemical_formula_sum   'Y3 Ho9 In1 Co5'
_cell_volume   434.61437461
_cell_formula_units_Z   1
loop_
 _symmetry_equiv_pos_site_id
 _symmetry_equiv_pos_as_xyz
  1  'x, y, z'
loop_
 _atom_site_type_symbol
 _atom_site_label
 _atom_site_symmetry_multiplicity
 _atom_site_fract_x
 _atom_site_fract_y
 _atom_site_fract_z
 _atom_site_occupancy
  Y  Y0  1  0.811435  0.706121  0.517541  1
  Y  Y1  1  0.187881  0.293285  0.481160  1
  Y  Y2  1  0.187859  0.705446  0.893309  1
  Ho  Ho3  1  0.812843  0.293660  0.106523  1
  Ho  Ho4  1  0.686510  0.379978  0.694764  1
  Ho  Ho5  1  0.313829  0.619716  0.306250  1
  Ho  Ho6  1  0.686483  0.992333  0.306215  1
  Ho  Ho7  1  0.314725  0.008147  0.694716  1
  Ho  Ho8  1  0.603439  0.794478  0.809591  1
  Ho  Ho9  1  0.399619  0.207131  0.191595  1
  Ho  Ho10  1  0.984477  0.791966  0.191631  1
  Ho  Ho11  1  0.015124  0.206144  0.809610  1
  In  In12  1  0.499603  0.500887  0.000199  1
  Co  Co13  1  0.620226  0.000201  0.620439  1
  Co  Co14  1  0.379660  0.000196  0.379871  1
  Co  Co15  1  0.110259  0.612102  0.496863  1
  Co  Co16  1  0.884774  0.386624  0.496869  1
  Co  Co17  1  0.001254  0.001584  0.002853  1
