# generated using pymatgen
data_Tm3Sc2Bi2As
_symmetry_space_group_name_H-M   'P 1'
_cell_length_a   7.80443500
_cell_length_b   8.93518200
_cell_length_c   11.54551100
_cell_angle_alpha   90.00000000
_cell_angle_beta   90.00000000
_cell_angle_gamma   90.00000000
_symmetry_Int_Tables_number   1
_chemical_formula_structural   Tm3Sc2Bi2As
_chemical_formula_sum   'Tm12 Sc8 Bi8 As4'
_cell_volume   805.11520824
_cell_formula_units_Z   4
loop_
 _symmetry_equiv_pos_site_id
 _symmetry_equiv_pos_as_xyz
  1  'x, y, z'
loop_
 _atom_site_type_symbol
 _atom_site_label
 _atom_site_symmetry_multiplicity
 _atom_site_fract_x
 _atom_site_fract_y
 _atom_site_fract_z
 _atom_site_occupancy
  Tm  Tm0  1  0.813102  0.941852  0.061450  1
  Tm  Tm1  1  0.313102  0.058148  0.438550  1
  Tm  Tm2  1  0.186898  0.441852  0.938550  1
  Tm  Tm3  1  0.686898  0.558148  0.561450  1
  Tm  Tm4  1  0.186898  0.058148  0.938550  1
  Tm  Tm5  1  0.686898  0.941852  0.561450  1
  Tm  Tm6  1  0.813102  0.558148  0.061450  1
  Tm  Tm7  1  0.313102  0.441852  0.438550  1
  Tm  Tm8  1  0.164062  0.750000  0.213486  1
  Tm  Tm9  1  0.664062  0.250000  0.286514  1
  Tm  Tm10  1  0.835938  0.250000  0.786514  1
  Tm  Tm11  1  0.335938  0.750000  0.713486  1
  Sc  Sc12  1  0.464856  0.750000  0.002496  1
  Sc  Sc13  1  0.964856  0.250000  0.497504  1
  Sc  Sc14  1  0.535144  0.250000  0.997504  1
  Sc  Sc15  1  0.035144  0.750000  0.502496  1
  Sc  Sc16  1  0.637195  0.750000  0.291812  1
  Sc  Sc17  1  0.137195  0.250000  0.208188  1
  Sc  Sc18  1  0.362805  0.250000  0.708188  1
  Sc  Sc19  1  0.862805  0.750000  0.791812  1
  Bi  Bi20  1  0.928691  0.511407  0.328392  1
  Bi  Bi21  1  0.428691  0.488593  0.171608  1
  Bi  Bi22  1  0.071309  0.011407  0.671608  1
  Bi  Bi23  1  0.571309  0.988593  0.828392  1
  Bi  Bi24  1  0.071309  0.488593  0.671608  1
  Bi  Bi25  1  0.571309  0.511407  0.828392  1
  Bi  Bi26  1  0.928691  0.988593  0.328392  1
  Bi  Bi27  1  0.428691  0.011407  0.171608  1
  As  As28  1  0.409713  0.750000  0.473299  1
  As  As29  1  0.909713  0.250000  0.026701  1
  As  As30  1  0.590287  0.250000  0.526701  1
  As  As31  1  0.090287  0.750000  0.973299  1
