# generated using pymatgen
data_HoCo2(PIr)3
_symmetry_space_group_name_H-M   'P 1'
_cell_length_a   3.86047700
_cell_length_b   10.58464100
_cell_length_c   12.17925300
_cell_angle_alpha   90.00000000
_cell_angle_beta   90.00000000
_cell_angle_gamma   90.00000000
_symmetry_Int_Tables_number   1
_chemical_formula_structural   HoCo2(PIr)3
_chemical_formula_sum   'Ho4 Co8 P12 Ir12'
_cell_volume   497.66575123
_cell_formula_units_Z   4
loop_
 _symmetry_equiv_pos_site_id
 _symmetry_equiv_pos_as_xyz
  1  'x, y, z'
loop_
 _atom_site_type_symbol
 _atom_site_label
 _atom_site_symmetry_multiplicity
 _atom_site_fract_x
 _atom_site_fract_y
 _atom_site_fract_z
 _atom_site_occupancy
  Ho  Ho0  1  0.250000  0.584746  0.710372  1
  Ho  Ho1  1  0.250000  0.915254  0.210372  1
  Ho  Ho2  1  0.750000  0.415254  0.289628  1
  Ho  Ho3  1  0.750000  0.084746  0.789628  1
  Co  Co4  1  0.250000  0.884061  0.697287  1
  Co  Co5  1  0.250000  0.615939  0.197287  1
  Co  Co6  1  0.750000  0.115939  0.302713  1
  Co  Co7  1  0.750000  0.384061  0.802713  1
  Co  Co8  1  0.250000  0.464156  0.933532  1
  Co  Co9  1  0.250000  0.035844  0.433532  1
  Co  Co10  1  0.750000  0.535844  0.066468  1
  Co  Co11  1  0.750000  0.964156  0.566468  1
  P  P12  1  0.250000  0.432267  0.111119  1
  P  P13  1  0.250000  0.067733  0.611119  1
  P  P14  1  0.750000  0.567733  0.888881  1
  P  P15  1  0.750000  0.932267  0.388881  1
  P  P16  1  0.250000  0.274829  0.870336  1
  P  P17  1  0.250000  0.225171  0.370336  1
  P  P18  1  0.750000  0.725171  0.129664  1
  P  P19  1  0.750000  0.774829  0.629664  1
  P  P20  1  0.250000  0.597636  0.377142  1
  P  P21  1  0.250000  0.902364  0.877142  1
  P  P22  1  0.750000  0.402364  0.622858  1
  P  P23  1  0.750000  0.097636  0.122858  1
  Ir  Ir24  1  0.250000  0.723036  0.990498  1
  Ir  Ir25  1  0.250000  0.776964  0.490498  1
  Ir  Ir26  1  0.750000  0.276964  0.009502  1
  Ir  Ir27  1  0.750000  0.223036  0.509502  1
  Ir  Ir28  1  0.250000  0.410046  0.476601  1
  Ir  Ir29  1  0.250000  0.089954  0.976601  1
  Ir  Ir30  1  0.750000  0.589954  0.523399  1
  Ir  Ir31  1  0.750000  0.910046  0.023399  1
  Ir  Ir32  1  0.250000  0.227474  0.178607  1
  Ir  Ir33  1  0.250000  0.272526  0.678607  1
  Ir  Ir34  1  0.750000  0.772526  0.821393  1
  Ir  Ir35  1  0.750000  0.727474  0.321393  1
