# generated using pymatgen
data_La6Nd2SnPd24
_symmetry_space_group_name_H-M   'P 1'
_cell_length_a   8.58321156
_cell_length_b   8.58321112
_cell_length_c   8.58321100
_cell_angle_alpha   89.97926642
_cell_angle_beta   90.02073358
_cell_angle_gamma   90.02073441
_symmetry_Int_Tables_number   1
_chemical_formula_structural   La6Nd2SnPd24
_chemical_formula_sum   'La6 Nd2 Sn1 Pd24'
_cell_volume   632.33805054
_cell_formula_units_Z   1
loop_
 _symmetry_equiv_pos_site_id
 _symmetry_equiv_pos_as_xyz
  1  'x, y, z'
loop_
 _atom_site_type_symbol
 _atom_site_label
 _atom_site_symmetry_multiplicity
 _atom_site_fract_x
 _atom_site_fract_y
 _atom_site_fract_z
 _atom_site_occupancy
  La  La0  1  0.252221  0.252251  0.252251  1
  La  La1  1  0.747779  0.747749  0.747749  1
  La  La2  1  0.747749  0.747779  0.252251  1
  La  La3  1  0.747749  0.252251  0.747779  1
  La  La4  1  0.252251  0.252221  0.747749  1
  La  La5  1  0.252251  0.747749  0.252221  1
  Nd  Nd6  1  0.252041  0.747959  0.747959  1
  Nd  Nd7  1  0.747959  0.252041  0.252041  1
  Sn  Sn8  1  0.000000  0.000000  0.000000  1
  Pd  Pd9  1  0.267025  0.500224  0.999473  1
  Pd  Pd10  1  0.732975  0.499776  0.000527  1
  Pd  Pd11  1  0.999473  0.267025  0.499776  1
  Pd  Pd12  1  0.500224  0.267025  0.000527  1
  Pd  Pd13  1  0.000527  0.732975  0.500224  1
  Pd  Pd14  1  0.499776  0.732975  0.999473  1
  Pd  Pd15  1  0.500224  0.000527  0.267025  1
  Pd  Pd16  1  0.267025  0.999473  0.500224  1
  Pd  Pd17  1  0.499776  0.999473  0.732975  1
  Pd  Pd18  1  0.732975  0.000527  0.499776  1
  Pd  Pd19  1  0.999473  0.499776  0.267025  1
  Pd  Pd20  1  0.000527  0.500224  0.732975  1
  Pd  Pd21  1  0.255662  0.500367  0.500367  1
  Pd  Pd22  1  0.744338  0.499633  0.499633  1
  Pd  Pd23  1  0.500367  0.255662  0.499633  1
  Pd  Pd24  1  0.499633  0.744338  0.500367  1
  Pd  Pd25  1  0.500367  0.499633  0.255662  1
  Pd  Pd26  1  0.499633  0.500367  0.744338  1
  Pd  Pd27  1  0.313492  0.999435  0.999435  1
  Pd  Pd28  1  0.686508  0.000565  0.000565  1
  Pd  Pd29  1  0.999435  0.313492  0.000565  1
  Pd  Pd30  1  0.000565  0.686508  0.999435  1
  Pd  Pd31  1  0.999435  0.000565  0.313492  1
  Pd  Pd32  1  0.000565  0.999435  0.686508  1
