# generated using pymatgen
data_RbTm2Cu3Se5
_symmetry_space_group_name_H-M   'P 1'
_cell_length_a   4.13130000
_cell_length_b   7.55702035
_cell_length_c   17.04033600
_cell_angle_alpha   90.00000000
_cell_angle_beta   90.00000000
_cell_angle_gamma   74.13677580
_symmetry_Int_Tables_number   1
_chemical_formula_structural   RbTm2Cu3Se5
_chemical_formula_sum   'Rb2 Tm4 Cu6 Se10'
_cell_volume   511.74435202
_cell_formula_units_Z   2
loop_
 _symmetry_equiv_pos_site_id
 _symmetry_equiv_pos_as_xyz
  1  'x, y, z'
loop_
 _atom_site_type_symbol
 _atom_site_label
 _atom_site_symmetry_multiplicity
 _atom_site_fract_x
 _atom_site_fract_y
 _atom_site_fract_z
 _atom_site_occupancy
  Rb  Rb0  1  0.939235  0.121530  0.250000  1
  Rb  Rb1  1  0.060765  0.878470  0.750000  1
  Tm  Tm2  1  0.192405  0.615187  0.092207  1
  Tm  Tm3  1  0.192405  0.615187  0.407793  1
  Tm  Tm4  1  0.807595  0.384813  0.592207  1
  Tm  Tm5  1  0.807595  0.384813  0.907793  1
  Cu  Cu6  1  0.416569  0.166861  0.030187  1
  Cu  Cu7  1  0.659434  0.681134  0.250000  1
  Cu  Cu8  1  0.416569  0.166861  0.469814  1
  Cu  Cu9  1  0.583431  0.833139  0.530186  1
  Cu  Cu10  1  0.340566  0.318866  0.750000  1
  Cu  Cu11  1  0.583431  0.833139  0.969814  1
  Se  Se12  1  0.831453  0.337095  0.070907  1
  Se  Se13  1  0.561770  0.876460  0.116017  1
  Se  Se14  1  0.245305  0.509388  0.250000  1
  Se  Se15  1  0.561770  0.876460  0.383982  1
  Se  Se16  1  0.831453  0.337095  0.429093  1
  Se  Se17  1  0.168546  0.662905  0.570908  1
  Se  Se18  1  0.438229  0.123541  0.616017  1
  Se  Se19  1  0.754694  0.490613  0.750000  1
  Se  Se20  1  0.438229  0.123541  0.883982  1
  Se  Se21  1  0.168546  0.662905  0.929093  1
