# generated using pymatgen
data_Nd2HoTm17Sb12
_symmetry_space_group_name_H-M   'P 1'
_cell_length_a   8.03294568
_cell_length_b   9.21306100
_cell_length_c   11.67513100
_cell_angle_alpha   90.00000000
_cell_angle_beta   90.02358037
_cell_angle_gamma   90.00000000
_symmetry_Int_Tables_number   1
_chemical_formula_structural   Nd2HoTm17Sb12
_chemical_formula_sum   'Nd2 Ho1 Tm17 Sb12'
_cell_volume   864.05323859
_cell_formula_units_Z   1
loop_
 _symmetry_equiv_pos_site_id
 _symmetry_equiv_pos_as_xyz
  1  'x, y, z'
loop_
 _atom_site_type_symbol
 _atom_site_label
 _atom_site_symmetry_multiplicity
 _atom_site_fract_x
 _atom_site_fract_y
 _atom_site_fract_z
 _atom_site_occupancy
  Nd  Nd0  1  0.816542  0.250000  0.279334  1
  Nd  Nd1  1  0.683430  0.750000  0.779171  1
  Ho  Ho2  1  0.184009  0.750000  0.719529  1
  Tm  Tm3  1  0.351453  0.750000  0.216293  1
  Tm  Tm4  1  0.852822  0.750000  0.283201  1
  Tm  Tm5  1  0.647137  0.250000  0.783595  1
  Tm  Tm6  1  0.148691  0.250000  0.716341  1
  Tm  Tm7  1  0.693072  0.561208  0.061118  1
  Tm  Tm8  1  0.192547  0.939074  0.438361  1
  Tm  Tm9  1  0.307109  0.060834  0.938643  1
  Tm  Tm10  1  0.807461  0.438638  0.561166  1
  Tm  Tm11  1  0.307109  0.439166  0.938643  1
  Tm  Tm12  1  0.807461  0.061362  0.561166  1
  Tm  Tm13  1  0.693072  0.938792  0.061118  1
  Tm  Tm14  1  0.192547  0.560926  0.438361  1
  Tm  Tm15  1  0.473981  0.250000  0.488843  1
  Tm  Tm16  1  0.974930  0.250000  0.012568  1
  Tm  Tm17  1  0.524963  0.750000  0.511891  1
  Tm  Tm18  1  0.026294  0.750000  0.989174  1
  Tm  Tm19  1  0.315292  0.250000  0.218884  1
  Sb  Sb20  1  0.406070  0.750000  0.963321  1
  Sb  Sb21  1  0.911054  0.750000  0.537440  1
  Sb  Sb22  1  0.587990  0.250000  0.038114  1
  Sb  Sb23  1  0.094588  0.250000  0.463067  1
  Sb  Sb24  1  0.562421  0.992942  0.327610  1
  Sb  Sb25  1  0.070608  0.506563  0.172403  1
  Sb  Sb26  1  0.430244  0.493014  0.672133  1
  Sb  Sb27  1  0.936913  0.007624  0.828186  1
  Sb  Sb28  1  0.430244  0.006986  0.672133  1
  Sb  Sb29  1  0.936913  0.492376  0.828186  1
  Sb  Sb30  1  0.562421  0.507058  0.327610  1
  Sb  Sb31  1  0.070608  0.993437  0.172403  1
