# generated using pymatgen
data_YbTmRh2O7
_symmetry_space_group_name_H-M   'P 1'
_cell_length_a   7.18160775
_cell_length_b   7.15820073
_cell_length_c   7.18160719
_cell_angle_alpha   60.10776434
_cell_angle_beta   60.09290218
_cell_angle_gamma   60.10776473
_symmetry_Int_Tables_number   1
_chemical_formula_structural   YbTmRh2O7
_chemical_formula_sum   'Yb2 Tm2 Rh4 O14'
_cell_volume   261.66321678
_cell_formula_units_Z   2
loop_
 _symmetry_equiv_pos_site_id
 _symmetry_equiv_pos_as_xyz
  1  'x, y, z'
loop_
 _atom_site_type_symbol
 _atom_site_label
 _atom_site_symmetry_multiplicity
 _atom_site_fract_x
 _atom_site_fract_y
 _atom_site_fract_z
 _atom_site_occupancy
  Yb  Yb0  1  0.625000  0.625000  0.125000  1
  Yb  Yb1  1  0.125000  0.625000  0.625000  1
  Tm  Tm2  1  0.625000  0.625000  0.625000  1
  Tm  Tm3  1  0.625000  0.125000  0.625000  1
  Rh  Rh4  1  0.125000  0.125000  0.125000  1
  Rh  Rh5  1  0.625000  0.125000  0.125000  1
  Rh  Rh6  1  0.125000  0.625000  0.125000  1
  Rh  Rh7  1  0.125000  0.125000  0.625000  1
  O  O8  1  0.034776  0.457171  0.458328  1
  O  O9  1  0.791672  0.792829  0.215224  1
  O  O10  1  0.791672  0.200275  0.215224  1
  O  O11  1  0.459019  0.040981  0.459019  1
  O  O12  1  0.034776  0.049725  0.458328  1
  O  O13  1  0.044656  0.455344  0.044656  1
  O  O14  1  0.742612  0.757388  0.742612  1
  O  O15  1  0.507388  0.492612  0.507388  1
  O  O16  1  0.790981  0.209019  0.790981  1
  O  O17  1  0.205344  0.794656  0.205344  1
  O  O18  1  0.215224  0.200275  0.791672  1
  O  O19  1  0.458328  0.049725  0.034776  1
  O  O20  1  0.458328  0.457171  0.034776  1
  O  O21  1  0.215224  0.792829  0.791672  1
