# generated using pymatgen
data_Pa3Ni3Sn4
_symmetry_space_group_name_H-M   'P 1'
_cell_length_a   8.15231683
_cell_length_b   8.15231699
_cell_length_c   8.15231700
_cell_angle_alpha   109.47122065
_cell_angle_beta   109.47122105
_cell_angle_gamma   109.47121982
_symmetry_Int_Tables_number   1
_chemical_formula_structural   Pa3Ni3Sn4
_chemical_formula_sum   'Pa6 Ni6 Sn8'
_cell_volume   417.08183746
_cell_formula_units_Z   2
loop_
 _symmetry_equiv_pos_site_id
 _symmetry_equiv_pos_as_xyz
  1  'x, y, z'
loop_
 _atom_site_type_symbol
 _atom_site_label
 _atom_site_symmetry_multiplicity
 _atom_site_fract_x
 _atom_site_fract_y
 _atom_site_fract_z
 _atom_site_occupancy
  Pa  Pa0  1  0.875000  0.125000  0.750000  1
  Pa  Pa1  1  0.125000  0.750000  0.875000  1
  Pa  Pa2  1  0.375000  0.250000  0.625000  1
  Pa  Pa3  1  0.625000  0.375000  0.250000  1
  Pa  Pa4  1  0.250000  0.625000  0.375000  1
  Pa  Pa5  1  0.750000  0.875000  0.125000  1
  Ni  Ni6  1  0.875000  0.250000  0.125000  1
  Ni  Ni7  1  0.750000  0.375000  0.625000  1
  Ni  Ni8  1  0.250000  0.125000  0.875000  1
  Ni  Ni9  1  0.625000  0.750000  0.375000  1
  Ni  Ni10  1  0.125000  0.875000  0.250000  1
  Ni  Ni11  1  0.375000  0.625000  0.750000  1
  Sn  Sn12  1  0.500000  0.000000  0.831702  1
  Sn  Sn13  1  0.168298  0.168298  0.168298  1
  Sn  Sn14  1  0.500000  0.000000  0.331702  1
  Sn  Sn15  1  0.831702  0.500000  0.000000  1
  Sn  Sn16  1  0.000000  0.331702  0.500000  1
  Sn  Sn17  1  0.331702  0.500000  0.000000  1
  Sn  Sn18  1  0.000000  0.831702  0.500000  1
  Sn  Sn19  1  0.668298  0.668298  0.668298  1
