# generated using pymatgen
data_TaSb3(Se4O13)2
_symmetry_space_group_name_H-M   'P 1'
_cell_length_a   6.96648500
_cell_length_b   7.47034597
_cell_length_c   11.56397885
_cell_angle_alpha   71.67533424
_cell_angle_beta   90.18958713
_cell_angle_gamma   90.22327007
_symmetry_Int_Tables_number   1
_chemical_formula_structural   TaSb3(Se4O13)2
_chemical_formula_sum   'Ta1 Sb3 Se8 O26'
_cell_volume   571.28967057
_cell_formula_units_Z   1
loop_
 _symmetry_equiv_pos_site_id
 _symmetry_equiv_pos_as_xyz
  1  'x, y, z'
loop_
 _atom_site_type_symbol
 _atom_site_label
 _atom_site_symmetry_multiplicity
 _atom_site_fract_x
 _atom_site_fract_y
 _atom_site_fract_z
 _atom_site_occupancy
  Ta  Ta0  1  0.001574  0.349285  0.048551  1
  Sb  Sb1  1  0.501236  0.919275  0.396334  1
  Sb  Sb2  1  0.501312  0.418919  0.395757  1
  Sb  Sb3  1  0.003270  0.847750  0.048789  1
  Se  Se4  1  0.512420  0.896629  0.707230  1
  Se  Se5  1  0.487265  0.401104  0.703346  1
  Se  Se6  1  0.071898  0.050953  0.730503  1
  Se  Se7  1  0.928359  0.555233  0.722912  1
  Se  Se8  1  0.068255  0.674395  0.383241  1
  Se  Se9  1  0.934029  0.176347  0.384306  1
  Se  Se10  1  0.567515  0.593778  0.060931  1
  Se  Se11  1  0.437323  0.092584  0.061004  1
  O  O12  1  0.094617  0.504500  0.636207  1
  O  O13  1  0.912913  0.011880  0.634781  1
  O  O14  1  0.576296  0.696940  0.811718  1
  O  O15  1  0.423061  0.205719  0.811472  1
  O  O16  1  0.248758  0.868033  0.724529  1
  O  O17  1  0.752302  0.371868  0.717681  1
  O  O18  1  0.590121  0.666764  0.399625  1
  O  O19  1  0.410627  0.167694  0.396358  1
  O  O20  1  0.527797  0.810928  0.578835  1
  O  O21  1  0.468653  0.308381  0.577668  1
  O  O22  1  0.216927  0.853084  0.403329  1
  O  O23  1  0.785854  0.352701  0.406711  1
  O  O24  1  0.979163  0.267816  0.231825  1
  O  O25  1  0.999884  0.769921  0.233878  1
  O  O26  1  0.282082  0.273467  0.063010  1
  O  O27  1  0.717313  0.780732  0.062758  1
  O  O28  1  0.289118  0.914127  0.039117  1
  O  O29  1  0.719795  0.419108  0.043165  1
  O  O30  1  0.014998  0.431886  0.869786  1
  O  O31  1  0.960545  0.913826  0.868105  1
  O  O32  1  0.930700  0.097669  0.049795  1
  O  O33  1  0.079200  0.595794  0.053833  1
  O  O34  1  0.503554  0.996528  0.211556  1
  O  O35  1  0.498982  0.498669  0.211395  1
  O  O36  1  0.216536  0.487675  0.380690  1
  O  O37  1  0.785749  0.985439  0.387275  1
