# generated using pymatgen
data_ScNb2Si2Tc3Ge
_symmetry_space_group_name_H-M   'P 1'
_cell_length_a   6.88860300
_cell_length_b   6.98124538
_cell_length_c   3.32369900
_cell_angle_alpha   90.00000000
_cell_angle_beta   90.00000000
_cell_angle_gamma   119.45722637
_symmetry_Int_Tables_number   1
_chemical_formula_structural   ScNb2Si2Tc3Ge
_chemical_formula_sum   'Sc1 Nb2 Si2 Tc3 Ge1'
_cell_volume   139.17646334
_cell_formula_units_Z   1
loop_
 _symmetry_equiv_pos_site_id
 _symmetry_equiv_pos_as_xyz
  1  'x, y, z'
loop_
 _atom_site_type_symbol
 _atom_site_label
 _atom_site_symmetry_multiplicity
 _atom_site_fract_x
 _atom_site_fract_y
 _atom_site_fract_z
 _atom_site_occupancy
  Sc  Sc0  1  0.403065  0.005257  0.500000  1
  Nb  Nb1  1  0.997141  0.399632  0.500000  1
  Nb  Nb2  1  0.604665  0.593668  0.500000  1
  Si  Si3  1  0.667803  0.332875  0.000000  1
  Si  Si4  1  0.999378  0.000637  0.500000  1
  Tc  Tc5  1  0.749963  0.004947  0.000000  1
  Tc  Tc6  1  0.989412  0.739699  0.000000  1
  Tc  Tc7  1  0.254152  0.255864  0.000000  1
  Ge  Ge8  1  0.334423  0.667419  0.000000  1
