# generated using pymatgen
data_SrMoSeO6
_symmetry_space_group_name_H-M   'P 1'
_cell_length_a   6.97727825
_cell_length_b   7.32168378
_cell_length_c   10.99370939
_cell_angle_alpha   99.08525381
_cell_angle_beta   101.36637531
_cell_angle_gamma   89.20661157
_symmetry_Int_Tables_number   1
_chemical_formula_structural   SrMoSeO6
_chemical_formula_sum   'Sr4 Mo4 Se4 O24'
_cell_volume   543.60914106
_cell_formula_units_Z   4
loop_
 _symmetry_equiv_pos_site_id
 _symmetry_equiv_pos_as_xyz
  1  'x, y, z'
loop_
 _atom_site_type_symbol
 _atom_site_label
 _atom_site_symmetry_multiplicity
 _atom_site_fract_x
 _atom_site_fract_y
 _atom_site_fract_z
 _atom_site_occupancy
  Sr  Sr0  1  0.759729  0.859873  0.513362  1
  Sr  Sr1  1  0.240271  0.140127  0.486638  1
  Sr  Sr2  1  0.658313  0.708824  0.846868  1
  Sr  Sr3  1  0.341687  0.291176  0.153132  1
  Mo  Mo4  1  0.164703  0.957295  0.800163  1
  Mo  Mo5  1  0.835297  0.042705  0.199837  1
  Mo  Mo6  1  0.167254  0.452984  0.794968  1
  Mo  Mo7  1  0.832746  0.547016  0.205032  1
  Se  Se8  1  0.284435  0.643679  0.529399  1
  Se  Se9  1  0.715565  0.356321  0.470601  1
  Se  Se10  1  0.617770  0.189027  0.785034  1
  Se  Se11  1  0.382230  0.810973  0.214966  1
  O  O12  1  0.176597  0.054943  0.956340  1
  O  O13  1  0.823403  0.945057  0.043660  1
  O  O14  1  0.911656  0.889346  0.753793  1
  O  O15  1  0.088344  0.110654  0.246207  1
  O  O16  1  0.139040  0.186012  0.724940  1
  O  O17  1  0.860960  0.813988  0.275060  1
  O  O18  1  0.268207  0.713159  0.823894  1
  O  O19  1  0.731793  0.286841  0.176106  1
  O  O20  1  0.164554  0.845390  0.587001  1
  O  O21  1  0.835446  0.154610  0.412999  1
  O  O22  1  0.477806  0.016662  0.822928  1
  O  O23  1  0.522194  0.983338  0.177072  1
  O  O24  1  0.201861  0.431386  0.953886  1
  O  O25  1  0.798139  0.568614  0.046114  1
  O  O26  1  0.917361  0.504794  0.760372  1
  O  O27  1  0.082639  0.495206  0.239628  1
  O  O28  1  0.200688  0.469108  0.600964  1
  O  O29  1  0.799312  0.530892  0.399036  1
  O  O30  1  0.487295  0.390109  0.809469  1
  O  O31  1  0.512705  0.609891  0.190531  1
  O  O32  1  0.520011  0.682645  0.608836  1
  O  O33  1  0.479989  0.317355  0.391164  1
  O  O34  1  0.576673  0.131731  0.624654  1
  O  O35  1  0.423327  0.868269  0.375346  1
