# generated using pymatgen
data_Pa4Ga12Pd
_symmetry_space_group_name_H-M   'P 1'
_cell_length_a   7.51562786
_cell_length_b   7.50929508
_cell_length_c   7.51135542
_cell_angle_alpha   109.43849304
_cell_angle_beta   109.47883013
_cell_angle_gamma   109.46772871
_symmetry_Int_Tables_number   1
_chemical_formula_structural   Pa4Ga12Pd
_chemical_formula_sum   'Pa4 Ga12 Pd1'
_cell_volume   326.44803995
_cell_formula_units_Z   1
loop_
 _symmetry_equiv_pos_site_id
 _symmetry_equiv_pos_as_xyz
  1  'x, y, z'
loop_
 _atom_site_type_symbol
 _atom_site_label
 _atom_site_symmetry_multiplicity
 _atom_site_fract_x
 _atom_site_fract_y
 _atom_site_fract_z
 _atom_site_occupancy
  Pa  Pa0  1  0.499999  0.000000  0.000000  1
  Pa  Pa1  1  0.000000  0.499999  0.000000  1
  Pa  Pa2  1  0.000000  0.000000  0.499999  1
  Pa  Pa3  1  0.499999  0.499999  0.499999  1
  Ga  Ga4  1  0.297856  0.297675  0.000235  1
  Ga  Ga5  1  0.702143  0.702324  0.999765  1
  Ga  Ga6  1  0.749766  0.499773  0.249981  1
  Ga  Ga7  1  0.499990  0.749995  0.249995  1
  Ga  Ga8  1  0.297856  0.000180  0.297621  1
  Ga  Ga9  1  0.000000  0.297608  0.297582  1
  Ga  Ga10  1  0.749766  0.249994  0.499785  1
  Ga  Ga11  1  0.250234  0.750006  0.500215  1
  Ga  Ga12  1  0.702143  0.999820  0.702378  1
  Ga  Ga13  1  0.000000  0.702391  0.702417  1
  Ga  Ga14  1  0.500010  0.250005  0.750005  1
  Ga  Ga15  1  0.250234  0.500227  0.750019  1
  Pd  Pd16  1  0.000000  0.000000  0.000000  1
