# generated using pymatgen
data_Er4Tm4Si12PtRh3
_symmetry_space_group_name_H-M   'P 1'
_cell_length_a   8.14394303
_cell_length_b   8.14536858
_cell_length_c   7.80620500
_cell_angle_alpha   90.00085517
_cell_angle_beta   89.99885762
_cell_angle_gamma   120.00343511
_symmetry_Int_Tables_number   1
_chemical_formula_structural   Er4Tm4Si12PtRh3
_chemical_formula_sum   'Er4 Tm4 Si12 Pt1 Rh3'
_cell_volume   448.43656575
_cell_formula_units_Z   1
loop_
 _symmetry_equiv_pos_site_id
 _symmetry_equiv_pos_as_xyz
  1  'x, y, z'
loop_
 _atom_site_type_symbol
 _atom_site_label
 _atom_site_symmetry_multiplicity
 _atom_site_fract_x
 _atom_site_fract_y
 _atom_site_fract_z
 _atom_site_occupancy
  Er  Er0  1  0.491305  0.508695  0.748067  1
  Er  Er1  1  0.510391  0.020776  0.252347  1
  Er  Er2  1  0.000020  0.000011  0.748773  1
  Er  Er3  1  0.999970  0.999991  0.250491  1
  Tm  Tm4  1  0.979280  0.489672  0.252330  1
  Tm  Tm5  1  0.510398  0.489677  0.252321  1
  Tm  Tm6  1  0.491418  0.982900  0.747965  1
  Tm  Tm7  1  0.017102  0.508587  0.747950  1
  Si  Si8  1  0.166825  0.833045  0.499691  1
  Si  Si9  1  0.166769  0.333729  0.499517  1
  Si  Si10  1  0.666300  0.833181  0.499570  1
  Si  Si11  1  0.335510  0.167785  0.000192  1
  Si  Si12  1  0.833314  0.666486  0.500348  1
  Si  Si13  1  0.832351  0.167870  0.000153  1
  Si  Si14  1  0.832296  0.664436  0.000318  1
  Si  Si15  1  0.164231  0.328637  0.999847  1
  Si  Si16  1  0.671364  0.835722  0.999829  1
  Si  Si17  1  0.333456  0.166768  0.500470  1
  Si  Si18  1  0.833383  0.166841  0.500519  1
  Si  Si19  1  0.164301  0.835596  0.999726  1
  Pt  Pt20  1  0.333094  0.666423  0.034523  1
  Rh  Rh21  1  0.666895  0.333358  0.963705  1
  Rh  Rh22  1  0.666911  0.333370  0.536049  1
  Rh  Rh23  1  0.333114  0.666447  0.465297  1
