# generated using pymatgen
data_Pr7Nd13(SnBi)8
_symmetry_space_group_name_H-M   'P 1'
_cell_length_a   8.46721136
_cell_length_b   8.50899919
_cell_length_c   16.19926158
_cell_angle_alpha   90.01400873
_cell_angle_beta   90.02712077
_cell_angle_gamma   89.98015309
_symmetry_Int_Tables_number   1
_chemical_formula_structural   Pr7Nd13(SnBi)8
_chemical_formula_sum   'Pr7 Nd13 Sn8 Bi8'
_cell_volume   1167.11597600
_cell_formula_units_Z   1
loop_
 _symmetry_equiv_pos_site_id
 _symmetry_equiv_pos_as_xyz
  1  'x, y, z'
loop_
 _atom_site_type_symbol
 _atom_site_label
 _atom_site_symmetry_multiplicity
 _atom_site_fract_x
 _atom_site_fract_y
 _atom_site_fract_z
 _atom_site_occupancy
  Pr  Pr0  1  0.048697  0.174498  0.609449  1
  Pr  Pr1  1  0.451309  0.674482  0.390591  1
  Pr  Pr2  1  0.951248  0.825581  0.109409  1
  Pr  Pr3  1  0.451276  0.674454  0.109420  1
  Pr  Pr4  1  0.951301  0.825540  0.390591  1
  Pr  Pr5  1  0.548718  0.325558  0.609390  1
  Pr  Pr6  1  0.048690  0.174520  0.890607  1
  Nd  Nd7  1  0.391239  0.835308  0.879019  1
  Nd  Nd8  1  0.891123  0.664671  0.621017  1
  Nd  Nd9  1  0.608845  0.164718  0.378999  1
  Nd  Nd10  1  0.108816  0.335254  0.121009  1
  Nd  Nd11  1  0.608787  0.164733  0.120935  1
  Nd  Nd12  1  0.108870  0.335284  0.378995  1
  Nd  Nd13  1  0.391167  0.835313  0.621045  1
  Nd  Nd14  1  0.891090  0.664629  0.878996  1
  Nd  Nd15  1  0.548868  0.325872  0.890189  1
  Nd  Nd16  1  0.217685  0.496487  0.750058  1
  Nd  Nd17  1  0.717472  0.003601  0.750050  1
  Nd  Nd18  1  0.782442  0.503448  0.250001  1
  Nd  Nd19  1  0.282453  0.996536  0.250010  1
  Sn  Sn20  1  0.589817  0.622973  0.750169  1
  Sn  Sn21  1  0.089828  0.876688  0.750012  1
  Sn  Sn22  1  0.410092  0.376730  0.249993  1
  Sn  Sn23  1  0.910106  0.123273  0.249988  1
  Sn  Sn24  1  0.350340  0.136559  0.750308  1
  Sn  Sn25  1  0.849634  0.363736  0.750174  1
  Sn  Sn26  1  0.650067  0.863815  0.250003  1
  Sn  Sn27  1  0.150060  0.636190  0.249999  1
  Bi  Bi28  1  0.269569  0.020236  0.044987  1
  Bi  Bi29  1  0.769590  0.479676  0.455023  1
  Bi  Bi30  1  0.730425  0.979660  0.544994  1
  Bi  Bi31  1  0.231090  0.519801  0.954910  1
  Bi  Bi32  1  0.730109  0.980188  0.954952  1
  Bi  Bi33  1  0.230395  0.520297  0.544996  1
  Bi  Bi34  1  0.269584  0.020315  0.455029  1
  Bi  Bi35  1  0.769199  0.479373  0.044682  1
