# generated using pymatgen
data_Dy11YCo4BiOs
_symmetry_space_group_name_H-M   'P 1'
_cell_length_a   8.34308729
_cell_length_b   8.34308713
_cell_length_c   8.33450268
_cell_angle_alpha   111.39012352
_cell_angle_beta   110.29838044
_cell_angle_gamma   106.80449247
_symmetry_Int_Tables_number   1
_chemical_formula_structural   Dy11YCo4BiOs
_chemical_formula_sum   'Dy11 Y1 Co4 Bi1 Os1'
_cell_volume   445.57506970
_cell_formula_units_Z   1
loop_
 _symmetry_equiv_pos_site_id
 _symmetry_equiv_pos_as_xyz
  1  'x, y, z'
loop_
 _atom_site_type_symbol
 _atom_site_label
 _atom_site_symmetry_multiplicity
 _atom_site_fract_x
 _atom_site_fract_y
 _atom_site_fract_z
 _atom_site_occupancy
  Dy  Dy0  1  0.180868  0.283219  0.464088  1
  Dy  Dy1  1  0.180839  0.716606  0.897445  1
  Dy  Dy2  1  0.819256  0.283310  0.102567  1
  Dy  Dy3  1  0.687717  0.378766  0.691195  1
  Dy  Dy4  1  0.311955  0.621034  0.308732  1
  Dy  Dy5  1  0.687698  0.996777  0.308732  1
  Dy  Dy6  1  0.312429  0.003477  0.691195  1
  Dy  Dy7  1  0.591164  0.787567  0.803996  1
  Dy  Dy8  1  0.408514  0.212272  0.195997  1
  Dy  Dy9  1  0.983725  0.787483  0.195997  1
  Dy  Dy10  1  0.016429  0.212832  0.803996  1
  Y  Y11  1  0.818329  0.716875  0.535204  1
  Co  Co12  1  0.623652  0.000022  0.623674  1
  Co  Co13  1  0.376219  0.000041  0.376260  1
  Co  Co14  1  0.111371  0.610463  0.500071  1
  Co  Co15  1  0.889609  0.388700  0.500071  1
  Bi  Bi16  1  0.500110  0.500097  0.000208  1
  Os  Os17  1  0.000115  0.000458  0.000573  1
