# generated using pymatgen
data_Hf18Ti2Fe2Tc5Os
_symmetry_space_group_name_H-M   'P 1'
_cell_length_a   8.38786400
_cell_length_b   8.60324311
_cell_length_c   8.61425269
_cell_angle_alpha   119.95862987
_cell_angle_beta   90.00000000
_cell_angle_gamma   90.00000000
_symmetry_Int_Tables_number   1
_chemical_formula_structural   Hf18Ti2Fe2Tc5Os
_chemical_formula_sum   'Hf18 Ti2 Fe2 Tc5 Os1'
_cell_volume   538.57068325
_cell_formula_units_Z   1
loop_
 _symmetry_equiv_pos_site_id
 _symmetry_equiv_pos_as_xyz
  1  'x, y, z'
loop_
 _atom_site_type_symbol
 _atom_site_label
 _atom_site_symmetry_multiplicity
 _atom_site_fract_x
 _atom_site_fract_y
 _atom_site_fract_z
 _atom_site_occupancy
  Hf  Hf0  1  0.558419  0.798206  0.596415  1
  Hf  Hf1  1  0.559360  0.798375  0.201275  1
  Hf  Hf2  1  0.559352  0.402895  0.201273  1
  Hf  Hf3  1  0.441273  0.201740  0.403474  1
  Hf  Hf4  1  0.441186  0.201719  0.798109  1
  Hf  Hf5  1  0.441193  0.596396  0.798109  1
  Hf  Hf6  1  0.058727  0.201740  0.403474  1
  Hf  Hf7  1  0.058814  0.201719  0.798109  1
  Hf  Hf8  1  0.058807  0.596396  0.798109  1
  Hf  Hf9  1  0.941581  0.798206  0.596415  1
  Hf  Hf10  1  0.940640  0.798375  0.201275  1
  Hf  Hf11  1  0.940648  0.402895  0.201273  1
  Hf  Hf12  1  0.750000  0.457833  0.915669  1
  Hf  Hf13  1  0.750000  0.458449  0.541860  1
  Hf  Hf14  1  0.750000  0.083419  0.541873  1
  Hf  Hf15  1  0.250000  0.541934  0.083852  1
  Hf  Hf16  1  0.250000  0.541281  0.457277  1
  Hf  Hf17  1  0.250000  0.916000  0.457272  1
  Ti  Ti18  1  0.499964  0.000508  0.001017  1
  Ti  Ti19  1  0.000036  0.000508  0.001017  1
  Fe  Fe20  1  0.750000  0.666809  0.333656  1
  Fe  Fe21  1  0.250000  0.332867  0.665715  1
  Tc  Tc22  1  0.750000  0.114322  0.887055  1
  Tc  Tc23  1  0.750000  0.772722  0.887055  1
  Tc  Tc24  1  0.250000  0.885767  0.771525  1
  Tc  Tc25  1  0.250000  0.885962  0.114091  1
  Tc  Tc26  1  0.250000  0.228131  0.114090  1
  Os  Os27  1  0.750000  0.114827  0.229666  1
