# generated using pymatgen
data_Pr2NdCoSn6
_symmetry_space_group_name_H-M   'P 1'
_cell_length_a   8.69204526
_cell_length_b   8.69204595
_cell_length_c   13.40580900
_cell_angle_alpha   90.00000000
_cell_angle_beta   90.00000000
_cell_angle_gamma   148.89618879
_symmetry_Int_Tables_number   1
_chemical_formula_structural   Pr2NdCoSn6
_chemical_formula_sum   'Pr4 Nd2 Co2 Sn12'
_cell_volume   523.21869662
_cell_formula_units_Z   2
loop_
 _symmetry_equiv_pos_site_id
 _symmetry_equiv_pos_as_xyz
  1  'x, y, z'
loop_
 _atom_site_type_symbol
 _atom_site_label
 _atom_site_symmetry_multiplicity
 _atom_site_fract_x
 _atom_site_fract_y
 _atom_site_fract_z
 _atom_site_occupancy
  Pr  Pr0  1  0.899486  0.100514  0.091805  1
  Pr  Pr1  1  0.100514  0.899486  0.591805  1
  Pr  Pr2  1  0.100514  0.899486  0.908195  1
  Pr  Pr3  1  0.899486  0.100514  0.408195  1
  Nd  Nd4  1  0.898715  0.101285  0.750000  1
  Nd  Nd5  1  0.101285  0.898715  0.250000  1
  Co  Co6  1  0.299043  0.700957  0.250000  1
  Co  Co7  1  0.700957  0.299043  0.750000  1
  Sn  Sn8  1  0.753612  0.246388  0.571865  1
  Sn  Sn9  1  0.430160  0.569840  0.577868  1
  Sn  Sn10  1  0.569840  0.430160  0.422132  1
  Sn  Sn11  1  0.736905  0.263095  0.250000  1
  Sn  Sn12  1  0.263095  0.736905  0.750000  1
  Sn  Sn13  1  0.246388  0.753612  0.071865  1
  Sn  Sn14  1  0.246388  0.753612  0.428135  1
  Sn  Sn15  1  0.569840  0.430160  0.077868  1
  Sn  Sn16  1  0.452498  0.547502  0.250000  1
  Sn  Sn17  1  0.547502  0.452498  0.750000  1
  Sn  Sn18  1  0.753612  0.246388  0.928135  1
  Sn  Sn19  1  0.430160  0.569840  0.922132  1
