# generated using pymatgen
data_YbY6NiBr12
_symmetry_space_group_name_H-M   'P 1'
_cell_length_a   9.18998683
_cell_length_b   9.18998608
_cell_length_c   9.18998583
_cell_angle_alpha   106.68926856
_cell_angle_beta   106.68927688
_cell_angle_gamma   106.68927302
_symmetry_Int_Tables_number   1
_chemical_formula_structural   YbY6NiBr12
_chemical_formula_sum   'Yb1 Y6 Ni1 Br12'
_cell_volume   651.78486839
_cell_formula_units_Z   1
loop_
 _symmetry_equiv_pos_site_id
 _symmetry_equiv_pos_as_xyz
  1  'x, y, z'
loop_
 _atom_site_type_symbol
 _atom_site_label
 _atom_site_symmetry_multiplicity
 _atom_site_fract_x
 _atom_site_fract_y
 _atom_site_fract_z
 _atom_site_occupancy
  Yb  Yb0  1  0.500000  0.500000  0.500000  1
  Y  Y1  1  0.101579  0.024035  0.308376  1
  Y  Y2  1  0.024035  0.308376  0.101579  1
  Y  Y3  1  0.308376  0.101579  0.024035  1
  Y  Y4  1  0.898420  0.975965  0.691624  1
  Y  Y5  1  0.975965  0.691624  0.898420  1
  Y  Y6  1  0.691624  0.898420  0.975965  1
  Ni  Ni7  1  0.000000  0.000000  0.000000  1
  Br  Br8  1  0.073757  0.677256  0.220600  1
  Br  Br9  1  0.677256  0.220600  0.073757  1
  Br  Br10  1  0.220600  0.073757  0.677256  1
  Br  Br11  1  0.926243  0.322744  0.779400  1
  Br  Br12  1  0.322744  0.779400  0.926243  1
  Br  Br13  1  0.779400  0.926243  0.322744  1
  Br  Br14  1  0.454788  0.156436  0.377244  1
  Br  Br15  1  0.156436  0.377244  0.454788  1
  Br  Br16  1  0.377244  0.454788  0.156436  1
  Br  Br17  1  0.545212  0.843564  0.622756  1
  Br  Br18  1  0.843564  0.622756  0.545212  1
  Br  Br19  1  0.622756  0.545212  0.843564  1
