# generated using pymatgen
data_TbHoAlZnPt2
_symmetry_space_group_name_H-M   'P 1'
_cell_length_a   4.34998600
_cell_length_b   6.84857500
_cell_length_c   7.94714800
_cell_angle_alpha   90.00000000
_cell_angle_beta   90.00000000
_cell_angle_gamma   90.00000000
_symmetry_Int_Tables_number   1
_chemical_formula_structural   TbHoAlZnPt2
_chemical_formula_sum   'Tb2 Ho2 Al2 Zn2 Pt4'
_cell_volume   236.75511817
_cell_formula_units_Z   2
loop_
 _symmetry_equiv_pos_site_id
 _symmetry_equiv_pos_as_xyz
  1  'x, y, z'
loop_
 _atom_site_type_symbol
 _atom_site_label
 _atom_site_symmetry_multiplicity
 _atom_site_fract_x
 _atom_site_fract_y
 _atom_site_fract_z
 _atom_site_occupancy
  Tb  Tb0  1  0.750000  0.967923  0.319115  1
  Tb  Tb1  1  0.750000  0.467923  0.180885  1
  Ho  Ho2  1  0.250000  0.028675  0.686845  1
  Ho  Ho3  1  0.250000  0.528675  0.813155  1
  Al  Al4  1  0.750000  0.859030  0.938839  1
  Al  Al5  1  0.750000  0.359030  0.561161  1
  Zn  Zn6  1  0.250000  0.149750  0.066130  1
  Zn  Zn7  1  0.250000  0.649750  0.433870  1
  Pt  Pt8  1  0.250000  0.261517  0.393097  1
  Pt  Pt9  1  0.250000  0.761517  0.106903  1
  Pt  Pt10  1  0.750000  0.733104  0.627829  1
  Pt  Pt11  1  0.750000  0.233104  0.872171  1
