# generated using pymatgen
data_AcCrN3
_symmetry_space_group_name_H-M   'P 1'
_cell_length_a   7.42469336
_cell_length_b   7.42469296
_cell_length_c   6.06790874
_cell_angle_alpha   79.48373476
_cell_angle_beta   79.48373533
_cell_angle_gamma   91.50682410
_symmetry_Int_Tables_number   1
_chemical_formula_structural   AcCrN3
_chemical_formula_sum   'Ac4 Cr4 N12'
_cell_volume   322.74191305
_cell_formula_units_Z   4
loop_
 _symmetry_equiv_pos_site_id
 _symmetry_equiv_pos_as_xyz
  1  'x, y, z'
loop_
 _atom_site_type_symbol
 _atom_site_label
 _atom_site_symmetry_multiplicity
 _atom_site_fract_x
 _atom_site_fract_y
 _atom_site_fract_z
 _atom_site_occupancy
  Ac  Ac0  1  0.338227  0.661773  0.750000  1
  Ac  Ac1  1  0.661773  0.338227  0.250000  1
  Ac  Ac2  1  0.099481  0.900519  0.250000  1
  Ac  Ac3  1  0.900519  0.099481  0.750000  1
  Cr  Cr4  1  0.369873  0.200247  0.759311  1
  Cr  Cr5  1  0.630127  0.799753  0.240689  1
  Cr  Cr6  1  0.799753  0.630127  0.740689  1
  Cr  Cr7  1  0.200247  0.369873  0.259311  1
  N  N8  1  0.995184  0.768789  0.666332  1
  N  N9  1  0.850211  0.417323  0.834966  1
  N  N10  1  0.768789  0.995184  0.166332  1
  N  N11  1  0.149789  0.582677  0.165034  1
  N  N12  1  0.004816  0.231211  0.333668  1
  N  N13  1  0.231211  0.004816  0.833668  1
  N  N14  1  0.582677  0.149789  0.665034  1
  N  N15  1  0.645249  0.685686  0.985735  1
  N  N16  1  0.354751  0.314314  0.014265  1
  N  N17  1  0.417323  0.850211  0.334966  1
  N  N18  1  0.685686  0.645249  0.485735  1
  N  N19  1  0.314314  0.354751  0.514265  1
