# generated using pymatgen
data_Er2Mn5VNi6P7
_symmetry_space_group_name_H-M   'P 1'
_cell_length_a   9.10162700
_cell_length_b   9.14193569
_cell_length_c   3.65582000
_cell_angle_alpha   90.00000000
_cell_angle_beta   90.00000000
_cell_angle_gamma   119.85763827
_symmetry_Int_Tables_number   1
_chemical_formula_structural   Er2Mn5VNi6P7
_chemical_formula_sum   'Er2 Mn5 V1 Ni6 P7'
_cell_volume   263.81157979
_cell_formula_units_Z   1
loop_
 _symmetry_equiv_pos_site_id
 _symmetry_equiv_pos_as_xyz
  1  'x, y, z'
loop_
 _atom_site_type_symbol
 _atom_site_label
 _atom_site_symmetry_multiplicity
 _atom_site_fract_x
 _atom_site_fract_y
 _atom_site_fract_z
 _atom_site_occupancy
  Er  Er0  1  0.334519  0.667397  0.000000  1
  Er  Er1  1  0.000072  0.000024  0.500000  1
  Mn  Mn2  1  0.546321  0.057104  0.000000  1
  Mn  Mn3  1  0.945385  0.492252  0.000000  1
  Mn  Mn4  1  0.509503  0.453472  0.000000  1
  Mn  Mn5  1  0.765659  0.550112  0.500000  1
  Mn  Mn6  1  0.451597  0.213747  0.500000  1
  V  V7  1  0.782052  0.233894  0.500000  1
  Ni  Ni8  1  0.038535  0.270155  0.000000  1
  Ni  Ni9  1  0.730525  0.770046  0.000000  1
  Ni  Ni10  1  0.230236  0.960592  0.000000  1
  Ni  Ni11  1  0.613594  0.892400  0.500000  1
  Ni  Ni12  1  0.105833  0.721918  0.500000  1
  Ni  Ni13  1  0.277142  0.382418  0.500000  1
  P  P14  1  0.778968  0.036894  0.000000  1
  P  P15  1  0.961657  0.741135  0.000000  1
  P  P16  1  0.260073  0.220030  0.000000  1
  P  P17  1  0.380672  0.930170  0.500000  1
  P  P18  1  0.071228  0.453526  0.500000  1
  P  P19  1  0.548457  0.617227  0.500000  1
  P  P20  1  0.667970  0.335491  0.000000  1
