# generated using pymatgen
data_Sm2Lu3Co19(Si5P)2
_symmetry_space_group_name_H-M   'P 1'
_cell_length_a   12.09505600
_cell_length_b   12.12291392
_cell_length_c   3.70339800
_cell_angle_alpha   90.00000000
_cell_angle_beta   90.00000000
_cell_angle_gamma   119.92401331
_symmetry_Int_Tables_number   1
_chemical_formula_structural   Sm2Lu3Co19(Si5P)2
_chemical_formula_sum   'Sm2 Lu3 Co19 Si10 P2'
_cell_volume   470.62820512
_cell_formula_units_Z   1
loop_
 _symmetry_equiv_pos_site_id
 _symmetry_equiv_pos_as_xyz
  1  'x, y, z'
loop_
 _atom_site_type_symbol
 _atom_site_label
 _atom_site_symmetry_multiplicity
 _atom_site_fract_x
 _atom_site_fract_y
 _atom_site_fract_z
 _atom_site_occupancy
  Sm  Sm0  1  0.332791  0.666298  0.500000  1
  Sm  Sm1  1  0.666494  0.333702  0.500000  1
  Lu  Lu2  1  0.184846  0.000000  0.000000  1
  Lu  Lu3  1  0.000660  0.185468  0.000000  1
  Lu  Lu4  1  0.815192  0.814532  0.000000  1
  Co  Co5  1  0.195704  0.370530  0.500000  1
  Co  Co6  1  0.626076  0.821443  0.500000  1
  Co  Co7  1  0.174903  0.804780  0.500000  1
  Co  Co8  1  0.825174  0.629470  0.500000  1
  Co  Co9  1  0.804633  0.178557  0.500000  1
  Co  Co10  1  0.370123  0.195220  0.500000  1
  Co  Co11  1  0.558034  0.000000  0.500000  1
  Co  Co12  1  0.000673  0.558153  0.500000  1
  Co  Co13  1  0.442521  0.441847  0.500000  1
  Co  Co14  1  0.122793  0.476896  0.000000  1
  Co  Co15  1  0.522842  0.644490  0.000000  1
  Co  Co16  1  0.353875  0.877566  0.000000  1
  Co  Co17  1  0.645897  0.523104  0.000000  1
  Co  Co18  1  0.878351  0.355510  0.000000  1
  Co  Co19  1  0.476309  0.122434  0.000000  1
  Co  Co20  1  0.721983  0.000000  0.000000  1
  Co  Co21  1  0.999852  0.725403  0.000000  1
  Co  Co22  1  0.274449  0.274597  0.000000  1
  Co  Co23  1  0.004657  0.000000  0.500000  1
  Si  Si24  1  0.368650  0.000000  0.500000  1
  Si  Si25  1  0.000359  0.369022  0.500000  1
  Si  Si26  1  0.631335  0.630978  0.500000  1
  Si  Si27  1  0.319226  0.475375  0.000000  1
  Si  Si28  1  0.523927  0.842355  0.000000  1
  Si  Si29  1  0.156596  0.681023  0.000000  1
  Si  Si30  1  0.843850  0.524625  0.000000  1
  Si  Si31  1  0.681572  0.157645  0.000000  1
  Si  Si32  1  0.475573  0.318977  0.000000  1
  Si  Si33  1  0.820816  0.000000  0.500000  1
  P  P34  1  0.999645  0.820024  0.500000  1
  P  P35  1  0.179620  0.179976  0.500000  1
