# generated using pymatgen
data_Sc8Ta10NbSi16W
_symmetry_space_group_name_H-M   'P 1'
_cell_length_a   6.68904014
_cell_length_b   6.87865033
_cell_length_c   13.10671105
_cell_angle_alpha   90.00092821
_cell_angle_beta   89.98961162
_cell_angle_gamma   89.97186259
_symmetry_Int_Tables_number   1
_chemical_formula_structural   Sc8Ta10NbSi16W
_chemical_formula_sum   'Sc8 Ta10 Nb1 Si16 W1'
_cell_volume   603.06024633
_cell_formula_units_Z   1
loop_
 _symmetry_equiv_pos_site_id
 _symmetry_equiv_pos_as_xyz
  1  'x, y, z'
loop_
 _atom_site_type_symbol
 _atom_site_label
 _atom_site_symmetry_multiplicity
 _atom_site_fract_x
 _atom_site_fract_y
 _atom_site_fract_z
 _atom_site_occupancy
  Sc  Sc0  1  0.499855  0.673789  0.594919  1
  Sc  Sc1  1  0.999494  0.825959  0.905397  1
  Sc  Sc2  1  0.501097  0.326376  0.094566  1
  Sc  Sc3  1  0.001930  0.173720  0.405451  1
  Sc  Sc4  1  0.501099  0.326326  0.405372  1
  Sc  Sc5  1  0.002027  0.173871  0.094506  1
  Sc  Sc6  1  0.499748  0.673592  0.905164  1
  Sc  Sc7  1  0.999544  0.825915  0.594656  1
  Ta  Ta8  1  0.163624  0.325608  0.875008  1
  Ta  Ta9  1  0.335846  0.827365  0.125763  1
  Ta  Ta10  1  0.835772  0.673889  0.374347  1
  Ta  Ta11  1  0.335860  0.827250  0.374185  1
  Ta  Ta12  1  0.835961  0.673819  0.125595  1
  Ta  Ta13  1  0.663198  0.174278  0.875449  1
  Ta  Ta14  1  0.163371  0.325788  0.625008  1
  Ta  Ta15  1  0.838110  0.493859  0.750144  1
  Ta  Ta16  1  0.338016  0.006847  0.750069  1
  Ta  Ta17  1  0.162152  0.506858  0.250055  1
  Nb  Nb18  1  0.663463  0.174046  0.624392  1
  Si  Si19  1  0.669383  0.967141  0.459052  1
  Si  Si20  1  0.169697  0.532704  0.039789  1
  Si  Si21  1  0.330142  0.032495  0.960640  1
  Si  Si22  1  0.830669  0.467539  0.539660  1
  Si  Si23  1  0.329978  0.032452  0.539404  1
  Si  Si24  1  0.830239  0.467565  0.960344  1
  Si  Si25  1  0.669381  0.967144  0.040843  1
  Si  Si26  1  0.169490  0.532629  0.460215  1
  Si  Si27  1  0.460499  0.388005  0.749921  1
  Si  Si28  1  0.959534  0.112779  0.750043  1
  Si  Si29  1  0.539639  0.611712  0.249952  1
  Si  Si30  1  0.036202  0.889928  0.250006  1
  Si  Si31  1  0.704515  0.860624  0.750128  1
  Si  Si32  1  0.204285  0.639830  0.750025  1
  Si  Si33  1  0.299422  0.139797  0.249959  1
  Si  Si34  1  0.795888  0.355893  0.250025  1
  W  W35  1  0.660865  0.992609  0.249950  1
