# generated using pymatgen
data_Hf5Si4Mo3
_symmetry_space_group_name_H-M   'P 1'
_cell_length_a   3.53727800
_cell_length_b   7.00363677
_cell_length_c   8.34054821
_cell_angle_alpha   90.32326788
_cell_angle_beta   90.00000000
_cell_angle_gamma   90.00000000
_symmetry_Int_Tables_number   1
_chemical_formula_structural   Hf5Si4Mo3
_chemical_formula_sum   'Hf5 Si4 Mo3'
_cell_volume   206.62386994
_cell_formula_units_Z   1
loop_
 _symmetry_equiv_pos_site_id
 _symmetry_equiv_pos_as_xyz
  1  'x, y, z'
loop_
 _atom_site_type_symbol
 _atom_site_label
 _atom_site_symmetry_multiplicity
 _atom_site_fract_x
 _atom_site_fract_y
 _atom_site_fract_z
 _atom_site_occupancy
  Hf  Hf0  1  0.250000  0.035757  0.324990  1
  Hf  Hf1  1  0.750000  0.953896  0.665869  1
  Hf  Hf2  1  0.250000  0.546771  0.162347  1
  Hf  Hf3  1  0.750000  0.456000  0.835228  1
  Hf  Hf4  1  0.750000  0.370441  0.438741  1
  Si  Si5  1  0.250000  0.253695  0.649697  1
  Si  Si6  1  0.750000  0.747715  0.362866  1
  Si  Si7  1  0.250000  0.757751  0.863040  1
  Si  Si8  1  0.750000  0.242630  0.132950  1
  Mo  Mo9  1  0.250000  0.640661  0.564125  1
  Mo  Mo10  1  0.750000  0.866403  0.061373  1
  Mo  Mo11  1  0.250000  0.128280  0.938776  1
