# generated using pymatgen
data_Ho8Er7Lu5Pt16
_symmetry_space_group_name_H-M   'P 1'
_cell_length_a   7.42013201
_cell_length_b   7.50546909
_cell_length_c   14.58803916
_cell_angle_alpha   89.98280309
_cell_angle_beta   89.99892951
_cell_angle_gamma   90.00512086
_symmetry_Int_Tables_number   1
_chemical_formula_structural   Ho8Er7Lu5Pt16
_chemical_formula_sum   'Ho8 Er7 Lu5 Pt16'
_cell_volume   812.43078538
_cell_formula_units_Z   1
loop_
 _symmetry_equiv_pos_site_id
 _symmetry_equiv_pos_as_xyz
  1  'x, y, z'
loop_
 _atom_site_type_symbol
 _atom_site_label
 _atom_site_symmetry_multiplicity
 _atom_site_fract_x
 _atom_site_fract_y
 _atom_site_fract_z
 _atom_site_occupancy
  Ho  Ho0  1  0.501033  0.678677  0.593229  1
  Ho  Ho1  1  0.001307  0.820950  0.906716  1
  Ho  Ho2  1  0.498662  0.320999  0.093152  1
  Ho  Ho3  1  0.998889  0.179217  0.407097  1
  Ho  Ho4  1  0.498665  0.320960  0.406873  1
  Ho  Ho5  1  0.998796  0.179106  0.093153  1
  Ho  Ho6  1  0.501280  0.679087  0.906778  1
  Ho  Ho7  1  0.001482  0.820897  0.593177  1
  Er  Er8  1  0.656426  0.167672  0.622666  1
  Er  Er9  1  0.156490  0.332394  0.877172  1
  Er  Er10  1  0.343501  0.832396  0.122696  1
  Er  Er11  1  0.843679  0.667606  0.377386  1
  Er  Er12  1  0.343482  0.832397  0.377452  1
  Er  Er13  1  0.843617  0.667686  0.122736  1
  Er  Er14  1  0.656475  0.167689  0.877142  1
  Lu  Lu15  1  0.156368  0.332385  0.622949  1
  Lu  Lu16  1  0.819658  0.510254  0.749812  1
  Lu  Lu17  1  0.319114  0.989810  0.749817  1
  Lu  Lu18  1  0.180688  0.489450  0.250011  1
  Lu  Lu19  1  0.680671  0.010517  0.250046  1
  Pt  Pt20  1  0.683412  0.967139  0.457922  1
  Pt  Pt21  1  0.183640  0.532692  0.042123  1
  Pt  Pt22  1  0.316392  0.032751  0.957918  1
  Pt  Pt23  1  0.817642  0.466685  0.542389  1
  Pt  Pt24  1  0.315437  0.034598  0.542502  1
  Pt  Pt25  1  0.816285  0.467145  0.957966  1
  Pt  Pt26  1  0.683688  0.967233  0.042121  1
  Pt  Pt27  1  0.183574  0.531731  0.458738  1
  Pt  Pt28  1  0.453959  0.386976  0.749427  1
  Pt  Pt29  1  0.955657  0.113603  0.749356  1
  Pt  Pt30  1  0.545033  0.612644  0.250030  1
  Pt  Pt31  1  0.045002  0.887312  0.250012  1
  Pt  Pt32  1  0.682189  0.855126  0.749968  1
  Pt  Pt33  1  0.181880  0.644281  0.749454  1
  Pt  Pt34  1  0.317955  0.145063  0.250003  1
  Pt  Pt35  1  0.817974  0.354870  0.250009  1
