# generated using pymatgen
data_Yb3Pd2Pt7
_symmetry_space_group_name_H-M   'P 1'
_cell_length_a   9.36635216
_cell_length_b   9.36635183
_cell_length_c   9.36635235
_cell_angle_alpha   33.42969661
_cell_angle_beta   33.42969914
_cell_angle_gamma   33.42969812
_symmetry_Int_Tables_number   1
_chemical_formula_structural   Yb3Pd2Pt7
_chemical_formula_sum   'Yb3 Pd2 Pt7'
_cell_volume   222.09053379
_cell_formula_units_Z   1
loop_
 _symmetry_equiv_pos_site_id
 _symmetry_equiv_pos_as_xyz
  1  'x, y, z'
loop_
 _atom_site_type_symbol
 _atom_site_label
 _atom_site_symmetry_multiplicity
 _atom_site_fract_x
 _atom_site_fract_y
 _atom_site_fract_z
 _atom_site_occupancy
  Yb  Yb0  1  0.359181  0.359181  0.359181  1
  Yb  Yb1  1  0.500000  0.500000  0.500000  1
  Yb  Yb2  1  0.640819  0.640819  0.640819  1
  Pd  Pd3  1  0.167496  0.167496  0.167496  1
  Pd  Pd4  1  0.832504  0.832504  0.832504  1
  Pt  Pt5  1  0.000000  0.000000  0.000000  1
  Pt  Pt6  1  0.581298  0.087267  0.087269  1
  Pt  Pt7  1  0.087267  0.581298  0.087269  1
  Pt  Pt8  1  0.912732  0.912732  0.418702  1
  Pt  Pt9  1  0.087268  0.087268  0.581298  1
  Pt  Pt10  1  0.912733  0.418702  0.912731  1
  Pt  Pt11  1  0.418702  0.912733  0.912731  1
