# generated using pymatgen
data_Be12CuIr5Rh6
_symmetry_space_group_name_H-M   'P 1'
_cell_length_a   3.93786200
_cell_length_b   5.62095300
_cell_length_c   11.78720600
_cell_angle_alpha   90.00000000
_cell_angle_beta   90.00028160
_cell_angle_gamma   90.00000000
_symmetry_Int_Tables_number   1
_chemical_formula_structural   Be12CuIr5Rh6
_chemical_formula_sum   'Be12 Cu1 Ir5 Rh6'
_cell_volume   260.90434995
_cell_formula_units_Z   1
loop_
 _symmetry_equiv_pos_site_id
 _symmetry_equiv_pos_as_xyz
  1  'x, y, z'
loop_
 _atom_site_type_symbol
 _atom_site_label
 _atom_site_symmetry_multiplicity
 _atom_site_fract_x
 _atom_site_fract_y
 _atom_site_fract_z
 _atom_site_occupancy
  Be  Be0  1  0.500009  0.256230  0.002421  1
  Be  Be1  1  0.500009  0.743769  0.002421  1
  Be  Be2  1  0.000081  0.247460  0.165700  1
  Be  Be3  1  0.000081  0.752539  0.165700  1
  Be  Be4  1  0.500052  0.244240  0.333321  1
  Be  Be5  1  0.500052  0.755761  0.333321  1
  Be  Be6  1  0.000011  0.247432  0.500946  1
  Be  Be7  1  0.000011  0.752567  0.500946  1
  Be  Be8  1  0.499944  0.256182  0.664267  1
  Be  Be9  1  0.499944  0.743819  0.664267  1
  Be  Be10  1  0.999913  0.263056  0.833333  1
  Be  Be11  1  0.999913  0.736943  0.833333  1
  Cu  Cu12  1  0.499945  0.000000  0.833355  1
  Ir  Ir13  1  0.000002  0.499999  0.999820  1
  Ir  Ir14  1  0.500053  0.000000  0.163083  1
  Ir  Ir15  1  0.000028  0.499999  0.333354  1
  Ir  Ir16  1  0.500011  0.000000  0.503586  1
  Ir  Ir17  1  0.999960  0.499999  0.666822  1
  Rh  Rh18  1  0.000004  0.000000  0.989841  1
  Rh  Rh19  1  0.500034  0.499999  0.168907  1
  Rh  Rh20  1  0.000028  0.000000  0.333339  1
  Rh  Rh21  1  0.500004  0.499999  0.497769  1
  Rh  Rh22  1  0.999960  0.000000  0.676833  1
  Rh  Rh23  1  0.499952  0.499999  0.833316  1
