# generated using pymatgen
data_Dy10Co3NiTe4
_symmetry_space_group_name_H-M   'P 1'
_cell_length_a   7.77519399
_cell_length_b   7.77519382
_cell_length_c   15.00740200
_cell_angle_alpha   90.00000000
_cell_angle_beta   90.00000000
_cell_angle_gamma   150.12559272
_symmetry_Int_Tables_number   1
_chemical_formula_structural   Dy10Co3NiTe4
_chemical_formula_sum   'Dy10 Co3 Ni1 Te4'
_cell_volume   451.90268556
_cell_formula_units_Z   1
loop_
 _symmetry_equiv_pos_site_id
 _symmetry_equiv_pos_as_xyz
  1  'x, y, z'
loop_
 _atom_site_type_symbol
 _atom_site_label
 _atom_site_symmetry_multiplicity
 _atom_site_fract_x
 _atom_site_fract_y
 _atom_site_fract_z
 _atom_site_occupancy
  Dy  Dy0  1  0.959089  0.040911  0.125211  1
  Dy  Dy1  1  0.039691  0.960309  0.872996  1
  Dy  Dy2  1  0.039691  0.960309  0.627004  1
  Dy  Dy3  1  0.959089  0.040911  0.374789  1
  Dy  Dy4  1  0.741676  0.258324  0.630719  1
  Dy  Dy5  1  0.259383  0.740617  0.369743  1
  Dy  Dy6  1  0.259383  0.740617  0.130257  1
  Dy  Dy7  1  0.741676  0.258324  0.869281  1
  Dy  Dy8  1  0.607313  0.392687  0.250000  1
  Dy  Dy9  1  0.394384  0.605616  0.750000  1
  Co  Co10  1  0.589660  0.410340  0.750000  1
  Co  Co11  1  0.817201  0.182799  0.250000  1
  Co  Co12  1  0.181034  0.818966  0.750000  1
  Ni  Ni13  1  0.412181  0.587819  0.250000  1
  Te  Te14  1  0.616219  0.383781  0.039306  1
  Te  Te15  1  0.383055  0.616945  0.961449  1
  Te  Te16  1  0.383055  0.616945  0.538551  1
  Te  Te17  1  0.616219  0.383781  0.460694  1
