# generated using pymatgen
data_Er3Al12Fe3Cu
_symmetry_space_group_name_H-M   'P 1'
_cell_length_a   8.65567013
_cell_length_b   8.65566884
_cell_length_c   9.26766900
_cell_angle_alpha   90.00000000
_cell_angle_beta   90.00000000
_cell_angle_gamma   119.55959040
_symmetry_Int_Tables_number   1
_chemical_formula_structural   Er3Al12Fe3Cu
_chemical_formula_sum   'Er6 Al24 Fe6 Cu2'
_cell_volume   603.96637019
_cell_formula_units_Z   2
loop_
 _symmetry_equiv_pos_site_id
 _symmetry_equiv_pos_as_xyz
  1  'x, y, z'
loop_
 _atom_site_type_symbol
 _atom_site_label
 _atom_site_symmetry_multiplicity
 _atom_site_fract_x
 _atom_site_fract_y
 _atom_site_fract_z
 _atom_site_occupancy
  Er  Er0  1  0.188220  0.385970  0.250000  1
  Er  Er1  1  0.811780  0.614030  0.750000  1
  Er  Er2  1  0.614030  0.811780  0.250000  1
  Er  Er3  1  0.385970  0.188220  0.750000  1
  Er  Er4  1  0.195483  0.804517  0.250000  1
  Er  Er5  1  0.804517  0.195483  0.750000  1
  Al  Al6  1  0.329229  0.670771  0.016740  1
  Al  Al7  1  0.670771  0.329229  0.983260  1
  Al  Al8  1  0.670771  0.329229  0.516740  1
  Al  Al9  1  0.329229  0.670771  0.483260  1
  Al  Al10  1  0.152265  0.319944  0.576556  1
  Al  Al11  1  0.847735  0.680056  0.423444  1
  Al  Al12  1  0.680056  0.847735  0.576556  1
  Al  Al13  1  0.847735  0.680056  0.076556  1
  Al  Al14  1  0.319944  0.152265  0.423444  1
  Al  Al15  1  0.152265  0.319944  0.923444  1
  Al  Al16  1  0.162197  0.837803  0.576527  1
  Al  Al17  1  0.319944  0.152265  0.076556  1
  Al  Al18  1  0.837803  0.162197  0.423473  1
  Al  Al19  1  0.680056  0.847735  0.923444  1
  Al  Al20  1  0.837803  0.162197  0.076527  1
  Al  Al21  1  0.162197  0.837803  0.923473  1
  Al  Al22  1  0.558516  0.117612  0.250000  1
  Al  Al23  1  0.441484  0.882388  0.750000  1
  Al  Al24  1  0.882388  0.441484  0.250000  1
  Al  Al25  1  0.117612  0.558516  0.750000  1
  Al  Al26  1  0.561445  0.438555  0.250000  1
  Al  Al27  1  0.438555  0.561445  0.750000  1
  Al  Al28  1  0.998746  0.001254  0.250000  1
  Al  Al29  1  0.001254  0.998746  0.750000  1
  Fe  Fe30  1  0.500000  0.000000  0.000000  1
  Fe  Fe31  1  0.000000  0.500000  0.000000  1
  Fe  Fe32  1  0.500000  0.000000  0.500000  1
  Fe  Fe33  1  0.000000  0.500000  0.500000  1
  Fe  Fe34  1  0.000000  0.000000  0.000000  1
  Fe  Fe35  1  0.000000  0.000000  0.500000  1
  Cu  Cu36  1  0.500000  0.500000  0.000000  1
  Cu  Cu37  1  0.500000  0.500000  0.500000  1
