# generated using pymatgen
data_BaTaAsF12
_symmetry_space_group_name_H-M   'P 1'
_cell_length_a   11.89852184
_cell_length_b   6.08738134
_cell_length_c   6.12572300
_cell_angle_alpha   57.29036757
_cell_angle_beta   55.91510271
_cell_angle_gamma   56.30552755
_symmetry_Int_Tables_number   1
_chemical_formula_structural   BaTaAsF12
_chemical_formula_sum   'Ba1 Ta1 As1 F12'
_cell_volume   288.28452025
_cell_formula_units_Z   1
loop_
 _symmetry_equiv_pos_site_id
 _symmetry_equiv_pos_as_xyz
  1  'x, y, z'
loop_
 _atom_site_type_symbol
 _atom_site_label
 _atom_site_symmetry_multiplicity
 _atom_site_fract_x
 _atom_site_fract_y
 _atom_site_fract_z
 _atom_site_occupancy
  Ba  Ba0  1  0.701630  0.525533  0.544736  1
  Ta  Ta1  1  0.012360  0.986919  0.999115  1
  As  As2  1  0.501179  0.003491  0.990018  1
  F  F3  1  0.164097  0.125813  0.765504  1
  F  F4  1  0.684425  0.978364  0.873074  1
  F  F5  1  0.063811  0.783180  0.314898  1
  F  F6  1  0.483116  0.915222  0.333422  1
  F  F7  1  0.110508  0.681483  0.874391  1
  F  F8  1  0.575736  0.635502  0.043911  1
  F  F9  1  0.538931  0.066954  0.640088  1
  F  F10  1  0.919720  0.227519  0.718628  1
  F  F11  1  0.326184  0.027597  0.106453  1
  F  F12  1  0.838973  0.872309  0.232061  1
  F  F13  1  0.447580  0.365149  0.916338  1
  F  F14  1  0.881748  0.304967  0.147364  1
