# generated using pymatgen
data_LuAg3(Ir2O7)2
_symmetry_space_group_name_H-M   'P 1'
_cell_length_a   7.16890598
_cell_length_b   7.16890744
_cell_length_c   7.23545225
_cell_angle_alpha   60.30377341
_cell_angle_beta   60.30377608
_cell_angle_gamma   59.99999922
_symmetry_Int_Tables_number   1
_chemical_formula_structural   LuAg3(Ir2O7)2
_chemical_formula_sum   'Lu1 Ag3 Ir4 O14'
_cell_volume   264.14077032
_cell_formula_units_Z   1
loop_
 _symmetry_equiv_pos_site_id
 _symmetry_equiv_pos_as_xyz
  1  'x, y, z'
loop_
 _atom_site_type_symbol
 _atom_site_label
 _atom_site_symmetry_multiplicity
 _atom_site_fract_x
 _atom_site_fract_y
 _atom_site_fract_z
 _atom_site_occupancy
  Lu  Lu0  1  0.125000  0.125000  0.625000  1
  Ag  Ag1  1  0.625000  0.125000  0.125000  1
  Ag  Ag2  1  0.125000  0.625000  0.125000  1
  Ag  Ag3  1  0.125000  0.125000  0.125000  1
  Ir  Ir4  1  0.125000  0.625000  0.625000  1
  Ir  Ir5  1  0.625000  0.125000  0.625000  1
  Ir  Ir6  1  0.625000  0.625000  0.125000  1
  Ir  Ir7  1  0.625000  0.625000  0.625000  1
  O  O8  1  0.697522  0.697522  0.305315  1
  O  O9  1  0.294186  0.294186  0.689463  1
  O  O10  1  0.722166  0.294186  0.689463  1
  O  O11  1  0.299640  0.697522  0.305315  1
  O  O12  1  0.294186  0.722166  0.689463  1
  O  O13  1  0.697522  0.299640  0.305315  1
  O  O14  1  0.552478  0.552478  0.944685  1
  O  O15  1  0.955814  0.955814  0.560537  1
  O  O16  1  0.527834  0.955814  0.560537  1
  O  O17  1  0.950360  0.552478  0.944685  1
  O  O18  1  0.955814  0.527834  0.560537  1
  O  O19  1  0.552478  0.950360  0.944685  1
  O  O20  1  0.252032  0.252032  0.243902  1
  O  O21  1  0.997968  0.997968  0.006098  1
