# generated using pymatgen
data_HfCd(Ni7P2)3
_symmetry_space_group_name_H-M   'P 1'
_cell_length_a   7.84365706
_cell_length_b   7.84365694
_cell_length_c   7.84365700
_cell_angle_alpha   59.99999551
_cell_angle_beta   59.99999603
_cell_angle_gamma   60.00000171
_symmetry_Int_Tables_number   1
_chemical_formula_structural   HfCd(Ni7P2)3
_chemical_formula_sum   'Hf1 Cd1 Ni21 P6'
_cell_volume   341.22493634
_cell_formula_units_Z   1
loop_
 _symmetry_equiv_pos_site_id
 _symmetry_equiv_pos_as_xyz
  1  'x, y, z'
loop_
 _atom_site_type_symbol
 _atom_site_label
 _atom_site_symmetry_multiplicity
 _atom_site_fract_x
 _atom_site_fract_y
 _atom_site_fract_z
 _atom_site_occupancy
  Hf  Hf0  1  0.750000  0.750000  0.750000  1
  Cd  Cd1  1  0.250000  0.250000  0.250000  1
  Ni  Ni2  1  0.385300  0.844097  0.385300  1
  Ni  Ni3  1  0.385300  0.385300  0.844097  1
  Ni  Ni4  1  0.354776  0.994225  0.656774  1
  Ni  Ni5  1  0.994225  0.354776  0.656774  1
  Ni  Ni6  1  0.154149  0.615284  0.615284  1
  Ni  Ni7  1  0.656774  0.994225  0.994225  1
  Ni  Ni8  1  0.844097  0.385300  0.385300  1
  Ni  Ni9  1  0.656774  0.354776  0.994225  1
  Ni  Ni10  1  0.994225  0.354776  0.994225  1
  Ni  Ni11  1  0.354776  0.656774  0.994225  1
  Ni  Ni12  1  0.994225  0.994225  0.354776  1
  Ni  Ni13  1  0.615284  0.154149  0.615284  1
  Ni  Ni14  1  0.656774  0.994225  0.354776  1
  Ni  Ni15  1  0.994225  0.656774  0.994225  1
  Ni  Ni16  1  0.615284  0.615284  0.154149  1
  Ni  Ni17  1  0.000000  0.000000  0.000000  1
  Ni  Ni18  1  0.994225  0.656774  0.354776  1
  Ni  Ni19  1  0.354776  0.994225  0.994225  1
  Ni  Ni20  1  0.994225  0.994225  0.656774  1
  Ni  Ni21  1  0.385300  0.385300  0.385300  1
  Ni  Ni22  1  0.615284  0.615284  0.615284  1
  P  P23  1  0.261403  0.261403  0.738597  1
  P  P24  1  0.261403  0.738597  0.261403  1
  P  P25  1  0.738597  0.261403  0.261403  1
  P  P26  1  0.261403  0.738597  0.738597  1
  P  P27  1  0.738597  0.261403  0.738597  1
  P  P28  1  0.738597  0.738597  0.261403  1
