# generated using pymatgen
data_Ba4La6NdSmSe16
_symmetry_space_group_name_H-M   'P 1'
_cell_length_a   4.40565100
_cell_length_b   13.03889311
_cell_length_c   15.74146701
_cell_angle_alpha   89.64324168
_cell_angle_beta   90.00000000
_cell_angle_gamma   90.00000000
_symmetry_Int_Tables_number   1
_chemical_formula_structural   Ba4La6NdSmSe16
_chemical_formula_sum   'Ba4 La6 Nd1 Sm1 Se16'
_cell_volume   904.24809072
_cell_formula_units_Z   1
loop_
 _symmetry_equiv_pos_site_id
 _symmetry_equiv_pos_as_xyz
  1  'x, y, z'
loop_
 _atom_site_type_symbol
 _atom_site_label
 _atom_site_symmetry_multiplicity
 _atom_site_fract_x
 _atom_site_fract_y
 _atom_site_fract_z
 _atom_site_occupancy
  Ba  Ba0  1  0.250000  0.756831  0.342236  1
  Ba  Ba1  1  0.250000  0.255076  0.162277  1
  Ba  Ba2  1  0.750000  0.242516  0.657172  1
  Ba  Ba3  1  0.750000  0.744975  0.838310  1
  La  La4  1  0.250000  0.424137  0.391766  1
  La  La5  1  0.250000  0.927562  0.110950  1
  La  La6  1  0.750000  0.574723  0.608781  1
  La  La7  1  0.750000  0.073029  0.890030  1
  La  La8  1  0.250000  0.419994  0.897253  1
  La  La9  1  0.750000  0.579738  0.102871  1
  Nd  Nd10  1  0.250000  0.923737  0.600945  1
  Sm  Sm11  1  0.750000  0.076925  0.397862  1
  Se  Se12  1  0.250000  0.208526  0.818927  1
  Se  Se13  1  0.250000  0.712569  0.676155  1
  Se  Se14  1  0.750000  0.791411  0.180949  1
  Se  Se15  1  0.750000  0.286071  0.324321  1
  Se  Se16  1  0.250000  0.131422  0.519672  1
  Se  Se17  1  0.250000  0.632383  0.976028  1
  Se  Se18  1  0.750000  0.870541  0.476658  1
  Se  Se19  1  0.750000  0.367212  0.024133  1
  Se  Se20  1  0.250000  0.517636  0.217215  1
  Se  Se21  1  0.250000  0.021321  0.286850  1
  Se  Se22  1  0.750000  0.481808  0.783042  1
  Se  Se23  1  0.750000  0.980158  0.714257  1
  Se  Se24  1  0.250000  0.418704  0.581053  1
  Se  Se25  1  0.250000  0.918599  0.920707  1
  Se  Se26  1  0.750000  0.580546  0.419349  1
  Se  Se27  1  0.750000  0.081847  0.080234  1
