# generated using pymatgen
data_Dy4ErCo2Au
_symmetry_space_group_name_H-M   'P 1'
_cell_length_a   8.50163361
_cell_length_b   8.50163382
_cell_length_c   8.50163434
_cell_angle_alpha   127.88523817
_cell_angle_beta   127.88523011
_cell_angle_gamma   76.81101732
_symmetry_Int_Tables_number   1
_chemical_formula_structural   Dy4ErCo2Au
_chemical_formula_sum   'Dy8 Er2 Co4 Au2'
_cell_volume   371.65977172
_cell_formula_units_Z   2
loop_
 _symmetry_equiv_pos_site_id
 _symmetry_equiv_pos_as_xyz
  1  'x, y, z'
loop_
 _atom_site_type_symbol
 _atom_site_label
 _atom_site_symmetry_multiplicity
 _atom_site_fract_x
 _atom_site_fract_y
 _atom_site_fract_z
 _atom_site_occupancy
  Dy  Dy0  1  0.802918  0.302918  0.833969  1
  Dy  Dy1  1  0.197082  0.697082  0.166032  1
  Dy  Dy2  1  0.468950  0.968950  0.166032  1
  Dy  Dy3  1  0.302918  0.468950  0.500000  1
  Dy  Dy4  1  0.031050  0.197082  0.500000  1
  Dy  Dy5  1  0.531050  0.031050  0.833968  1
  Dy  Dy6  1  0.697082  0.531050  0.500000  1
  Dy  Dy7  1  0.968950  0.802918  0.500000  1
  Er  Er8  1  0.000000  0.000000  0.000000  1
  Er  Er9  1  0.500000  0.500000  0.000000  1
  Co  Co10  1  0.124259  0.624259  0.748519  1
  Co  Co11  1  0.875741  0.375741  0.251481  1
  Co  Co12  1  0.624259  0.875741  0.500000  1
  Co  Co13  1  0.375741  0.124259  0.500000  1
  Au  Au14  1  0.250000  0.250000  0.000000  1
  Au  Au15  1  0.750000  0.750000  0.000000  1
