# generated using pymatgen
data_Yb8DyYIr4
_symmetry_space_group_name_H-M   'P 1'
_cell_length_a   6.55700281
_cell_length_b   7.32614519
_cell_length_c   8.52668061
_cell_angle_alpha   97.17667680
_cell_angle_beta   112.61264718
_cell_angle_gamma   89.99999789
_symmetry_Int_Tables_number   1
_chemical_formula_structural   Yb8DyYIr4
_chemical_formula_sum   'Yb8 Dy1 Y1 Ir4'
_cell_volume   374.63439158
_cell_formula_units_Z   1
loop_
 _symmetry_equiv_pos_site_id
 _symmetry_equiv_pos_as_xyz
  1  'x, y, z'
loop_
 _atom_site_type_symbol
 _atom_site_label
 _atom_site_symmetry_multiplicity
 _atom_site_fract_x
 _atom_site_fract_y
 _atom_site_fract_z
 _atom_site_occupancy
  Yb  Yb0  1  0.974894  0.920519  0.171614  1
  Yb  Yb1  1  0.803279  0.579481  0.828386  1
  Yb  Yb2  1  0.025232  0.079371  0.828331  1
  Yb  Yb3  1  0.196901  0.420629  0.171669  1
  Yb  Yb4  1  0.642537  0.820917  0.436683  1
  Yb  Yb5  1  0.205854  0.679083  0.563317  1
  Yb  Yb6  1  0.357418  0.179103  0.563201  1
  Yb  Yb7  1  0.794219  0.320897  0.436799  1
  Dy  Dy8  1  0.436578  0.750000  0.000000  1
  Y  Y9  1  0.563934  0.250000  0.000000  1
  Ir  Ir10  1  0.814774  0.576311  0.212240  1
  Ir  Ir11  1  0.602533  0.923689  0.787760  1
  Ir  Ir12  1  0.184778  0.425173  0.787712  1
  Ir  Ir13  1  0.397067  0.074827  0.212288  1
