# generated using pymatgen
data_Sr4TiFe2WO12
_symmetry_space_group_name_H-M   'P 1'
_cell_length_a   5.59866275
_cell_length_b   5.62755251
_cell_length_c   9.75096077
_cell_angle_alpha   89.65657820
_cell_angle_beta   106.70365382
_cell_angle_gamma   119.74265380
_symmetry_Int_Tables_number   1
_chemical_formula_structural   Sr4TiFe2WO12
_chemical_formula_sum   'Sr4 Ti1 Fe2 W1 O12'
_cell_volume   252.02292610
_cell_formula_units_Z   1
loop_
 _symmetry_equiv_pos_site_id
 _symmetry_equiv_pos_as_xyz
  1  'x, y, z'
loop_
 _atom_site_type_symbol
 _atom_site_label
 _atom_site_symmetry_multiplicity
 _atom_site_fract_x
 _atom_site_fract_y
 _atom_site_fract_z
 _atom_site_occupancy
  Sr  Sr0  1  0.755474  0.627441  0.385760  1
  Sr  Sr1  1  0.744008  0.123081  0.861278  1
  Sr  Sr2  1  0.255992  0.876919  0.138722  1
  Sr  Sr3  1  0.244526  0.372559  0.614240  1
  Ti  Ti4  1  0.500000  0.000000  0.500000  1
  Fe  Fe5  1  0.003884  0.251983  0.258994  1
  Fe  Fe6  1  0.996116  0.748017  0.741006  1
  W  W7  1  0.500000  0.500000  0.000000  1
  O  O8  1  0.746200  0.863749  0.122479  1
  O  O9  1  0.743592  0.371205  0.624421  1
  O  O10  1  0.256408  0.628795  0.375579  1
  O  O11  1  0.253800  0.136251  0.877521  1
  O  O12  1  0.217232  0.100952  0.390219  1
  O  O13  1  0.223369  0.610442  0.899231  1
  O  O14  1  0.782768  0.899048  0.609781  1
  O  O15  1  0.776631  0.389558  0.100769  1
  O  O16  1  0.708320  0.640231  0.861124  1
  O  O17  1  0.714979  0.142525  0.359963  1
  O  O18  1  0.285021  0.857475  0.640037  1
  O  O19  1  0.291680  0.359769  0.138876  1
