# generated using pymatgen
data_BeV10B4S
_symmetry_space_group_name_H-M   'P 1'
_cell_length_a   6.66531395
_cell_length_b   6.66531388
_cell_length_c   6.66531395
_cell_angle_alpha   129.35209402
_cell_angle_beta   129.35210910
_cell_angle_gamma   74.44469110
_symmetry_Int_Tables_number   1
_chemical_formula_structural   BeV10B4S
_chemical_formula_sum   'Be1 V10 B4 S1'
_cell_volume   172.56246895
_cell_formula_units_Z   1
loop_
 _symmetry_equiv_pos_site_id
 _symmetry_equiv_pos_as_xyz
  1  'x, y, z'
loop_
 _atom_site_type_symbol
 _atom_site_label
 _atom_site_symmetry_multiplicity
 _atom_site_fract_x
 _atom_site_fract_y
 _atom_site_fract_z
 _atom_site_occupancy
  Be  Be0  1  0.750000  0.750000  0.000000  1
  V  V1  1  0.530666  0.690352  0.500838  1
  V  V2  1  0.029829  0.530666  0.840314  1
  V  V3  1  0.690352  0.189514  0.159686  1
  V  V4  1  0.969334  0.470171  0.159686  1
  V  V5  1  0.189514  0.029829  0.499162  1
  V  V6  1  0.470171  0.310486  0.500838  1
  V  V7  1  0.809648  0.969334  0.499162  1
  V  V8  1  0.310486  0.809648  0.840314  1
  V  V9  1  0.997998  0.997998  0.000000  1
  V  V10  1  0.502002  0.502002  0.000000  1
  B  B11  1  0.614874  0.114874  0.729749  1
  B  B12  1  0.114874  0.385126  0.500000  1
  B  B13  1  0.885126  0.614874  0.500000  1
  B  B14  1  0.385126  0.885126  0.270251  1
  S  S15  1  0.250000  0.250000  0.000000  1
