# generated using pymatgen
data_Nd3Tl2InPdAu2
_symmetry_space_group_name_H-M   'P 1'
_cell_length_a   7.92678200
_cell_length_b   7.98895509
_cell_length_c   4.07414300
_cell_angle_alpha   90.00000000
_cell_angle_beta   90.00000000
_cell_angle_gamma   119.74289313
_symmetry_Int_Tables_number   1
_chemical_formula_structural   Nd3Tl2InPdAu2
_chemical_formula_sum   'Nd3 Tl2 In1 Pd1 Au2'
_cell_volume   224.01295517
_cell_formula_units_Z   1
loop_
 _symmetry_equiv_pos_site_id
 _symmetry_equiv_pos_as_xyz
  1  'x, y, z'
loop_
 _atom_site_type_symbol
 _atom_site_label
 _atom_site_symmetry_multiplicity
 _atom_site_fract_x
 _atom_site_fract_y
 _atom_site_fract_z
 _atom_site_occupancy
  Nd  Nd0  1  0.999293  0.592706  0.000000  1
  Nd  Nd1  1  0.406587  0.407294  0.000000  1
  Nd  Nd2  1  0.593675  0.000000  0.000000  1
  Tl  Tl3  1  0.748615  0.746388  0.500000  1
  Tl  Tl4  1  0.002227  0.253612  0.500000  1
  In  In5  1  0.250448  0.000000  0.500000  1
  Pd  Pd6  1  0.009886  0.000000  0.000000  1
  Au  Au7  1  0.331357  0.673444  0.500000  1
  Au  Au8  1  0.657914  0.326556  0.500000  1
