# generated using pymatgen
data_Sr2Al16Ir5Pt4
_symmetry_space_group_name_H-M   'P 1'
_cell_length_a   11.23326140
_cell_length_b   11.20456814
_cell_length_c   11.20456790
_cell_angle_alpha   158.35474573
_cell_angle_beta   117.43598101
_cell_angle_gamma   67.01919431
_symmetry_Int_Tables_number   1
_chemical_formula_structural   Sr2Al16Ir5Pt4
_chemical_formula_sum   'Sr2 Al16 Ir5 Pt4'
_cell_volume   458.58097478
_cell_formula_units_Z   1
loop_
 _symmetry_equiv_pos_site_id
 _symmetry_equiv_pos_as_xyz
  1  'x, y, z'
loop_
 _atom_site_type_symbol
 _atom_site_label
 _atom_site_symmetry_multiplicity
 _atom_site_fract_x
 _atom_site_fract_y
 _atom_site_fract_z
 _atom_site_occupancy
  Sr  Sr0  1  0.229806  0.231599  0.998207  1
  Sr  Sr1  1  0.769111  0.768808  0.000303  1
  Al  Al2  1  0.273230  0.399897  0.873333  1
  Al  Al3  1  0.092620  0.914432  0.178190  1
  Al  Al4  1  0.514052  0.205815  0.308238  1
  Al  Al5  1  0.263665  0.083958  0.179707  1
  Al  Al6  1  0.923053  0.419180  0.503874  1
  Al  Al7  1  0.717180  0.601519  0.115661  1
  Al  Al8  1  0.893955  0.201543  0.692410  1
  Al  Al9  1  0.495259  0.798663  0.696595  1
  Al  Al10  1  0.380920  0.001423  0.379496  1
  Al  Al11  1  0.623769  0.002717  0.621052  1
  Al  Al12  1  0.477564  0.598981  0.878583  1
  Al  Al13  1  0.091109  0.792409  0.298701  1
  Al  Al14  1  0.907444  0.075521  0.831922  1
  Al  Al15  1  0.757503  0.925466  0.832037  1
  Al  Al16  1  0.517108  0.399660  0.117448  1
  Al  Al17  1  0.080113  0.578521  0.501593  1
  Ir  Ir18  1  0.760656  0.499532  0.261124  1
  Ir  Ir19  1  0.026682  0.338566  0.688116  1
  Ir  Ir20  1  0.614585  0.119327  0.495258  1
  Ir  Ir21  1  0.221103  0.500693  0.720409  1
  Ir  Ir22  1  0.017123  0.000367  0.016756  1
  Pt  Pt23  1  0.378091  0.880527  0.497564  1
  Pt  Pt24  1  0.654337  0.342096  0.312241  1
  Pt  Pt25  1  0.349367  0.662014  0.687353  1
  Pt  Pt26  1  0.970594  0.656766  0.313827  1
