# generated using pymatgen
data_Sr5Ca2Pr(RhO6)2
_symmetry_space_group_name_H-M   'P 1'
_cell_length_a   6.79694397
_cell_length_b   6.79694441
_cell_length_c   6.85151411
_cell_angle_alpha   91.04018979
_cell_angle_beta   91.04019749
_cell_angle_gamma   91.80048427
_symmetry_Int_Tables_number   1
_chemical_formula_structural   Sr5Ca2Pr(RhO6)2
_chemical_formula_sum   'Sr5 Ca2 Pr1 Rh2 O12'
_cell_volume   316.26539737
_cell_formula_units_Z   1
loop_
 _symmetry_equiv_pos_site_id
 _symmetry_equiv_pos_as_xyz
  1  'x, y, z'
loop_
 _atom_site_type_symbol
 _atom_site_label
 _atom_site_symmetry_multiplicity
 _atom_site_fract_x
 _atom_site_fract_y
 _atom_site_fract_z
 _atom_site_occupancy
  Sr  Sr0  1  0.117187  0.382813  0.750000  1
  Sr  Sr1  1  0.249940  0.884162  0.617593  1
  Sr  Sr2  1  0.615838  0.250060  0.882407  1
  Sr  Sr3  1  0.383408  0.749604  0.113937  1
  Sr  Sr4  1  0.750396  0.116592  0.386063  1
  Ca  Ca5  1  0.749867  0.750133  0.750000  1
  Ca  Ca6  1  0.251609  0.248391  0.250000  1
  Pr  Pr7  1  0.885866  0.614134  0.250000  1
  Rh  Rh8  1  0.998544  0.000577  0.003154  1
  Rh  Rh9  1  0.499423  0.501456  0.496846  1
  O  O10  1  0.448505  0.582748  0.784485  1
  O  O11  1  0.591137  0.785915  0.443295  1
  O  O12  1  0.950218  0.298322  0.089325  1
  O  O13  1  0.557532  0.424341  0.209200  1
  O  O14  1  0.201678  0.549782  0.410675  1
  O  O15  1  0.042526  0.706266  0.930026  1
  O  O16  1  0.793734  0.457474  0.569974  1
  O  O17  1  0.714085  0.908863  0.056705  1
  O  O18  1  0.075659  0.942468  0.290800  1
  O  O19  1  0.917252  0.051495  0.715515  1
  O  O20  1  0.416772  0.211173  0.549012  1
  O  O21  1  0.288827  0.083228  0.950988  1
