# generated using pymatgen
data_NdPa(SnRh)2
_symmetry_space_group_name_H-M   'P 1'
_cell_length_a   7.49553100
_cell_length_b   7.49553152
_cell_length_c   8.20329600
_cell_angle_alpha   90.00000000
_cell_angle_beta   90.00000000
_cell_angle_gamma   120.00000328
_symmetry_Int_Tables_number   1
_chemical_formula_structural   NdPa(SnRh)2
_chemical_formula_sum   'Nd3 Pa3 Sn6 Rh6'
_cell_volume   399.13870094
_cell_formula_units_Z   3
loop_
 _symmetry_equiv_pos_site_id
 _symmetry_equiv_pos_as_xyz
  1  'x, y, z'
loop_
 _atom_site_type_symbol
 _atom_site_label
 _atom_site_symmetry_multiplicity
 _atom_site_fract_x
 _atom_site_fract_y
 _atom_site_fract_z
 _atom_site_occupancy
  Nd  Nd0  1  0.001371  0.413419  0.750000  1
  Nd  Nd1  1  0.586581  0.587952  0.750000  1
  Nd  Nd2  1  0.412048  0.998629  0.750000  1
  Pa  Pa3  1  0.995776  0.410375  0.250000  1
  Pa  Pa4  1  0.589625  0.585402  0.250000  1
  Pa  Pa5  1  0.414598  0.004224  0.250000  1
  Sn  Sn6  1  0.251669  0.253036  0.500225  1
  Sn  Sn7  1  0.001367  0.748331  0.500225  1
  Sn  Sn8  1  0.001367  0.748331  0.999775  1
  Sn  Sn9  1  0.746964  0.998633  0.500225  1
  Sn  Sn10  1  0.746964  0.998633  0.999775  1
  Sn  Sn11  1  0.251669  0.253036  0.999775  1
  Rh  Rh12  1  0.333333  0.666667  0.456458  1
  Rh  Rh13  1  0.666667  0.333333  0.466519  1
  Rh  Rh14  1  0.333333  0.666667  0.043542  1
  Rh  Rh15  1  0.000000  0.000000  0.750000  1
  Rh  Rh16  1  0.000000  0.000000  0.250000  1
  Rh  Rh17  1  0.666667  0.333333  0.033481  1
