# generated using pymatgen
data_LiYbY3Al17Pd6
_symmetry_space_group_name_H-M   'P 1'
_cell_length_a   7.63955891
_cell_length_b   7.63367409
_cell_length_c   9.48307600
_cell_angle_alpha   90.00000000
_cell_angle_beta   90.00000000
_cell_angle_gamma   119.31462209
_symmetry_Int_Tables_number   1
_chemical_formula_structural   LiYbY3Al17Pd6
_chemical_formula_sum   'Li1 Yb1 Y3 Al17 Pd6'
_cell_volume   482.21409231
_cell_formula_units_Z   1
loop_
 _symmetry_equiv_pos_site_id
 _symmetry_equiv_pos_as_xyz
  1  'x, y, z'
loop_
 _atom_site_type_symbol
 _atom_site_label
 _atom_site_symmetry_multiplicity
 _atom_site_fract_x
 _atom_site_fract_y
 _atom_site_fract_z
 _atom_site_occupancy
  Li  Li0  1  0.128313  0.128877  0.250000  1
  Yb  Yb1  1  0.006837  0.327612  0.750000  1
  Y  Y2  1  0.994858  0.663267  0.250000  1
  Y  Y3  1  0.666300  0.996447  0.250000  1
  Y  Y4  1  0.327741  0.005907  0.750000  1
  Al  Al5  1  0.866618  0.864912  0.750000  1
  Al  Al6  1  0.002210  0.328973  0.080016  1
  Al  Al7  1  0.000135  0.664248  0.924094  1
  Al  Al8  1  0.000135  0.664248  0.575906  1
  Al  Al9  1  0.328550  0.001622  0.418028  1
  Al  Al10  1  0.002210  0.328973  0.419984  1
  Al  Al11  1  0.665332  0.000932  0.575951  1
  Al  Al12  1  0.665332  0.000932  0.924049  1
  Al  Al13  1  0.328550  0.001622  0.081972  1
  Al  Al14  1  0.335258  0.335427  0.545215  1
  Al  Al15  1  0.671843  0.671743  0.440014  1
  Al  Al16  1  0.671843  0.671743  0.059986  1
  Al  Al17  1  0.335258  0.335427  0.954785  1
  Al  Al18  1  0.340043  0.542629  0.250000  1
  Al  Al19  1  0.656012  0.451010  0.750000  1
  Al  Al20  1  0.541215  0.341037  0.250000  1
  Al  Al21  1  0.453555  0.660420  0.750000  1
  Pd  Pd22  1  0.675086  0.329881  0.000651  1
  Pd  Pd23  1  0.330496  0.676099  0.000317  1
  Pd  Pd24  1  0.330496  0.676099  0.499683  1
  Pd  Pd25  1  0.675086  0.329881  0.499349  1
  Pd  Pd26  1  0.000345  0.000016  0.993768  1
  Pd  Pd27  1  0.000345  0.000016  0.506232  1
