# generated using pymatgen
data_Pr5(NdSe4)2
_symmetry_space_group_name_H-M   'P 1'
_cell_length_a   8.49121800
_cell_length_b   8.52944822
_cell_length_c   8.56502000
_cell_angle_alpha   120.13805408
_cell_angle_beta   90.00000000
_cell_angle_gamma   119.85184227
_symmetry_Int_Tables_number   1
_chemical_formula_structural   Pr5(NdSe4)2
_chemical_formula_sum   'Pr5 Nd2 Se8'
_cell_volume   438.70028136
_cell_formula_units_Z   1
loop_
 _symmetry_equiv_pos_site_id
 _symmetry_equiv_pos_as_xyz
  1  'x, y, z'
loop_
 _atom_site_type_symbol
 _atom_site_label
 _atom_site_symmetry_multiplicity
 _atom_site_fract_x
 _atom_site_fract_y
 _atom_site_fract_z
 _atom_site_occupancy
  Pr  Pr0  1  0.250001  0.000002  0.250000  1
  Pr  Pr1  1  0.249997  0.499996  0.249999  1
  Pr  Pr2  1  0.750004  0.000004  0.250000  1
  Pr  Pr3  1  0.250001  0.000003  0.750004  1
  Pr  Pr4  1  0.750004  0.000003  0.750004  1
  Nd  Nd5  1  0.250000  0.499998  0.750000  1
  Nd  Nd6  1  0.750001  0.500004  0.750003  1
  Se  Se7  1  0.998871  0.997745  0.998872  1
  Se  Se8  1  0.501121  0.002246  0.501123  1
  Se  Se9  1  0.000142  0.000280  0.500142  1
  Se  Se10  1  0.998592  0.500001  0.501219  1
  Se  Se11  1  0.501411  0.500000  0.501223  1
  Se  Se12  1  0.998592  0.500001  0.998783  1
  Se  Se13  1  0.501409  0.500001  0.998778  1
  Se  Se14  1  0.499859  0.999716  0.999860  1
