# generated using pymatgen
data_HfZr(VTc)2
_symmetry_space_group_name_H-M   'P 1'
_cell_length_a   5.24113297
_cell_length_b   5.21110426
_cell_length_c   5.21110460
_cell_angle_alpha   60.42596264
_cell_angle_beta   59.80919429
_cell_angle_gamma   59.80920077
_symmetry_Int_Tables_number   1
_chemical_formula_structural   HfZr(VTc)2
_chemical_formula_sum   'Hf1 Zr1 V2 Tc2'
_cell_volume   100.66572128
_cell_formula_units_Z   1
loop_
 _symmetry_equiv_pos_site_id
 _symmetry_equiv_pos_as_xyz
  1  'x, y, z'
loop_
 _atom_site_type_symbol
 _atom_site_label
 _atom_site_symmetry_multiplicity
 _atom_site_fract_x
 _atom_site_fract_y
 _atom_site_fract_z
 _atom_site_occupancy
  Hf  Hf0  1  0.251338  0.248662  0.248662  1
  Zr  Zr1  1  0.998796  0.001204  0.001204  1
  V  V2  1  0.125019  0.625016  0.625016  1
  V  V3  1  0.624949  0.625016  0.625016  1
  Tc  Tc4  1  0.624949  0.624908  0.125195  1
  Tc  Tc5  1  0.624949  0.125195  0.624908  1
