# generated using pymatgen
data_Tm3Pa(ReB6)2
_symmetry_space_group_name_H-M   'P 1'
_cell_length_a   3.67507300
_cell_length_b   9.11333195
_cell_length_c   11.47974272
_cell_angle_alpha   90.31269812
_cell_angle_beta   90.00000000
_cell_angle_gamma   90.00000000
_symmetry_Int_Tables_number   1
_chemical_formula_structural   Tm3Pa(ReB6)2
_chemical_formula_sum   'Tm6 Pa2 Re4 B24'
_cell_volume   384.47565603
_cell_formula_units_Z   2
loop_
 _symmetry_equiv_pos_site_id
 _symmetry_equiv_pos_as_xyz
  1  'x, y, z'
loop_
 _atom_site_type_symbol
 _atom_site_label
 _atom_site_symmetry_multiplicity
 _atom_site_fract_x
 _atom_site_fract_y
 _atom_site_fract_z
 _atom_site_occupancy
  Tm  Tm0  1  0.000000  0.823427  0.085570  1
  Tm  Tm1  1  0.000000  0.176573  0.914430  1
  Tm  Tm2  1  0.000000  0.944812  0.372231  1
  Tm  Tm3  1  0.000000  0.055188  0.627769  1
  Tm  Tm4  1  0.000000  0.443772  0.126170  1
  Tm  Tm5  1  0.000000  0.556228  0.873830  1
  Pa  Pa6  1  0.000000  0.320999  0.413051  1
  Pa  Pa7  1  0.000000  0.679001  0.586949  1
  Re  Re8  1  0.000000  0.635789  0.323927  1
  Re  Re9  1  0.000000  0.364211  0.676073  1
  Re  Re10  1  0.000000  0.140108  0.181240  1
  Re  Re11  1  0.000000  0.859892  0.818760  1
  B  B12  1  0.500000  0.553721  0.432820  1
  B  B13  1  0.500000  0.446279  0.567180  1
  B  B14  1  0.500000  0.053081  0.066722  1
  B  B15  1  0.500000  0.946919  0.933278  1
  B  B16  1  0.500000  0.749453  0.419244  1
  B  B17  1  0.500000  0.250547  0.580756  1
  B  B18  1  0.500000  0.248419  0.079580  1
  B  B19  1  0.500000  0.751581  0.920420  1
  B  B20  1  0.500000  0.792174  0.264759  1
  B  B21  1  0.500000  0.207826  0.735241  1
  B  B22  1  0.500000  0.292251  0.233506  1
  B  B23  1  0.500000  0.707749  0.766494  1
  B  B24  1  0.500000  0.631320  0.184533  1
  B  B25  1  0.500000  0.368680  0.815467  1
  B  B26  1  0.500000  0.131215  0.314186  1
  B  B27  1  0.500000  0.868785  0.685814  1
  B  B28  1  0.500000  0.981200  0.211853  1
  B  B29  1  0.500000  0.018800  0.788147  1
  B  B30  1  0.500000  0.482605  0.285943  1
  B  B31  1  0.500000  0.517395  0.714057  1
  B  B32  1  0.500000  0.604059  0.029030  1
  B  B33  1  0.500000  0.395941  0.970970  1
  B  B34  1  0.500000  0.107317  0.470265  1
  B  B35  1  0.500000  0.892683  0.529735  1
