# generated using pymatgen
data_LaY(AlCu)5
_symmetry_space_group_name_H-M   'P 1'
_cell_length_a   4.12301800
_cell_length_b   5.37767300
_cell_length_c   9.11766700
_cell_angle_alpha   90.00000000
_cell_angle_beta   90.00000000
_cell_angle_gamma   90.00000000
_symmetry_Int_Tables_number   1
_chemical_formula_structural   LaY(AlCu)5
_chemical_formula_sum   'La1 Y1 Al5 Cu5'
_cell_volume   202.15912446
_cell_formula_units_Z   1
loop_
 _symmetry_equiv_pos_site_id
 _symmetry_equiv_pos_as_xyz
  1  'x, y, z'
loop_
 _atom_site_type_symbol
 _atom_site_label
 _atom_site_symmetry_multiplicity
 _atom_site_fract_x
 _atom_site_fract_y
 _atom_site_fract_z
 _atom_site_occupancy
  La  La0  1  0.000000  0.500000  0.000000  1
  Y  Y1  1  0.000000  0.000000  0.500000  1
  Al  Al2  1  0.500000  0.000000  0.000000  1
  Al  Al3  1  0.500000  0.750699  0.263695  1
  Al  Al4  1  0.500000  0.249301  0.736305  1
  Al  Al5  1  0.500000  0.249301  0.263695  1
  Al  Al6  1  0.500000  0.750699  0.736305  1
  Cu  Cu7  1  0.000000  0.500000  0.343459  1
  Cu  Cu8  1  0.000000  0.000000  0.826860  1
  Cu  Cu9  1  0.000000  0.000000  0.173140  1
  Cu  Cu10  1  0.000000  0.500000  0.656541  1
  Cu  Cu11  1  0.500000  0.500000  0.500000  1
