# generated using pymatgen
data_Ac3GdRu4F28
_symmetry_space_group_name_H-M   'P 1'
_cell_length_a   5.73784539
_cell_length_b   9.31051595
_cell_length_c   12.31167400
_cell_angle_alpha   62.52959135
_cell_angle_beta   90.02112951
_cell_angle_gamma   89.93573414
_symmetry_Int_Tables_number   1
_chemical_formula_structural   Ac3GdRu4F28
_chemical_formula_sum   'Ac3 Gd1 Ru4 F28'
_cell_volume   583.55906566
_cell_formula_units_Z   1
loop_
 _symmetry_equiv_pos_site_id
 _symmetry_equiv_pos_as_xyz
  1  'x, y, z'
loop_
 _atom_site_type_symbol
 _atom_site_label
 _atom_site_symmetry_multiplicity
 _atom_site_fract_x
 _atom_site_fract_y
 _atom_site_fract_z
 _atom_site_occupancy
  Ac  Ac0  1  0.761022  0.806643  0.266568  1
  Ac  Ac1  1  0.261845  0.191339  0.233254  1
  Ac  Ac2  1  0.237858  0.184935  0.733438  1
  Gd  Gd3  1  0.735235  0.803411  0.768230  1
  Ru  Ru4  1  0.242945  0.726274  0.552463  1
  Ru  Ru5  1  0.745531  0.284218  0.951704  1
  Ru  Ru6  1  0.750644  0.269683  0.458754  1
  Ru  Ru7  1  0.252945  0.725115  0.036518  1
  F  F8  1  0.959065  0.711097  0.468801  1
  F  F9  1  0.450968  0.295659  0.028340  1
  F  F10  1  0.046642  0.286873  0.532720  1
  F  F11  1  0.544130  0.713500  0.953714  1
  F  F12  1  0.060062  0.705303  0.914903  1
  F  F13  1  0.576155  0.294181  0.585928  1
  F  F14  1  0.921833  0.304464  0.077226  1
  F  F15  1  0.435535  0.705842  0.428489  1
  F  F16  1  0.744202  0.518466  0.856806  1
  F  F17  1  0.238541  0.496266  0.646258  1
  F  F18  1  0.260307  0.493015  0.130411  1
  F  F19  1  0.754481  0.500223  0.363334  1
  F  F20  1  0.737188  0.050342  0.043614  1
  F  F21  1  0.237568  0.956617  0.459525  1
  F  F22  1  0.260794  0.958626  0.953065  1
  F  F23  1  0.758979  0.039760  0.549430  1
  F  F24  1  0.047779  0.750713  0.674937  1
  F  F25  1  0.574081  0.263618  0.824445  1
  F  F26  1  0.923807  0.254180  0.327261  1
  F  F27  1  0.438304  0.738906  0.163501  1
  F  F28  1  0.036094  0.273164  0.872445  1
  F  F29  1  0.529343  0.733168  0.638592  1
  F  F30  1  0.968301  0.728905  0.122810  1
  F  F31  1  0.455014  0.267468  0.379846  1
  F  F32  1  0.121483  0.955237  0.226098  1
  F  F33  1  0.620673  0.041187  0.275177  1
  F  F34  1  0.893641  0.016193  0.772517  1
  F  F35  1  0.417005  0.955408  0.728875  1
