# generated using pymatgen
data_Ba2B2Pd5Pt3
_symmetry_space_group_name_H-M   'P 1'
_cell_length_a   6.19636000
_cell_length_b   5.69996369
_cell_length_c   12.19795457
_cell_angle_alpha   90.24272066
_cell_angle_beta   90.00000000
_cell_angle_gamma   90.00000000
_symmetry_Int_Tables_number   1
_chemical_formula_structural   Ba2B2Pd5Pt3
_chemical_formula_sum   'Ba4 B4 Pd10 Pt6'
_cell_volume   430.81602119
_cell_formula_units_Z   2
loop_
 _symmetry_equiv_pos_site_id
 _symmetry_equiv_pos_as_xyz
  1  'x, y, z'
loop_
 _atom_site_type_symbol
 _atom_site_label
 _atom_site_symmetry_multiplicity
 _atom_site_fract_x
 _atom_site_fract_y
 _atom_site_fract_z
 _atom_site_occupancy
  Ba  Ba0  1  0.182439  0.249816  0.334990  1
  Ba  Ba1  1  0.682439  0.250184  0.165010  1
  Ba  Ba2  1  0.816393  0.749581  0.665276  1
  Ba  Ba3  1  0.316393  0.750419  0.834724  1
  B  B4  1  0.093509  0.253907  0.952793  1
  B  B5  1  0.593509  0.246093  0.547207  1
  B  B6  1  0.908708  0.744505  0.048990  1
  B  B7  1  0.408708  0.755495  0.451010  1
  Pd  Pd8  1  0.108223  0.247805  0.767363  1
  Pd  Pd9  1  0.608223  0.252195  0.732637  1
  Pd  Pd10  1  0.891305  0.751547  0.234056  1
  Pd  Pd11  1  0.391305  0.748453  0.265944  1
  Pd  Pd12  1  0.436482  0.252224  0.939928  1
  Pd  Pd13  1  0.936482  0.247776  0.560072  1
  Pd  Pd14  1  0.565828  0.749891  0.059254  1
  Pd  Pd15  1  0.065828  0.750109  0.440746  1
  Pd  Pd16  1  0.330008  0.497544  0.584144  1
  Pd  Pd17  1  0.830008  0.002456  0.915856  1
  Pt  Pt18  1  0.332521  0.011191  0.581542  1
  Pt  Pt19  1  0.832521  0.488809  0.918458  1
  Pt  Pt20  1  0.664552  0.505613  0.420469  1
  Pt  Pt21  1  0.164552  0.994387  0.079531  1
  Pt  Pt22  1  0.670032  0.992102  0.416537  1
  Pt  Pt23  1  0.170032  0.507898  0.083463  1
