# generated using pymatgen
data_CaPr2Nd5(ReC2)4
_symmetry_space_group_name_H-M   'P 1'
_cell_length_a   5.35576100
_cell_length_b   6.70396587
_cell_length_c   10.29959063
_cell_angle_alpha   90.28048867
_cell_angle_beta   90.00000000
_cell_angle_gamma   90.00000000
_symmetry_Int_Tables_number   1
_chemical_formula_structural   CaPr2Nd5(ReC2)4
_chemical_formula_sum   'Ca1 Pr2 Nd5 Re4 C8'
_cell_volume   369.80071136
_cell_formula_units_Z   1
loop_
 _symmetry_equiv_pos_site_id
 _symmetry_equiv_pos_as_xyz
  1  'x, y, z'
loop_
 _atom_site_type_symbol
 _atom_site_label
 _atom_site_symmetry_multiplicity
 _atom_site_fract_x
 _atom_site_fract_y
 _atom_site_fract_z
 _atom_site_occupancy
  Ca  Ca0  1  0.250000  0.470486  0.779427  1
  Pr  Pr1  1  0.750000  0.028650  0.286072  1
  Pr  Pr2  1  0.250000  0.973034  0.717689  1
  Nd  Nd3  1  0.750000  0.528560  0.216662  1
  Nd  Nd4  1  0.250000  0.809172  0.049416  1
  Nd  Nd5  1  0.750000  0.689208  0.552292  1
  Nd  Nd6  1  0.250000  0.312732  0.450231  1
  Nd  Nd7  1  0.750000  0.193739  0.948034  1
  Re  Re8  1  0.250000  0.268650  0.143462  1
  Re  Re9  1  0.750000  0.228337  0.642292  1
  Re  Re10  1  0.250000  0.770840  0.356199  1
  Re  Re11  1  0.750000  0.729109  0.857329  1
  C  C12  1  0.250000  0.692321  0.534101  1
  C  C13  1  0.750000  0.807392  0.036375  1
  C  C14  1  0.250000  0.186016  0.965520  1
  C  C15  1  0.750000  0.314399  0.464412  1
  C  C16  1  0.250000  0.034355  0.258270  1
  C  C17  1  0.750000  0.465011  0.758092  1
  C  C18  1  0.250000  0.533170  0.241464  1
  C  C19  1  0.750000  0.964819  0.742659  1
