# generated using pymatgen
data_Tb7Yb2Dy(In2Pt)4
_symmetry_space_group_name_H-M   'P 1'
_cell_length_a   3.63962500
_cell_length_b   8.20967287
_cell_length_c   18.44157790
_cell_angle_alpha   90.05238003
_cell_angle_beta   90.00000000
_cell_angle_gamma   90.00000000
_symmetry_Int_Tables_number   1
_chemical_formula_structural   Tb7Yb2Dy(In2Pt)4
_chemical_formula_sum   'Tb7 Yb2 Dy1 In8 Pt4'
_cell_volume   551.03652618
_cell_formula_units_Z   1
loop_
 _symmetry_equiv_pos_site_id
 _symmetry_equiv_pos_as_xyz
  1  'x, y, z'
loop_
 _atom_site_type_symbol
 _atom_site_label
 _atom_site_symmetry_multiplicity
 _atom_site_fract_x
 _atom_site_fract_y
 _atom_site_fract_z
 _atom_site_occupancy
  Tb  Tb0  1  0.000000  0.116814  0.413398  1
  Tb  Tb1  1  0.000000  0.882335  0.586278  1
  Tb  Tb2  1  0.000000  0.382437  0.913762  1
  Tb  Tb3  1  0.000000  0.617625  0.086509  1
  Tb  Tb4  1  0.000000  0.244881  0.220370  1
  Tb  Tb5  1  0.000000  0.755703  0.779706  1
  Tb  Tb6  1  0.000000  0.255638  0.720374  1
  Yb  Yb7  1  0.000000  0.999779  0.000100  1
  Yb  Yb8  1  0.000000  0.499923  0.499965  1
  Dy  Dy9  1  0.000000  0.744543  0.279585  1
  In  In10  1  0.500000  0.427739  0.351083  1
  In  In11  1  0.500000  0.572970  0.648837  1
  In  In12  1  0.500000  0.072994  0.851293  1
  In  In13  1  0.500000  0.926459  0.148910  1
  In  In14  1  0.500000  0.292318  0.067881  1
  In  In15  1  0.500000  0.707991  0.932214  1
  In  In16  1  0.500000  0.208056  0.567630  1
  In  In17  1  0.500000  0.791593  0.432041  1
  Pt  Pt18  1  0.500000  0.023759  0.302702  1
  Pt  Pt19  1  0.500000  0.975268  0.697005  1
  Pt  Pt20  1  0.500000  0.475961  0.803058  1
  Pt  Pt21  1  0.500000  0.525212  0.197301  1
