# generated using pymatgen
data_Tb8Ta7Ti4NbSi16
_symmetry_space_group_name_H-M   'P 1'
_cell_length_a   7.06584854
_cell_length_b   7.06994583
_cell_length_c   13.02905064
_cell_angle_alpha   89.96027665
_cell_angle_beta   89.98865697
_cell_angle_gamma   89.97015625
_symmetry_Int_Tables_number   1
_chemical_formula_structural   Tb8Ta7Ti4NbSi16
_chemical_formula_sum   'Tb8 Ta7 Ti4 Nb1 Si16'
_cell_volume   650.86813628
_cell_formula_units_Z   1
loop_
 _symmetry_equiv_pos_site_id
 _symmetry_equiv_pos_as_xyz
  1  'x, y, z'
loop_
 _atom_site_type_symbol
 _atom_site_label
 _atom_site_symmetry_multiplicity
 _atom_site_fract_x
 _atom_site_fract_y
 _atom_site_fract_z
 _atom_site_occupancy
  Tb  Tb0  1  0.341023  0.002162  0.466859  1
  Tb  Tb1  1  0.497765  0.840479  0.717075  1
  Tb  Tb2  1  0.501620  0.158842  0.216832  1
  Tb  Tb3  1  0.840590  0.498790  0.283416  1
  Tb  Tb4  1  0.159118  0.502293  0.782881  1
  Tb  Tb5  1  0.659344  0.997403  0.967388  1
  Tb  Tb6  1  0.002342  0.340343  0.533073  1
  Tb  Tb7  1  0.997125  0.659795  0.032618  1
  Ta  Ta8  1  0.173553  0.826358  0.250038  1
  Ta  Ta9  1  0.827150  0.173599  0.749954  1
  Ta  Ta10  1  0.671853  0.670878  0.500401  1
  Ta  Ta11  1  0.152920  0.008014  0.875025  1
  Ta  Ta12  1  0.491360  0.653876  0.125171  1
  Ta  Ta13  1  0.507797  0.346890  0.625428  1
  Ta  Ta14  1  0.652762  0.491697  0.874773  1
  Ti  Ti15  1  0.346884  0.508288  0.374862  1
  Ti  Ti16  1  0.845801  0.991539  0.375057  1
  Ti  Ti17  1  0.008753  0.153529  0.124062  1
  Ti  Ti18  1  0.990828  0.844812  0.624919  1
  Nb  Nb19  1  0.328487  0.329050  0.000025  1
  Si  Si20  1  0.201911  0.130902  0.683549  1
  Si  Si21  1  0.367575  0.704541  0.933188  1
  Si  Si22  1  0.631232  0.297628  0.434277  1
  Si  Si23  1  0.704673  0.366781  0.066728  1
  Si  Si24  1  0.297280  0.633329  0.565123  1
  Si  Si25  1  0.799465  0.869706  0.185182  1
  Si  Si26  1  0.130523  0.200634  0.315050  1
  Si  Si27  1  0.867578  0.798201  0.816042  1
  Si  Si28  1  0.292037  0.953754  0.065072  1
  Si  Si29  1  0.546569  0.793012  0.315041  1
  Si  Si30  1  0.453620  0.205819  0.813585  1
  Si  Si31  1  0.795741  0.547642  0.684939  1
  Si  Si32  1  0.205948  0.452660  0.186933  1
  Si  Si33  1  0.709728  0.045720  0.563373  1
  Si  Si34  1  0.953072  0.293239  0.936525  1
  Si  Si35  1  0.045973  0.707793  0.435535  1
