# generated using pymatgen
data_CaNd(In2Ir)2
_symmetry_space_group_name_H-M   'P 1'
_cell_length_a   5.67430920
_cell_length_b   5.67430854
_cell_length_c   8.28524400
_cell_angle_alpha   90.00000000
_cell_angle_beta   90.00000000
_cell_angle_gamma   136.05706118
_symmetry_Int_Tables_number   1
_chemical_formula_structural   CaNd(In2Ir)2
_chemical_formula_sum   'Ca1 Nd1 In4 Ir2'
_cell_volume   185.12036134
_cell_formula_units_Z   1
loop_
 _symmetry_equiv_pos_site_id
 _symmetry_equiv_pos_as_xyz
  1  'x, y, z'
loop_
 _atom_site_type_symbol
 _atom_site_label
 _atom_site_symmetry_multiplicity
 _atom_site_fract_x
 _atom_site_fract_y
 _atom_site_fract_z
 _atom_site_occupancy
  Ca  Ca0  1  0.933949  0.066051  0.750000  1
  Nd  Nd1  1  0.069512  0.930488  0.250000  1
  In  In2  1  0.645631  0.354369  0.553211  1
  In  In3  1  0.354426  0.645574  0.454668  1
  In  In4  1  0.645631  0.354369  0.946789  1
  In  In5  1  0.354426  0.645574  0.045332  1
  Ir  Ir6  1  0.775649  0.224351  0.250000  1
  Ir  Ir7  1  0.220776  0.779224  0.750000  1
