# generated using pymatgen
data_Mn11Fe(Mo3N)4
_symmetry_space_group_name_H-M   'P 1'
_cell_length_a   7.83884710
_cell_length_b   7.83884734
_cell_length_c   7.83884655
_cell_angle_alpha   59.91094546
_cell_angle_beta   59.91093968
_cell_angle_gamma   59.91094621
_symmetry_Int_Tables_number   1
_chemical_formula_structural   Mn11Fe(Mo3N)4
_chemical_formula_sum   'Mn11 Fe1 Mo12 N4'
_cell_volume   339.90949170
_cell_formula_units_Z   1
loop_
 _symmetry_equiv_pos_site_id
 _symmetry_equiv_pos_as_xyz
  1  'x, y, z'
loop_
 _atom_site_type_symbol
 _atom_site_label
 _atom_site_symmetry_multiplicity
 _atom_site_fract_x
 _atom_site_fract_y
 _atom_site_fract_z
 _atom_site_occupancy
  Mn  Mn0  1  0.126387  0.623961  0.623961  1
  Mn  Mn1  1  0.623961  0.126387  0.623961  1
  Mn  Mn2  1  0.623961  0.623961  0.126387  1
  Mn  Mn3  1  0.625480  0.625480  0.625480  1
  Mn  Mn4  1  0.735600  0.421529  0.421529  1
  Mn  Mn5  1  0.421529  0.735600  0.421529  1
  Mn  Mn6  1  0.421529  0.421529  0.735600  1
  Mn  Mn7  1  0.421032  0.421032  0.421032  1
  Mn  Mn8  1  0.516344  0.828840  0.828840  1
  Mn  Mn9  1  0.828840  0.516344  0.828840  1
  Mn  Mn10  1  0.828840  0.828840  0.516344  1
  Fe  Fe11  1  0.830387  0.830387  0.830387  1
  Mo  Mo12  1  0.799789  0.799789  0.200219  1
  Mo  Mo13  1  0.198891  0.198891  0.800643  1
  Mo  Mo14  1  0.799789  0.200219  0.799789  1
  Mo  Mo15  1  0.198891  0.800643  0.198891  1
  Mo  Mo16  1  0.200219  0.799789  0.799789  1
  Mo  Mo17  1  0.800643  0.198891  0.198891  1
  Mo  Mo18  1  0.449220  0.449220  0.050393  1
  Mo  Mo19  1  0.049678  0.049678  0.450391  1
  Mo  Mo20  1  0.449220  0.050393  0.449220  1
  Mo  Mo21  1  0.049678  0.450391  0.049678  1
  Mo  Mo22  1  0.050393  0.449220  0.449220  1
  Mo  Mo23  1  0.450391  0.049678  0.049678  1
  N  N24  1  0.625049  0.124662  0.124662  1
  N  N25  1  0.124662  0.625049  0.124662  1
  N  N26  1  0.124662  0.124662  0.625049  1
  N  N27  1  0.124933  0.124933  0.124933  1
