# generated using pymatgen
data_Er8Zr7Sc5Ga16
_symmetry_space_group_name_H-M   'P 1'
_cell_length_a   7.18602501
_cell_length_b   7.56616100
_cell_length_c   14.42111103
_cell_angle_alpha   89.99710027
_cell_angle_beta   90.00669842
_cell_angle_gamma   89.99864279
_symmetry_Int_Tables_number   1
_chemical_formula_structural   Er8Zr7Sc5Ga16
_chemical_formula_sum   'Er8 Zr7 Sc5 Ga16'
_cell_volume   784.08477316
_cell_formula_units_Z   1
loop_
 _symmetry_equiv_pos_site_id
 _symmetry_equiv_pos_as_xyz
  1  'x, y, z'
loop_
 _atom_site_type_symbol
 _atom_site_label
 _atom_site_symmetry_multiplicity
 _atom_site_fract_x
 _atom_site_fract_y
 _atom_site_fract_z
 _atom_site_occupancy
  Er  Er0  1  0.010084  0.178413  0.092591  1
  Er  Er1  1  0.990316  0.821972  0.907120  1
  Er  Er2  1  0.490731  0.677427  0.906601  1
  Er  Er3  1  0.990431  0.822238  0.592659  1
  Er  Er4  1  0.510063  0.321537  0.092891  1
  Er  Er5  1  0.009807  0.178024  0.407274  1
  Er  Er6  1  0.509499  0.322196  0.407108  1
  Er  Er7  1  0.490565  0.677605  0.592909  1
  Zr  Zr8  1  0.327870  0.174294  0.623338  1
  Zr  Zr9  1  0.671457  0.825235  0.376174  1
  Zr  Zr10  1  0.171532  0.674609  0.376433  1
  Zr  Zr11  1  0.671374  0.826850  0.123986  1
  Zr  Zr12  1  0.828265  0.325611  0.623277  1
  Zr  Zr13  1  0.327776  0.173814  0.876931  1
  Zr  Zr14  1  0.829057  0.326750  0.877027  1
  Sc  Sc15  1  0.161214  0.505589  0.750026  1
  Sc  Sc16  1  0.838588  0.494618  0.249560  1
  Sc  Sc17  1  0.338147  0.004788  0.249599  1
  Sc  Sc18  1  0.661042  0.994472  0.750049  1
  Sc  Sc19  1  0.172344  0.673167  0.123137  1
  Ga  Ga20  1  0.030297  0.118948  0.749948  1
  Ga  Ga21  1  0.969553  0.882268  0.250660  1
  Ga  Ga22  1  0.469708  0.618463  0.250614  1
  Ga  Ga23  1  0.530476  0.381215  0.749996  1
  Ga  Ga24  1  0.284417  0.871484  0.749756  1
  Ga  Ga25  1  0.715978  0.128187  0.250393  1
  Ga  Ga26  1  0.216127  0.370697  0.250928  1
  Ga  Ga27  1  0.784141  0.628485  0.749882  1
  Ga  Ga28  1  0.163173  0.462888  0.540224  1
  Ga  Ga29  1  0.836328  0.537782  0.459906  1
  Ga  Ga30  1  0.336919  0.962681  0.459777  1
  Ga  Ga31  1  0.835403  0.537041  0.040232  1
  Ga  Ga32  1  0.663119  0.037434  0.540126  1
  Ga  Ga33  1  0.162587  0.462469  0.958718  1
  Ga  Ga34  1  0.663615  0.036975  0.959675  1
  Ga  Ga35  1  0.337996  0.963774  0.040477  1
