# generated using pymatgen
data_CuHg2Pt4PbO14
_symmetry_space_group_name_H-M   'P 1'
_cell_length_a   7.24824008
_cell_length_b   7.20280718
_cell_length_c   7.20280739
_cell_angle_alpha   60.13510628
_cell_angle_beta   60.82740479
_cell_angle_gamma   60.82739673
_symmetry_Int_Tables_number   1
_chemical_formula_structural   CuHg2Pt4PbO14
_chemical_formula_sum   'Cu1 Hg2 Pt4 Pb1 O14'
_cell_volume   269.45920850
_cell_formula_units_Z   1
loop_
 _symmetry_equiv_pos_site_id
 _symmetry_equiv_pos_as_xyz
  1  'x, y, z'
loop_
 _atom_site_type_symbol
 _atom_site_label
 _atom_site_symmetry_multiplicity
 _atom_site_fract_x
 _atom_site_fract_y
 _atom_site_fract_z
 _atom_site_occupancy
  Cu  Cu0  1  0.125000  0.125000  0.125000  1
  Hg  Hg1  1  0.125000  0.625000  0.125000  1
  Hg  Hg2  1  0.125000  0.125000  0.625000  1
  Pt  Pt3  1  0.625000  0.625000  0.125000  1
  Pt  Pt4  1  0.625000  0.625000  0.625000  1
  Pt  Pt5  1  0.625000  0.125000  0.625000  1
  Pt  Pt6  1  0.125000  0.625000  0.625000  1
  Pb  Pb7  1  0.625000  0.125000  0.125000  1
  O  O8  1  0.701468  0.293039  0.293039  1
  O  O9  1  0.706278  0.289591  0.715143  1
  O  O10  1  0.012001  0.020270  0.020270  1
  O  O11  1  0.294580  0.713225  0.291909  1
  O  O12  1  0.706278  0.715143  0.289591  1
  O  O13  1  0.956435  0.542412  0.542412  1
  O  O14  1  0.293565  0.707588  0.707588  1
  O  O15  1  0.237999  0.229730  0.229730  1
  O  O16  1  0.955420  0.536775  0.958091  1
  O  O17  1  0.543722  0.960409  0.534857  1
  O  O18  1  0.543722  0.534857  0.960409  1
  O  O19  1  0.955420  0.958091  0.536775  1
  O  O20  1  0.548532  0.956961  0.956961  1
  O  O21  1  0.294580  0.291909  0.713225  1
