# generated using pymatgen
data_Dy15HoIn4OsRh3
_symmetry_space_group_name_H-M   'P 1'
_cell_length_a   9.63992605
_cell_length_b   9.67661216
_cell_length_c   9.63992558
_cell_angle_alpha   60.07742874
_cell_angle_beta   59.90259877
_cell_angle_gamma   60.07742708
_symmetry_Int_Tables_number   1
_chemical_formula_structural   Dy15HoIn4OsRh3
_chemical_formula_sum   'Dy15 Ho1 In4 Os1 Rh3'
_cell_volume   636.12364961
_cell_formula_units_Z   1
loop_
 _symmetry_equiv_pos_site_id
 _symmetry_equiv_pos_as_xyz
  1  'x, y, z'
loop_
 _atom_site_type_symbol
 _atom_site_label
 _atom_site_symmetry_multiplicity
 _atom_site_fract_x
 _atom_site_fract_y
 _atom_site_fract_z
 _atom_site_occupancy
  Dy  Dy0  1  0.188244  0.189382  0.811309  1
  Dy  Dy1  1  0.600474  0.600940  0.201892  1
  Dy  Dy2  1  0.440190  0.057213  0.440190  1
  Dy  Dy3  1  0.439255  0.440757  0.058689  1
  Dy  Dy4  1  0.812623  0.188207  0.812623  1
  Dy  Dy5  1  0.191505  0.812574  0.191505  1
  Dy  Dy6  1  0.437973  0.057657  0.061581  1
  Dy  Dy7  1  0.190087  0.813642  0.806377  1
  Dy  Dy8  1  0.059402  0.438777  0.059402  1
  Dy  Dy9  1  0.806377  0.813642  0.190087  1
  Dy  Dy10  1  0.201892  0.600940  0.600474  1
  Dy  Dy11  1  0.058689  0.440757  0.439255  1
  Dy  Dy12  1  0.061581  0.057657  0.437973  1
  Dy  Dy13  1  0.811309  0.189382  0.188244  1
  Dy  Dy14  1  0.601042  0.200559  0.601042  1
  Ho  Ho15  1  0.597509  0.598264  0.597509  1
  In  In16  1  0.832780  0.833404  0.832780  1
  In  In17  1  0.832687  0.833076  0.501297  1
  In  In18  1  0.501297  0.833076  0.832687  1
  In  In19  1  0.832264  0.502254  0.832264  1
  Os  Os20  1  0.392518  0.824835  0.392518  1
  Rh  Rh21  1  0.392559  0.390742  0.392559  1
  Rh  Rh22  1  0.825545  0.391133  0.392201  1
  Rh  Rh23  1  0.392201  0.391133  0.825545  1
