# generated using pymatgen
data_TbHo16Er3Sn16
_symmetry_space_group_name_H-M   'P 1'
_cell_length_a   8.00874408
_cell_length_b   8.14670681
_cell_length_c   15.40501501
_cell_angle_alpha   90.00485483
_cell_angle_beta   89.94418373
_cell_angle_gamma   89.96794848
_symmetry_Int_Tables_number   1
_chemical_formula_structural   TbHo16Er3Sn16
_chemical_formula_sum   'Tb1 Ho16 Er3 Sn16'
_cell_volume   1005.09786990
_cell_formula_units_Z   1
loop_
 _symmetry_equiv_pos_site_id
 _symmetry_equiv_pos_as_xyz
  1  'x, y, z'
loop_
 _atom_site_type_symbol
 _atom_site_label
 _atom_site_symmetry_multiplicity
 _atom_site_fract_x
 _atom_site_fract_y
 _atom_site_fract_z
 _atom_site_occupancy
  Tb  Tb0  1  0.020339  0.179884  0.902806  1
  Ho  Ho1  1  0.367761  0.836241  0.877743  1
  Ho  Ho2  1  0.867807  0.663881  0.622021  1
  Ho  Ho3  1  0.632079  0.163718  0.377833  1
  Ho  Ho4  1  0.132453  0.336439  0.122335  1
  Ho  Ho5  1  0.632474  0.163709  0.122258  1
  Ho  Ho6  1  0.132127  0.336266  0.377815  1
  Ho  Ho7  1  0.367989  0.836195  0.622096  1
  Ho  Ho8  1  0.867736  0.663727  0.877799  1
  Ho  Ho9  1  0.521027  0.320370  0.902645  1
  Ho  Ho10  1  0.021146  0.179820  0.597558  1
  Ho  Ho11  1  0.478933  0.679739  0.402538  1
  Ho  Ho12  1  0.979231  0.819990  0.097433  1
  Ho  Ho13  1  0.479141  0.679885  0.097401  1
  Ho  Ho14  1  0.978947  0.820245  0.402567  1
  Ho  Ho15  1  0.521085  0.320309  0.597254  1
  Ho  Ho16  1  0.198327  0.502937  0.749850  1
  Er  Er17  1  0.698163  0.996958  0.749794  1
  Er  Er18  1  0.801683  0.497114  0.250060  1
  Er  Er19  1  0.301744  0.002803  0.250041  1
  Sn  Sn20  1  0.293115  0.034974  0.042194  1
  Sn  Sn21  1  0.792202  0.464637  0.458237  1
  Sn  Sn22  1  0.707837  0.964787  0.541731  1
  Sn  Sn23  1  0.208104  0.536319  0.958564  1
  Sn  Sn24  1  0.706430  0.963442  0.958517  1
  Sn  Sn25  1  0.207733  0.535405  0.541625  1
  Sn  Sn26  1  0.292244  0.035292  0.458254  1
  Sn  Sn27  1  0.792370  0.464594  0.041752  1
  Sn  Sn28  1  0.564877  0.619024  0.749956  1
  Sn  Sn29  1  0.064696  0.880784  0.749935  1
  Sn  Sn30  1  0.435365  0.380999  0.250026  1
  Sn  Sn31  1  0.935336  0.119086  0.250066  1
  Sn  Sn32  1  0.330305  0.147583  0.749824  1
  Sn  Sn33  1  0.828982  0.352792  0.749481  1
  Sn  Sn34  1  0.670155  0.852197  0.249975  1
  Sn  Sn35  1  0.170063  0.647859  0.250017  1
