# generated using pymatgen
data_Sc4Zn2HgRu
_symmetry_space_group_name_H-M   'P 1'
_cell_length_a   6.74141700
_cell_length_b   6.70889600
_cell_length_c   6.74155600
_cell_angle_alpha   90.00000000
_cell_angle_beta   90.00015298
_cell_angle_gamma   90.00000000
_symmetry_Int_Tables_number   1
_chemical_formula_structural   Sc4Zn2HgRu
_chemical_formula_sum   'Sc8 Zn4 Hg2 Ru2'
_cell_volume   304.90349171
_cell_formula_units_Z   2
loop_
 _symmetry_equiv_pos_site_id
 _symmetry_equiv_pos_as_xyz
  1  'x, y, z'
loop_
 _atom_site_type_symbol
 _atom_site_label
 _atom_site_symmetry_multiplicity
 _atom_site_fract_x
 _atom_site_fract_y
 _atom_site_fract_z
 _atom_site_occupancy
  Sc  Sc0  1  0.236119  0.000068  0.263887  1
  Sc  Sc1  1  0.236119  0.499931  0.263887  1
  Sc  Sc2  1  0.763909  0.500071  0.263916  1
  Sc  Sc3  1  0.763909  0.999928  0.263916  1
  Sc  Sc4  1  0.236092  0.000071  0.736085  1
  Sc  Sc5  1  0.236092  0.499930  0.736085  1
  Sc  Sc6  1  0.763881  0.500068  0.736114  1
  Sc  Sc7  1  0.763881  0.999931  0.736114  1
  Zn  Zn8  1  0.999859  0.250000  0.000002  1
  Zn  Zn9  1  0.000142  0.750000  0.999998  1
  Zn  Zn10  1  0.500150  0.250000  0.500000  1
  Zn  Zn11  1  0.499849  0.750000  0.500000  1
  Hg  Hg12  1  0.500101  0.250000  0.999999  1
  Hg  Hg13  1  0.499899  0.750000  0.000001  1
  Ru  Ru14  1  0.999935  0.250000  0.499999  1
  Ru  Ru15  1  0.000065  0.750000  0.500001  1
