# generated using pymatgen
data_Hf5Zr5CuSn6Te
_symmetry_space_group_name_H-M   'P 1'
_cell_length_a   8.71086601
_cell_length_b   8.71086715
_cell_length_c   5.91733322
_cell_angle_alpha   89.99364143
_cell_angle_beta   89.99364787
_cell_angle_gamma   120.04206189
_symmetry_Int_Tables_number   1
_chemical_formula_structural   Hf5Zr5CuSn6Te
_chemical_formula_sum   'Hf5 Zr5 Cu1 Sn6 Te1'
_cell_volume   388.68263874
_cell_formula_units_Z   1
loop_
 _symmetry_equiv_pos_site_id
 _symmetry_equiv_pos_as_xyz
  1  'x, y, z'
loop_
 _atom_site_type_symbol
 _atom_site_label
 _atom_site_symmetry_multiplicity
 _atom_site_fract_x
 _atom_site_fract_y
 _atom_site_fract_z
 _atom_site_occupancy
  Hf  Hf0  1  0.667112  0.334236  0.499599  1
  Hf  Hf1  1  0.334236  0.667112  0.499599  1
  Hf  Hf2  1  0.333982  0.667020  0.000057  1
  Hf  Hf3  1  0.667020  0.333982  0.000057  1
  Hf  Hf4  1  0.726908  0.726908  0.232859  1
  Zr  Zr5  1  0.273196  0.000957  0.234944  1
  Zr  Zr6  1  0.000957  0.273196  0.234944  1
  Zr  Zr7  1  0.270905  0.270905  0.764713  1
  Zr  Zr8  1  0.728575  0.999649  0.765634  1
  Zr  Zr9  1  0.999649  0.728575  0.765634  1
  Cu  Cu10  1  0.996674  0.996674  0.004705  1
  Sn  Sn11  1  0.389161  0.389161  0.252190  1
  Sn  Sn12  1  0.612497  0.000040  0.252712  1
  Sn  Sn13  1  0.000040  0.612497  0.252712  1
  Sn  Sn14  1  0.611182  0.611182  0.746948  1
  Sn  Sn15  1  0.388767  0.000242  0.747316  1
  Sn  Sn16  1  0.000242  0.388767  0.747316  1
  Te  Te17  1  0.998897  0.998897  0.498062  1
