# generated using pymatgen
data_Th4Zn(Ga2Pt)10
_symmetry_space_group_name_H-M   'P 1'
_cell_length_a   4.32664059
_cell_length_b   11.04284754
_cell_length_c   13.71080979
_cell_angle_alpha   81.39093857
_cell_angle_beta   80.84000480
_cell_angle_gamma   78.57868013
_symmetry_Int_Tables_number   1
_chemical_formula_structural   Th4Zn(Ga2Pt)10
_chemical_formula_sum   'Th4 Zn1 Ga20 Pt10'
_cell_volume   629.17629481
_cell_formula_units_Z   1
loop_
 _symmetry_equiv_pos_site_id
 _symmetry_equiv_pos_as_xyz
  1  'x, y, z'
loop_
 _atom_site_type_symbol
 _atom_site_label
 _atom_site_symmetry_multiplicity
 _atom_site_fract_x
 _atom_site_fract_y
 _atom_site_fract_z
 _atom_site_occupancy
  Th  Th0  1  0.122997  0.088829  0.665601  1
  Th  Th1  1  0.877003  0.911171  0.334399  1
  Th  Th2  1  0.772999  0.629418  0.822024  1
  Th  Th3  1  0.227001  0.370582  0.177976  1
  Zn  Zn4  1  0.500000  0.500000  0.500000  1
  Ga  Ga5  1  0.011308  0.069086  0.911334  1
  Ga  Ga6  1  0.988692  0.930914  0.088666  1
  Ga  Ga7  1  0.062176  0.674050  0.199557  1
  Ga  Ga8  1  0.937824  0.325950  0.800443  1
  Ga  Ga9  1  0.108953  0.332759  0.450439  1
  Ga  Ga10  1  0.891047  0.667241  0.549561  1
  Ga  Ga11  1  0.199050  0.607553  0.994417  1
  Ga  Ga12  1  0.800950  0.392447  0.005583  1
  Ga  Ga13  1  0.259994  0.781281  0.696614  1
  Ga  Ga14  1  0.740006  0.218719  0.303386  1
  Ga  Ga15  1  0.302674  0.897688  0.497665  1
  Ga  Ga16  1  0.697326  0.102312  0.502335  1
  Ga  Ga17  1  0.387790  0.522708  0.698732  1
  Ga  Ga18  1  0.612210  0.477292  0.301268  1
  Ga  Ga19  1  0.397922  0.201591  0.000415  1
  Ga  Ga20  1  0.602078  0.798409  0.999585  1
  Ga  Ga21  1  0.541120  0.286729  0.630365  1
  Ga  Ga22  1  0.458880  0.713271  0.369635  1
  Ga  Ga23  1  0.634575  0.933780  0.799182  1
  Ga  Ga24  1  0.365425  0.066220  0.200818  1
  Pt  Pt25  1  0.024520  0.569375  0.382165  1
  Pt  Pt26  1  0.975480  0.430625  0.617835  1
  Pt  Pt27  1  0.142444  0.831761  0.885918  1
  Pt  Pt28  1  0.857556  0.168239  0.114082  1
  Pt  Pt29  1  0.242871  0.123723  0.390447  1
  Pt  Pt30  1  0.757129  0.876277  0.609553  1
  Pt  Pt31  1  0.345139  0.419641  0.890472  1
  Pt  Pt32  1  0.654861  0.580359  0.109528  1
  Pt  Pt33  1  0.507703  0.170125  0.816353  1
  Pt  Pt34  1  0.492297  0.829875  0.183647  1
