# generated using pymatgen
data_Dy4Ga4Tc3Mo
_symmetry_space_group_name_H-M   'P 1'
_cell_length_a   5.45088200
_cell_length_b   5.47104508
_cell_length_c   8.66259800
_cell_angle_alpha   90.00000000
_cell_angle_beta   90.00000000
_cell_angle_gamma   119.84809279
_symmetry_Int_Tables_number   1
_chemical_formula_structural   Dy4Ga4Tc3Mo
_chemical_formula_sum   'Dy4 Ga4 Tc3 Mo1'
_cell_volume   224.06736932
_cell_formula_units_Z   1
loop_
 _symmetry_equiv_pos_site_id
 _symmetry_equiv_pos_as_xyz
  1  'x, y, z'
loop_
 _atom_site_type_symbol
 _atom_site_label
 _atom_site_symmetry_multiplicity
 _atom_site_fract_x
 _atom_site_fract_y
 _atom_site_fract_z
 _atom_site_occupancy
  Dy  Dy0  1  0.329496  0.668101  0.442330  1
  Dy  Dy1  1  0.661094  0.331897  0.560436  1
  Dy  Dy2  1  0.661094  0.331897  0.939564  1
  Dy  Dy3  1  0.329496  0.668101  0.057670  1
  Ga  Ga4  1  0.840386  0.654958  0.250000  1
  Ga  Ga5  1  0.338635  0.155707  0.250000  1
  Ga  Ga6  1  0.181357  0.841978  0.750000  1
  Ga  Ga7  1  0.185928  0.346352  0.750000  1
  Tc  Tc8  1  0.977700  0.001184  0.499810  1
  Tc  Tc9  1  0.977700  0.001184  0.000190  1
  Tc  Tc10  1  0.679199  0.844513  0.750000  1
  Mo  Mo11  1  0.837920  0.154126  0.250000  1
