# generated using pymatgen
data_Dy3MgIr8
_symmetry_space_group_name_H-M   'P 1'
_cell_length_a   5.32537600
_cell_length_b   5.32537559
_cell_length_c   8.65611700
_cell_angle_alpha   90.00000000
_cell_angle_beta   90.00000000
_cell_angle_gamma   119.99999015
_symmetry_Int_Tables_number   1
_chemical_formula_structural   Dy3MgIr8
_chemical_formula_sum   'Dy3 Mg1 Ir8'
_cell_volume   212.59561983
_cell_formula_units_Z   1
loop_
 _symmetry_equiv_pos_site_id
 _symmetry_equiv_pos_as_xyz
  1  'x, y, z'
loop_
 _atom_site_type_symbol
 _atom_site_label
 _atom_site_symmetry_multiplicity
 _atom_site_fract_x
 _atom_site_fract_y
 _atom_site_fract_z
 _atom_site_occupancy
  Dy  Dy0  1  0.333333  0.666667  0.078308  1
  Dy  Dy1  1  0.666667  0.333333  0.559082  1
  Dy  Dy2  1  0.666667  0.333333  0.930365  1
  Mg  Mg3  1  0.333333  0.666667  0.438030  1
  Ir  Ir4  1  0.000000  0.000000  0.997442  1
  Ir  Ir5  1  0.000000  0.000000  0.497879  1
  Ir  Ir6  1  0.830442  0.660884  0.251192  1
  Ir  Ir7  1  0.170581  0.829419  0.748440  1
  Ir  Ir8  1  0.658838  0.829419  0.748440  1
  Ir  Ir9  1  0.339116  0.169558  0.251192  1
  Ir  Ir10  1  0.830442  0.169558  0.251192  1
  Ir  Ir11  1  0.170581  0.341162  0.748440  1
