# generated using pymatgen
data_Tb4B16OsRu3
_symmetry_space_group_name_H-M   'P 1'
_cell_length_a   3.57156100
_cell_length_b   5.97224003
_cell_length_c   11.56027005
_cell_angle_alpha   90.01102278
_cell_angle_beta   90.00000000
_cell_angle_gamma   90.00000000
_symmetry_Int_Tables_number   1
_chemical_formula_structural   Tb4B16OsRu3
_chemical_formula_sum   'Tb4 B16 Os1 Ru3'
_cell_volume   246.58309391
_cell_formula_units_Z   1
loop_
 _symmetry_equiv_pos_site_id
 _symmetry_equiv_pos_as_xyz
  1  'x, y, z'
loop_
 _atom_site_type_symbol
 _atom_site_label
 _atom_site_symmetry_multiplicity
 _atom_site_fract_x
 _atom_site_fract_y
 _atom_site_fract_z
 _atom_site_occupancy
  Tb  Tb0  1  0.500000  0.128446  0.149848  1
  Tb  Tb1  1  0.500000  0.871538  0.850150  1
  Tb  Tb2  1  0.500000  0.628479  0.349765  1
  Tb  Tb3  1  0.500000  0.371482  0.650157  1
  B  B4  1  0.000000  0.476293  0.191461  1
  B  B5  1  0.000000  0.523946  0.808515  1
  B  B6  1  0.000000  0.975633  0.308591  1
  B  B7  1  0.000000  0.024121  0.691441  1
  B  B8  1  0.000000  0.288453  0.314438  1
  B  B9  1  0.000000  0.711632  0.685464  1
  B  B10  1  0.000000  0.788288  0.185340  1
  B  B11  1  0.000000  0.211665  0.814746  1
  B  B12  1  0.000000  0.363265  0.469800  1
  B  B13  1  0.000000  0.636647  0.530368  1
  B  B14  1  0.000000  0.863505  0.030422  1
  B  B15  1  0.000000  0.136443  0.969487  1
  B  B16  1  0.000000  0.388215  0.046361  1
  B  B17  1  0.000000  0.611818  0.953549  1
  B  B18  1  0.000000  0.887942  0.453438  1
  B  B19  1  0.000000  0.112158  0.546548  1
  Os  Os20  1  0.500000  0.140746  0.407270  1
  Ru  Ru21  1  0.500000  0.859217  0.592756  1
  Ru  Ru22  1  0.500000  0.639986  0.092721  1
  Ru  Ru23  1  0.500000  0.360084  0.907365  1
