# generated using pymatgen
data_Nd10Si16Ge
_symmetry_space_group_name_H-M   'P 1'
_cell_length_a   11.41875642
_cell_length_b   11.42102289
_cell_length_c   11.41875670
_cell_angle_alpha   145.12995364
_cell_angle_beta   135.52574761
_cell_angle_gamma   57.71892753
_symmetry_Int_Tables_number   1
_chemical_formula_structural   Nd10Si16Ge
_chemical_formula_sum   'Nd10 Si16 Ge1'
_cell_volume   591.54129815
_cell_formula_units_Z   1
loop_
 _symmetry_equiv_pos_site_id
 _symmetry_equiv_pos_as_xyz
  1  'x, y, z'
loop_
 _atom_site_type_symbol
 _atom_site_label
 _atom_site_symmetry_multiplicity
 _atom_site_fract_x
 _atom_site_fract_y
 _atom_site_fract_z
 _atom_site_occupancy
  Nd  Nd0  1  0.049652  0.564510  0.015180  1
  Nd  Nd1  1  0.352637  0.367283  0.518879  1
  Nd  Nd2  1  0.153485  0.166791  0.520504  1
  Nd  Nd3  1  0.449242  0.964369  0.013595  1
  Nd  Nd4  1  0.646289  0.166791  0.013308  1
  Nd  Nd5  1  0.950774  0.964369  0.515127  1
  Nd  Nd6  1  0.848403  0.367283  0.014646  1
  Nd  Nd7  1  0.549331  0.564510  0.514858  1
  Nd  Nd8  1  0.249521  0.763416  0.011666  1
  Nd  Nd9  1  0.751751  0.763416  0.513896  1
  Si  Si10  1  0.114093  0.069909  0.955815  1
  Si  Si11  1  0.800216  0.180241  0.380025  1
  Si  Si12  1  0.299952  0.897039  0.597088  1
  Si  Si13  1  0.400134  0.501553  0.101420  1
  Si  Si14  1  0.882100  0.850897  0.968797  1
  Si  Si15  1  0.103645  0.710690  0.607045  1
  Si  Si16  1  0.198623  0.593067  0.394443  1
  Si  Si17  1  0.700649  0.296801  0.596153  1
  Si  Si18  1  0.002083  0.433196  0.431114  1
  Si  Si19  1  0.710665  0.663384  0.952718  1
  Si  Si20  1  0.600272  0.701872  0.101599  1
  Si  Si21  1  0.999330  0.085087  0.085757  1
  Si  Si22  1  0.500306  0.406465  0.906159  1
  Si  Si23  1  0.290390  0.242011  0.951621  1
  Si  Si24  1  0.588104  0.038261  0.450156  1
  Si  Si25  1  0.411903  0.860795  0.448891  1
  Ge  Ge26  1  0.896451  0.504912  0.608461  1
