# generated using pymatgen
data_Dy3AgSn3Ru2
_symmetry_space_group_name_H-M   'P 1'
_cell_length_a   7.78341600
_cell_length_b   7.78341638
_cell_length_c   3.76593500
_cell_angle_alpha   90.00000000
_cell_angle_beta   90.00000000
_cell_angle_gamma   119.99998989
_symmetry_Int_Tables_number   1
_chemical_formula_structural   Dy3AgSn3Ru2
_chemical_formula_sum   'Dy3 Ag1 Sn3 Ru2'
_cell_volume   197.58046471
_cell_formula_units_Z   1
loop_
 _symmetry_equiv_pos_site_id
 _symmetry_equiv_pos_as_xyz
  1  'x, y, z'
loop_
 _atom_site_type_symbol
 _atom_site_label
 _atom_site_symmetry_multiplicity
 _atom_site_fract_x
 _atom_site_fract_y
 _atom_site_fract_z
 _atom_site_occupancy
  Dy  Dy0  1  0.386789  0.411216  0.500000  1
  Dy  Dy1  1  0.588784  0.975573  0.500000  1
  Dy  Dy2  1  0.024427  0.613211  0.500000  1
  Ag  Ag3  1  0.666667  0.333333  0.000000  1
  Sn  Sn4  1  0.736804  0.738641  0.000000  1
  Sn  Sn5  1  0.261359  0.998163  0.000000  1
  Sn  Sn6  1  0.001837  0.263196  0.000000  1
  Ru  Ru7  1  0.333333  0.666667  0.000000  1
  Ru  Ru8  1  0.000000  0.000000  0.500000  1
