# generated using pymatgen
data_YbTh3(Al3Ir)6
_symmetry_space_group_name_H-M   'P 1'
_cell_length_a   7.63929724
_cell_length_b   7.65341316
_cell_length_c   9.51436800
_cell_angle_alpha   90.00000000
_cell_angle_beta   90.00000000
_cell_angle_gamma   119.47193423
_symmetry_Int_Tables_number   1
_chemical_formula_structural   YbTh3(Al3Ir)6
_chemical_formula_sum   'Yb1 Th3 Al18 Ir6'
_cell_volume   484.29008665
_cell_formula_units_Z   1
loop_
 _symmetry_equiv_pos_site_id
 _symmetry_equiv_pos_as_xyz
  1  'x, y, z'
loop_
 _atom_site_type_symbol
 _atom_site_label
 _atom_site_symmetry_multiplicity
 _atom_site_fract_x
 _atom_site_fract_y
 _atom_site_fract_z
 _atom_site_occupancy
  Yb  Yb0  1  0.327936  0.005679  0.750000  1
  Th  Th1  1  0.996084  0.672088  0.250000  1
  Th  Th2  1  0.003873  0.328699  0.750000  1
  Th  Th3  1  0.669645  0.994163  0.250000  1
  Al  Al4  1  0.135234  0.132312  0.250000  1
  Al  Al5  1  0.869737  0.869985  0.750000  1
  Al  Al6  1  0.006142  0.335632  0.075248  1
  Al  Al7  1  0.000704  0.670022  0.920695  1
  Al  Al8  1  0.000704  0.670022  0.579305  1
  Al  Al9  1  0.335303  0.004917  0.432379  1
  Al  Al10  1  0.006142  0.335632  0.424752  1
  Al  Al11  1  0.658542  0.995412  0.579203  1
  Al  Al12  1  0.658542  0.995412  0.920797  1
  Al  Al13  1  0.335303  0.004917  0.067621  1
  Al  Al14  1  0.336171  0.332526  0.553211  1
  Al  Al15  1  0.663680  0.663416  0.455091  1
  Al  Al16  1  0.663680  0.663416  0.044909  1
  Al  Al17  1  0.336171  0.332526  0.946789  1
  Al  Al18  1  0.341695  0.543654  0.250000  1
  Al  Al19  1  0.658159  0.450561  0.750000  1
  Al  Al20  1  0.544014  0.338230  0.250000  1
  Al  Al21  1  0.452075  0.659024  0.750000  1
  Ir  Ir22  1  0.675368  0.329587  0.001168  1
  Ir  Ir23  1  0.327423  0.671172  0.001673  1
  Ir  Ir24  1  0.327423  0.671172  0.498327  1
  Ir  Ir25  1  0.675368  0.329587  0.498832  1
  Ir  Ir26  1  0.997440  0.000117  0.001350  1
  Ir  Ir27  1  0.997440  0.000117  0.498650  1
