# generated using pymatgen
data_Tm2Sc3GaSb2
_symmetry_space_group_name_H-M   'P 1'
_cell_length_a   8.52603200
_cell_length_b   8.47715702
_cell_length_c   6.08221300
_cell_angle_alpha   90.00000000
_cell_angle_beta   90.00000000
_cell_angle_gamma   120.19090493
_symmetry_Int_Tables_number   1
_chemical_formula_structural   Tm2Sc3GaSb2
_chemical_formula_sum   'Tm4 Sc6 Ga2 Sb4'
_cell_volume   379.97128576
_cell_formula_units_Z   2
loop_
 _symmetry_equiv_pos_site_id
 _symmetry_equiv_pos_as_xyz
  1  'x, y, z'
loop_
 _atom_site_type_symbol
 _atom_site_label
 _atom_site_symmetry_multiplicity
 _atom_site_fract_x
 _atom_site_fract_y
 _atom_site_fract_z
 _atom_site_occupancy
  Tm  Tm0  1  0.985796  0.230889  0.250000  1
  Tm  Tm1  1  0.754908  0.769111  0.250000  1
  Tm  Tm2  1  0.245092  0.230889  0.750000  1
  Tm  Tm3  1  0.014204  0.769111  0.750000  1
  Sc  Sc4  1  0.342530  0.685063  0.000000  1
  Sc  Sc5  1  0.657470  0.314937  0.500000  1
  Sc  Sc6  1  0.657470  0.314937  0.000000  1
  Sc  Sc7  1  0.342530  0.685063  0.500000  1
  Sc  Sc8  1  0.249997  0.000000  0.250000  1
  Sc  Sc9  1  0.750003  0.000000  0.750000  1
  Ga  Ga10  1  0.595653  0.000000  0.250000  1
  Ga  Ga11  1  0.404347  0.000000  0.750000  1
  Sb  Sb12  1  0.998809  0.608652  0.250000  1
  Sb  Sb13  1  0.390157  0.391348  0.250000  1
  Sb  Sb14  1  0.609843  0.608652  0.750000  1
  Sb  Sb15  1  0.001191  0.391348  0.750000  1
