# generated using pymatgen
data_Yb2Ho2OsRu7
_symmetry_space_group_name_H-M   'P 1'
_cell_length_a   5.21668908
_cell_length_b   5.30759432
_cell_length_c   8.84707500
_cell_angle_alpha   90.00000000
_cell_angle_beta   90.20404575
_cell_angle_gamma   120.57813688
_symmetry_Int_Tables_number   1
_chemical_formula_structural   Yb2Ho2OsRu7
_chemical_formula_sum   'Yb2 Ho2 Os1 Ru7'
_cell_volume   210.89177365
_cell_formula_units_Z   1
loop_
 _symmetry_equiv_pos_site_id
 _symmetry_equiv_pos_as_xyz
  1  'x, y, z'
loop_
 _atom_site_type_symbol
 _atom_site_label
 _atom_site_symmetry_multiplicity
 _atom_site_fract_x
 _atom_site_fract_y
 _atom_site_fract_z
 _atom_site_occupancy
  Yb  Yb0  1  0.658362  0.329181  0.940106  1
  Yb  Yb1  1  0.325342  0.662671  0.060683  1
  Ho  Ho2  1  0.332061  0.666031  0.428466  1
  Ho  Ho3  1  0.665522  0.332762  0.571868  1
  Os  Os4  1  0.672686  0.836343  0.751324  1
  Ru  Ru5  1  0.986269  0.993134  0.499431  1
  Ru  Ru6  1  0.978566  0.989283  0.999248  1
  Ru  Ru7  1  0.831524  0.167600  0.250013  1
  Ru  Ru8  1  0.831524  0.663924  0.250013  1
  Ru  Ru9  1  0.355934  0.177966  0.253242  1
  Ru  Ru10  1  0.181104  0.830195  0.747804  1
  Ru  Ru11  1  0.181104  0.350912  0.747804  1
