# generated using pymatgen
data_Tm2Lu2VB12Rh
_symmetry_space_group_name_H-M   'P 1'
_cell_length_a   3.55603800
_cell_length_b   9.09455093
_cell_length_c   11.48529313
_cell_angle_alpha   90.30124518
_cell_angle_beta   90.00000000
_cell_angle_gamma   90.00000000
_symmetry_Int_Tables_number   1
_chemical_formula_structural   Tm2Lu2VB12Rh
_chemical_formula_sum   'Tm4 Lu4 V2 B24 Rh2'
_cell_volume   371.43577752
_cell_formula_units_Z   2
loop_
 _symmetry_equiv_pos_site_id
 _symmetry_equiv_pos_as_xyz
  1  'x, y, z'
loop_
 _atom_site_type_symbol
 _atom_site_label
 _atom_site_symmetry_multiplicity
 _atom_site_fract_x
 _atom_site_fract_y
 _atom_site_fract_z
 _atom_site_occupancy
  Tm  Tm0  1  0.500000  0.317723  0.411638  1
  Tm  Tm1  1  0.500000  0.682277  0.588362  1
  Tm  Tm2  1  0.500000  0.174306  0.916928  1
  Tm  Tm3  1  0.500000  0.825694  0.083072  1
  Lu  Lu4  1  0.500000  0.441862  0.127172  1
  Lu  Lu5  1  0.500000  0.558138  0.872828  1
  Lu  Lu6  1  0.500000  0.054165  0.628719  1
  Lu  Lu7  1  0.500000  0.945835  0.371281  1
  V  V8  1  0.500000  0.139910  0.181763  1
  V  V9  1  0.500000  0.860090  0.818237  1
  B  B10  1  0.000000  0.104914  0.472165  1
  B  B11  1  0.000000  0.895086  0.527835  1
  B  B12  1  0.000000  0.395458  0.970762  1
  B  B13  1  0.000000  0.604542  0.029238  1
  B  B14  1  0.000000  0.131921  0.316894  1
  B  B15  1  0.000000  0.868079  0.683106  1
  B  B16  1  0.000000  0.368379  0.816386  1
  B  B17  1  0.000000  0.631621  0.183614  1
  B  B18  1  0.000000  0.052194  0.066461  1
  B  B19  1  0.000000  0.947806  0.933539  1
  B  B20  1  0.000000  0.446245  0.565747  1
  B  B21  1  0.000000  0.553755  0.434253  1
  B  B22  1  0.000000  0.481353  0.287757  1
  B  B23  1  0.000000  0.518647  0.712243  1
  B  B24  1  0.000000  0.020205  0.787408  1
  B  B25  1  0.000000  0.979795  0.212592  1
  B  B26  1  0.000000  0.249420  0.079762  1
  B  B27  1  0.000000  0.750580  0.920238  1
  B  B28  1  0.000000  0.249154  0.579223  1
  B  B29  1  0.000000  0.750846  0.420777  1
  B  B30  1  0.000000  0.295236  0.236099  1
  B  B31  1  0.000000  0.704764  0.763901  1
  B  B32  1  0.000000  0.206825  0.735862  1
  B  B33  1  0.000000  0.793175  0.264138  1
  Rh  Rh34  1  0.500000  0.361097  0.678954  1
  Rh  Rh35  1  0.500000  0.638903  0.321046  1
