# generated using pymatgen
data_Tm4Sn2Sb4Rh7
_symmetry_space_group_name_H-M   'P 1'
_cell_length_a   7.57721867
_cell_length_b   7.57721979
_cell_length_c   7.57786210
_cell_angle_alpha   109.50597876
_cell_angle_beta   109.50597330
_cell_angle_gamma   109.39829360
_symmetry_Int_Tables_number   1
_chemical_formula_structural   Tm4Sn2Sb4Rh7
_chemical_formula_sum   'Tm4 Sn2 Sb4 Rh7'
_cell_volume   334.93646950
_cell_formula_units_Z   1
loop_
 _symmetry_equiv_pos_site_id
 _symmetry_equiv_pos_as_xyz
  1  'x, y, z'
loop_
 _atom_site_type_symbol
 _atom_site_label
 _atom_site_symmetry_multiplicity
 _atom_site_fract_x
 _atom_site_fract_y
 _atom_site_fract_z
 _atom_site_occupancy
  Tm  Tm0  1  0.507489  0.999249  0.000000  1
  Tm  Tm1  1  0.000751  0.492511  0.000000  1
  Tm  Tm2  1  0.001210  0.998790  0.500000  1
  Tm  Tm3  1  0.501210  0.498790  0.500000  1
  Sn  Sn4  1  0.310372  0.996963  0.307335  1
  Sn  Sn5  1  0.003037  0.689628  0.692665  1
  Sb  Sb6  1  0.687693  0.682199  0.000000  1
  Sb  Sb7  1  0.676886  0.996926  0.673813  1
  Sb  Sb8  1  0.003074  0.323114  0.326187  1
  Sb  Sb9  1  0.317801  0.312307  0.000000  1
  Rh  Rh10  1  0.253302  0.501657  0.754959  1
  Rh  Rh11  1  0.498433  0.249153  0.747585  1
  Rh  Rh12  1  0.748614  0.251386  0.500000  1
  Rh  Rh13  1  0.498343  0.746698  0.245041  1
  Rh  Rh14  1  0.992326  0.007674  0.000000  1
  Rh  Rh15  1  0.248614  0.751386  0.500000  1
  Rh  Rh16  1  0.750847  0.501567  0.252415  1
