# generated using pymatgen
data_Tb3HoTh4(ReC2)4
_symmetry_space_group_name_H-M   'P 1'
_cell_length_a   5.28705100
_cell_length_b   6.65841907
_cell_length_c   9.88831305
_cell_angle_alpha   89.90979095
_cell_angle_beta   90.00000000
_cell_angle_gamma   90.00000000
_symmetry_Int_Tables_number   1
_chemical_formula_structural   Tb3HoTh4(ReC2)4
_chemical_formula_sum   'Tb3 Ho1 Th4 Re4 C8'
_cell_volume   348.10182020
_cell_formula_units_Z   1
loop_
 _symmetry_equiv_pos_site_id
 _symmetry_equiv_pos_as_xyz
  1  'x, y, z'
loop_
 _atom_site_type_symbol
 _atom_site_label
 _atom_site_symmetry_multiplicity
 _atom_site_fract_x
 _atom_site_fract_y
 _atom_site_fract_z
 _atom_site_occupancy
  Tb  Tb0  1  0.250000  0.822368  0.050575  1
  Tb  Tb1  1  0.750000  0.677948  0.550588  1
  Tb  Tb2  1  0.250000  0.321766  0.449629  1
  Ho  Ho3  1  0.750000  0.175550  0.948290  1
  Th  Th4  1  0.250000  0.471131  0.785401  1
  Th  Th5  1  0.750000  0.029111  0.284689  1
  Th  Th6  1  0.250000  0.971132  0.714890  1
  Th  Th7  1  0.750000  0.528755  0.214581  1
  Re  Re8  1  0.250000  0.273067  0.136093  1
  Re  Re9  1  0.750000  0.227410  0.636970  1
  Re  Re10  1  0.250000  0.772794  0.363291  1
  Re  Re11  1  0.750000  0.727057  0.863679  1
  C  C12  1  0.250000  0.172270  0.947918  1
  C  C13  1  0.750000  0.829492  0.051569  1
  C  C14  1  0.250000  0.672547  0.551945  1
  C  C15  1  0.750000  0.327607  0.448172  1
  C  C16  1  0.250000  0.040874  0.261004  1
  C  C17  1  0.750000  0.458572  0.762084  1
  C  C18  1  0.250000  0.540620  0.238988  1
  C  C19  1  0.750000  0.959928  0.739644  1
