# generated using pymatgen
data_YbSmGa2(Co3B)2
_symmetry_space_group_name_H-M   'P 1'
_cell_length_a   5.19306701
_cell_length_b   5.19268060
_cell_length_c   6.66083500
_cell_angle_alpha   90.00000000
_cell_angle_beta   90.00000000
_cell_angle_gamma   119.99605542
_symmetry_Int_Tables_number   1
_chemical_formula_structural   YbSmGa2(Co3B)2
_chemical_formula_sum   'Yb1 Sm1 Ga2 Co6 B2'
_cell_volume   155.55791197
_cell_formula_units_Z   1
loop_
 _symmetry_equiv_pos_site_id
 _symmetry_equiv_pos_as_xyz
  1  'x, y, z'
loop_
 _atom_site_type_symbol
 _atom_site_label
 _atom_site_symmetry_multiplicity
 _atom_site_fract_x
 _atom_site_fract_y
 _atom_site_fract_z
 _atom_site_occupancy
  Yb  Yb0  1  0.999973  0.000001  0.000000  1
  Sm  Sm1  1  0.999992  0.999999  0.500000  1
  Ga  Ga2  1  0.333324  0.666685  0.000000  1
  Ga  Ga3  1  0.666626  0.333314  0.000000  1
  Co  Co4  1  0.499989  0.000000  0.295415  1
  Co  Co5  1  0.499987  0.500005  0.295409  1
  Co  Co6  1  0.999983  0.499997  0.295394  1
  Co  Co7  1  0.499989  0.000000  0.704585  1
  Co  Co8  1  0.499987  0.500005  0.704590  1
  Co  Co9  1  0.999983  0.499997  0.704605  1
  B  B10  1  0.333295  0.666645  0.500000  1
  B  B11  1  0.666671  0.333353  0.500000  1
