# generated using pymatgen
data_Dy3Y3Tm2(CdPt)2
_symmetry_space_group_name_H-M   'P 1'
_cell_length_a   9.67171981
_cell_length_b   9.66579741
_cell_length_c   9.66579682
_cell_angle_alpha   60.04053920
_cell_angle_beta   59.97973082
_cell_angle_gamma   59.97973031
_symmetry_Int_Tables_number   1
_chemical_formula_structural   Dy3Y3Tm2(CdPt)2
_chemical_formula_sum   'Dy6 Y6 Tm4 Cd4 Pt4'
_cell_volume   638.94537914
_cell_formula_units_Z   2
loop_
 _symmetry_equiv_pos_site_id
 _symmetry_equiv_pos_as_xyz
  1  'x, y, z'
loop_
 _atom_site_type_symbol
 _atom_site_label
 _atom_site_symmetry_multiplicity
 _atom_site_fract_x
 _atom_site_fract_y
 _atom_site_fract_z
 _atom_site_occupancy
  Dy  Dy0  1  0.352077  0.352517  0.352517  1
  Dy  Dy1  1  0.352517  0.352077  0.942888  1
  Dy  Dy2  1  0.352517  0.942888  0.352077  1
  Dy  Dy3  1  0.942888  0.352517  0.352517  1
  Dy  Dy4  1  0.811547  0.188453  0.188453  1
  Dy  Dy5  1  0.188453  0.811547  0.811547  1
  Y  Y6  1  0.936897  0.563103  0.563103  1
  Y  Y7  1  0.563103  0.936897  0.936897  1
  Y  Y8  1  0.563140  0.936860  0.563140  1
  Y  Y9  1  0.936860  0.563140  0.936860  1
  Y  Y10  1  0.563140  0.563140  0.936860  1
  Y  Y11  1  0.936860  0.936860  0.563140  1
  Tm  Tm12  1  0.188716  0.811284  0.188716  1
  Tm  Tm13  1  0.811284  0.188716  0.811284  1
  Tm  Tm14  1  0.188716  0.188716  0.811284  1
  Tm  Tm15  1  0.811284  0.811284  0.188716  1
  Cd  Cd16  1  0.581695  0.581464  0.581464  1
  Cd  Cd17  1  0.581464  0.581695  0.255377  1
  Cd  Cd18  1  0.581464  0.255377  0.581695  1
  Cd  Cd19  1  0.255377  0.581464  0.581464  1
  Pt  Pt20  1  0.143514  0.142816  0.142816  1
  Pt  Pt21  1  0.142816  0.143514  0.570855  1
  Pt  Pt22  1  0.142816  0.570855  0.143514  1
  Pt  Pt23  1  0.570855  0.142816  0.142816  1
