# generated using pymatgen
data_Ac3Hg5
_symmetry_space_group_name_H-M   'P 1'
_cell_length_a   6.81754482
_cell_length_b   6.81754482
_cell_length_c   11.13801200
_cell_angle_alpha   90.00000000
_cell_angle_beta   90.00000000
_cell_angle_gamma   106.20467233
_symmetry_Int_Tables_number   1
_chemical_formula_structural   Ac3Hg5
_chemical_formula_sum   'Ac6 Hg10'
_cell_volume   497.11568650
_cell_formula_units_Z   2
loop_
 _symmetry_equiv_pos_site_id
 _symmetry_equiv_pos_as_xyz
  1  'x, y, z'
loop_
 _atom_site_type_symbol
 _atom_site_label
 _atom_site_symmetry_multiplicity
 _atom_site_fract_x
 _atom_site_fract_y
 _atom_site_fract_z
 _atom_site_occupancy
  Ac  Ac0  1  0.599890  0.599890  0.250000  1
  Ac  Ac1  1  0.200387  0.798341  0.500472  1
  Ac  Ac2  1  0.200387  0.798341  0.999528  1
  Ac  Ac3  1  0.798341  0.200387  0.500472  1
  Ac  Ac4  1  0.798341  0.200387  0.999528  1
  Ac  Ac5  1  0.399626  0.399626  0.750000  1
  Hg  Hg6  1  0.015496  0.015496  0.250000  1
  Hg  Hg7  1  0.988727  0.988727  0.750000  1
  Hg  Hg8  1  0.307537  0.307537  0.036921  1
  Hg  Hg9  1  0.691829  0.691829  0.959833  1
  Hg  Hg10  1  0.307537  0.307537  0.463079  1
  Hg  Hg11  1  0.691829  0.691829  0.540167  1
  Hg  Hg12  1  0.483979  0.059897  0.250000  1
  Hg  Hg13  1  0.940781  0.515417  0.750000  1
  Hg  Hg14  1  0.515417  0.940781  0.750000  1
  Hg  Hg15  1  0.059897  0.483979  0.250000  1
