# generated using pymatgen
data_Sm2Ti4O11
_symmetry_space_group_name_H-M   'P 1'
_cell_length_a   5.09818155
_cell_length_b   7.20759975
_cell_length_c   12.59042000
_cell_angle_alpha   97.24713394
_cell_angle_beta   101.68101267
_cell_angle_gamma   110.71177431
_symmetry_Int_Tables_number   1
_chemical_formula_structural   Sm2Ti4O11
_chemical_formula_sum   'Sm4 Ti8 O22'
_cell_volume   413.78747880
_cell_formula_units_Z   2
loop_
 _symmetry_equiv_pos_site_id
 _symmetry_equiv_pos_as_xyz
  1  'x, y, z'
loop_
 _atom_site_type_symbol
 _atom_site_label
 _atom_site_symmetry_multiplicity
 _atom_site_fract_x
 _atom_site_fract_y
 _atom_site_fract_z
 _atom_site_occupancy
  Sm  Sm0  1  0.889339  0.697215  0.093328  1
  Sm  Sm1  1  0.598795  0.802786  0.406672  1
  Sm  Sm2  1  0.401206  0.197215  0.593329  1
  Sm  Sm3  1  0.110662  0.302786  0.906671  1
  Ti  Ti4  1  0.573434  0.157405  0.097547  1
  Ti  Ti5  1  0.242256  0.414525  0.190696  1
  Ti  Ti6  1  0.137036  0.085477  0.309305  1
  Ti  Ti7  1  0.818481  0.342595  0.402452  1
  Ti  Ti8  1  0.181518  0.657404  0.597547  1
  Ti  Ti9  1  0.862964  0.914524  0.690695  1
  Ti  Ti10  1  0.757745  0.585476  0.809305  1
  Ti  Ti11  1  0.426566  0.842596  0.902453  1
  O  O12  1  0.640481  0.919043  0.056478  1
  O  O13  1  0.921424  0.340605  0.059591  1
  O  O14  1  0.486364  0.417368  0.096946  1
  O  O15  1  0.260515  0.074013  0.167185  1
  O  O16  1  0.272559  0.667557  0.224025  1
  O  O17  1  0.901994  0.250000  0.250000  1
  O  O18  1  0.880976  0.832444  0.275974  1
  O  O19  1  0.519317  0.425987  0.332815  1
  O  O20  1  0.472049  0.082632  0.403054  1
  O  O21  1  0.021230  0.159397  0.440409  1
  O  O22  1  0.164960  0.580957  0.443521  1
  O  O23  1  0.835039  0.419043  0.556479  1
  O  O24  1  0.978771  0.840604  0.559590  1
  O  O25  1  0.527950  0.917367  0.596946  1
  O  O26  1  0.480683  0.574012  0.667185  1
  O  O27  1  0.119024  0.167557  0.724026  1
  O  O28  1  0.098005  0.749999  0.750000  1
  O  O29  1  0.727442  0.332444  0.775974  1
  O  O30  1  0.739486  0.925988  0.832815  1
  O  O31  1  0.513636  0.582633  0.903054  1
  O  O32  1  0.078577  0.659396  0.940410  1
  O  O33  1  0.359519  0.080957  0.943521  1
