# generated using pymatgen
data_Ce8Ga3Si12Tc
_symmetry_space_group_name_H-M   'P 1'
_cell_length_a   8.15869900
_cell_length_b   8.15869997
_cell_length_c   8.29934800
_cell_angle_alpha   90.00000000
_cell_angle_beta   90.00000000
_cell_angle_gamma   119.99999203
_symmetry_Int_Tables_number   1
_chemical_formula_structural   Ce8Ga3Si12Tc
_chemical_formula_sum   'Ce8 Ga3 Si12 Tc1'
_cell_volume   478.42791897
_cell_formula_units_Z   1
loop_
 _symmetry_equiv_pos_site_id
 _symmetry_equiv_pos_as_xyz
  1  'x, y, z'
loop_
 _atom_site_type_symbol
 _atom_site_label
 _atom_site_symmetry_multiplicity
 _atom_site_fract_x
 _atom_site_fract_y
 _atom_site_fract_z
 _atom_site_occupancy
  Ce  Ce0  1  0.000000  0.000000  0.251229  1
  Ce  Ce1  1  0.000000  0.000000  0.748648  1
  Ce  Ce2  1  0.495861  0.504139  0.244542  1
  Ce  Ce3  1  0.495861  0.991722  0.244542  1
  Ce  Ce4  1  0.008278  0.504139  0.244542  1
  Ce  Ce5  1  0.495243  0.504757  0.755507  1
  Ce  Ce6  1  0.495243  0.990486  0.755507  1
  Ce  Ce7  1  0.009514  0.504757  0.755507  1
  Ga  Ga8  1  0.333333  0.666667  0.499103  1
  Ga  Ga9  1  0.666667  0.333333  0.502202  1
  Ga  Ga10  1  0.666667  0.333333  0.998716  1
  Si  Si11  1  0.164583  0.835417  0.499877  1
  Si  Si12  1  0.164583  0.329168  0.499877  1
  Si  Si13  1  0.670832  0.835417  0.499877  1
  Si  Si14  1  0.834736  0.165264  0.499957  1
  Si  Si15  1  0.834736  0.669470  0.499957  1
  Si  Si16  1  0.330530  0.165264  0.499957  1
  Si  Si17  1  0.836561  0.163439  0.999760  1
  Si  Si18  1  0.836561  0.673121  0.999760  1
  Si  Si19  1  0.326879  0.163439  0.999760  1
  Si  Si20  1  0.165224  0.834776  0.000346  1
  Si  Si21  1  0.165224  0.330449  0.000346  1
  Si  Si22  1  0.669551  0.834776  0.000346  1
  Tc  Tc23  1  0.333333  0.666667  0.000140  1
