# generated using pymatgen
data_IrI9
_symmetry_space_group_name_H-M   'P 1'
_cell_length_a   9.96243778
_cell_length_b   9.99804840
_cell_length_c   9.94656255
_cell_angle_alpha   92.96258269
_cell_angle_beta   93.05195985
_cell_angle_gamma   92.88419693
_symmetry_Int_Tables_number   1
_chemical_formula_structural   IrI9
_chemical_formula_sum   'Ir2 I18'
_cell_volume   986.59934809
_cell_formula_units_Z   2
loop_
 _symmetry_equiv_pos_site_id
 _symmetry_equiv_pos_as_xyz
  1  'x, y, z'
loop_
 _atom_site_type_symbol
 _atom_site_label
 _atom_site_symmetry_multiplicity
 _atom_site_fract_x
 _atom_site_fract_y
 _atom_site_fract_z
 _atom_site_occupancy
  Ir  Ir0  1  0.500000  0.500000  0.500000  1
  Ir  Ir1  1  0.000000  0.000000  0.000000  1
  I  I2  1  0.769726  0.492002  0.518144  1
  I  I3  1  0.517498  0.768577  0.491348  1
  I  I4  1  0.492290  0.518335  0.770115  1
  I  I5  1  0.230274  0.507998  0.481856  1
  I  I6  1  0.482502  0.231423  0.508652  1
  I  I7  1  0.507710  0.481665  0.229885  1
  I  I8  1  0.883484  0.368788  0.760397  1
  I  I9  1  0.759366  0.882015  0.368618  1
  I  I10  1  0.369109  0.759725  0.883453  1
  I  I11  1  0.116516  0.631212  0.239603  1
  I  I12  1  0.240634  0.117985  0.631382  1
  I  I13  1  0.630891  0.240275  0.116547  1
  I  I14  1  0.006276  0.967836  0.730271  1
  I  I15  1  0.730719  0.006351  0.966404  1
  I  I16  1  0.966551  0.731677  0.004896  1
  I  I17  1  0.993724  0.032164  0.269729  1
  I  I18  1  0.269281  0.993649  0.033596  1
  I  I19  1  0.033449  0.268323  0.995104  1
