# generated using pymatgen
data_Er5Zr5(Pb3S)2
_symmetry_space_group_name_H-M   'P 1'
_cell_length_a   8.99691500
_cell_length_b   8.96119860
_cell_length_c   6.29321600
_cell_angle_alpha   90.00000000
_cell_angle_beta   90.00000000
_cell_angle_gamma   119.86876512
_symmetry_Int_Tables_number   1
_chemical_formula_structural   Er5Zr5(Pb3S)2
_chemical_formula_sum   'Er5 Zr5 Pb6 S2'
_cell_volume   439.98288941
_cell_formula_units_Z   1
loop_
 _symmetry_equiv_pos_site_id
 _symmetry_equiv_pos_as_xyz
  1  'x, y, z'
loop_
 _atom_site_type_symbol
 _atom_site_label
 _atom_site_symmetry_multiplicity
 _atom_site_fract_x
 _atom_site_fract_y
 _atom_site_fract_z
 _atom_site_occupancy
  Er  Er0  1  0.751847  0.750325  0.250000  1
  Er  Er1  1  0.248153  0.998478  0.250000  1
  Er  Er2  1  0.000000  0.244434  0.250000  1
  Er  Er3  1  0.248301  0.248926  0.750000  1
  Er  Er4  1  0.751699  0.000625  0.750000  1
  Zr  Zr5  1  0.667727  0.336100  0.500153  1
  Zr  Zr6  1  0.332273  0.668374  0.500153  1
  Zr  Zr7  1  0.332273  0.668374  0.999847  1
  Zr  Zr8  1  0.667727  0.336100  0.999847  1
  Zr  Zr9  1  0.000000  0.753138  0.750000  1
  Pb  Pb10  1  0.398633  0.400105  0.250000  1
  Pb  Pb11  1  0.601367  0.001472  0.250000  1
  Pb  Pb12  1  0.000000  0.598203  0.250000  1
  Pb  Pb13  1  0.604598  0.603065  0.750000  1
  Pb  Pb14  1  0.395402  0.998466  0.750000  1
  Pb  Pb15  1  0.000000  0.404632  0.750000  1
  S  S16  1  0.000000  0.994591  0.503182  1
  S  S17  1  0.000000  0.994591  0.996818  1
