# generated using pymatgen
data_Yb8Ge(SbPd11)2
_symmetry_space_group_name_H-M   'P 1'
_cell_length_a   7.99780100
_cell_length_b   8.55522100
_cell_length_c   8.52394700
_cell_angle_alpha   90.00000000
_cell_angle_beta   90.00000000
_cell_angle_gamma   90.00000000
_symmetry_Int_Tables_number   1
_chemical_formula_structural   Yb8Ge(SbPd11)2
_chemical_formula_sum   'Yb8 Ge1 Sb2 Pd22'
_cell_volume   583.23364259
_cell_formula_units_Z   1
loop_
 _symmetry_equiv_pos_site_id
 _symmetry_equiv_pos_as_xyz
  1  'x, y, z'
loop_
 _atom_site_type_symbol
 _atom_site_label
 _atom_site_symmetry_multiplicity
 _atom_site_fract_x
 _atom_site_fract_y
 _atom_site_fract_z
 _atom_site_occupancy
  Yb  Yb0  1  0.251034  0.223591  0.253270  1
  Yb  Yb1  1  0.746816  0.744675  0.745873  1
  Yb  Yb2  1  0.746816  0.744675  0.254127  1
  Yb  Yb3  1  0.746816  0.255325  0.745873  1
  Yb  Yb4  1  0.251034  0.223591  0.746730  1
  Yb  Yb5  1  0.251034  0.776409  0.253270  1
  Yb  Yb6  1  0.251034  0.776409  0.746730  1
  Yb  Yb7  1  0.746816  0.255325  0.254127  1
  Ge  Ge8  1  0.998919  0.000000  0.000000  1
  Sb  Sb9  1  0.268576  0.500000  0.000000  1
  Sb  Sb10  1  0.256311  0.500000  0.500000  1
  Pd  Pd11  1  0.742309  0.500000  0.000000  1
  Pd  Pd12  1  0.004345  0.255651  0.500000  1
  Pd  Pd13  1  0.496384  0.261410  0.000000  1
  Pd  Pd14  1  0.004345  0.744349  0.500000  1
  Pd  Pd15  1  0.496384  0.738590  0.000000  1
  Pd  Pd16  1  0.506044  0.000000  0.262396  1
  Pd  Pd17  1  0.257223  0.000000  0.500000  1
  Pd  Pd18  1  0.506044  0.000000  0.737604  1
  Pd  Pd19  1  0.738098  0.000000  0.500000  1
  Pd  Pd20  1  0.014193  0.500000  0.259118  1
  Pd  Pd21  1  0.014193  0.500000  0.740882  1
  Pd  Pd22  1  0.748463  0.500000  0.500000  1
  Pd  Pd23  1  0.495286  0.251992  0.500000  1
  Pd  Pd24  1  0.495286  0.748008  0.500000  1
  Pd  Pd25  1  0.485898  0.500000  0.254545  1
  Pd  Pd26  1  0.485898  0.500000  0.745455  1
  Pd  Pd27  1  0.299037  0.000000  0.000000  1
  Pd  Pd28  1  0.701712  0.000000  0.000000  1
  Pd  Pd29  1  0.006659  0.286021  0.000000  1
  Pd  Pd30  1  0.006659  0.713979  0.000000  1
  Pd  Pd31  1  0.990166  0.000000  0.285294  1
  Pd  Pd32  1  0.990166  0.000000  0.714706  1
