# generated using pymatgen
data_Tc6H2Se3S5
_symmetry_space_group_name_H-M   'P 1'
_cell_length_a   10.50604900
_cell_length_b   6.45913147
_cell_length_c   10.16721294
_cell_angle_alpha   70.30419149
_cell_angle_beta   90.00000000
_cell_angle_gamma   90.00000000
_symmetry_Int_Tables_number   1
_chemical_formula_structural   Tc6H2Se3S5
_chemical_formula_sum   'Tc12 H4 Se6 S10'
_cell_volume   649.58139514
_cell_formula_units_Z   2
loop_
 _symmetry_equiv_pos_site_id
 _symmetry_equiv_pos_as_xyz
  1  'x, y, z'
loop_
 _atom_site_type_symbol
 _atom_site_label
 _atom_site_symmetry_multiplicity
 _atom_site_fract_x
 _atom_site_fract_y
 _atom_site_fract_z
 _atom_site_occupancy
  Tc  Tc0  1  0.619967  0.997888  0.366533  1
  Tc  Tc1  1  0.880033  0.997888  0.866533  1
  Tc  Tc2  1  0.379017  0.004140  0.631555  1
  Tc  Tc3  1  0.120983  0.004140  0.131555  1
  Tc  Tc4  1  0.370206  0.990140  0.378454  1
  Tc  Tc5  1  0.129794  0.990140  0.878454  1
  Tc  Tc6  1  0.630199  0.012039  0.619639  1
  Tc  Tc7  1  0.869801  0.012039  0.119639  1
  Tc  Tc8  1  0.502281  0.695448  0.570006  1
  Tc  Tc9  1  0.997719  0.695448  0.070006  1
  Tc  Tc10  1  0.497279  0.304933  0.427809  1
  Tc  Tc11  1  0.002721  0.304933  0.927809  1
  H  H12  1  0.234884  0.988065  0.268068  1
  H  H13  1  0.265116  0.988065  0.768068  1
  H  H14  1  0.765131  0.013931  0.729891  1
  H  H15  1  0.734869  0.013931  0.229891  1
  Se  Se16  1  0.511411  0.724802  0.811316  1
  Se  Se17  1  0.988589  0.724802  0.311316  1
  Se  Se18  1  0.742551  0.716373  0.556773  1
  Se  Se19  1  0.757449  0.716373  0.056773  1
  Se  Se20  1  0.256902  0.285058  0.441662  1
  Se  Se21  1  0.243098  0.285058  0.941662  1
  S  S22  1  0.493397  0.718773  0.321150  1
  S  S23  1  0.006603  0.718773  0.821150  1
  S  S24  1  0.506272  0.282665  0.676428  1
  S  S25  1  0.993728  0.282665  0.176428  1
  S  S26  1  0.275086  0.718945  0.574622  1
  S  S27  1  0.224914  0.718945  0.074622  1
  S  S28  1  0.724601  0.282660  0.423367  1
  S  S29  1  0.775399  0.282660  0.923367  1
  S  S30  1  0.488758  0.264139  0.202729  1
  S  S31  1  0.011242  0.264139  0.702729  1
