# generated using pymatgen
data_Y3Pa(Co5P3)4
_symmetry_space_group_name_H-M   'P 1'
_cell_length_a   3.67008700
_cell_length_b   10.30856911
_cell_length_c   11.72762512
_cell_angle_alpha   89.98335546
_cell_angle_beta   90.00000000
_cell_angle_gamma   90.00000000
_symmetry_Int_Tables_number   1
_chemical_formula_structural   Y3Pa(Co5P3)4
_chemical_formula_sum   'Y3 Pa1 Co20 P12'
_cell_volume   443.69527418
_cell_formula_units_Z   1
loop_
 _symmetry_equiv_pos_site_id
 _symmetry_equiv_pos_as_xyz
  1  'x, y, z'
loop_
 _atom_site_type_symbol
 _atom_site_label
 _atom_site_symmetry_multiplicity
 _atom_site_fract_x
 _atom_site_fract_y
 _atom_site_fract_z
 _atom_site_occupancy
  Y  Y0  1  0.750000  0.083071  0.798381  1
  Y  Y1  1  0.750000  0.417061  0.297280  1
  Y  Y2  1  0.250000  0.583310  0.702122  1
  Pa  Pa3  1  0.250000  0.917541  0.202656  1
  Co  Co4  1  0.250000  0.783649  0.489829  1
  Co  Co5  1  0.750000  0.216685  0.506450  1
  Co  Co6  1  0.750000  0.284195  0.006958  1
  Co  Co7  1  0.250000  0.717812  0.991254  1
  Co  Co8  1  0.250000  0.091871  0.989110  1
  Co  Co9  1  0.750000  0.906827  0.017210  1
  Co  Co10  1  0.750000  0.594015  0.511021  1
  Co  Co11  1  0.250000  0.407000  0.488574  1
  Co  Co12  1  0.250000  0.278120  0.676429  1
  Co  Co13  1  0.750000  0.723585  0.322052  1
  Co  Co14  1  0.750000  0.778998  0.824366  1
  Co  Co15  1  0.250000  0.221793  0.177302  1
  Co  Co16  1  0.250000  0.618024  0.198327  1
  Co  Co17  1  0.750000  0.383152  0.800894  1
  Co  Co18  1  0.750000  0.112782  0.300065  1
  Co  Co19  1  0.250000  0.882528  0.698435  1
  Co  Co20  1  0.250000  0.032214  0.431034  1
  Co  Co21  1  0.750000  0.968781  0.569343  1
  Co  Co22  1  0.750000  0.530010  0.067863  1
  Co  Co23  1  0.250000  0.468053  0.931582  1
  P  P24  1  0.250000  0.081484  0.612906  1
  P  P25  1  0.750000  0.917142  0.391421  1
  P  P26  1  0.750000  0.581249  0.887650  1
  P  P27  1  0.250000  0.418308  0.112167  1
  P  P28  1  0.250000  0.229889  0.370920  1
  P  P29  1  0.750000  0.771339  0.629869  1
  P  P30  1  0.750000  0.724275  0.129035  1
  P  P31  1  0.250000  0.271539  0.869420  1
  P  P32  1  0.250000  0.897671  0.890362  1
  P  P33  1  0.750000  0.106849  0.107822  1
  P  P34  1  0.750000  0.397987  0.608287  1
  P  P35  1  0.250000  0.601192  0.391602  1
