# generated using pymatgen
data_Dy8Lu4ZnInCo4
_symmetry_space_group_name_H-M   'P 1'
_cell_length_a   8.25693136
_cell_length_b   8.25692978
_cell_length_c   8.25693177
_cell_angle_alpha   111.47697105
_cell_angle_beta   110.16226083
_cell_angle_gamma   106.80963626
_symmetry_Int_Tables_number   1
_chemical_formula_structural   Dy8Lu4ZnInCo4
_chemical_formula_sum   'Dy8 Lu4 Zn1 In1 Co4'
_cell_volume   432.58816943
_cell_formula_units_Z   1
loop_
 _symmetry_equiv_pos_site_id
 _symmetry_equiv_pos_as_xyz
  1  'x, y, z'
loop_
 _atom_site_type_symbol
 _atom_site_label
 _atom_site_symmetry_multiplicity
 _atom_site_fract_x
 _atom_site_fract_y
 _atom_site_fract_z
 _atom_site_occupancy
  Dy  Dy0  1  0.430404  0.226563  0.203841  1
  Dy  Dy1  1  0.569596  0.773437  0.796159  1
  Dy  Dy2  1  0.022722  0.226563  0.796159  1
  Dy  Dy3  1  0.977278  0.773437  0.203841  1
  Dy  Dy4  1  0.185186  0.285285  0.470471  1
  Dy  Dy5  1  0.814814  0.714715  0.529529  1
  Dy  Dy6  1  0.185186  0.714715  0.899902  1
  Dy  Dy7  1  0.814814  0.285285  0.100098  1
  Lu  Lu8  1  0.317291  0.623605  0.306312  1
  Lu  Lu9  1  0.682709  0.376395  0.693688  1
  Lu  Lu10  1  0.317291  0.010979  0.693688  1
  Lu  Lu11  1  0.682709  0.989021  0.306312  1
  Zn  Zn12  1  0.000000  0.000000  0.000000  1
  In  In13  1  0.500000  0.500000  0.000000  1
  Co  Co14  1  0.375192  0.000000  0.375192  1
  Co  Co15  1  0.624808  0.000000  0.624808  1
  Co  Co16  1  0.113892  0.613892  0.500000  1
  Co  Co17  1  0.886108  0.386108  0.500000  1
