# generated using pymatgen
data_NpFe(NiS2)4
_symmetry_space_group_name_H-M   'P 1'
_cell_length_a   6.81017256
_cell_length_b   6.89649629
_cell_length_c   6.80585104
_cell_angle_alpha   120.17410566
_cell_angle_beta   119.32848701
_cell_angle_gamma   90.04903348
_symmetry_Int_Tables_number   1
_chemical_formula_structural   NpFe(NiS2)4
_chemical_formula_sum   'Np1 Fe1 Ni4 S8'
_cell_volume   227.60534555
_cell_formula_units_Z   1
loop_
 _symmetry_equiv_pos_site_id
 _symmetry_equiv_pos_as_xyz
  1  'x, y, z'
loop_
 _atom_site_type_symbol
 _atom_site_label
 _atom_site_symmetry_multiplicity
 _atom_site_fract_x
 _atom_site_fract_y
 _atom_site_fract_z
 _atom_site_occupancy
  Np  Np0  1  0.500000  0.000000  0.000000  1
  Fe  Fe1  1  0.500000  0.500000  0.500000  1
  Ni  Ni2  1  0.126915  0.368158  0.741475  1
  Ni  Ni3  1  0.000000  0.000000  0.000000  1
  Ni  Ni4  1  0.500000  0.000000  0.500000  1
  Ni  Ni5  1  0.873085  0.631842  0.258525  1
  S  S6  1  0.236280  0.755772  0.019498  1
  S  S7  1  0.264164  0.249110  0.484606  1
  S  S8  1  0.240657  0.266652  0.028283  1
  S  S9  1  0.738533  0.266613  0.525935  1
  S  S10  1  0.261467  0.733387  0.474065  1
  S  S11  1  0.759343  0.733348  0.971717  1
  S  S12  1  0.735836  0.750890  0.515394  1
  S  S13  1  0.763720  0.244228  0.980502  1
