# generated using pymatgen
data_DyLu3Sc6(Si5Ir2)4
_symmetry_space_group_name_H-M   'P 1'
_cell_length_a   12.45608014
_cell_length_b   12.45607921
_cell_length_c   4.13569900
_cell_angle_alpha   90.00000000
_cell_angle_beta   90.00000000
_cell_angle_gamma   90.09189535
_symmetry_Int_Tables_number   1
_chemical_formula_structural   DyLu3Sc6(Si5Ir2)4
_chemical_formula_sum   'Dy1 Lu3 Sc6 Si20 Ir8'
_cell_volume   641.66909020
_cell_formula_units_Z   1
loop_
 _symmetry_equiv_pos_site_id
 _symmetry_equiv_pos_as_xyz
  1  'x, y, z'
loop_
 _atom_site_type_symbol
 _atom_site_label
 _atom_site_symmetry_multiplicity
 _atom_site_fract_x
 _atom_site_fract_y
 _atom_site_fract_z
 _atom_site_occupancy
  Dy  Dy0  1  0.116072  0.616072  0.500000  1
  Lu  Lu1  1  0.883916  0.383916  0.500000  1
  Lu  Lu2  1  0.615995  0.884019  0.500000  1
  Lu  Lu3  1  0.384019  0.115995  0.500000  1
  Sc  Sc4  1  0.673846  0.173846  0.500000  1
  Sc  Sc5  1  0.326547  0.826547  0.500000  1
  Sc  Sc6  1  0.173307  0.326031  0.500000  1
  Sc  Sc7  1  0.826031  0.673307  0.500000  1
  Sc  Sc8  1  0.000045  0.000306  0.000000  1
  Sc  Sc9  1  0.500306  0.500045  0.000000  1
  Si  Si10  1  0.566908  0.066908  0.000000  1
  Si  Si11  1  0.433165  0.933165  0.000000  1
  Si  Si12  1  0.067146  0.432750  0.000000  1
  Si  Si13  1  0.932750  0.567146  0.000000  1
  Si  Si14  1  0.199057  0.166232  0.000000  1
  Si  Si15  1  0.800210  0.833822  0.000000  1
  Si  Si16  1  0.166281  0.801247  0.000000  1
  Si  Si17  1  0.699239  0.333482  0.000000  1
  Si  Si18  1  0.833482  0.199239  0.000000  1
  Si  Si19  1  0.301247  0.666281  0.000000  1
  Si  Si20  1  0.666232  0.699057  0.000000  1
  Si  Si21  1  0.333822  0.300210  0.000000  1
  Si  Si22  1  0.006929  0.151192  0.500000  1
  Si  Si23  1  0.992070  0.849653  0.500000  1
  Si  Si24  1  0.151222  0.993005  0.500000  1
  Si  Si25  1  0.507644  0.348661  0.500000  1
  Si  Si26  1  0.848661  0.007644  0.500000  1
  Si  Si27  1  0.493005  0.651222  0.500000  1
  Si  Si28  1  0.651192  0.506929  0.500000  1
  Si  Si29  1  0.349653  0.492070  0.500000  1
  Ir  Ir30  1  0.018938  0.245355  0.000000  1
  Ir  Ir31  1  0.979897  0.755730  0.000000  1
  Ir  Ir32  1  0.245727  0.981146  0.000000  1
  Ir  Ir33  1  0.519055  0.254151  0.000000  1
  Ir  Ir34  1  0.754151  0.019055  0.000000  1
  Ir  Ir35  1  0.481146  0.745727  0.000000  1
  Ir  Ir36  1  0.745355  0.518938  0.000000  1
  Ir  Ir37  1  0.255730  0.479897  0.000000  1
