# generated using pymatgen
data_Dy3Ho(NiB10)2
_symmetry_space_group_name_H-M   'P 1'
_cell_length_a   4.14180700
_cell_length_b   5.54734901
_cell_length_c   11.08908002
_cell_angle_alpha   89.99263392
_cell_angle_beta   90.00000000
_cell_angle_gamma   90.00000000
_symmetry_Int_Tables_number   1
_chemical_formula_structural   Dy3Ho(NiB10)2
_chemical_formula_sum   'Dy3 Ho1 Ni2 B20'
_cell_volume   254.78324350
_cell_formula_units_Z   1
loop_
 _symmetry_equiv_pos_site_id
 _symmetry_equiv_pos_as_xyz
  1  'x, y, z'
loop_
 _atom_site_type_symbol
 _atom_site_label
 _atom_site_symmetry_multiplicity
 _atom_site_fract_x
 _atom_site_fract_y
 _atom_site_fract_z
 _atom_site_occupancy
  Dy  Dy0  1  0.500000  0.814247  0.637515  1
  Dy  Dy1  1  0.500000  0.314169  0.862368  1
  Dy  Dy2  1  0.500000  0.685715  0.137627  1
  Ho  Ho3  1  0.500000  0.185634  0.362435  1
  Ni  Ni4  1  0.000000  0.000242  0.999797  1
  Ni  Ni5  1  0.000000  0.500405  0.500240  1
  B  B6  1  0.000000  0.374444  0.041217  1
  B  B7  1  0.000000  0.625826  0.959132  1
  B  B8  1  0.000000  0.125912  0.540675  1
  B  B9  1  0.000000  0.874561  0.458838  1
  B  B10  1  0.000000  0.340939  0.198664  1
  B  B11  1  0.000000  0.658384  0.801527  1
  B  B12  1  0.000000  0.158323  0.698350  1
  B  B13  1  0.000000  0.840988  0.301477  1
  B  B14  1  0.000000  0.029628  0.186472  1
  B  B15  1  0.000000  0.970343  0.813299  1
  B  B16  1  0.000000  0.470312  0.686611  1
  B  B17  1  0.000000  0.529520  0.313712  1
  B  B18  1  0.301314  0.201736  0.114844  1
  B  B19  1  0.698315  0.798303  0.885424  1
  B  B20  1  0.301685  0.798303  0.885424  1
  B  B21  1  0.698270  0.298192  0.614414  1
  B  B22  1  0.698686  0.201736  0.114844  1
  B  B23  1  0.301387  0.701973  0.385341  1
  B  B24  1  0.698613  0.701973  0.385341  1
  B  B25  1  0.301730  0.298192  0.614414  1
