# generated using pymatgen
data_TbY2(ThSn2)2
_symmetry_space_group_name_H-M   'P 1'
_cell_length_a   8.13239500
_cell_length_b   8.24249300
_cell_length_c   15.61421600
_cell_angle_alpha   90.00000000
_cell_angle_beta   90.00000000
_cell_angle_gamma   90.00000000
_symmetry_Int_Tables_number   1
_chemical_formula_structural   TbY2(ThSn2)2
_chemical_formula_sum   'Tb4 Y8 Th8 Sn16'
_cell_volume   1046.63977389
_cell_formula_units_Z   4
loop_
 _symmetry_equiv_pos_site_id
 _symmetry_equiv_pos_as_xyz
  1  'x, y, z'
loop_
 _atom_site_type_symbol
 _atom_site_label
 _atom_site_symmetry_multiplicity
 _atom_site_fract_x
 _atom_site_fract_y
 _atom_site_fract_z
 _atom_site_occupancy
  Tb  Tb0  1  0.637695  0.164023  0.123337  1
  Tb  Tb1  1  0.137695  0.335977  0.376663  1
  Tb  Tb2  1  0.362305  0.835977  0.623337  1
  Tb  Tb3  1  0.862305  0.664023  0.876663  1
  Y  Y4  1  0.361151  0.836689  0.876548  1
  Y  Y5  1  0.861151  0.663311  0.623452  1
  Y  Y6  1  0.638849  0.163311  0.376548  1
  Y  Y7  1  0.138849  0.336689  0.123452  1
  Y  Y8  1  0.191160  0.497753  0.750185  1
  Y  Y9  1  0.691160  0.002247  0.749815  1
  Y  Y10  1  0.808840  0.502247  0.250185  1
  Y  Y11  1  0.308840  0.997753  0.249815  1
  Th  Th12  1  0.518622  0.321086  0.903942  1
  Th  Th13  1  0.018622  0.178914  0.596058  1
  Th  Th14  1  0.481378  0.678914  0.403942  1
  Th  Th15  1  0.981378  0.821086  0.096058  1
  Th  Th16  1  0.481639  0.678845  0.096027  1
  Th  Th17  1  0.981639  0.821155  0.403973  1
  Th  Th18  1  0.518361  0.321155  0.596027  1
  Th  Th19  1  0.018361  0.178845  0.903973  1
  Sn  Sn20  1  0.297651  0.038503  0.041686  1
  Sn  Sn21  1  0.797651  0.461497  0.458314  1
  Sn  Sn22  1  0.702349  0.961497  0.541686  1
  Sn  Sn23  1  0.202349  0.538503  0.958314  1
  Sn  Sn24  1  0.701032  0.961392  0.957930  1
  Sn  Sn25  1  0.201032  0.538608  0.542070  1
  Sn  Sn26  1  0.298968  0.038608  0.457930  1
  Sn  Sn27  1  0.798968  0.461392  0.042070  1
  Sn  Sn28  1  0.558262  0.620627  0.750185  1
  Sn  Sn29  1  0.058262  0.879373  0.749815  1
  Sn  Sn30  1  0.441738  0.379373  0.250185  1
  Sn  Sn31  1  0.941738  0.120627  0.249815  1
  Sn  Sn32  1  0.325451  0.142611  0.749999  1
  Sn  Sn33  1  0.825451  0.357389  0.750001  1
  Sn  Sn34  1  0.674549  0.857389  0.249999  1
  Sn  Sn35  1  0.174549  0.642611  0.250001  1
