# generated using pymatgen
data_Y8Er2Ir3Ru
_symmetry_space_group_name_H-M   'P 1'
_cell_length_a   6.46985162
_cell_length_b   7.24866679
_cell_length_c   8.50093209
_cell_angle_alpha   96.66870615
_cell_angle_beta   112.07568002
_cell_angle_gamma   90.04331232
_symmetry_Int_Tables_number   1
_chemical_formula_structural   Y8Er2Ir3Ru
_chemical_formula_sum   'Y8 Er2 Ir3 Ru1'
_cell_volume   366.52063475
_cell_formula_units_Z   1
loop_
 _symmetry_equiv_pos_site_id
 _symmetry_equiv_pos_as_xyz
  1  'x, y, z'
loop_
 _atom_site_type_symbol
 _atom_site_label
 _atom_site_symmetry_multiplicity
 _atom_site_fract_x
 _atom_site_fract_y
 _atom_site_fract_z
 _atom_site_occupancy
  Y  Y0  1  0.791234  0.582867  0.815602  1
  Y  Y1  1  0.973236  0.916996  0.183101  1
  Y  Y2  1  0.209397  0.417056  0.181767  1
  Y  Y3  1  0.027289  0.084594  0.816084  1
  Y  Y4  1  0.210649  0.682412  0.562489  1
  Y  Y5  1  0.649923  0.816671  0.438657  1
  Y  Y6  1  0.788750  0.315886  0.439183  1
  Y  Y7  1  0.348399  0.183763  0.561514  1
  Er  Er8  1  0.427180  0.749424  0.999632  1
  Er  Er9  1  0.573290  0.249769  0.000256  1
  Ir  Ir10  1  0.604700  0.926440  0.781611  1
  Ir  Ir11  1  0.822057  0.574342  0.218197  1
  Ir  Ir12  1  0.396547  0.073182  0.218031  1
  Ru  Ru13  1  0.177349  0.426597  0.783874  1
