# generated using pymatgen
data_Ho6Si6Ir3Os
_symmetry_space_group_name_H-M   'P 1'
_cell_length_a   5.73700120
_cell_length_b   5.73700081
_cell_length_c   13.60104268
_cell_angle_alpha   90.07937824
_cell_angle_beta   89.92062256
_cell_angle_gamma   137.25176859
_symmetry_Int_Tables_number   1
_chemical_formula_structural   Ho6Si6Ir3Os
_chemical_formula_sum   'Ho6 Si6 Ir3 Os1'
_cell_volume   303.85709566
_cell_formula_units_Z   1
loop_
 _symmetry_equiv_pos_site_id
 _symmetry_equiv_pos_as_xyz
  1  'x, y, z'
loop_
 _atom_site_type_symbol
 _atom_site_label
 _atom_site_symmetry_multiplicity
 _atom_site_fract_x
 _atom_site_fract_y
 _atom_site_fract_z
 _atom_site_occupancy
  Ho  Ho0  1  0.643647  0.356353  0.249560  1
  Ho  Ho1  1  0.356408  0.643592  0.749722  1
  Ho  Ho2  1  0.924307  0.075693  0.115453  1
  Ho  Ho3  1  0.078022  0.921978  0.885087  1
  Ho  Ho4  1  0.076894  0.923106  0.615991  1
  Ho  Ho5  1  0.922830  0.077170  0.383762  1
  Si  Si6  1  0.333410  0.666590  0.250176  1
  Si  Si7  1  0.669960  0.330040  0.750798  1
  Si  Si8  1  0.613086  0.386914  0.039134  1
  Si  Si9  1  0.385430  0.614570  0.960179  1
  Si  Si10  1  0.389050  0.610950  0.539113  1
  Si  Si11  1  0.609876  0.390124  0.460247  1
  Ir  Ir12  1  0.784731  0.215269  0.579817  1
  Ir  Ir13  1  0.213331  0.786669  0.419942  1
  Ir  Ir14  1  0.213408  0.786592  0.082095  1
  Os  Os15  1  0.785610  0.214390  0.918922  1
