# generated using pymatgen
data_Dy5V2P12Ir17
_symmetry_space_group_name_H-M   'P 1'
_cell_length_a   12.58396100
_cell_length_b   12.72703202
_cell_length_c   3.97829900
_cell_angle_alpha   90.00000000
_cell_angle_beta   90.00000000
_cell_angle_gamma   119.62882289
_symmetry_Int_Tables_number   1
_chemical_formula_structural   Dy5V2P12Ir17
_chemical_formula_sum   'Dy5 V2 P12 Ir17'
_cell_volume   553.84060329
_cell_formula_units_Z   1
loop_
 _symmetry_equiv_pos_site_id
 _symmetry_equiv_pos_as_xyz
  1  'x, y, z'
loop_
 _atom_site_type_symbol
 _atom_site_label
 _atom_site_symmetry_multiplicity
 _atom_site_fract_x
 _atom_site_fract_y
 _atom_site_fract_z
 _atom_site_occupancy
  Dy  Dy0  1  0.330249  0.660798  0.500000  1
  Dy  Dy1  1  0.669452  0.339202  0.500000  1
  Dy  Dy2  1  0.999146  0.810476  0.000000  1
  Dy  Dy3  1  0.188670  0.189524  0.000000  1
  Dy  Dy4  1  0.814584  0.000000  0.000000  1
  V  V5  1  0.996799  0.450391  0.500000  1
  V  V6  1  0.546408  0.549609  0.500000  1
  P  P7  1  0.999762  0.633169  0.500000  1
  P  P8  1  0.366593  0.366831  0.500000  1
  P  P9  1  0.645205  0.000000  0.500000  1
  P  P10  1  0.514865  0.681366  0.000000  1
  P  P11  1  0.307764  0.822164  0.000000  1
  P  P12  1  0.162620  0.480402  0.000000  1
  P  P13  1  0.485600  0.177836  0.000000  1
  P  P14  1  0.682218  0.519598  0.000000  1
  P  P15  1  0.833499  0.318634  0.000000  1
  P  P16  1  0.000843  0.176772  0.500000  1
  P  P17  1  0.824071  0.823228  0.500000  1
  P  P18  1  0.180833  0.000000  0.500000  1
  Ir  Ir19  1  0.505284  0.863626  0.000000  1
  Ir  Ir20  1  0.125481  0.637989  0.000000  1
  Ir  Ir21  1  0.355774  0.491947  0.000000  1
  Ir  Ir22  1  0.487493  0.362011  0.000000  1
  Ir  Ir23  1  0.863828  0.508053  0.000000  1
  Ir  Ir24  1  0.641659  0.136374  0.000000  1
  Ir  Ir25  1  0.463728  0.000000  0.500000  1
  Ir  Ir26  1  0.997536  0.283990  0.000000  1
  Ir  Ir27  1  0.713546  0.716010  0.000000  1
  Ir  Ir28  1  0.291048  0.000000  0.000000  1
  Ir  Ir29  1  0.623107  0.804778  0.500000  1
  Ir  Ir30  1  0.200581  0.821935  0.500000  1
  Ir  Ir31  1  0.177021  0.371620  0.500000  1
  Ir  Ir32  1  0.378646  0.178065  0.500000  1
  Ir  Ir33  1  0.805401  0.628380  0.500000  1
  Ir  Ir34  1  0.818330  0.195222  0.500000  1
  Ir  Ir35  1  0.002357  0.000000  0.500000  1
