# generated using pymatgen
data_Pr10CoSn20Pt7
_symmetry_space_group_name_H-M   'P 1'
_cell_length_a   14.30661565
_cell_length_b   14.25133314
_cell_length_c   4.69022600
_cell_angle_alpha   90.00000000
_cell_angle_beta   90.00000000
_cell_angle_gamma   90.07467164
_symmetry_Int_Tables_number   1
_chemical_formula_structural   Pr10CoSn20Pt7
_chemical_formula_sum   'Pr10 Co1 Sn20 Pt7'
_cell_volume   956.28160820
_cell_formula_units_Z   1
loop_
 _symmetry_equiv_pos_site_id
 _symmetry_equiv_pos_as_xyz
  1  'x, y, z'
loop_
 _atom_site_type_symbol
 _atom_site_label
 _atom_site_symmetry_multiplicity
 _atom_site_fract_x
 _atom_site_fract_y
 _atom_site_fract_z
 _atom_site_occupancy
  Pr  Pr0  1  0.500371  0.499915  0.000000  1
  Pr  Pr1  1  0.999533  0.994437  0.000000  1
  Pr  Pr2  1  0.679936  0.179476  0.500000  1
  Pr  Pr3  1  0.318473  0.819867  0.500000  1
  Pr  Pr4  1  0.179122  0.321185  0.500000  1
  Pr  Pr5  1  0.819475  0.679835  0.500000  1
  Pr  Pr6  1  0.891925  0.393168  0.500000  1
  Pr  Pr7  1  0.109453  0.608171  0.500000  1
  Pr  Pr8  1  0.390952  0.108351  0.500000  1
  Pr  Pr9  1  0.609362  0.891740  0.500000  1
  Co  Co10  1  0.968391  0.762105  0.000000  1
  Sn  Sn11  1  0.568902  0.069352  0.000000  1
  Sn  Sn12  1  0.430086  0.930106  0.000000  1
  Sn  Sn13  1  0.067112  0.432406  0.000000  1
  Sn  Sn14  1  0.934737  0.581141  0.000000  1
  Sn  Sn15  1  0.654159  0.705015  0.000000  1
  Sn  Sn16  1  0.347335  0.297390  0.000000  1
  Sn  Sn17  1  0.144732  0.796130  0.000000  1
  Sn  Sn18  1  0.847976  0.201261  0.000000  1
  Sn  Sn19  1  0.296171  0.653255  0.000000  1
  Sn  Sn20  1  0.703269  0.348468  0.000000  1
  Sn  Sn21  1  0.201643  0.150768  0.000000  1
  Sn  Sn22  1  0.806973  0.846162  0.000000  1
  Sn  Sn23  1  0.662536  0.502473  0.500000  1
  Sn  Sn24  1  0.338201  0.499190  0.500000  1
  Sn  Sn25  1  0.159564  0.995792  0.500000  1
  Sn  Sn26  1  0.838626  0.000511  0.500000  1
  Sn  Sn27  1  0.498702  0.661681  0.500000  1
  Sn  Sn28  1  0.501666  0.338924  0.500000  1
  Sn  Sn29  1  0.002077  0.160667  0.500000  1
  Sn  Sn30  1  0.993917  0.829528  0.500000  1
  Pt  Pt31  1  0.747460  0.533492  0.000000  1
  Pt  Pt32  1  0.255190  0.467042  0.000000  1
  Pt  Pt33  1  0.242917  0.964707  0.000000  1
  Pt  Pt34  1  0.755070  0.031201  0.000000  1
  Pt  Pt35  1  0.467538  0.743868  0.000000  1
  Pt  Pt36  1  0.533521  0.256466  0.000000  1
  Pt  Pt37  1  0.032925  0.244755  0.000000  1
