# generated using pymatgen
data_U4TcNi3
_symmetry_space_group_name_H-M   'P 1'
_cell_length_a   5.62701169
_cell_length_b   5.62701170
_cell_length_c   5.62700972
_cell_angle_alpha   110.22501962
_cell_angle_beta   110.22502384
_cell_angle_gamma   110.22500751
_symmetry_Int_Tables_number   1
_chemical_formula_structural   U4TcNi3
_chemical_formula_sum   'U4 Tc1 Ni3'
_cell_volume   133.18978065
_cell_formula_units_Z   1
loop_
 _symmetry_equiv_pos_site_id
 _symmetry_equiv_pos_as_xyz
  1  'x, y, z'
loop_
 _atom_site_type_symbol
 _atom_site_label
 _atom_site_symmetry_multiplicity
 _atom_site_fract_x
 _atom_site_fract_y
 _atom_site_fract_z
 _atom_site_occupancy
  U  U0  1  0.077357  0.499690  0.993704  1
  U  U1  1  0.993704  0.077357  0.499690  1
  U  U2  1  0.499690  0.993704  0.077357  1
  U  U3  1  0.416393  0.416393  0.416393  1
  Tc  Tc4  1  0.913016  0.913016  0.913016  1
  Ni  Ni5  1  0.602815  0.492689  0.004337  1
  Ni  Ni6  1  0.004337  0.602815  0.492689  1
  Ni  Ni7  1  0.492689  0.004337  0.602815  1
