# generated using pymatgen
data_Ho3ZnSn3Ru2
_symmetry_space_group_name_H-M   'P 1'
_cell_length_a   7.57741100
_cell_length_b   7.57741039
_cell_length_c   3.89265400
_cell_angle_alpha   90.00000000
_cell_angle_beta   90.00000000
_cell_angle_gamma   119.99999832
_symmetry_Int_Tables_number   1
_chemical_formula_structural   Ho3ZnSn3Ru2
_chemical_formula_sum   'Ho3 Zn1 Sn3 Ru2'
_cell_volume   193.56110602
_cell_formula_units_Z   1
loop_
 _symmetry_equiv_pos_site_id
 _symmetry_equiv_pos_as_xyz
  1  'x, y, z'
loop_
 _atom_site_type_symbol
 _atom_site_label
 _atom_site_symmetry_multiplicity
 _atom_site_fract_x
 _atom_site_fract_y
 _atom_site_fract_z
 _atom_site_occupancy
  Ho  Ho0  1  0.977921  0.389286  0.500000  1
  Ho  Ho1  1  0.610714  0.588635  0.500000  1
  Ho  Ho2  1  0.411365  0.022079  0.500000  1
  Zn  Zn3  1  0.333333  0.666667  0.000000  1
  Sn  Sn4  1  0.999350  0.738257  0.000000  1
  Sn  Sn5  1  0.261743  0.261093  0.000000  1
  Sn  Sn6  1  0.738907  0.000650  0.000000  1
  Ru  Ru7  1  0.666667  0.333333  0.000000  1
  Ru  Ru8  1  0.000000  0.000000  0.500000  1
