# generated using pymatgen
data_BeNb6Au3N2
_symmetry_space_group_name_H-M   'P 1'
_cell_length_a   7.10939067
_cell_length_b   7.08310700
_cell_length_c   7.07710043
_cell_angle_alpha   90.00000000
_cell_angle_beta   89.78433654
_cell_angle_gamma   90.00000000
_symmetry_Int_Tables_number   1
_chemical_formula_structural   BeNb6Au3N2
_chemical_formula_sum   'Be2 Nb12 Au6 N4'
_cell_volume   356.37601277
_cell_formula_units_Z   2
loop_
 _symmetry_equiv_pos_site_id
 _symmetry_equiv_pos_as_xyz
  1  'x, y, z'
loop_
 _atom_site_type_symbol
 _atom_site_label
 _atom_site_symmetry_multiplicity
 _atom_site_fract_x
 _atom_site_fract_y
 _atom_site_fract_z
 _atom_site_occupancy
  Be  Be0  1  0.931911  0.569647  0.423726  1
  Be  Be1  1  0.068089  0.069647  0.076274  1
  Nb  Nb2  1  0.790192  0.956021  0.371369  1
  Nb  Nb3  1  0.711037  0.042906  0.878824  1
  Nb  Nb4  1  0.209808  0.456021  0.128631  1
  Nb  Nb5  1  0.288963  0.542906  0.621176  1
  Nb  Nb6  1  0.956301  0.380892  0.785892  1
  Nb  Nb7  1  0.043699  0.880892  0.714108  1
  Nb  Nb8  1  0.456995  0.126521  0.207658  1
  Nb  Nb9  1  0.543005  0.626521  0.292342  1
  Nb  Nb10  1  0.372797  0.789496  0.957805  1
  Nb  Nb11  1  0.875820  0.710681  0.042810  1
  Nb  Nb12  1  0.124180  0.210681  0.457190  1
  Nb  Nb13  1  0.627203  0.289496  0.542195  1
  Au  Au14  1  0.160889  0.816873  0.310147  1
  Au  Au15  1  0.294963  0.175312  0.838076  1
  Au  Au16  1  0.839111  0.316873  0.189853  1
  Au  Au17  1  0.705037  0.675312  0.661924  1
  Au  Au18  1  0.568855  0.432915  0.932742  1
  Au  Au19  1  0.431145  0.932915  0.567258  1
  N  N20  1  0.872770  0.124213  0.624304  1
  N  N21  1  0.620939  0.874526  0.124346  1
  N  N22  1  0.127230  0.624213  0.875696  1
  N  N23  1  0.379061  0.374526  0.375654  1
