# generated using pymatgen
data_LaEr7(Si3Pt)4
_symmetry_space_group_name_H-M   'P 1'
_cell_length_a   8.14078500
_cell_length_b   8.14078508
_cell_length_c   8.17477900
_cell_angle_alpha   90.00000000
_cell_angle_beta   90.00000000
_cell_angle_gamma   119.99999560
_symmetry_Int_Tables_number   1
_chemical_formula_structural   LaEr7(Si3Pt)4
_chemical_formula_sum   'La1 Er7 Si12 Pt4'
_cell_volume   469.17973548
_cell_formula_units_Z   1
loop_
 _symmetry_equiv_pos_site_id
 _symmetry_equiv_pos_as_xyz
  1  'x, y, z'
loop_
 _atom_site_type_symbol
 _atom_site_label
 _atom_site_symmetry_multiplicity
 _atom_site_fract_x
 _atom_site_fract_y
 _atom_site_fract_z
 _atom_site_occupancy
  La  La0  1  0.000000  0.000000  0.250000  1
  Er  Er1  1  0.000000  0.000000  0.750000  1
  Er  Er2  1  0.498452  0.501548  0.250000  1
  Er  Er3  1  0.498452  0.996904  0.250000  1
  Er  Er4  1  0.003096  0.501548  0.250000  1
  Er  Er5  1  0.501467  0.498533  0.750000  1
  Er  Er6  1  0.997065  0.498533  0.750000  1
  Er  Er7  1  0.501467  0.002935  0.750000  1
  Si  Si8  1  0.833842  0.166158  0.502977  1
  Si  Si9  1  0.833842  0.667687  0.502977  1
  Si  Si10  1  0.332313  0.166158  0.502977  1
  Si  Si11  1  0.833842  0.166158  0.997023  1
  Si  Si12  1  0.833842  0.667687  0.997023  1
  Si  Si13  1  0.332313  0.166158  0.997023  1
  Si  Si14  1  0.166141  0.833859  0.995098  1
  Si  Si15  1  0.667721  0.833859  0.995098  1
  Si  Si16  1  0.166141  0.332279  0.995098  1
  Si  Si17  1  0.166141  0.833859  0.504902  1
  Si  Si18  1  0.667721  0.833859  0.504902  1
  Si  Si19  1  0.166141  0.332279  0.504902  1
  Pt  Pt20  1  0.666667  0.333333  0.497728  1
  Pt  Pt21  1  0.666667  0.333333  0.002272  1
  Pt  Pt22  1  0.333333  0.666667  0.996044  1
  Pt  Pt23  1  0.333333  0.666667  0.503956  1
