# generated using pymatgen
data_LaCoCuAs2
_symmetry_space_group_name_H-M   'P 1'
_cell_length_a   4.25770800
_cell_length_b   4.25770800
_cell_length_c   9.66517600
_cell_angle_alpha   90.00000000
_cell_angle_beta   90.00000000
_cell_angle_gamma   90.00000000
_symmetry_Int_Tables_number   1
_chemical_formula_structural   LaCoCuAs2
_chemical_formula_sum   'La2 Co2 Cu2 As4'
_cell_volume   175.21105874
_cell_formula_units_Z   2
loop_
 _symmetry_equiv_pos_site_id
 _symmetry_equiv_pos_as_xyz
  1  'x, y, z'
loop_
 _atom_site_type_symbol
 _atom_site_label
 _atom_site_symmetry_multiplicity
 _atom_site_fract_x
 _atom_site_fract_y
 _atom_site_fract_z
 _atom_site_occupancy
  La  La0  1  0.500000  0.000000  0.241111  1
  La  La1  1  0.000000  0.500000  0.758889  1
  Co  Co2  1  0.500000  0.000000  0.890181  1
  Co  Co3  1  0.000000  0.500000  0.109819  1
  Cu  Cu4  1  0.500000  0.500000  0.500000  1
  Cu  Cu5  1  0.000000  0.000000  0.500000  1
  As  As6  1  0.000000  0.500000  0.355092  1
  As  As7  1  0.500000  0.500000  0.000000  1
  As  As8  1  0.000000  0.000000  0.000000  1
  As  As9  1  0.500000  0.000000  0.644908  1
