# generated using pymatgen
data_DyY3(B4Ru)4
_symmetry_space_group_name_H-M   'P 1'
_cell_length_a   3.56543200
_cell_length_b   5.96845600
_cell_length_c   11.55493300
_cell_angle_alpha   89.99905855
_cell_angle_beta   90.00000496
_cell_angle_gamma   90.00000000
_symmetry_Int_Tables_number   1
_chemical_formula_structural   DyY3(B4Ru)4
_chemical_formula_sum   'Dy1 Y3 B16 Ru4'
_cell_volume   245.89040719
_cell_formula_units_Z   1
loop_
 _symmetry_equiv_pos_site_id
 _symmetry_equiv_pos_as_xyz
  1  'x, y, z'
loop_
 _atom_site_type_symbol
 _atom_site_label
 _atom_site_symmetry_multiplicity
 _atom_site_fract_x
 _atom_site_fract_y
 _atom_site_fract_z
 _atom_site_occupancy
  Dy  Dy0  1  0.000000  0.371178  0.149881  1
  Y  Y1  1  0.000000  0.128871  0.649861  1
  Y  Y2  1  0.000000  0.871139  0.350144  1
  Y  Y3  1  0.000000  0.628868  0.850150  1
  B  B4  1  0.500000  0.476379  0.691700  1
  B  B5  1  0.500000  0.523471  0.308210  1
  B  B6  1  0.500000  0.976366  0.808313  1
  B  B7  1  0.500000  0.023871  0.191617  1
  B  B8  1  0.500000  0.288636  0.814458  1
  B  B9  1  0.500000  0.711089  0.185478  1
  B  B10  1  0.500000  0.788662  0.685550  1
  B  B11  1  0.500000  0.211476  0.314317  1
  B  B12  1  0.500000  0.363569  0.970052  1
  B  B13  1  0.500000  0.636222  0.030174  1
  B  B14  1  0.500000  0.863589  0.530070  1
  B  B15  1  0.500000  0.136396  0.469916  1
  B  B16  1  0.500000  0.388178  0.546593  1
  B  B17  1  0.500000  0.611827  0.453402  1
  B  B18  1  0.500000  0.888177  0.953424  1
  B  B19  1  0.500000  0.111984  0.046664  1
  Ru  Ru20  1  0.000000  0.140396  0.907569  1
  Ru  Ru21  1  0.000001  0.859618  0.092550  1
  Ru  Ru22  1  0.999999  0.640302  0.592530  1
  Ru  Ru23  1  0.000000  0.359737  0.407376  1
