# generated using pymatgen
data_Yb3Y14(ErIr4)3
_symmetry_space_group_name_H-M   'P 1'
_cell_length_a   10.89311036
_cell_length_b   10.94101961
_cell_length_c   6.36370229
_cell_angle_alpha   89.94378120
_cell_angle_beta   90.24159157
_cell_angle_gamma   90.01240056
_symmetry_Int_Tables_number   1
_chemical_formula_structural   Yb3Y14(ErIr4)3
_chemical_formula_sum   'Yb3 Y14 Er3 Ir12'
_cell_volume   758.42994917
_cell_formula_units_Z   1
loop_
 _symmetry_equiv_pos_site_id
 _symmetry_equiv_pos_as_xyz
  1  'x, y, z'
loop_
 _atom_site_type_symbol
 _atom_site_label
 _atom_site_symmetry_multiplicity
 _atom_site_fract_x
 _atom_site_fract_y
 _atom_site_fract_z
 _atom_site_occupancy
  Yb  Yb0  1  0.287866  0.086640  0.376074  1
  Yb  Yb1  1  0.290636  0.911339  0.876449  1
  Yb  Yb2  1  0.002400  0.999684  0.498974  1
  Y  Y3  1  0.708420  0.087562  0.880876  1
  Y  Y4  1  0.710951  0.914628  0.380611  1
  Y  Y5  1  0.587991  0.792079  0.878511  1
  Y  Y6  1  0.586204  0.207678  0.377881  1
  Y  Y7  1  0.411631  0.793210  0.379516  1
  Y  Y8  1  0.410197  0.207085  0.880421  1
  Y  Y9  1  0.209975  0.413355  0.623853  1
  Y  Y10  1  0.210390  0.588254  0.122708  1
  Y  Y11  1  0.790638  0.410785  0.119844  1
  Y  Y12  1  0.790892  0.587673  0.620601  1
  Y  Y13  1  0.911750  0.709069  0.122310  1
  Y  Y14  1  0.913458  0.288721  0.622943  1
  Y  Y15  1  0.086968  0.711051  0.620786  1
  Y  Y16  1  0.089034  0.291364  0.120805  1
  Er  Er17  1  0.001163  0.000584  0.999321  1
  Er  Er18  1  0.500124  0.499551  0.997957  1
  Er  Er19  1  0.500090  0.500474  0.498089  1
  Ir  Ir20  1  0.848389  0.155332  0.244962  1
  Ir  Ir21  1  0.847328  0.845875  0.755767  1
  Ir  Ir22  1  0.150477  0.159648  0.757590  1
  Ir  Ir23  1  0.149011  0.838347  0.245080  1
  Ir  Ir24  1  0.650176  0.347298  0.748749  1
  Ir  Ir25  1  0.649670  0.653247  0.251370  1
  Ir  Ir26  1  0.349244  0.352275  0.248136  1
  Ir  Ir27  1  0.348654  0.647448  0.745010  1
  Ir  Ir28  1  0.503128  0.000149  0.123940  1
  Ir  Ir29  1  0.503118  0.999712  0.622683  1
  Ir  Ir30  1  0.000004  0.500234  0.878348  1
  Ir  Ir31  1  0.000021  0.499650  0.379835  1
