# generated using pymatgen
data_Li2Mn(InPt2)3
_symmetry_space_group_name_H-M   'P 1'
_cell_length_a   4.16222000
_cell_length_b   7.43324100
_cell_length_c   12.50367700
_cell_angle_alpha   90.00000000
_cell_angle_beta   89.99994494
_cell_angle_gamma   90.00000000
_symmetry_Int_Tables_number   1
_chemical_formula_structural   Li2Mn(InPt2)3
_chemical_formula_sum   'Li4 Mn2 In6 Pt12'
_cell_volume   386.84856635
_cell_formula_units_Z   2
loop_
 _symmetry_equiv_pos_site_id
 _symmetry_equiv_pos_as_xyz
  1  'x, y, z'
loop_
 _atom_site_type_symbol
 _atom_site_label
 _atom_site_symmetry_multiplicity
 _atom_site_fract_x
 _atom_site_fract_y
 _atom_site_fract_z
 _atom_site_occupancy
  Li  Li0  1  0.000000  0.500000  0.334242  1
  Li  Li1  1  0.500000  0.000000  0.501536  1
  Li  Li2  1  0.000000  0.500000  0.665157  1
  Li  Li3  1  0.500001  0.000000  0.832383  1
  Mn  Mn4  1  0.000000  0.500000  0.000491  1
  Mn  Mn5  1  0.500000  0.000000  0.166199  1
  In  In6  1  0.000000  0.000000  0.994325  1
  In  In7  1  0.500000  0.500000  0.172363  1
  In  In8  1  0.000000  0.000000  0.338284  1
  In  In9  1  0.500000  0.500000  0.499684  1
  In  In10  1  0.000000  0.000000  0.666806  1
  In  In11  1  0.499999  0.500000  0.828454  1
  Pt  Pt12  1  0.500000  0.254380  0.000712  1
  Pt  Pt13  1  0.500000  0.745620  0.000712  1
  Pt  Pt14  1  0.000000  0.245499  0.166025  1
  Pt  Pt15  1  0.000000  0.754500  0.166025  1
  Pt  Pt16  1  0.500000  0.246638  0.334118  1
  Pt  Pt17  1  0.500000  0.753362  0.334118  1
  Pt  Pt18  1  0.000000  0.250911  0.500904  1
  Pt  Pt19  1  0.000000  0.749089  0.500904  1
  Pt  Pt20  1  0.500002  0.249154  0.665751  1
  Pt  Pt21  1  0.500002  0.750846  0.665751  1
  Pt  Pt22  1  0.000000  0.253324  0.832528  1
  Pt  Pt23  1  0.000000  0.746675  0.832528  1
