# generated using pymatgen
data_Tb4TaSi8Tc5
_symmetry_space_group_name_H-M   'P 1'
_cell_length_a   6.84568567
_cell_length_b   6.89394799
_cell_length_c   6.77740238
_cell_angle_alpha   70.09837456
_cell_angle_beta   90.55691189
_cell_angle_gamma   89.23756930
_symmetry_Int_Tables_number   1
_chemical_formula_structural   Tb4TaSi8Tc5
_chemical_formula_sum   'Tb4 Ta1 Si8 Tc5'
_cell_volume   300.68819881
_cell_formula_units_Z   1
loop_
 _symmetry_equiv_pos_site_id
 _symmetry_equiv_pos_as_xyz
  1  'x, y, z'
loop_
 _atom_site_type_symbol
 _atom_site_label
 _atom_site_symmetry_multiplicity
 _atom_site_fract_x
 _atom_site_fract_y
 _atom_site_fract_z
 _atom_site_occupancy
  Tb  Tb0  1  0.329349  0.559721  0.811612  1
  Tb  Tb1  1  0.832599  0.937247  0.187774  1
  Tb  Tb2  1  0.670651  0.440279  0.188388  1
  Tb  Tb3  1  0.167401  0.062753  0.812226  1
  Ta  Ta4  1  0.500000  0.000000  0.500000  1
  Si  Si5  1  0.542867  0.861411  0.916021  1
  Si  Si6  1  0.062680  0.616165  0.112335  1
  Si  Si7  1  0.457133  0.138589  0.083979  1
  Si  Si8  1  0.937320  0.383835  0.887665  1
  Si  Si9  1  0.126905  0.867326  0.501523  1
  Si  Si10  1  0.650773  0.614163  0.529197  1
  Si  Si11  1  0.873095  0.132674  0.498477  1
  Si  Si12  1  0.349227  0.385837  0.470803  1
  Tc  Tc13  1  0.000000  0.500000  0.500000  1
  Tc  Tc14  1  0.848752  0.767278  0.762837  1
  Tc  Tc15  1  0.353960  0.766670  0.267095  1
  Tc  Tc16  1  0.151248  0.232722  0.237163  1
  Tc  Tc17  1  0.646040  0.233330  0.732905  1
