# generated using pymatgen
data_Ho4Er6In8CoPt3
_symmetry_space_group_name_H-M   'P 1'
_cell_length_a   3.59248300
_cell_length_b   8.09987699
_cell_length_c   18.12740058
_cell_angle_alpha   89.91966668
_cell_angle_beta   90.00000000
_cell_angle_gamma   90.00000000
_symmetry_Int_Tables_number   1
_chemical_formula_structural   Ho4Er6In8CoPt3
_chemical_formula_sum   'Ho4 Er6 In8 Co1 Pt3'
_cell_volume   527.48273584
_cell_formula_units_Z   1
loop_
 _symmetry_equiv_pos_site_id
 _symmetry_equiv_pos_as_xyz
  1  'x, y, z'
loop_
 _atom_site_type_symbol
 _atom_site_label
 _atom_site_symmetry_multiplicity
 _atom_site_fract_x
 _atom_site_fract_y
 _atom_site_fract_z
 _atom_site_occupancy
  Ho  Ho0  1  0.000000  0.258465  0.720515  1
  Ho  Ho1  1  0.000000  0.754512  0.279400  1
  Ho  Ho2  1  0.000000  0.000250  0.001451  1
  Ho  Ho3  1  0.000000  0.500751  0.498490  1
  Er  Er4  1  0.000000  0.110999  0.408634  1
  Er  Er5  1  0.000000  0.883602  0.583424  1
  Er  Er6  1  0.000000  0.384216  0.916119  1
  Er  Er7  1  0.000000  0.617308  0.087234  1
  Er  Er8  1  0.000000  0.231956  0.224448  1
  Er  Er9  1  0.000000  0.759072  0.779146  1
  In  In10  1  0.500000  0.420871  0.350978  1
  In  In11  1  0.500000  0.577635  0.647737  1
  In  In12  1  0.500000  0.076902  0.852072  1
  In  In13  1  0.500000  0.929227  0.152365  1
  In  In14  1  0.500000  0.291984  0.068374  1
  In  In15  1  0.500000  0.708899  0.934516  1
  In  In16  1  0.500000  0.207851  0.564182  1
  In  In17  1  0.500000  0.794652  0.428924  1
  Co  Co18  1  0.500000  0.017965  0.305005  1
  Pt  Pt19  1  0.500000  0.975521  0.695382  1
  Pt  Pt20  1  0.500000  0.477550  0.803941  1
  Pt  Pt21  1  0.500000  0.519808  0.197663  1
