# generated using pymatgen
data_Hf16Co3NiMo3Rh
_symmetry_space_group_name_H-M   'P 1'
_cell_length_a   8.65403605
_cell_length_b   8.65403636
_cell_length_c   8.65403691
_cell_angle_alpha   59.96897536
_cell_angle_beta   59.96896166
_cell_angle_gamma   59.96897581
_symmetry_Int_Tables_number   1
_chemical_formula_structural   Hf16Co3NiMo3Rh
_chemical_formula_sum   'Hf16 Co3 Ni1 Mo3 Rh1'
_cell_volume   457.96834998
_cell_formula_units_Z   1
loop_
 _symmetry_equiv_pos_site_id
 _symmetry_equiv_pos_as_xyz
  1  'x, y, z'
loop_
 _atom_site_type_symbol
 _atom_site_label
 _atom_site_symmetry_multiplicity
 _atom_site_fract_x
 _atom_site_fract_y
 _atom_site_fract_z
 _atom_site_occupancy
  Hf  Hf0  1  0.697066  0.101793  0.101793  1
  Hf  Hf1  1  0.101793  0.697066  0.101793  1
  Hf  Hf2  1  0.101793  0.101793  0.697066  1
  Hf  Hf3  1  0.099623  0.099623  0.099623  1
  Hf  Hf4  1  0.314728  0.314728  0.687423  1
  Hf  Hf5  1  0.685477  0.685477  0.315615  1
  Hf  Hf6  1  0.314728  0.687423  0.314728  1
  Hf  Hf7  1  0.685477  0.315615  0.685477  1
  Hf  Hf8  1  0.687423  0.314728  0.314728  1
  Hf  Hf9  1  0.315615  0.685477  0.685477  1
  Hf  Hf10  1  0.954268  0.954268  0.542047  1
  Hf  Hf11  1  0.552002  0.552002  0.947548  1
  Hf  Hf12  1  0.954268  0.542047  0.954268  1
  Hf  Hf13  1  0.552002  0.947548  0.552002  1
  Hf  Hf14  1  0.542047  0.954268  0.954268  1
  Hf  Hf15  1  0.947548  0.552002  0.552002  1
  Co  Co16  1  0.327107  0.889128  0.889128  1
  Co  Co17  1  0.889128  0.327107  0.889128  1
  Co  Co18  1  0.889128  0.889128  0.327107  1
  Ni  Ni19  1  0.890252  0.890252  0.890252  1
  Mo  Mo20  1  0.999928  0.332122  0.332122  1
  Mo  Mo21  1  0.332122  0.999928  0.332122  1
  Mo  Mo22  1  0.332122  0.332122  0.999928  1
  Rh  Rh23  1  0.334349  0.334349  0.334349  1
