# generated using pymatgen
data_NaTb6RuBr12
_symmetry_space_group_name_H-M   'P 1'
_cell_length_a   9.23926171
_cell_length_b   9.23926207
_cell_length_c   9.23926258
_cell_angle_alpha   106.73779397
_cell_angle_beta   106.73778788
_cell_angle_gamma   106.73779134
_symmetry_Int_Tables_number   1
_chemical_formula_structural   NaTb6RuBr12
_chemical_formula_sum   'Na1 Tb6 Ru1 Br12'
_cell_volume   661.47891335
_cell_formula_units_Z   1
loop_
 _symmetry_equiv_pos_site_id
 _symmetry_equiv_pos_as_xyz
  1  'x, y, z'
loop_
 _atom_site_type_symbol
 _atom_site_label
 _atom_site_symmetry_multiplicity
 _atom_site_fract_x
 _atom_site_fract_y
 _atom_site_fract_z
 _atom_site_occupancy
  Na  Na0  1  0.500000  0.500000  0.500000  1
  Tb  Tb1  1  0.105989  0.030762  0.316745  1
  Tb  Tb2  1  0.316745  0.105989  0.030762  1
  Tb  Tb3  1  0.030762  0.316745  0.105989  1
  Tb  Tb4  1  0.894011  0.969238  0.683255  1
  Tb  Tb5  1  0.683255  0.894011  0.969238  1
  Tb  Tb6  1  0.969238  0.683255  0.894011  1
  Ru  Ru7  1  0.000000  0.000000  0.000000  1
  Br  Br8  1  0.075416  0.682530  0.222395  1
  Br  Br9  1  0.222395  0.075416  0.682530  1
  Br  Br10  1  0.682530  0.222395  0.075416  1
  Br  Br11  1  0.924584  0.317470  0.777605  1
  Br  Br12  1  0.777605  0.924584  0.317470  1
  Br  Br13  1  0.317470  0.777605  0.924584  1
  Br  Br14  1  0.448534  0.143776  0.370248  1
  Br  Br15  1  0.370248  0.448534  0.143776  1
  Br  Br16  1  0.143776  0.370248  0.448534  1
  Br  Br17  1  0.551466  0.856224  0.629752  1
  Br  Br18  1  0.629752  0.551466  0.856224  1
  Br  Br19  1  0.856224  0.629752  0.551466  1
