# generated using pymatgen
data_Pr(Ga3Ni)3
_symmetry_space_group_name_H-M   'P 1'
_cell_length_a   10.20248666
_cell_length_b   10.20248673
_cell_length_c   10.20248466
_cell_angle_alpha   42.17412502
_cell_angle_beta   42.17412210
_cell_angle_gamma   42.17412715
_symmetry_Int_Tables_number   1
_chemical_formula_structural   Pr(Ga3Ni)3
_chemical_formula_sum   'Pr2 Ga18 Ni6'
_cell_volume   433.16826089
_cell_formula_units_Z   2
loop_
 _symmetry_equiv_pos_site_id
 _symmetry_equiv_pos_as_xyz
  1  'x, y, z'
loop_
 _atom_site_type_symbol
 _atom_site_label
 _atom_site_symmetry_multiplicity
 _atom_site_fract_x
 _atom_site_fract_y
 _atom_site_fract_z
 _atom_site_occupancy
  Pr  Pr0  1  0.166918  0.166918  0.166918  1
  Pr  Pr1  1  0.833082  0.833082  0.833082  1
  Ga  Ga2  1  0.050451  0.050451  0.050451  1
  Ga  Ga3  1  0.705371  0.500000  0.294629  1
  Ga  Ga4  1  0.665884  0.334116  0.000000  1
  Ga  Ga5  1  0.103898  0.431803  0.759859  1
  Ga  Ga6  1  0.431803  0.759859  0.103898  1
  Ga  Ga7  1  0.385758  0.385758  0.385758  1
  Ga  Ga8  1  0.334116  0.000000  0.665884  1
  Ga  Ga9  1  0.614242  0.614242  0.614242  1
  Ga  Ga10  1  0.240141  0.568197  0.896102  1
  Ga  Ga11  1  0.568197  0.896102  0.240141  1
  Ga  Ga12  1  0.500000  0.294629  0.705371  1
  Ga  Ga13  1  0.759859  0.103898  0.431803  1
  Ga  Ga14  1  0.949549  0.949549  0.949549  1
  Ga  Ga15  1  0.294629  0.705371  0.500000  1
  Ga  Ga16  1  0.000000  0.665884  0.334116  1
  Ga  Ga17  1  0.716563  0.716563  0.716563  1
  Ga  Ga18  1  0.283437  0.283437  0.283437  1
  Ga  Ga19  1  0.896102  0.240141  0.568197  1
  Ni  Ni20  1  0.243651  0.921491  0.582656  1
  Ni  Ni21  1  0.921491  0.582656  0.243651  1
  Ni  Ni22  1  0.756349  0.417344  0.078509  1
  Ni  Ni23  1  0.078509  0.756349  0.417344  1
  Ni  Ni24  1  0.417344  0.078509  0.756349  1
  Ni  Ni25  1  0.582656  0.243651  0.921491  1
