# generated using pymatgen
data_Nd2Al3Zn5
_symmetry_space_group_name_H-M   'P 1'
_cell_length_a   6.24665215
_cell_length_b   6.24665194
_cell_length_c   5.91536694
_cell_angle_alpha   90.15740134
_cell_angle_beta   89.84259570
_cell_angle_gamma   123.42583375
_symmetry_Int_Tables_number   1
_chemical_formula_structural   Nd2Al3Zn5
_chemical_formula_sum   'Nd2 Al3 Zn5'
_cell_volume   192.64261589
_cell_formula_units_Z   1
loop_
 _symmetry_equiv_pos_site_id
 _symmetry_equiv_pos_as_xyz
  1  'x, y, z'
loop_
 _atom_site_type_symbol
 _atom_site_label
 _atom_site_symmetry_multiplicity
 _atom_site_fract_x
 _atom_site_fract_y
 _atom_site_fract_z
 _atom_site_occupancy
  Nd  Nd0  1  0.250336  0.748603  0.248637  1
  Nd  Nd1  1  0.748603  0.250336  0.751362  1
  Al  Al2  1  0.250035  0.250035  0.000000  1
  Al  Al3  1  0.749719  0.749719  0.000000  1
  Al  Al4  1  0.242636  0.242636  0.500000  1
  Zn  Zn5  1  0.855347  0.137920  0.249332  1
  Zn  Zn6  1  0.639542  0.367316  0.257168  1
  Zn  Zn7  1  0.758548  0.758548  0.500000  1
  Zn  Zn8  1  0.367316  0.639542  0.742831  1
  Zn  Zn9  1  0.137920  0.855347  0.750667  1
