# generated using pymatgen
data_Lu8V11Si16W
_symmetry_space_group_name_H-M   'P 1'
_cell_length_a   6.60337670
_cell_length_b   6.79087173
_cell_length_c   12.77129900
_cell_angle_alpha   90.00000000
_cell_angle_beta   90.00000000
_cell_angle_gamma   89.94701838
_symmetry_Int_Tables_number   1
_chemical_formula_structural   Lu8V11Si16W
_chemical_formula_sum   'Lu8 V11 Si16 W1'
_cell_volume   572.69908260
_cell_formula_units_Z   1
loop_
 _symmetry_equiv_pos_site_id
 _symmetry_equiv_pos_as_xyz
  1  'x, y, z'
loop_
 _atom_site_type_symbol
 _atom_site_label
 _atom_site_symmetry_multiplicity
 _atom_site_fract_x
 _atom_site_fract_y
 _atom_site_fract_z
 _atom_site_occupancy
  Lu  Lu0  1  0.498364  0.330837  0.095535  1
  Lu  Lu1  1  0.998520  0.169903  0.404430  1
  Lu  Lu2  1  0.502096  0.669888  0.594757  1
  Lu  Lu3  1  0.001807  0.830518  0.905266  1
  Lu  Lu4  1  0.502096  0.669888  0.905243  1
  Lu  Lu5  1  0.001807  0.830518  0.594734  1
  Lu  Lu6  1  0.498364  0.330837  0.404465  1
  Lu  Lu7  1  0.998520  0.169903  0.095570  1
  V  V8  1  0.837497  0.328040  0.626020  1
  V  V9  1  0.337371  0.170675  0.873910  1
  V  V10  1  0.162768  0.672424  0.126144  1
  V  V11  1  0.662385  0.827600  0.373574  1
  V  V12  1  0.162768  0.672424  0.373856  1
  V  V13  1  0.662385  0.827600  0.126426  1
  V  V14  1  0.837497  0.328040  0.873980  1
  V  V15  1  0.337371  0.170675  0.626090  1
  V  V16  1  0.165448  0.487934  0.750000  1
  V  V17  1  0.334519  0.987525  0.250000  1
  V  V18  1  0.834248  0.512155  0.250000  1
  Si  Si19  1  0.662853  0.042872  0.541873  1
  Si  Si20  1  0.162572  0.457927  0.956759  1
  Si  Si21  1  0.337005  0.958149  0.043907  1
  Si  Si22  1  0.837579  0.542012  0.456072  1
  Si  Si23  1  0.337005  0.958149  0.456093  1
  Si  Si24  1  0.837579  0.542012  0.043928  1
  Si  Si25  1  0.662853  0.042872  0.958127  1
  Si  Si26  1  0.162572  0.457927  0.543241  1
  Si  Si27  1  0.537365  0.371828  0.750000  1
  Si  Si28  1  0.041940  0.133054  0.750000  1
  Si  Si29  1  0.460489  0.631369  0.250000  1
  Si  Si30  1  0.960367  0.867980  0.250000  1
  Si  Si31  1  0.805200  0.622159  0.750000  1
  Si  Si32  1  0.300779  0.874157  0.750000  1
  Si  Si33  1  0.196068  0.378288  0.250000  1
  Si  Si34  1  0.696000  0.121851  0.250000  1
  W  W35  1  0.665943  0.010007  0.750000  1
