# generated using pymatgen
data_Dy8Tl3Ir
_symmetry_space_group_name_H-M   'P 1'
_cell_length_a   10.36237800
_cell_length_b   10.36237922
_cell_length_c   7.23057000
_cell_angle_alpha   90.00000000
_cell_angle_beta   90.00000000
_cell_angle_gamma   119.99999611
_symmetry_Int_Tables_number   1
_chemical_formula_structural   Dy8Tl3Ir
_chemical_formula_sum   'Dy16 Tl6 Ir2'
_cell_volume   672.39131585
_cell_formula_units_Z   2
loop_
 _symmetry_equiv_pos_site_id
 _symmetry_equiv_pos_as_xyz
  1  'x, y, z'
loop_
 _atom_site_type_symbol
 _atom_site_label
 _atom_site_symmetry_multiplicity
 _atom_site_fract_x
 _atom_site_fract_y
 _atom_site_fract_z
 _atom_site_occupancy
  Dy  Dy0  1  0.174822  0.825178  0.510360  1
  Dy  Dy1  1  0.650359  0.825178  0.510360  1
  Dy  Dy2  1  0.174822  0.349641  0.510360  1
  Dy  Dy3  1  0.825178  0.174822  0.010360  1
  Dy  Dy4  1  0.349641  0.174822  0.010360  1
  Dy  Dy5  1  0.825178  0.650359  0.010360  1
  Dy  Dy6  1  0.333333  0.666667  0.826998  1
  Dy  Dy7  1  0.666667  0.333333  0.326998  1
  Dy  Dy8  1  0.463108  0.536892  0.211472  1
  Dy  Dy9  1  0.073782  0.536892  0.211472  1
  Dy  Dy10  1  0.463108  0.926218  0.211472  1
  Dy  Dy11  1  0.536892  0.463108  0.711472  1
  Dy  Dy12  1  0.926218  0.463108  0.711472  1
  Dy  Dy13  1  0.536892  0.073782  0.711472  1
  Dy  Dy14  1  0.000000  0.000000  0.231457  1
  Dy  Dy15  1  0.000000  0.000000  0.731457  1
  Tl  Tl16  1  0.164885  0.835115  0.956567  1
  Tl  Tl17  1  0.670232  0.835115  0.956567  1
  Tl  Tl18  1  0.164885  0.329768  0.956567  1
  Tl  Tl19  1  0.835115  0.164885  0.456567  1
  Tl  Tl20  1  0.329768  0.164885  0.456567  1
  Tl  Tl21  1  0.835115  0.670232  0.456567  1
  Ir  Ir22  1  0.333333  0.666667  0.443763  1
  Ir  Ir23  1  0.666667  0.333333  0.943763  1
