# generated using pymatgen
data_YbHo3(Mo2O7)2
_symmetry_space_group_name_H-M   'P 1'
_cell_length_a   7.28536542
_cell_length_b   7.28536564
_cell_length_c   7.40675581
_cell_angle_alpha   60.54068293
_cell_angle_beta   60.54068155
_cell_angle_gamma   59.99999865
_symmetry_Int_Tables_number   1
_chemical_formula_structural   YbHo3(Mo2O7)2
_chemical_formula_sum   'Yb1 Ho3 Mo4 O14'
_cell_volume   280.23154578
_cell_formula_units_Z   1
loop_
 _symmetry_equiv_pos_site_id
 _symmetry_equiv_pos_as_xyz
  1  'x, y, z'
loop_
 _atom_site_type_symbol
 _atom_site_label
 _atom_site_symmetry_multiplicity
 _atom_site_fract_x
 _atom_site_fract_y
 _atom_site_fract_z
 _atom_site_occupancy
  Yb  Yb0  1  0.125000  0.125000  0.625000  1
  Ho  Ho1  1  0.625000  0.125000  0.125000  1
  Ho  Ho2  1  0.125000  0.625000  0.125000  1
  Ho  Ho3  1  0.125000  0.125000  0.125000  1
  Mo  Mo4  1  0.125000  0.625000  0.625000  1
  Mo  Mo5  1  0.625000  0.125000  0.625000  1
  Mo  Mo6  1  0.625000  0.625000  0.125000  1
  Mo  Mo7  1  0.625000  0.625000  0.625000  1
  O  O8  1  0.709436  0.709436  0.285326  1
  O  O9  1  0.287433  0.287433  0.725609  1
  O  O10  1  0.699525  0.287433  0.725609  1
  O  O11  1  0.295801  0.709436  0.285326  1
  O  O12  1  0.287433  0.699525  0.725609  1
  O  O13  1  0.709436  0.295801  0.285326  1
  O  O14  1  0.540564  0.540564  0.964674  1
  O  O15  1  0.962567  0.962567  0.524391  1
  O  O16  1  0.550475  0.962567  0.524391  1
  O  O17  1  0.954199  0.540564  0.964674  1
  O  O18  1  0.962567  0.550475  0.524391  1
  O  O19  1  0.540564  0.954199  0.964674  1
  O  O20  1  0.252522  0.252522  0.242433  1
  O  O21  1  0.997478  0.997478  0.007567  1
