# generated using pymatgen
data_Ti6In4CBr18
_symmetry_space_group_name_H-M   'P 1'
_cell_length_a   10.14860964
_cell_length_b   10.38696731
_cell_length_c   10.41822037
_cell_angle_alpha   118.52792690
_cell_angle_beta   99.92392391
_cell_angle_gamma   103.66185453
_symmetry_Int_Tables_number   1
_chemical_formula_structural   Ti6In4CBr18
_chemical_formula_sum   'Ti6 In4 C1 Br18'
_cell_volume   883.73684884
_cell_formula_units_Z   1
loop_
 _symmetry_equiv_pos_site_id
 _symmetry_equiv_pos_as_xyz
  1  'x, y, z'
loop_
 _atom_site_type_symbol
 _atom_site_label
 _atom_site_symmetry_multiplicity
 _atom_site_fract_x
 _atom_site_fract_y
 _atom_site_fract_z
 _atom_site_occupancy
  Ti  Ti0  1  0.360157  0.449425  0.786703  1
  Ti  Ti1  1  0.372572  0.619705  0.126096  1
  Ti  Ti2  1  0.635193  0.720318  0.040129  1
  Ti  Ti3  1  0.639843  0.550575  0.213297  1
  Ti  Ti4  1  0.364807  0.279682  0.959871  1
  Ti  Ti5  1  0.627428  0.380295  0.873904  1
  In  In6  1  0.174117  0.723058  0.557112  1
  In  In7  1  0.856800  0.965442  0.774148  1
  In  In8  1  0.143200  0.034558  0.225852  1
  In  In9  1  0.825883  0.276942  0.442888  1
  C  C10  1  0.500000  0.500000  0.000000  1
  Br  Br11  1  0.809547  0.421433  0.103060  1
  Br  Br12  1  0.515986  0.697873  0.396169  1
  Br  Br13  1  0.183580  0.992669  0.906219  1
  Br  Br14  1  0.190453  0.578567  0.896940  1
  Br  Br15  1  0.819411  0.817514  0.297637  1
  Br  Br16  1  0.505052  0.302906  0.203325  1
  Br  Br17  1  0.790833  0.226873  0.713130  1
  Br  Br18  1  0.180589  0.182486  0.702363  1
  Br  Br19  1  0.509648  0.895887  0.192059  1
  Br  Br20  1  0.805553  0.618568  0.902113  1
  Br  Br21  1  0.209167  0.773127  0.286870  1
  Br  Br22  1  0.169471  0.381657  0.507025  1
  Br  Br23  1  0.494948  0.697094  0.796675  1
  Br  Br24  1  0.816420  0.007331  0.093781  1
  Br  Br25  1  0.484014  0.302127  0.603831  1
  Br  Br26  1  0.194447  0.381432  0.097887  1
  Br  Br27  1  0.830529  0.618343  0.492975  1
  Br  Br28  1  0.490352  0.104113  0.807941  1
