# generated using pymatgen
data_Sc4Si6Ni(IrRh)3
_symmetry_space_group_name_H-M   'P 1'
_cell_length_a   6.94976128
_cell_length_b   6.94559305
_cell_length_c   6.94976163
_cell_angle_alpha   109.34049934
_cell_angle_beta   109.21624921
_cell_angle_gamma   109.88213497
_symmetry_Int_Tables_number   1
_chemical_formula_structural   Sc4Si6Ni(IrRh)3
_chemical_formula_sum   'Sc4 Si6 Ni1 Ir3 Rh3'
_cell_volume   258.15439715
_cell_formula_units_Z   1
loop_
 _symmetry_equiv_pos_site_id
 _symmetry_equiv_pos_as_xyz
  1  'x, y, z'
loop_
 _atom_site_type_symbol
 _atom_site_label
 _atom_site_symmetry_multiplicity
 _atom_site_fract_x
 _atom_site_fract_y
 _atom_site_fract_z
 _atom_site_occupancy
  Sc  Sc0  1  0.001115  0.998395  0.499934  1
  Sc  Sc1  1  0.001840  0.501709  0.003083  1
  Sc  Sc2  1  0.498461  0.998395  0.997281  1
  Sc  Sc3  1  0.498625  0.501709  0.499868  1
  Si  Si4  1  0.682261  0.682197  0.999936  1
  Si  Si5  1  0.323211  0.003838  0.319919  1
  Si  Si6  1  0.996453  0.316838  0.320385  1
  Si  Si7  1  0.318221  0.318686  0.000466  1
  Si  Si8  1  0.683919  0.003838  0.680627  1
  Si  Si9  1  0.995905  0.675051  0.679146  1
  Ni  Ni10  1  0.750075  0.249931  0.499856  1
  Ir  Ir11  1  0.249546  0.749967  0.500421  1
  Ir  Ir12  1  0.505365  0.756623  0.251259  1
  Ir  Ir13  1  0.999755  0.999690  0.999935  1
  Rh  Rh14  1  0.746464  0.494416  0.251038  1
  Rh  Rh15  1  0.505406  0.254299  0.748893  1
  Rh  Rh16  1  0.243379  0.494416  0.747953  1
