# generated using pymatgen
data_Y16Er4Ir7Ru5
_symmetry_space_group_name_H-M   'P 1'
_cell_length_a   10.83570424
_cell_length_b   10.83570424
_cell_length_c   6.43095406
_cell_angle_alpha   89.95315354
_cell_angle_beta   89.95315354
_cell_angle_gamma   90.05665312
_symmetry_Int_Tables_number   1
_chemical_formula_structural   Y16Er4Ir7Ru5
_chemical_formula_sum   'Y16 Er4 Ir7 Ru5'
_cell_volume   755.07343207
_cell_formula_units_Z   1
loop_
 _symmetry_equiv_pos_site_id
 _symmetry_equiv_pos_as_xyz
  1  'x, y, z'
loop_
 _atom_site_type_symbol
 _atom_site_label
 _atom_site_symmetry_multiplicity
 _atom_site_fract_x
 _atom_site_fract_y
 _atom_site_fract_z
 _atom_site_occupancy
  Y  Y0  1  0.292933  0.086486  0.377657  1
  Y  Y1  1  0.292371  0.913329  0.877636  1
  Y  Y2  1  0.707923  0.086918  0.878144  1
  Y  Y3  1  0.707696  0.913794  0.376695  1
  Y  Y4  1  0.586603  0.792956  0.877568  1
  Y  Y5  1  0.587357  0.207325  0.377678  1
  Y  Y6  1  0.413343  0.792894  0.377512  1
  Y  Y7  1  0.413234  0.206916  0.876966  1
  Y  Y8  1  0.207044  0.413397  0.622432  1
  Y  Y9  1  0.207106  0.586657  0.122488  1
  Y  Y10  1  0.792675  0.412643  0.122322  1
  Y  Y11  1  0.793084  0.586766  0.623034  1
  Y  Y12  1  0.913514  0.707067  0.122343  1
  Y  Y13  1  0.913082  0.292077  0.621856  1
  Y  Y14  1  0.086671  0.707629  0.622364  1
  Y  Y15  1  0.086206  0.292304  0.123305  1
  Er  Er16  1  0.999579  0.000880  0.499395  1
  Er  Er17  1  0.999120  0.000421  0.000605  1
  Er  Er18  1  0.500125  0.500059  0.000045  1
  Er  Er19  1  0.499941  0.499875  0.499955  1
  Ir  Ir20  1  0.848550  0.848267  0.749861  1
  Ir  Ir21  1  0.151733  0.151450  0.750139  1
  Ir  Ir22  1  0.151422  0.848578  0.250000  1
  Ir  Ir23  1  0.650445  0.349555  0.750000  1
  Ir  Ir24  1  0.651289  0.651006  0.249828  1
  Ir  Ir25  1  0.348994  0.348711  0.250172  1
  Ir  Ir26  1  0.349014  0.650986  0.750000  1
  Ru  Ru27  1  0.849014  0.150986  0.250000  1
  Ru  Ru28  1  0.500143  0.000171  0.121977  1
  Ru  Ru29  1  0.499968  0.000007  0.622154  1
  Ru  Ru30  1  0.999993  0.500032  0.877846  1
  Ru  Ru31  1  0.999829  0.499857  0.378023  1
