# generated using pymatgen
data_YbCe2Er13(CdIr)4
_symmetry_space_group_name_H-M   'P 1'
_cell_length_a   9.60533577
_cell_length_b   9.57753323
_cell_length_c   9.64777000
_cell_angle_alpha   59.75710514
_cell_angle_beta   59.85374631
_cell_angle_gamma   59.70456342
_symmetry_Int_Tables_number   1
_chemical_formula_structural   YbCe2Er13(CdIr)4
_chemical_formula_sum   'Yb1 Ce2 Er13 Cd4 Ir4'
_cell_volume   624.33926870
_cell_formula_units_Z   1
loop_
 _symmetry_equiv_pos_site_id
 _symmetry_equiv_pos_as_xyz
  1  'x, y, z'
loop_
 _atom_site_type_symbol
 _atom_site_label
 _atom_site_symmetry_multiplicity
 _atom_site_fract_x
 _atom_site_fract_y
 _atom_site_fract_z
 _atom_site_occupancy
  Yb  Yb0  1  0.603230  0.195201  0.600785  1
  Ce  Ce1  1  0.596590  0.596223  0.599128  1
  Ce  Ce2  1  0.596590  0.596223  0.208058  1
  Er  Er3  1  0.198454  0.603136  0.599205  1
  Er  Er4  1  0.062488  0.437910  0.438985  1
  Er  Er5  1  0.438801  0.061014  0.060944  1
  Er  Er6  1  0.438801  0.061014  0.439240  1
  Er  Er7  1  0.062488  0.437910  0.060616  1
  Er  Er8  1  0.436381  0.436741  0.063439  1
  Er  Er9  1  0.062342  0.060577  0.438541  1
  Er  Er10  1  0.187643  0.813943  0.813442  1
  Er  Er11  1  0.812836  0.189352  0.184637  1
  Er  Er12  1  0.812836  0.189352  0.813175  1
  Er  Er13  1  0.187643  0.813943  0.184972  1
  Er  Er14  1  0.813380  0.814226  0.186197  1
  Er  Er15  1  0.189304  0.190984  0.809856  1
  Cd  Cd16  1  0.831699  0.828463  0.831923  1
  Cd  Cd17  1  0.831699  0.828463  0.507913  1
  Cd  Cd18  1  0.830330  0.504331  0.832669  1
  Cd  Cd19  1  0.504335  0.828473  0.833595  1
  Ir  Ir20  1  0.390508  0.394933  0.389486  1
  Ir  Ir21  1  0.390508  0.394933  0.825072  1
  Ir  Ir22  1  0.394935  0.824306  0.390380  1
  Ir  Ir23  1  0.826175  0.398347  0.387739  1
