# generated using pymatgen
data_TbDy7Ti5Si16Mo7
_symmetry_space_group_name_H-M   'P 1'
_cell_length_a   6.93128433
_cell_length_b   6.93977946
_cell_length_c   12.83721911
_cell_angle_alpha   89.99145755
_cell_angle_beta   90.12513395
_cell_angle_gamma   89.94325153
_symmetry_Int_Tables_number   1
_chemical_formula_structural   TbDy7Ti5Si16Mo7
_chemical_formula_sum   'Tb1 Dy7 Ti5 Si16 Mo7'
_cell_volume   617.48879932
_cell_formula_units_Z   1
loop_
 _symmetry_equiv_pos_site_id
 _symmetry_equiv_pos_as_xyz
  1  'x, y, z'
loop_
 _atom_site_type_symbol
 _atom_site_label
 _atom_site_symmetry_multiplicity
 _atom_site_fract_x
 _atom_site_fract_y
 _atom_site_fract_z
 _atom_site_occupancy
  Tb  Tb0  1  0.997283  0.660364  0.032857  1
  Dy  Dy1  1  0.003325  0.339820  0.530894  1
  Dy  Dy2  1  0.659599  0.997502  0.968699  1
  Dy  Dy3  1  0.160233  0.502699  0.781756  1
  Dy  Dy4  1  0.838900  0.496516  0.281262  1
  Dy  Dy5  1  0.502286  0.159513  0.218546  1
  Dy  Dy6  1  0.496856  0.840782  0.717102  1
  Dy  Dy7  1  0.339923  0.001886  0.468569  1
  Ti  Ti8  1  0.670803  0.669403  0.500000  1
  Ti  Ti9  1  0.832419  0.169808  0.749112  1
  Ti  Ti10  1  0.169815  0.829799  0.249495  1
  Ti  Ti11  1  0.328243  0.328180  0.000406  1
  Ti  Ti12  1  0.659259  0.493716  0.875529  1
  Si  Si13  1  0.041332  0.710966  0.436797  1
  Si  Si14  1  0.957254  0.288418  0.937441  1
  Si  Si15  1  0.711672  0.040846  0.562662  1
  Si  Si16  1  0.211027  0.458261  0.187763  1
  Si  Si17  1  0.789185  0.543312  0.687058  1
  Si  Si18  1  0.457504  0.211061  0.813230  1
  Si  Si19  1  0.540816  0.788730  0.312953  1
  Si  Si20  1  0.288845  0.958656  0.062750  1
  Si  Si21  1  0.798086  0.872565  0.184480  1
  Si  Si22  1  0.299360  0.626950  0.566252  1
  Si  Si23  1  0.699868  0.372411  0.065882  1
  Si  Si24  1  0.628285  0.298910  0.433865  1
  Si  Si25  1  0.371788  0.702743  0.933930  1
  Si  Si26  1  0.128761  0.199399  0.316174  1
  Si  Si27  1  0.200702  0.129821  0.684003  1
  Si  Si28  1  0.871410  0.800652  0.815005  1
  Mo  Mo29  1  0.340857  0.506560  0.376531  1
  Mo  Mo30  1  0.841060  0.992468  0.374472  1
  Mo  Mo31  1  0.008198  0.157963  0.127642  1
  Mo  Mo32  1  0.995397  0.842075  0.624518  1
  Mo  Mo33  1  0.509049  0.339638  0.623448  1
  Mo  Mo34  1  0.159464  0.007189  0.873398  1
  Mo  Mo35  1  0.491135  0.660417  0.125518  1
