# generated using pymatgen
data_Ac6In3Sn7
_symmetry_space_group_name_H-M   'P 1'
_cell_length_a   6.89919716
_cell_length_b   6.89919629
_cell_length_c   10.95782900
_cell_angle_alpha   90.29129703
_cell_angle_beta   90.29129700
_cell_angle_gamma   102.71888180
_symmetry_Int_Tables_number   1
_chemical_formula_structural   Ac6In3Sn7
_chemical_formula_sum   'Ac6 In3 Sn7'
_cell_volume   508.76538465
_cell_formula_units_Z   1
loop_
 _symmetry_equiv_pos_site_id
 _symmetry_equiv_pos_as_xyz
  1  'x, y, z'
loop_
 _atom_site_type_symbol
 _atom_site_label
 _atom_site_symmetry_multiplicity
 _atom_site_fract_x
 _atom_site_fract_y
 _atom_site_fract_z
 _atom_site_occupancy
  Ac  Ac0  1  0.797705  0.204554  0.000488  1
  Ac  Ac1  1  0.204554  0.797705  0.000488  1
  Ac  Ac2  1  0.202855  0.797001  0.498383  1
  Ac  Ac3  1  0.797001  0.202855  0.498383  1
  Ac  Ac4  1  0.638988  0.638988  0.253616  1
  Ac  Ac5  1  0.357155  0.357155  0.748848  1
  In  In6  1  0.312428  0.312428  0.047886  1
  In  In7  1  0.688089  0.688089  0.952464  1
  In  In8  1  0.691150  0.691150  0.552675  1
  Sn  Sn9  1  0.081955  0.488551  0.247910  1
  Sn  Sn10  1  0.916691  0.511528  0.751021  1
  Sn  Sn11  1  0.488551  0.081954  0.247910  1
  Sn  Sn12  1  0.511528  0.916691  0.751021  1
  Sn  Sn13  1  0.031533  0.031533  0.249041  1
  Sn  Sn14  1  0.966493  0.966493  0.750958  1
  Sn  Sn15  1  0.313325  0.313325  0.448906  1
