# generated using pymatgen
data_Cs3Na(GaI4)4
_symmetry_space_group_name_H-M   'P 1'
_cell_length_a   8.25099338
_cell_length_b   9.25115916
_cell_length_c   16.93727692
_cell_angle_alpha   86.57282553
_cell_angle_beta   91.94382602
_cell_angle_gamma   92.94531704
_symmetry_Int_Tables_number   1
_chemical_formula_structural   Cs3Na(GaI4)4
_chemical_formula_sum   'Cs3 Na1 Ga4 I16'
_cell_volume   1288.20947778
_cell_formula_units_Z   1
loop_
 _symmetry_equiv_pos_site_id
 _symmetry_equiv_pos_as_xyz
  1  'x, y, z'
loop_
 _atom_site_type_symbol
 _atom_site_label
 _atom_site_symmetry_multiplicity
 _atom_site_fract_x
 _atom_site_fract_y
 _atom_site_fract_z
 _atom_site_occupancy
  Cs  Cs0  1  0.500101  0.250167  0.637288  1
  Cs  Cs1  1  0.012999  0.738293  0.865563  1
  Cs  Cs2  1  0.481433  0.752143  0.348470  1
  Na  Na3  1  0.045423  0.198008  0.119431  1
  Ga  Ga4  1  0.328933  0.246220  0.357229  1
  Ga  Ga5  1  0.883991  0.768156  0.143154  1
  Ga  Ga6  1  0.643095  0.748882  0.637609  1
  Ga  Ga7  1  0.134814  0.244346  0.866838  1
  I  I8  1  0.861627  0.131643  0.917518  1
  I  I9  1  0.367923  0.838989  0.582181  1
  I  I10  1  0.166099  0.870328  0.092633  1
  I  I11  1  0.613442  0.165809  0.404425  1
  I  I12  1  0.349213  0.379206  0.217356  1
  I  I13  1  0.916482  0.633638  0.279888  1
  I  I14  1  0.591765  0.603158  0.771376  1
  I  I15  1  0.086526  0.395545  0.735514  1
  I  I16  1  0.708110  0.992707  0.153487  1
  I  I17  1  0.125137  0.027471  0.342751  1
  I  I18  1  0.344300  0.051943  0.845391  1
  I  I19  1  0.848758  0.964779  0.661784  1
  I  I20  1  0.224047  0.419931  0.456798  1
  I  I21  1  0.751276  0.588400  0.046164  1
  I  I22  1  0.764090  0.583534  0.538752  1
  I  I23  1  0.250417  0.406703  0.978401  1
