# generated using pymatgen
data_Ho2Mn3FeCo8P7
_symmetry_space_group_name_H-M   'P 1'
_cell_length_a   9.06648265
_cell_length_b   9.07209366
_cell_length_c   3.60053300
_cell_angle_alpha   90.00000000
_cell_angle_beta   90.00000000
_cell_angle_gamma   119.87704054
_symmetry_Int_Tables_number   1
_chemical_formula_structural   Ho2Mn3FeCo8P7
_chemical_formula_sum   'Ho2 Mn3 Fe1 Co8 P7'
_cell_volume   256.79144730
_cell_formula_units_Z   1
loop_
 _symmetry_equiv_pos_site_id
 _symmetry_equiv_pos_as_xyz
  1  'x, y, z'
loop_
 _atom_site_type_symbol
 _atom_site_label
 _atom_site_symmetry_multiplicity
 _atom_site_fract_x
 _atom_site_fract_y
 _atom_site_fract_z
 _atom_site_occupancy
  Ho  Ho0  1  0.666633  0.333607  0.000000  1
  Ho  Ho1  1  0.333468  0.666816  0.500000  1
  Mn  Mn2  1  0.102618  0.221384  0.500000  1
  Mn  Mn3  1  0.777286  0.879748  0.500000  1
  Mn  Mn4  1  0.120250  0.898346  0.500000  1
  Fe  Fe5  1  0.435736  0.385200  0.500000  1
  Co  Co6  1  0.061920  0.430109  0.000000  1
  Co  Co7  1  0.571006  0.632514  0.000000  1
  Co  Co8  1  0.369051  0.938208  0.000000  1
  Co  Co9  1  0.274549  0.156753  0.000000  1
  Co  Co10  1  0.841590  0.117929  0.000000  1
  Co  Co11  1  0.882417  0.723844  0.000000  1
  Co  Co12  1  0.613492  0.051521  0.500000  1
  Co  Co13  1  0.949891  0.562899  0.500000  1
  P  P14  1  0.302853  0.413160  0.000000  1
  P  P15  1  0.587339  0.888838  0.000000  1
  P  P16  1  0.111737  0.698836  0.000000  1
  P  P17  1  0.406114  0.118424  0.500000  1
  P  P18  1  0.883613  0.289612  0.500000  1
  P  P19  1  0.709357  0.592711  0.500000  1
  P  P20  1  0.999079  0.999542  0.000000  1
