# generated using pymatgen
data_Y10In8OsAu3
_symmetry_space_group_name_H-M   'P 1'
_cell_length_a   3.62461300
_cell_length_b   8.28792583
_cell_length_c   18.47503411
_cell_angle_alpha   89.87530648
_cell_angle_beta   90.00000000
_cell_angle_gamma   90.00000000
_symmetry_Int_Tables_number   1
_chemical_formula_structural   Y10In8OsAu3
_chemical_formula_sum   'Y10 In8 Os1 Au3'
_cell_volume   554.99838584
_cell_formula_units_Z   1
loop_
 _symmetry_equiv_pos_site_id
 _symmetry_equiv_pos_as_xyz
  1  'x, y, z'
loop_
 _atom_site_type_symbol
 _atom_site_label
 _atom_site_symmetry_multiplicity
 _atom_site_fract_x
 _atom_site_fract_y
 _atom_site_fract_z
 _atom_site_occupancy
  Y  Y0  1  0.500000  0.258079  0.782505  1
  Y  Y1  1  0.500000  0.764035  0.216286  1
  Y  Y2  1  0.500000  0.262559  0.283260  1
  Y  Y3  1  0.500000  0.722071  0.722074  1
  Y  Y4  1  0.500000  0.121456  0.580683  1
  Y  Y5  1  0.500000  0.878196  0.420539  1
  Y  Y6  1  0.500000  0.377916  0.079491  1
  Y  Y7  1  0.500000  0.615709  0.915096  1
  Y  Y8  1  0.500000  0.003625  0.998035  1
  Y  Y9  1  0.500000  0.502071  0.501381  1
  In  In10  1  0.000000  0.080276  0.146929  1
  In  In11  1  0.000000  0.915762  0.850827  1
  In  In12  1  0.000000  0.424092  0.650939  1
  In  In13  1  0.000000  0.579660  0.352413  1
  In  In14  1  0.000000  0.210807  0.433537  1
  In  In15  1  0.000000  0.791575  0.567799  1
  In  In16  1  0.000000  0.295349  0.930140  1
  In  In17  1  0.000000  0.708933  0.065529  1
  Os  Os18  1  0.000000  0.520084  0.804545  1
  Au  Au19  1  0.000000  0.021989  0.698262  1
  Au  Au20  1  0.000000  0.972163  0.302923  1
  Au  Au21  1  0.000000  0.473593  0.196810  1
