# generated using pymatgen
data_Cs2Ce(SiO3)3
_symmetry_space_group_name_H-M   'P 1'
_cell_length_a   7.50172200
_cell_length_b   7.50172079
_cell_length_c   10.78180200
_cell_angle_alpha   90.00000000
_cell_angle_beta   90.00000000
_cell_angle_gamma   119.99999653
_symmetry_Int_Tables_number   1
_chemical_formula_structural   Cs2Ce(SiO3)3
_chemical_formula_sum   'Cs4 Ce2 Si6 O18'
_cell_volume   525.46508058
_cell_formula_units_Z   2
loop_
 _symmetry_equiv_pos_site_id
 _symmetry_equiv_pos_as_xyz
  1  'x, y, z'
loop_
 _atom_site_type_symbol
 _atom_site_label
 _atom_site_symmetry_multiplicity
 _atom_site_fract_x
 _atom_site_fract_y
 _atom_site_fract_z
 _atom_site_occupancy
  Cs  Cs0  1  0.333333  0.666667  0.436100  1
  Cs  Cs1  1  0.666667  0.333333  0.936100  1
  Cs  Cs2  1  0.666667  0.333333  0.563900  1
  Cs  Cs3  1  0.333333  0.666667  0.063900  1
  Ce  Ce4  1  0.000000  0.000000  0.500000  1
  Ce  Ce5  1  0.000000  0.000000  0.000000  1
  Si  Si6  1  0.602235  0.757997  0.750000  1
  Si  Si7  1  0.844238  0.602235  0.250000  1
  Si  Si8  1  0.757997  0.155762  0.250000  1
  Si  Si9  1  0.242003  0.844238  0.750000  1
  Si  Si10  1  0.155762  0.397765  0.750000  1
  Si  Si11  1  0.397765  0.242003  0.250000  1
  O  O12  1  0.270946  0.205676  0.378084  1
  O  O13  1  0.065270  0.270946  0.878084  1
  O  O14  1  0.205676  0.934730  0.878084  1
  O  O15  1  0.794324  0.065270  0.378084  1
  O  O16  1  0.934730  0.729054  0.378084  1
  O  O17  1  0.729054  0.794324  0.878084  1
  O  O18  1  0.729054  0.794324  0.621916  1
  O  O19  1  0.934730  0.729054  0.121916  1
  O  O20  1  0.794324  0.065270  0.121916  1
  O  O21  1  0.205676  0.934730  0.621916  1
  O  O22  1  0.065270  0.270946  0.621916  1
  O  O23  1  0.270946  0.205676  0.121916  1
  O  O24  1  0.511892  0.099834  0.250000  1
  O  O25  1  0.412057  0.511892  0.750000  1
  O  O26  1  0.099834  0.587943  0.750000  1
  O  O27  1  0.900166  0.412057  0.250000  1
  O  O28  1  0.587943  0.488108  0.250000  1
  O  O29  1  0.488108  0.900166  0.750000  1
