# generated using pymatgen
data_Tb3Si3P3Pd20
_symmetry_space_group_name_H-M   'P 1'
_cell_length_a   8.70208061
_cell_length_b   8.70120019
_cell_length_c   8.70115578
_cell_angle_alpha   60.00686838
_cell_angle_beta   59.99681805
_cell_angle_gamma   59.99631349
_symmetry_Int_Tables_number   1
_chemical_formula_structural   Tb3Si3P3Pd20
_chemical_formula_sum   'Tb3 Si3 P3 Pd20'
_cell_volume   465.86941511
_cell_formula_units_Z   1
loop_
 _symmetry_equiv_pos_site_id
 _symmetry_equiv_pos_as_xyz
  1  'x, y, z'
loop_
 _atom_site_type_symbol
 _atom_site_label
 _atom_site_symmetry_multiplicity
 _atom_site_fract_x
 _atom_site_fract_y
 _atom_site_fract_z
 _atom_site_occupancy
  Tb  Tb0  1  0.249211  0.250789  0.249211  1
  Tb  Tb1  1  0.749211  0.750789  0.749211  1
  Tb  Tb2  1  0.000544  0.999456  0.000544  1
  Si  Si3  1  0.733460  0.266540  0.265117  1
  Si  Si4  1  0.265117  0.734883  0.733460  1
  Si  Si5  1  0.266355  0.733645  0.266355  1
  P  P6  1  0.735664  0.264336  0.735664  1
  P  P7  1  0.263297  0.265628  0.734372  1
  P  P8  1  0.734372  0.736703  0.263297  1
  Pd  Pd9  1  0.383693  0.383270  0.385702  1
  Pd  Pd10  1  0.616410  0.614680  0.614674  1
  Pd  Pd11  1  0.385320  0.383590  0.845764  1
  Pd  Pd12  1  0.385702  0.847336  0.383693  1
  Pd  Pd13  1  0.616730  0.616307  0.152664  1
  Pd  Pd14  1  0.614674  0.154236  0.616410  1
  Pd  Pd15  1  0.845764  0.385326  0.385320  1
  Pd  Pd16  1  0.152664  0.614298  0.616730  1
  Pd  Pd17  1  0.345063  0.000813  0.999187  1
  Pd  Pd18  1  0.655025  0.000647  0.999353  1
  Pd  Pd19  1  0.999353  0.344975  0.655025  1
  Pd  Pd20  1  0.999187  0.654937  0.345063  1
  Pd  Pd21  1  0.002159  0.344199  0.000666  1
  Pd  Pd22  1  0.655801  0.997841  0.347024  1
  Pd  Pd23  1  0.000666  0.652976  0.002159  1
  Pd  Pd24  1  0.347024  0.999334  0.655801  1
  Pd  Pd25  1  0.999889  0.000111  0.345854  1
  Pd  Pd26  1  0.998616  0.001384  0.653174  1
  Pd  Pd27  1  0.653174  0.346826  0.998616  1
  Pd  Pd28  1  0.345854  0.654146  0.999889  1
