# generated using pymatgen
data_Ni8PdS8
_symmetry_space_group_name_H-M   'P 1'
_cell_length_a   7.19945172
_cell_length_b   7.19945182
_cell_length_c   7.19945200
_cell_angle_alpha   59.99999919
_cell_angle_beta   59.99999871
_cell_angle_gamma   60.00000492
_symmetry_Int_Tables_number   1
_chemical_formula_structural   Ni8PdS8
_chemical_formula_sum   'Ni8 Pd1 S8'
_cell_volume   263.86592211
_cell_formula_units_Z   1
loop_
 _symmetry_equiv_pos_site_id
 _symmetry_equiv_pos_as_xyz
  1  'x, y, z'
loop_
 _atom_site_type_symbol
 _atom_site_label
 _atom_site_symmetry_multiplicity
 _atom_site_fract_x
 _atom_site_fract_y
 _atom_site_fract_z
 _atom_site_occupancy
  Ni  Ni0  1  0.872130  0.872130  0.383610  1
  Ni  Ni1  1  0.872130  0.383610  0.872130  1
  Ni  Ni2  1  0.383610  0.872130  0.872130  1
  Ni  Ni3  1  0.872130  0.872130  0.872130  1
  Ni  Ni4  1  0.127811  0.127811  0.616568  1
  Ni  Ni5  1  0.127811  0.616568  0.127811  1
  Ni  Ni6  1  0.616568  0.127811  0.127811  1
  Ni  Ni7  1  0.127811  0.127811  0.127811  1
  Pd  Pd8  1  0.500000  0.500000  0.500000  1
  S  S9  1  0.750566  0.750566  0.249434  1
  S  S10  1  0.249434  0.750566  0.249434  1
  S  S11  1  0.750566  0.249434  0.249434  1
  S  S12  1  0.249434  0.249434  0.750566  1
  S  S13  1  0.750566  0.249434  0.750566  1
  S  S14  1  0.249434  0.750566  0.750566  1
  S  S15  1  0.750000  0.750000  0.750000  1
  S  S16  1  0.250000  0.250000  0.250000  1
