# generated using pymatgen
data_YbLu2(AsPd)3
_symmetry_space_group_name_H-M   'P 1'
_cell_length_a   7.00679000
_cell_length_b   7.04524515
_cell_length_c   3.99026900
_cell_angle_alpha   90.00000000
_cell_angle_beta   90.00000000
_cell_angle_gamma   119.81960413
_symmetry_Int_Tables_number   1
_chemical_formula_structural   YbLu2(AsPd)3
_chemical_formula_sum   'Yb1 Lu2 As3 Pd3'
_cell_volume   170.89706566
_cell_formula_units_Z   1
loop_
 _symmetry_equiv_pos_site_id
 _symmetry_equiv_pos_as_xyz
  1  'x, y, z'
loop_
 _atom_site_type_symbol
 _atom_site_label
 _atom_site_symmetry_multiplicity
 _atom_site_fract_x
 _atom_site_fract_y
 _atom_site_fract_z
 _atom_site_occupancy
  Yb  Yb0  1  0.591446  0.000000  0.500000  1
  Lu  Lu1  1  0.998311  0.592439  0.500000  1
  Lu  Lu2  1  0.405872  0.407561  0.500000  1
  As  As3  1  0.667479  0.339845  0.000000  1
  As  As4  1  0.327633  0.660155  0.000000  1
  As  As5  1  0.008716  0.000000  0.500000  1
  Pd  Pd6  1  0.257761  0.000000  0.000000  1
  Pd  Pd7  1  0.742846  0.742909  0.000000  1
  Pd  Pd8  1  0.999937  0.257091  0.000000  1
