# generated using pymatgen
data_TmMg3(ZnPt)4
_symmetry_space_group_name_H-M   'P 1'
_cell_length_a   4.00723300
_cell_length_b   6.69826543
_cell_length_c   7.98686906
_cell_angle_alpha   91.49822949
_cell_angle_beta   90.00000000
_cell_angle_gamma   90.00000000
_symmetry_Int_Tables_number   1
_chemical_formula_structural   TmMg3(ZnPt)4
_chemical_formula_sum   'Tm1 Mg3 Zn4 Pt4'
_cell_volume   214.30633872
_cell_formula_units_Z   1
loop_
 _symmetry_equiv_pos_site_id
 _symmetry_equiv_pos_as_xyz
  1  'x, y, z'
loop_
 _atom_site_type_symbol
 _atom_site_label
 _atom_site_symmetry_multiplicity
 _atom_site_fract_x
 _atom_site_fract_y
 _atom_site_fract_z
 _atom_site_occupancy
  Tm  Tm0  1  0.250000  0.037282  0.327427  1
  Mg  Mg1  1  0.250000  0.540265  0.165734  1
  Mg  Mg2  1  0.750000  0.464317  0.826617  1
  Mg  Mg3  1  0.750000  0.960367  0.678345  1
  Zn  Zn4  1  0.250000  0.640768  0.560954  1
  Zn  Zn5  1  0.750000  0.362438  0.445315  1
  Zn  Zn6  1  0.750000  0.856709  0.058654  1
  Zn  Zn7  1  0.250000  0.137617  0.936522  1
  Pt  Pt8  1  0.250000  0.754602  0.870036  1
  Pt  Pt9  1  0.750000  0.248840  0.129398  1
  Pt  Pt10  1  0.750000  0.736921  0.366532  1
  Pt  Pt11  1  0.250000  0.259873  0.634465  1
