# generated using pymatgen
data_Pa6Sb8(OsRh)3
_symmetry_space_group_name_H-M   'P 1'
_cell_length_a   8.36457571
_cell_length_b   8.36515691
_cell_length_c   8.35245534
_cell_angle_alpha   109.68066594
_cell_angle_beta   109.25426932
_cell_angle_gamma   109.54013389
_symmetry_Int_Tables_number   1
_chemical_formula_structural   Pa6Sb8(OsRh)3
_chemical_formula_sum   'Pa6 Sb8 Os3 Rh3'
_cell_volume   449.54796124
_cell_formula_units_Z   1
loop_
 _symmetry_equiv_pos_site_id
 _symmetry_equiv_pos_as_xyz
  1  'x, y, z'
loop_
 _atom_site_type_symbol
 _atom_site_label
 _atom_site_symmetry_multiplicity
 _atom_site_fract_x
 _atom_site_fract_y
 _atom_site_fract_z
 _atom_site_occupancy
  Pa  Pa0  1  0.372160  0.246776  0.622137  1
  Pa  Pa1  1  0.124510  0.749959  0.877796  1
  Pa  Pa2  1  0.627174  0.377169  0.250013  1
  Pa  Pa3  1  0.871699  0.121677  0.750037  1
  Pa  Pa4  1  0.249965  0.624757  0.372035  1
  Pa  Pa5  1  0.752755  0.877864  0.127926  1
  Sb  Sb6  1  0.498298  0.000659  0.826430  1
  Sb  Sb7  1  0.823968  0.498924  0.998562  1
  Sb  Sb8  1  0.000422  0.825361  0.501428  1
  Sb  Sb9  1  0.674249  0.671917  0.673553  1
  Sb  Sb10  1  0.325543  0.499448  0.997730  1
  Sb  Sb11  1  0.499794  0.001521  0.325477  1
  Sb  Sb12  1  0.001683  0.327757  0.502266  1
  Sb  Sb13  1  0.176041  0.174333  0.174593  1
  Os  Os14  1  0.875310  0.249988  0.124486  1
  Os  Os15  1  0.625528  0.750934  0.375539  1
  Os  Os16  1  0.125894  0.875868  0.249975  1
  Rh  Rh17  1  0.375408  0.625408  0.749971  1
  Rh  Rh18  1  0.249134  0.124746  0.874302  1
  Rh  Rh19  1  0.750465  0.374935  0.625746  1
