# generated using pymatgen
data_Tb5In2Te
_symmetry_space_group_name_H-M   'P 1'
_cell_length_a   6.57907100
_cell_length_b   9.01931272
_cell_length_c   9.03833034
_cell_angle_alpha   120.05350297
_cell_angle_beta   90.00007758
_cell_angle_gamma   90.00003772
_symmetry_Int_Tables_number   1
_chemical_formula_structural   Tb5In2Te
_chemical_formula_sum   'Tb10 In4 Te2'
_cell_volume   464.21852371
_cell_formula_units_Z   2
loop_
 _symmetry_equiv_pos_site_id
 _symmetry_equiv_pos_as_xyz
  1  'x, y, z'
loop_
 _atom_site_type_symbol
 _atom_site_label
 _atom_site_symmetry_multiplicity
 _atom_site_fract_x
 _atom_site_fract_y
 _atom_site_fract_z
 _atom_site_occupancy
  Tb  Tb0  1  0.497568  0.332197  0.668856  1
  Tb  Tb1  1  0.497462  0.668048  0.336508  1
  Tb  Tb2  1  0.002538  0.668046  0.336507  1
  Tb  Tb3  1  0.002431  0.332195  0.668857  1
  Tb  Tb4  1  0.750001  0.233917  0.992805  1
  Tb  Tb5  1  0.750000  0.766330  0.759157  1
  Tb  Tb6  1  0.750000  0.000033  0.238350  1
  Tb  Tb7  1  0.250000  0.764619  0.002454  1
  Tb  Tb8  1  0.249999  0.234490  0.236772  1
  Tb  Tb9  1  0.249999  0.000004  0.762962  1
  In  In10  1  0.749999  0.000201  0.599171  1
  In  In11  1  0.250001  0.396613  0.002815  1
  In  In12  1  0.250000  0.603229  0.605890  1
  In  In13  1  0.249999  0.999984  0.396363  1
  Te  Te14  1  0.750000  0.609103  0.001311  1
  Te  Te15  1  0.749999  0.390992  0.391222  1
