# generated using pymatgen
data_Th5SnBi2Se
_symmetry_space_group_name_H-M   'P 1'
_cell_length_a   9.55817700
_cell_length_b   9.58072208
_cell_length_c   6.69667100
_cell_angle_alpha   90.00000000
_cell_angle_beta   90.00000000
_cell_angle_gamma   119.92218475
_symmetry_Int_Tables_number   1
_chemical_formula_structural   Th5SnBi2Se
_chemical_formula_sum   'Th10 Sn2 Bi4 Se2'
_cell_volume   531.49956090
_cell_formula_units_Z   2
loop_
 _symmetry_equiv_pos_site_id
 _symmetry_equiv_pos_as_xyz
  1  'x, y, z'
loop_
 _atom_site_type_symbol
 _atom_site_label
 _atom_site_symmetry_multiplicity
 _atom_site_fract_x
 _atom_site_fract_y
 _atom_site_fract_z
 _atom_site_occupancy
  Th  Th0  1  0.999983  0.734530  0.750000  1
  Th  Th1  1  0.265453  0.265470  0.750000  1
  Th  Th2  1  0.331510  0.664653  0.496753  1
  Th  Th3  1  0.666859  0.335347  0.496753  1
  Th  Th4  1  0.736288  0.732580  0.250000  1
  Th  Th5  1  0.736805  0.000000  0.750000  1
  Th  Th6  1  0.003709  0.267420  0.250000  1
  Th  Th7  1  0.262200  0.000000  0.250000  1
  Th  Th8  1  0.331510  0.664653  0.003247  1
  Th  Th9  1  0.666859  0.335347  0.003247  1
  Sn  Sn10  1  0.386894  0.386740  0.250000  1
  Sn  Sn11  1  0.000154  0.613260  0.250000  1
  Bi  Bi12  1  0.612682  0.612672  0.750000  1
  Bi  Bi13  1  0.000010  0.387328  0.750000  1
  Bi  Bi14  1  0.387401  0.000000  0.750000  1
  Bi  Bi15  1  0.612963  0.000000  0.250000  1
  Se  Se16  1  0.999360  0.000000  0.999414  1
  Se  Se17  1  0.999360  0.000000  0.500586  1
