# generated using pymatgen
data_Pr2Ga(AsRh2)6
_symmetry_space_group_name_H-M   'P 1'
_cell_length_a   10.02360100
_cell_length_b   10.02360303
_cell_length_c   4.00530200
_cell_angle_alpha   90.00000000
_cell_angle_beta   90.00000000
_cell_angle_gamma   120.00000981
_symmetry_Int_Tables_number   1
_chemical_formula_structural   Pr2Ga(AsRh2)6
_chemical_formula_sum   'Pr2 Ga1 As6 Rh12'
_cell_volume   348.50858887
_cell_formula_units_Z   1
loop_
 _symmetry_equiv_pos_site_id
 _symmetry_equiv_pos_as_xyz
  1  'x, y, z'
loop_
 _atom_site_type_symbol
 _atom_site_label
 _atom_site_symmetry_multiplicity
 _atom_site_fract_x
 _atom_site_fract_y
 _atom_site_fract_z
 _atom_site_occupancy
  Pr  Pr0  1  0.333333  0.666667  0.750596  1
  Pr  Pr1  1  0.666667  0.333333  0.249404  1
  Ga  Ga2  1  0.000000  0.000000  0.500000  1
  As  As3  1  0.886049  0.599499  0.749637  1
  As  As4  1  0.400501  0.286550  0.749637  1
  As  As5  1  0.713450  0.113951  0.749637  1
  As  As6  1  0.113951  0.400501  0.250363  1
  As  As7  1  0.599499  0.713450  0.250363  1
  As  As8  1  0.286550  0.886049  0.250363  1
  Rh  Rh9  1  0.616739  0.555011  0.750862  1
  Rh  Rh10  1  0.444989  0.061729  0.750862  1
  Rh  Rh11  1  0.938271  0.383261  0.750862  1
  Rh  Rh12  1  0.383261  0.444989  0.249138  1
  Rh  Rh13  1  0.555011  0.938271  0.249138  1
  Rh  Rh14  1  0.061729  0.616739  0.249138  1
  Rh  Rh15  1  0.120942  0.849287  0.750790  1
  Rh  Rh16  1  0.150713  0.271655  0.750790  1
  Rh  Rh17  1  0.728345  0.879058  0.750790  1
  Rh  Rh18  1  0.879058  0.150713  0.249210  1
  Rh  Rh19  1  0.849287  0.728345  0.249210  1
  Rh  Rh20  1  0.271655  0.120942  0.249210  1
