# generated using pymatgen
data_Hf4In2Co3Au
_symmetry_space_group_name_H-M   'P 1'
_cell_length_a   7.37424401
_cell_length_b   7.37424402
_cell_length_c   6.54139900
_cell_angle_alpha   90.00000000
_cell_angle_beta   90.00000000
_cell_angle_gamma   91.78394977
_symmetry_Int_Tables_number   1
_chemical_formula_structural   Hf4In2Co3Au
_chemical_formula_sum   'Hf8 In4 Co6 Au2'
_cell_volume   355.54543300
_cell_formula_units_Z   2
loop_
 _symmetry_equiv_pos_site_id
 _symmetry_equiv_pos_as_xyz
  1  'x, y, z'
loop_
 _atom_site_type_symbol
 _atom_site_label
 _atom_site_symmetry_multiplicity
 _atom_site_fract_x
 _atom_site_fract_y
 _atom_site_fract_z
 _atom_site_occupancy
  Hf  Hf0  1  0.153848  0.192511  0.000000  1
  Hf  Hf1  1  0.807489  0.846152  0.000000  1
  Hf  Hf2  1  0.669504  0.330496  0.500000  1
  Hf  Hf3  1  0.363546  0.636454  0.500000  1
  Hf  Hf4  1  0.669901  0.330099  0.000000  1
  Hf  Hf5  1  0.359581  0.640419  0.000000  1
  Hf  Hf6  1  0.802628  0.843007  0.500000  1
  Hf  Hf7  1  0.156993  0.197372  0.500000  1
  In  In8  1  0.496970  0.006085  0.249773  1
  In  In9  1  0.496970  0.006085  0.750227  1
  In  In10  1  0.993915  0.503030  0.249773  1
  In  In11  1  0.993915  0.503030  0.750227  1
  Co  Co12  1  0.379156  0.366219  0.246112  1
  Co  Co13  1  0.633781  0.620844  0.753888  1
  Co  Co14  1  0.633781  0.620844  0.246112  1
  Co  Co15  1  0.874523  0.125477  0.747734  1
  Co  Co16  1  0.874523  0.125477  0.252266  1
  Co  Co17  1  0.379156  0.366219  0.753888  1
  Au  Au18  1  0.129909  0.870091  0.256404  1
  Au  Au19  1  0.129909  0.870091  0.743596  1
