# generated using pymatgen
data_PrDyBeCoSi4
_symmetry_space_group_name_H-M   'P 1'
_cell_length_a   8.49090003
_cell_length_b   8.49089998
_cell_length_c   3.98490000
_cell_angle_alpha   90.00000000
_cell_angle_beta   90.00000000
_cell_angle_gamma   152.14824930
_symmetry_Int_Tables_number   1
_chemical_formula_structural   PrDyBeCoSi4
_chemical_formula_sum   'Pr1 Dy1 Be1 Co1 Si4'
_cell_volume   134.21905050
_cell_formula_units_Z   1
loop_
 _symmetry_equiv_pos_site_id
 _symmetry_equiv_pos_as_xyz
  1  'x, y, z'
loop_
 _atom_site_type_symbol
 _atom_site_label
 _atom_site_symmetry_multiplicity
 _atom_site_fract_x
 _atom_site_fract_y
 _atom_site_fract_z
 _atom_site_occupancy
  Pr  Pr0  1  0.888142  0.111858  0.750000  1
  Dy  Dy1  1  0.102544  0.897456  0.250000  1
  Be  Be2  1  0.326843  0.673157  0.250000  1
  Co  Co3  1  0.681989  0.318011  0.750000  1
  Si  Si4  1  0.244085  0.755915  0.750000  1
  Si  Si5  1  0.745944  0.254056  0.250000  1
  Si  Si6  1  0.546366  0.453634  0.750000  1
  Si  Si7  1  0.464086  0.535914  0.250000  1
