# generated using pymatgen
data_Nd3Sm3IrCl10
_symmetry_space_group_name_H-M   'P 1'
_cell_length_a   7.37681718
_cell_length_b   9.10633084
_cell_length_c   9.31680600
_cell_angle_alpha   107.71855542
_cell_angle_beta   96.31655892
_cell_angle_gamma   104.58614396
_symmetry_Int_Tables_number   1
_chemical_formula_structural   Nd3Sm3IrCl10
_chemical_formula_sum   'Nd3 Sm3 Ir1 Cl10'
_cell_volume   565.00777834
_cell_formula_units_Z   1
loop_
 _symmetry_equiv_pos_site_id
 _symmetry_equiv_pos_as_xyz
  1  'x, y, z'
loop_
 _atom_site_type_symbol
 _atom_site_label
 _atom_site_symmetry_multiplicity
 _atom_site_fract_x
 _atom_site_fract_y
 _atom_site_fract_z
 _atom_site_occupancy
  Nd  Nd0  1  0.040298  0.698098  0.403940  1
  Nd  Nd1  1  0.959729  0.301374  0.594323  1
  Nd  Nd2  1  0.860592  0.942017  0.752579  1
  Sm  Sm3  1  0.138175  0.057246  0.250674  1
  Sm  Sm4  1  0.365166  0.137651  0.687089  1
  Sm  Sm5  1  0.634838  0.862614  0.313469  1
  Ir  Ir6  1  0.999876  0.999581  0.499805  1
  Cl  Cl7  1  0.455589  0.828025  0.577017  1
  Cl  Cl8  1  0.541423  0.171003  0.421203  1
  Cl  Cl9  1  0.913556  0.630788  0.664309  1
  Cl  Cl10  1  0.087230  0.365224  0.332267  1
  Cl  Cl11  1  0.235545  0.075598  0.943940  1
  Cl  Cl12  1  0.769165  0.926260  0.060959  1
  Cl  Cl13  1  0.334249  0.438643  0.764132  1
  Cl  Cl14  1  0.665157  0.561468  0.235112  1
  Cl  Cl15  1  0.772249  0.241905  0.835313  1
  Cl  Cl16  1  0.227161  0.762507  0.163872  1
