# generated using pymatgen
data_Fe7Si16Pt
_symmetry_space_group_name_H-M   'P 1'
_cell_length_a   6.37837086
_cell_length_b   6.37837073
_cell_length_c   7.91768259
_cell_angle_alpha   89.44659290
_cell_angle_beta   89.44659388
_cell_angle_gamma   104.21447101
_symmetry_Int_Tables_number   1
_chemical_formula_structural   Fe7Si16Pt
_chemical_formula_sum   'Fe7 Si16 Pt1'
_cell_volume   312.21909937
_cell_formula_units_Z   1
loop_
 _symmetry_equiv_pos_site_id
 _symmetry_equiv_pos_as_xyz
  1  'x, y, z'
loop_
 _atom_site_type_symbol
 _atom_site_label
 _atom_site_symmetry_multiplicity
 _atom_site_fract_x
 _atom_site_fract_y
 _atom_site_fract_z
 _atom_site_occupancy
  Fe  Fe0  1  0.301909  0.301909  0.306388  1
  Fe  Fe1  1  0.701146  0.701146  0.691529  1
  Fe  Fe2  1  0.802944  0.802944  0.189639  1
  Fe  Fe3  1  0.276728  0.718432  0.499289  1
  Fe  Fe4  1  0.219871  0.781803  0.000295  1
  Fe  Fe5  1  0.718432  0.276728  0.499289  1
  Fe  Fe6  1  0.781803  0.219871  0.000295  1
  Si  Si7  1  0.416811  0.669802  0.230120  1
  Si  Si8  1  0.077848  0.815725  0.724695  1
  Si  Si9  1  0.164805  0.911625  0.270756  1
  Si  Si10  1  0.341488  0.603309  0.770583  1
  Si  Si11  1  0.603309  0.341488  0.770583  1
  Si  Si12  1  0.911625  0.164805  0.270756  1
  Si  Si13  1  0.815725  0.077848  0.724695  1
  Si  Si14  1  0.669802  0.416811  0.230120  1
  Si  Si15  1  0.141078  0.411049  0.060419  1
  Si  Si16  1  0.359167  0.094265  0.533508  1
  Si  Si17  1  0.895706  0.642737  0.451658  1
  Si  Si18  1  0.601014  0.856556  0.956269  1
  Si  Si19  1  0.856556  0.601014  0.956269  1
  Si  Si20  1  0.642737  0.895706  0.451658  1
  Si  Si21  1  0.094265  0.359167  0.533508  1
  Si  Si22  1  0.411049  0.141078  0.060419  1
  Pt  Pt23  1  0.194180  0.194180  0.817259  1
