# generated using pymatgen
data_Cs2Ta2CuAg3Te8
_symmetry_space_group_name_H-M   'P 1'
_cell_length_a   11.19916628
_cell_length_b   11.19916605
_cell_length_c   8.64349931
_cell_angle_alpha   91.73289841
_cell_angle_beta   88.26710086
_cell_angle_gamma   146.69645550
_symmetry_Int_Tables_number   1
_chemical_formula_structural   Cs2Ta2CuAg3Te8
_chemical_formula_sum   'Cs2 Ta2 Cu1 Ag3 Te8'
_cell_volume   594.94363795
_cell_formula_units_Z   1
loop_
 _symmetry_equiv_pos_site_id
 _symmetry_equiv_pos_as_xyz
  1  'x, y, z'
loop_
 _atom_site_type_symbol
 _atom_site_label
 _atom_site_symmetry_multiplicity
 _atom_site_fract_x
 _atom_site_fract_y
 _atom_site_fract_z
 _atom_site_occupancy
  Cs  Cs0  1  0.452893  0.825246  0.751710  1
  Cs  Cs1  1  0.825246  0.452893  0.248290  1
  Ta  Ta2  1  0.510177  0.301347  0.753533  1
  Ta  Ta3  1  0.301347  0.510177  0.246467  1
  Cu  Cu4  1  0.395695  0.395695  0.000000  1
  Ag  Ag5  1  0.385943  0.385943  0.500000  1
  Ag  Ag6  1  0.015044  0.799454  0.756578  1
  Ag  Ag7  1  0.799454  0.015044  0.243422  1
  Te  Te8  1  0.649208  0.645186  0.761449  1
  Te  Te9  1  0.645186  0.649208  0.238551  1
  Te  Te10  1  0.283600  0.077941  0.011516  1
  Te  Te11  1  0.059264  0.285783  0.501341  1
  Te  Te12  1  0.420558  0.836077  0.246536  1
  Te  Te13  1  0.077941  0.283600  0.988484  1
  Te  Te14  1  0.285783  0.059264  0.498659  1
  Te  Te15  1  0.836077  0.420558  0.753464  1
