# generated using pymatgen
data_Tm4Zn2As4Ir7
_symmetry_space_group_name_H-M   'P 1'
_cell_length_a   7.22951492
_cell_length_b   7.22951549
_cell_length_c   7.23943387
_cell_angle_alpha   108.90547152
_cell_angle_beta   108.90546219
_cell_angle_gamma   110.55434461
_symmetry_Int_Tables_number   1
_chemical_formula_structural   Tm4Zn2As4Ir7
_chemical_formula_sum   'Tm4 Zn2 As4 Ir7'
_cell_volume   291.38672710
_cell_formula_units_Z   1
loop_
 _symmetry_equiv_pos_site_id
 _symmetry_equiv_pos_as_xyz
  1  'x, y, z'
loop_
 _atom_site_type_symbol
 _atom_site_label
 _atom_site_symmetry_multiplicity
 _atom_site_fract_x
 _atom_site_fract_y
 _atom_site_fract_z
 _atom_site_occupancy
  Tm  Tm0  1  0.995674  0.995674  0.486379  1
  Tm  Tm1  1  0.994256  0.494256  0.988511  1
  Tm  Tm2  1  0.494256  0.994256  0.988511  1
  Tm  Tm3  1  0.490706  0.490706  0.486379  1
  Zn  Zn4  1  0.700873  0.994307  0.695181  1
  Zn  Zn5  1  0.994307  0.700873  0.695181  1
  As  As6  1  0.683959  0.683959  0.992399  1
  As  As7  1  0.329613  0.996195  0.325808  1
  As  As8  1  0.996195  0.329613  0.325808  1
  As  As9  1  0.308440  0.308440  0.992399  1
  Ir  Ir10  1  0.749541  0.249541  0.499081  1
  Ir  Ir11  1  0.745394  0.500337  0.245731  1
  Ir  Ir12  1  0.500289  0.247469  0.747758  1
  Ir  Ir13  1  0.247469  0.500289  0.747758  1
  Ir  Ir14  1  0.249541  0.749541  0.499081  1
  Ir  Ir15  1  0.500337  0.745394  0.245731  1
  Ir  Ir16  1  0.019153  0.019153  0.038306  1
