# generated using pymatgen
data_TbNd6ErSb20
_symmetry_space_group_name_H-M   'P 1'
_cell_length_a   4.26305200
_cell_length_b   13.49130450
_cell_length_c   15.12378602
_cell_angle_alpha   77.99617355
_cell_angle_beta   90.00000000
_cell_angle_gamma   90.00000000
_symmetry_Int_Tables_number   1
_chemical_formula_structural   TbNd6ErSb20
_chemical_formula_sum   'Tb1 Nd6 Er1 Sb20'
_cell_volume   850.81145119
_cell_formula_units_Z   1
loop_
 _symmetry_equiv_pos_site_id
 _symmetry_equiv_pos_as_xyz
  1  'x, y, z'
loop_
 _atom_site_type_symbol
 _atom_site_label
 _atom_site_symmetry_multiplicity
 _atom_site_fract_x
 _atom_site_fract_y
 _atom_site_fract_z
 _atom_site_occupancy
  Tb  Tb0  1  0.750000  0.604128  0.227204  1
  Nd  Nd1  1  0.750000  0.335804  0.142574  1
  Nd  Nd2  1  0.250000  0.949858  0.360989  1
  Nd  Nd3  1  0.250000  0.664084  0.857184  1
  Nd  Nd4  1  0.250000  0.667979  0.576576  1
  Nd  Nd5  1  0.750000  0.050224  0.639043  1
  Nd  Nd6  1  0.750000  0.331902  0.423661  1
  Er  Er7  1  0.250000  0.396266  0.772888  1
  Sb  Sb8  1  0.750000  0.850649  0.820479  1
  Sb  Sb9  1  0.250000  0.861725  0.675510  1
  Sb  Sb10  1  0.250000  0.142613  0.477941  1
  Sb  Sb11  1  0.750000  0.284795  0.934418  1
  Sb  Sb12  1  0.250000  0.147111  0.781152  1
  Sb  Sb13  1  0.750000  0.574119  0.441638  1
  Sb  Sb14  1  0.750000  0.138314  0.324502  1
  Sb  Sb15  1  0.250000  0.706755  0.350546  1
  Sb  Sb16  1  0.750000  0.293418  0.649914  1
  Sb  Sb17  1  0.750000  0.853492  0.218913  1
  Sb  Sb18  1  0.250000  0.420756  0.972396  1
  Sb  Sb19  1  0.250000  0.425926  0.558990  1
  Sb  Sb20  1  0.750000  0.571294  0.736660  1
  Sb  Sb21  1  0.250000  0.427379  0.263622  1
  Sb  Sb22  1  0.750000  0.857433  0.522043  1
  Sb  Sb23  1  0.750000  0.030759  0.891587  1
  Sb  Sb24  1  0.250000  0.715325  0.064884  1
  Sb  Sb25  1  0.250000  0.969333  0.108361  1
  Sb  Sb26  1  0.250000  0.149294  0.179514  1
  Sb  Sb27  1  0.750000  0.579263  0.026813  1
