# generated using pymatgen
data_Er12Co5Pb
_symmetry_space_group_name_H-M   'P 1'
_cell_length_a   8.21260900
_cell_length_b   8.21260860
_cell_length_c   8.21260902
_cell_angle_alpha   110.84422423
_cell_angle_beta   110.80222773
_cell_angle_gamma   106.79978679
_symmetry_Int_Tables_number   1
_chemical_formula_structural   Er12Co5Pb
_chemical_formula_sum   'Er12 Co5 Pb1'
_cell_volume   425.71306926
_cell_formula_units_Z   1
loop_
 _symmetry_equiv_pos_site_id
 _symmetry_equiv_pos_as_xyz
  1  'x, y, z'
loop_
 _atom_site_type_symbol
 _atom_site_label
 _atom_site_symmetry_multiplicity
 _atom_site_fract_x
 _atom_site_fract_y
 _atom_site_fract_z
 _atom_site_occupancy
  Er  Er0  1  0.287304  0.184534  0.471837  1
  Er  Er1  1  0.712696  0.815466  0.528163  1
  Er  Er2  1  0.287304  0.815466  0.102770  1
  Er  Er3  1  0.712696  0.184534  0.897230  1
  Er  Er4  1  0.619098  0.313003  0.306096  1
  Er  Er5  1  0.380902  0.686997  0.693904  1
  Er  Er6  1  0.006908  0.313003  0.693904  1
  Er  Er7  1  0.993092  0.686997  0.306096  1
  Er  Er8  1  0.211459  0.405692  0.194233  1
  Er  Er9  1  0.788541  0.594308  0.805767  1
  Er  Er10  1  0.211459  0.017225  0.805767  1
  Er  Er11  1  0.788541  0.982775  0.194233  1
  Co  Co12  1  0.000000  0.376789  0.376789  1
  Co  Co13  1  0.000000  0.623211  0.623211  1
  Co  Co14  1  0.387758  0.887758  0.500000  1
  Co  Co15  1  0.612242  0.112242  0.500000  1
  Co  Co16  1  0.000000  0.000000  0.000000  1
  Pb  Pb17  1  0.500000  0.500000  0.000000  1
