# generated using pymatgen
data_Sc4UFe2Co4Si
_symmetry_space_group_name_H-M   'P 1'
_cell_length_a   5.16224400
_cell_length_b   5.17976193
_cell_length_c   7.55246225
_cell_angle_alpha   90.82858034
_cell_angle_beta   90.00000000
_cell_angle_gamma   119.88818740
_symmetry_Int_Tables_number   1
_chemical_formula_structural   Sc4UFe2Co4Si
_chemical_formula_sum   'Sc4 U1 Fe2 Co4 Si1'
_cell_volume   175.06338472
_cell_formula_units_Z   1
loop_
 _symmetry_equiv_pos_site_id
 _symmetry_equiv_pos_as_xyz
  1  'x, y, z'
loop_
 _atom_site_type_symbol
 _atom_site_label
 _atom_site_symmetry_multiplicity
 _atom_site_fract_x
 _atom_site_fract_y
 _atom_site_fract_z
 _atom_site_occupancy
  Sc  Sc0  1  0.320373  0.667250  0.576277  1
  Sc  Sc1  1  0.653124  0.332750  0.423723  1
  Sc  Sc2  1  0.677894  0.334955  0.045906  1
  Sc  Sc3  1  0.342938  0.665045  0.954094  1
  U  U4  1  0.971670  0.000000  0.500000  1
  Fe  Fe5  1  0.832904  0.163908  0.741620  1
  Fe  Fe6  1  0.668998  0.836092  0.258380  1
  Co  Co7  1  0.175998  0.834476  0.247997  1
  Co  Co8  1  0.832474  0.656560  0.753400  1
  Co  Co9  1  0.175916  0.343440  0.246600  1
  Co  Co10  1  0.341519  0.165524  0.752003  1
  Si  Si11  1  0.006192  0.000000  0.000000  1
