# generated using pymatgen
data_Li8Pr7ThPb8
_symmetry_space_group_name_H-M   'P 1'
_cell_length_a   9.74121014
_cell_length_b   9.74120927
_cell_length_c   7.71276034
_cell_angle_alpha   89.97585164
_cell_angle_beta   90.02414762
_cell_angle_gamma   119.99675500
_symmetry_Int_Tables_number   1
_chemical_formula_structural   Li8Pr7ThPb8
_chemical_formula_sum   'Li8 Pr7 Th1 Pb8'
_cell_volume   633.84110809
_cell_formula_units_Z   1
loop_
 _symmetry_equiv_pos_site_id
 _symmetry_equiv_pos_as_xyz
  1  'x, y, z'
loop_
 _atom_site_type_symbol
 _atom_site_label
 _atom_site_symmetry_multiplicity
 _atom_site_fract_x
 _atom_site_fract_y
 _atom_site_fract_z
 _atom_site_occupancy
  Li  Li0  1  0.832745  0.167255  0.714128  1
  Li  Li1  1  0.834816  0.667142  0.714278  1
  Li  Li2  1  0.332858  0.165184  0.714278  1
  Li  Li3  1  0.166716  0.833284  0.211775  1
  Li  Li4  1  0.166483  0.333849  0.213533  1
  Li  Li5  1  0.666151  0.833517  0.213533  1
  Li  Li6  1  0.667582  0.332418  0.326808  1
  Li  Li7  1  0.333310  0.666690  0.828234  1
  Pr  Pr8  1  0.488006  0.976482  0.504659  1
  Pr  Pr9  1  0.023518  0.511994  0.504659  1
  Pr  Pr10  1  0.512011  0.487989  0.005626  1
  Pr  Pr11  1  0.511626  0.023855  0.005007  1
  Pr  Pr12  1  0.976145  0.488374  0.005007  1
  Pr  Pr13  1  0.999518  0.000482  0.499925  1
  Pr  Pr14  1  0.999446  0.000554  0.999721  1
  Th  Th15  1  0.489223  0.510777  0.505197  1
  Pb  Pb16  1  0.833087  0.166913  0.269615  1
  Pb  Pb17  1  0.831826  0.666016  0.273351  1
  Pb  Pb18  1  0.333984  0.168174  0.273351  1
  Pb  Pb19  1  0.166794  0.833206  0.772785  1
  Pb  Pb20  1  0.168932  0.334834  0.766711  1
  Pb  Pb21  1  0.665166  0.831068  0.766711  1
  Pb  Pb22  1  0.665756  0.334244  0.731895  1
  Pb  Pb23  1  0.334303  0.665697  0.237220  1
