# generated using pymatgen
data_Ta2Ti4Ga2P
_symmetry_space_group_name_H-M   'P 1'
_cell_length_a   6.92394518
_cell_length_b   6.93346886
_cell_length_c   3.49068700
_cell_angle_alpha   90.00000000
_cell_angle_beta   90.00000000
_cell_angle_gamma   120.04549894
_symmetry_Int_Tables_number   1
_chemical_formula_structural   Ta2Ti4Ga2P
_chemical_formula_sum   'Ta2 Ti4 Ga2 P1'
_cell_volume   145.05958613
_cell_formula_units_Z   1
loop_
 _symmetry_equiv_pos_site_id
 _symmetry_equiv_pos_as_xyz
  1  'x, y, z'
loop_
 _atom_site_type_symbol
 _atom_site_label
 _atom_site_symmetry_multiplicity
 _atom_site_fract_x
 _atom_site_fract_y
 _atom_site_fract_z
 _atom_site_occupancy
  Ta  Ta0  1  0.608919  0.998828  0.000000  1
  Ta  Ta1  1  0.391081  0.389909  0.000000  1
  Ti  Ti2  1  0.000000  0.252652  0.500000  1
  Ti  Ti3  1  0.249094  0.998777  0.500000  1
  Ti  Ti4  1  0.750906  0.749683  0.500000  1
  Ti  Ti5  1  0.000000  0.608297  0.000000  1
  Ga  Ga6  1  0.669113  0.334408  0.500000  1
  Ga  Ga7  1  0.330887  0.665296  0.500000  1
  P  P8  1  0.000000  0.002149  0.000000  1
