# generated using pymatgen
data_YbScPa2Bi5
_symmetry_space_group_name_H-M   'P 1'
_cell_length_a   9.50977400
_cell_length_b   9.52111264
_cell_length_c   6.50104900
_cell_angle_alpha   90.00000000
_cell_angle_beta   90.00000000
_cell_angle_gamma   119.96061336
_symmetry_Int_Tables_number   1
_chemical_formula_structural   YbScPa2Bi5
_chemical_formula_sum   'Yb2 Sc2 Pa4 Bi10'
_cell_volume   509.96949521
_cell_formula_units_Z   2
loop_
 _symmetry_equiv_pos_site_id
 _symmetry_equiv_pos_as_xyz
  1  'x, y, z'
loop_
 _atom_site_type_symbol
 _atom_site_label
 _atom_site_symmetry_multiplicity
 _atom_site_fract_x
 _atom_site_fract_y
 _atom_site_fract_z
 _atom_site_occupancy
  Yb  Yb0  1  0.000547  0.618029  0.250000  1
  Yb  Yb1  1  0.382519  0.381971  0.250000  1
  Sc  Sc2  1  0.001953  0.000000  0.005865  1
  Sc  Sc3  1  0.001953  0.000000  0.494135  1
  Pa  Pa4  1  0.386792  0.000000  0.750000  1
  Pa  Pa5  1  0.617091  0.614505  0.750000  1
  Pa  Pa6  1  0.604448  0.000000  0.250000  1
  Pa  Pa7  1  0.002585  0.385495  0.750000  1
  Bi  Bi8  1  0.995977  0.268130  0.250000  1
  Bi  Bi9  1  0.336028  0.667233  0.502101  1
  Bi  Bi10  1  0.668796  0.332767  0.997899  1
  Bi  Bi11  1  0.336028  0.667233  0.997899  1
  Bi  Bi12  1  0.265989  0.265623  0.750000  1
  Bi  Bi13  1  0.733582  0.000000  0.750000  1
  Bi  Bi14  1  0.000366  0.734377  0.750000  1
  Bi  Bi15  1  0.727847  0.731870  0.250000  1
  Bi  Bi16  1  0.268703  0.000000  0.250000  1
  Bi  Bi17  1  0.668796  0.332767  0.502101  1
