# generated using pymatgen
data_SrNdAl20IrOs3
_symmetry_space_group_name_H-M   'P 1'
_cell_length_a   6.90891013
_cell_length_b   6.90729850
_cell_length_c   9.23165804
_cell_angle_alpha   90.14982402
_cell_angle_beta   90.02447209
_cell_angle_gamma   96.52710363
_symmetry_Int_Tables_number   1
_chemical_formula_structural   SrNdAl20IrOs3
_chemical_formula_sum   'Sr1 Nd1 Al20 Ir1 Os3'
_cell_volume   437.69511630
_cell_formula_units_Z   1
loop_
 _symmetry_equiv_pos_site_id
 _symmetry_equiv_pos_as_xyz
  1  'x, y, z'
loop_
 _atom_site_type_symbol
 _atom_site_label
 _atom_site_symmetry_multiplicity
 _atom_site_fract_x
 _atom_site_fract_y
 _atom_site_fract_z
 _atom_site_occupancy
  Sr  Sr0  1  0.875979  0.123009  0.749901  1
  Nd  Nd1  1  0.126248  0.876031  0.249987  1
  Al  Al2  1  0.619674  0.376771  0.545729  1
  Al  Al3  1  0.379813  0.623141  0.446435  1
  Al  Al4  1  0.377677  0.622654  0.051557  1
  Al  Al5  1  0.622442  0.376943  0.955755  1
  Al  Al6  1  0.225478  0.225469  0.497800  1
  Al  Al7  1  0.773006  0.776247  0.499905  1
  Al  Al8  1  0.773638  0.775927  0.000991  1
  Al  Al9  1  0.224506  0.225719  0.001696  1
  Al  Al10  1  0.841556  0.159213  0.101611  1
  Al  Al11  1  0.163204  0.835717  0.898747  1
  Al  Al12  1  0.164778  0.836578  0.603032  1
  Al  Al13  1  0.839355  0.158262  0.396396  1
  Al  Al14  1  0.855974  0.589215  0.751082  1
  Al  Al15  1  0.143068  0.414192  0.249202  1
  Al  Al16  1  0.411265  0.143454  0.750364  1
  Al  Al17  1  0.586572  0.858029  0.249598  1
  Al  Al18  1  0.220824  0.481621  0.752560  1
  Al  Al19  1  0.779824  0.517018  0.247653  1
  Al  Al20  1  0.518293  0.781097  0.749271  1
  Al  Al21  1  0.483307  0.219187  0.250510  1
  Ir  Ir22  1  0.999028  0.501853  0.499119  1
  Os  Os23  1  0.999472  0.502230  0.001069  1
  Os  Os24  1  0.497416  0.000228  0.000991  1
  Os  Os25  1  0.497603  0.000194  0.499038  1
