# generated using pymatgen
data_Rb2Li2SiS4
_symmetry_space_group_name_H-M   'P 1'
_cell_length_a   12.17669296
_cell_length_b   12.17669250
_cell_length_c   5.84121646
_cell_angle_alpha   83.14317095
_cell_angle_beta   83.14317218
_cell_angle_gamma   144.39587376
_symmetry_Int_Tables_number   1
_chemical_formula_structural   Rb2Li2SiS4
_chemical_formula_sum   'Rb4 Li4 Si2 S8'
_cell_volume   464.18581797
_cell_formula_units_Z   2
loop_
 _symmetry_equiv_pos_site_id
 _symmetry_equiv_pos_as_xyz
  1  'x, y, z'
loop_
 _atom_site_type_symbol
 _atom_site_label
 _atom_site_symmetry_multiplicity
 _atom_site_fract_x
 _atom_site_fract_y
 _atom_site_fract_z
 _atom_site_occupancy
  Rb  Rb0  1  0.800285  0.199715  0.750000  1
  Rb  Rb1  1  0.065342  0.934658  0.750000  1
  Rb  Rb2  1  0.199715  0.800285  0.250000  1
  Rb  Rb3  1  0.934658  0.065342  0.250000  1
  Li  Li4  1  0.630384  0.369616  0.250000  1
  Li  Li5  1  0.506170  0.493830  0.250000  1
  Li  Li6  1  0.493830  0.506170  0.750000  1
  Li  Li7  1  0.369616  0.630384  0.750000  1
  Si  Si8  1  0.377124  0.622876  0.250000  1
  Si  Si9  1  0.622876  0.377124  0.750000  1
  S  S10  1  0.512354  0.860052  0.361828  1
  S  S11  1  0.744798  0.611708  0.442058  1
  S  S12  1  0.255202  0.388292  0.557942  1
  S  S13  1  0.487646  0.139948  0.638172  1
  S  S14  1  0.388292  0.255202  0.057942  1
  S  S15  1  0.139948  0.487646  0.138172  1
  S  S16  1  0.860052  0.512354  0.861828  1
  S  S17  1  0.611708  0.744798  0.942058  1
