# generated using pymatgen
data_LiPr2ThAg3Sn4
_symmetry_space_group_name_H-M   'P 1'
_cell_length_a   8.93382276
_cell_length_b   8.91766395
_cell_length_c   8.91766549
_cell_angle_alpha   149.39901005
_cell_angle_beta   130.77518547
_cell_angle_gamma   59.06416487
_symmetry_Int_Tables_number   1
_chemical_formula_structural   LiPr2ThAg3Sn4
_chemical_formula_sum   'Li1 Pr2 Th1 Ag3 Sn4'
_cell_volume   271.74345198
_cell_formula_units_Z   1
loop_
 _symmetry_equiv_pos_site_id
 _symmetry_equiv_pos_as_xyz
  1  'x, y, z'
loop_
 _atom_site_type_symbol
 _atom_site_label
 _atom_site_symmetry_multiplicity
 _atom_site_fract_x
 _atom_site_fract_y
 _atom_site_fract_z
 _atom_site_occupancy
  Li  Li0  1  0.482940  0.670544  0.812398  1
  Pr  Pr1  1  0.498661  0.998410  0.500251  1
  Pr  Pr2  1  0.126986  0.127544  0.999442  1
  Th  Th3  1  0.876175  0.873191  0.002984  1
  Ag  Ag4  1  0.857511  0.671122  0.186389  1
  Ag  Ag5  1  0.134335  0.330867  0.803467  1
  Ag  Ag6  1  0.524532  0.328251  0.196280  1
  Sn  Sn7  1  0.283921  0.782892  0.501029  1
  Sn  Sn8  1  0.710588  0.215052  0.495537  1
  Sn  Sn9  1  0.806327  0.499754  0.306573  1
  Sn  Sn10  1  0.198024  0.502373  0.695651  1
