# generated using pymatgen
data_Nd4OsI4
_symmetry_space_group_name_H-M   'P 1'
_cell_length_a   10.55333711
_cell_length_b   10.55333675
_cell_length_c   6.51996642
_cell_angle_alpha   89.25466496
_cell_angle_beta   89.25466487
_cell_angle_gamma   89.72137096
_symmetry_Int_Tables_number   1
_chemical_formula_structural   Nd4OsI4
_chemical_formula_sum   'Nd8 Os2 I8'
_cell_volume   726.01682795
_cell_formula_units_Z   2
loop_
 _symmetry_equiv_pos_site_id
 _symmetry_equiv_pos_as_xyz
  1  'x, y, z'
loop_
 _atom_site_type_symbol
 _atom_site_label
 _atom_site_symmetry_multiplicity
 _atom_site_fract_x
 _atom_site_fract_y
 _atom_site_fract_z
 _atom_site_occupancy
  Nd  Nd0  1  0.775813  0.086056  0.004066  1
  Nd  Nd1  1  0.086056  0.775813  0.504066  1
  Nd  Nd2  1  0.084467  0.223449  0.992857  1
  Nd  Nd3  1  0.223449  0.084467  0.492857  1
  Nd  Nd4  1  0.915533  0.776551  0.007143  1
  Nd  Nd5  1  0.913944  0.224187  0.495934  1
  Nd  Nd6  1  0.224187  0.913944  0.995934  1
  Nd  Nd7  1  0.776551  0.915533  0.507143  1
  Os  Os8  1  0.999972  0.000028  0.250000  1
  Os  Os9  1  0.000028  0.999972  0.750000  1
  I  I10  1  0.613181  0.174230  0.491843  1
  I  I11  1  0.825653  0.616357  0.504553  1
  I  I12  1  0.383643  0.174347  0.995447  1
  I  I13  1  0.174347  0.383643  0.495447  1
  I  I14  1  0.616357  0.825653  0.004553  1
  I  I15  1  0.386819  0.825770  0.508157  1
  I  I16  1  0.174230  0.613181  0.991843  1
  I  I17  1  0.825770  0.386819  0.008157  1
