# generated using pymatgen
data_Li3(SiIr)2
_symmetry_space_group_name_H-M   'P 1'
_cell_length_a   6.81315348
_cell_length_b   6.81315401
_cell_length_c   6.81315334
_cell_angle_alpha   35.02746307
_cell_angle_beta   35.02747053
_cell_angle_gamma   35.02746131
_symmetry_Int_Tables_number   1
_chemical_formula_structural   Li3(SiIr)2
_chemical_formula_sum   'Li3 Si2 Ir2'
_cell_volume   93.03262644
_cell_formula_units_Z   1
loop_
 _symmetry_equiv_pos_site_id
 _symmetry_equiv_pos_as_xyz
  1  'x, y, z'
loop_
 _atom_site_type_symbol
 _atom_site_label
 _atom_site_symmetry_multiplicity
 _atom_site_fract_x
 _atom_site_fract_y
 _atom_site_fract_z
 _atom_site_occupancy
  Li  Li0  1  0.638872  0.638872  0.638872  1
  Li  Li1  1  0.361128  0.361128  0.361128  1
  Li  Li2  1  0.500000  0.500000  0.500000  1
  Si  Si3  1  0.910808  0.910808  0.910808  1
  Si  Si4  1  0.089192  0.089192  0.089192  1
  Ir  Ir5  1  0.781953  0.781953  0.781953  1
  Ir  Ir6  1  0.218048  0.218048  0.218048  1
