# generated using pymatgen
data_Sc4Fe7Ni(BO5)4
_symmetry_space_group_name_H-M   'P 1'
_cell_length_a   3.16585600
_cell_length_b   9.65477131
_cell_length_c   12.64302513
_cell_angle_alpha   89.43705834
_cell_angle_beta   90.00000000
_cell_angle_gamma   90.00000000
_symmetry_Int_Tables_number   1
_chemical_formula_structural   Sc4Fe7Ni(BO5)4
_chemical_formula_sum   'Sc4 Fe7 Ni1 B4 O20'
_cell_volume   386.42319484
_cell_formula_units_Z   1
loop_
 _symmetry_equiv_pos_site_id
 _symmetry_equiv_pos_as_xyz
  1  'x, y, z'
loop_
 _atom_site_type_symbol
 _atom_site_label
 _atom_site_symmetry_multiplicity
 _atom_site_fract_x
 _atom_site_fract_y
 _atom_site_fract_z
 _atom_site_occupancy
  Sc  Sc0  1  0.000000  0.743440  0.385372  1
  Sc  Sc1  1  0.000000  0.256560  0.614628  1
  Sc  Sc2  1  0.000000  0.243386  0.114520  1
  Sc  Sc3  1  0.000000  0.756614  0.885480  1
  Fe  Fe4  1  0.500000  0.503141  0.221191  1
  Fe  Fe5  1  0.500000  0.496859  0.778809  1
  Fe  Fe6  1  0.500000  0.005742  0.281258  1
  Fe  Fe7  1  0.500000  0.994258  0.718742  1
  Fe  Fe8  1  0.500000  0.500000  0.500000  1
  Fe  Fe9  1  0.500000  0.000000  0.000000  1
  Fe  Fe10  1  0.000000  0.500000  0.000000  1
  Ni  Ni11  1  0.000000  0.000000  0.500000  1
  B  B12  1  0.000000  0.773007  0.139655  1
  B  B13  1  0.000000  0.226993  0.860345  1
  B  B14  1  0.000000  0.273477  0.362837  1
  B  B15  1  0.000000  0.726523  0.637163  1
  O  O16  1  0.000000  0.844159  0.043489  1
  O  O17  1  0.000000  0.155841  0.956511  1
  O  O18  1  0.000000  0.346141  0.456787  1
  O  O19  1  0.000000  0.653859  0.543213  1
  O  O20  1  0.500000  0.611347  0.360685  1
  O  O21  1  0.500000  0.388653  0.639315  1
  O  O22  1  0.500000  0.107231  0.141622  1
  O  O23  1  0.500000  0.892769  0.858378  1
  O  O24  1  0.000000  0.627537  0.142085  1
  O  O25  1  0.000000  0.372463  0.857915  1
  O  O26  1  0.000000  0.129930  0.361782  1
  O  O27  1  0.000000  0.870070  0.638218  1
  O  O28  1  0.500000  0.890405  0.422162  1
  O  O29  1  0.500000  0.109595  0.577838  1
  O  O30  1  0.500000  0.384864  0.078261  1
  O  O31  1  0.500000  0.615136  0.921739  1
  O  O32  1  0.000000  0.845444  0.233863  1
  O  O33  1  0.000000  0.154556  0.766137  1
  O  O34  1  0.000000  0.347392  0.266501  1
  O  O35  1  0.000000  0.652608  0.733499  1
