# generated using pymatgen
data_Mg3Ni6GeB2
_symmetry_space_group_name_H-M   'P 1'
_cell_length_a   5.03112900
_cell_length_b   5.03112966
_cell_length_c   13.31009700
_cell_angle_alpha   90.00000000
_cell_angle_beta   90.00000000
_cell_angle_gamma   120.00000222
_symmetry_Int_Tables_number   1
_chemical_formula_structural   Mg3Ni6GeB2
_chemical_formula_sum   'Mg6 Ni12 Ge2 B4'
_cell_volume   291.77145797
_cell_formula_units_Z   2
loop_
 _symmetry_equiv_pos_site_id
 _symmetry_equiv_pos_as_xyz
  1  'x, y, z'
loop_
 _atom_site_type_symbol
 _atom_site_label
 _atom_site_symmetry_multiplicity
 _atom_site_fract_x
 _atom_site_fract_y
 _atom_site_fract_z
 _atom_site_occupancy
  Mg  Mg0  1  0.666667  0.333333  0.534122  1
  Mg  Mg1  1  0.333333  0.666667  0.465878  1
  Mg  Mg2  1  0.333333  0.666667  0.034122  1
  Mg  Mg3  1  0.666667  0.333333  0.750000  1
  Mg  Mg4  1  0.666667  0.333333  0.965878  1
  Mg  Mg5  1  0.333333  0.666667  0.250000  1
  Ni  Ni6  1  0.166816  0.333632  0.648011  1
  Ni  Ni7  1  0.333632  0.166816  0.351989  1
  Ni  Ni8  1  0.333632  0.166816  0.148011  1
  Ni  Ni9  1  0.166816  0.833184  0.851989  1
  Ni  Ni10  1  0.833184  0.666368  0.351989  1
  Ni  Ni11  1  0.833184  0.166816  0.148011  1
  Ni  Ni12  1  0.666368  0.833184  0.648011  1
  Ni  Ni13  1  0.666368  0.833184  0.851989  1
  Ni  Ni14  1  0.166816  0.833184  0.648011  1
  Ni  Ni15  1  0.833184  0.666368  0.148011  1
  Ni  Ni16  1  0.166816  0.333632  0.851989  1
  Ni  Ni17  1  0.833184  0.166816  0.351989  1
  Ge  Ge18  1  0.000000  0.000000  0.000000  1
  Ge  Ge19  1  0.000000  0.000000  0.500000  1
  B  B20  1  0.666667  0.333333  0.250000  1
  B  B21  1  0.000000  0.000000  0.750000  1
  B  B22  1  0.333333  0.666667  0.750000  1
  B  B23  1  0.000000  0.000000  0.250000  1
