# generated using pymatgen
data_Er2CuPd4Pt
_symmetry_space_group_name_H-M   'P 1'
_cell_length_a   5.82210043
_cell_length_b   5.73680455
_cell_length_c   5.73680475
_cell_angle_alpha   60.98614648
_cell_angle_beta   59.50693851
_cell_angle_gamma   59.50693646
_symmetry_Int_Tables_number   1
_chemical_formula_structural   Er2CuPd4Pt
_chemical_formula_sum   'Er2 Cu1 Pd4 Pt1'
_cell_volume   135.42845358
_cell_formula_units_Z   1
loop_
 _symmetry_equiv_pos_site_id
 _symmetry_equiv_pos_as_xyz
  1  'x, y, z'
loop_
 _atom_site_type_symbol
 _atom_site_label
 _atom_site_symmetry_multiplicity
 _atom_site_fract_x
 _atom_site_fract_y
 _atom_site_fract_z
 _atom_site_occupancy
  Er  Er0  1  0.500000  0.000000  0.000000  1
  Er  Er1  1  0.000000  0.500000  0.500000  1
  Cu  Cu2  1  0.500000  0.500000  0.500000  1
  Pd  Pd3  1  0.000000  0.500000  0.000000  1
  Pd  Pd4  1  0.500000  0.000000  0.500000  1
  Pd  Pd5  1  0.000000  0.000000  0.500000  1
  Pd  Pd6  1  0.500000  0.500000  0.000000  1
  Pt  Pt7  1  0.000000  0.000000  0.000000  1
