# generated using pymatgen
data_Ho2Tm2MnRu7
_symmetry_space_group_name_H-M   'P 1'
_cell_length_a   5.31608681
_cell_length_b   5.32049723
_cell_length_c   8.62186900
_cell_angle_alpha   90.00000315
_cell_angle_beta   89.96929677
_cell_angle_gamma   59.97252022
_symmetry_Int_Tables_number   1
_chemical_formula_structural   Ho2Tm2MnRu7
_chemical_formula_sum   'Ho2 Tm2 Mn1 Ru7'
_cell_volume   211.13290835
_cell_formula_units_Z   1
loop_
 _symmetry_equiv_pos_site_id
 _symmetry_equiv_pos_as_xyz
  1  'x, y, z'
loop_
 _atom_site_type_symbol
 _atom_site_label
 _atom_site_symmetry_multiplicity
 _atom_site_fract_x
 _atom_site_fract_y
 _atom_site_fract_z
 _atom_site_occupancy
  Ho  Ho0  1  0.333383  0.333308  0.565127  1
  Ho  Ho1  1  0.666617  0.666692  0.434873  1
  Tm  Tm2  1  0.666563  0.666719  0.067040  1
  Tm  Tm3  1  0.333437  0.333281  0.932960  1
  Mn  Mn4  1  0.000000  0.000000  0.000000  1
  Ru  Ru5  1  0.000000  0.000000  0.500000  1
  Ru  Ru6  1  0.828768  0.342593  0.755302  1
  Ru  Ru7  1  0.342637  0.828681  0.755286  1
  Ru  Ru8  1  0.828768  0.828639  0.755302  1
  Ru  Ru9  1  0.171232  0.657407  0.244698  1
  Ru  Ru10  1  0.657363  0.171319  0.244714  1
  Ru  Ru11  1  0.171232  0.171361  0.244698  1
