# generated using pymatgen
data_Er3CI3
_symmetry_space_group_name_H-M   'P 1'
_cell_length_a   11.82438848
_cell_length_b   3.87388700
_cell_length_c   8.65619605
_cell_angle_alpha   90.00000000
_cell_angle_beta   92.26786066
_cell_angle_gamma   90.00000000
_symmetry_Int_Tables_number   1
_chemical_formula_structural   Er3CI3
_chemical_formula_sum   'Er6 C2 I6'
_cell_volume   396.19813548
_cell_formula_units_Z   2
loop_
 _symmetry_equiv_pos_site_id
 _symmetry_equiv_pos_as_xyz
  1  'x, y, z'
loop_
 _atom_site_type_symbol
 _atom_site_label
 _atom_site_symmetry_multiplicity
 _atom_site_fract_x
 _atom_site_fract_y
 _atom_site_fract_z
 _atom_site_occupancy
  Er  Er0  1  0.402281  0.750001  0.079771  1
  Er  Er1  1  0.811108  0.750001  0.112629  1
  Er  Er2  1  0.614181  0.250001  0.290381  1
  Er  Er3  1  0.385819  0.750001  0.709620  1
  Er  Er4  1  0.188892  0.250001  0.887372  1
  Er  Er5  1  0.597719  0.250001  0.920229  1
  C  C6  1  0.613115  0.750001  0.117131  1
  C  C7  1  0.386885  0.250001  0.882868  1
  I  I8  1  0.127271  0.750001  0.140240  1
  I  I9  1  0.870393  0.250001  0.374042  1
  I  I10  1  0.367612  0.250001  0.383363  1
  I  I11  1  0.632389  0.750001  0.616637  1
  I  I12  1  0.129607  0.750001  0.625957  1
  I  I13  1  0.872729  0.250001  0.859760  1
