# generated using pymatgen
data_Rb8Sm3YF20
_symmetry_space_group_name_H-M   'P 1'
_cell_length_a   7.00403638
_cell_length_b   7.56372100
_cell_length_c   11.57590796
_cell_angle_alpha   90.00000000
_cell_angle_beta   90.09464232
_cell_angle_gamma   90.00000000
_symmetry_Int_Tables_number   1
_chemical_formula_structural   Rb8Sm3YF20
_chemical_formula_sum   'Rb8 Sm3 Y1 F20'
_cell_volume   613.25114350
_cell_formula_units_Z   1
loop_
 _symmetry_equiv_pos_site_id
 _symmetry_equiv_pos_as_xyz
  1  'x, y, z'
loop_
 _atom_site_type_symbol
 _atom_site_label
 _atom_site_symmetry_multiplicity
 _atom_site_fract_x
 _atom_site_fract_y
 _atom_site_fract_z
 _atom_site_occupancy
  Rb  Rb0  1  0.531499  0.498813  0.828824  1
  Rb  Rb1  1  0.469244  0.502231  0.171138  1
  Rb  Rb2  1  0.031052  0.501967  0.672050  1
  Rb  Rb3  1  0.469244  0.997769  0.171138  1
  Rb  Rb4  1  0.968715  0.498639  0.327983  1
  Rb  Rb5  1  0.531499  0.001187  0.828824  1
  Rb  Rb6  1  0.968715  0.001361  0.327983  1
  Rb  Rb7  1  0.031052  0.998033  0.672050  1
  Sm  Sm8  1  0.561016  0.750000  0.501829  1
  Sm  Sm9  1  0.438849  0.250000  0.498257  1
  Sm  Sm10  1  0.059755  0.250000  0.998407  1
  Y  Y11  1  0.939635  0.750000  0.001159  1
  F  F12  1  0.844831  0.750000  0.817418  1
  F  F13  1  0.156990  0.250000  0.186502  1
  F  F14  1  0.342843  0.250000  0.686324  1
  F  F15  1  0.656719  0.750000  0.313908  1
  F  F16  1  0.371865  0.750000  0.660599  1
  F  F17  1  0.628255  0.250000  0.339269  1
  F  F18  1  0.871798  0.250000  0.839033  1
  F  F19  1  0.123359  0.750000  0.156735  1
  F  F20  1  0.883062  0.750000  0.515060  1
  F  F21  1  0.116959  0.250000  0.485094  1
  F  F22  1  0.381774  0.250000  0.984818  1
  F  F23  1  0.624401  0.750000  0.015160  1
  F  F24  1  0.641837  0.033432  0.574337  1
  F  F25  1  0.358063  0.966490  0.425604  1
  F  F26  1  0.138945  0.962829  0.927247  1
  F  F27  1  0.358063  0.533510  0.425604  1
  F  F28  1  0.859591  0.029926  0.073031  1
  F  F29  1  0.641837  0.466568  0.574337  1
  F  F30  1  0.859591  0.470074  0.073031  1
  F  F31  1  0.138945  0.537171  0.927247  1
