# generated using pymatgen
data_Tb2USn3IrRh2
_symmetry_space_group_name_H-M   'P 1'
_cell_length_a   7.50514704
_cell_length_b   7.63213591
_cell_length_c   3.90154500
_cell_angle_alpha   90.00000000
_cell_angle_beta   90.00000000
_cell_angle_gamma   120.65576981
_symmetry_Int_Tables_number   1
_chemical_formula_structural   Tb2USn3IrRh2
_chemical_formula_sum   'Tb2 U1 Sn3 Ir1 Rh2'
_cell_volume   192.24924869
_cell_formula_units_Z   1
loop_
 _symmetry_equiv_pos_site_id
 _symmetry_equiv_pos_as_xyz
  1  'x, y, z'
loop_
 _atom_site_type_symbol
 _atom_site_label
 _atom_site_symmetry_multiplicity
 _atom_site_fract_x
 _atom_site_fract_y
 _atom_site_fract_z
 _atom_site_occupancy
  Tb  Tb0  1  0.407475  0.409496  0.500000  1
  Tb  Tb1  1  0.590591  0.997359  0.500000  1
  U  U2  1  0.001518  0.584264  0.500000  1
  Sn  Sn3  1  0.731143  0.742342  0.000000  1
  Sn  Sn4  1  0.270612  0.014801  0.000000  1
  Sn  Sn5  1  0.997896  0.241828  0.000000  1
  Ir  Ir6  1  0.300218  0.662993  0.000000  1
  Rh  Rh7  1  0.699914  0.363214  0.000000  1
  Rh  Rh8  1  0.000633  0.983703  0.500000  1
