# generated using pymatgen
data_TaMnWS6
_symmetry_space_group_name_H-M   'P 1'
_cell_length_a   5.52230218
_cell_length_b   5.52221264
_cell_length_c   6.94047172
_cell_angle_alpha   82.45344943
_cell_angle_beta   82.45227356
_cell_angle_gamma   119.99201434
_symmetry_Int_Tables_number   1
_chemical_formula_structural   TaMnWS6
_chemical_formula_sum   'Ta1 Mn1 W1 S6'
_cell_volume   176.87479479
_cell_formula_units_Z   1
loop_
 _symmetry_equiv_pos_site_id
 _symmetry_equiv_pos_as_xyz
  1  'x, y, z'
loop_
 _atom_site_type_symbol
 _atom_site_label
 _atom_site_symmetry_multiplicity
 _atom_site_fract_x
 _atom_site_fract_y
 _atom_site_fract_z
 _atom_site_occupancy
  Ta  Ta0  1  0.499831  0.833014  0.500039  1
  Mn  Mn1  1  0.166691  0.166735  0.500074  1
  W  W2  1  0.832904  0.499827  0.500055  1
  S  S3  1  0.562316  0.248934  0.271919  1
  S  S4  1  0.235062  0.555331  0.271914  1
  S  S5  1  0.928578  0.921618  0.272335  1
  S  S6  1  0.778259  0.771259  0.727929  1
  S  S7  1  0.411846  0.098394  0.727998  1
  S  S8  1  0.084417  0.404791  0.728035  1
