# generated using pymatgen
data_DyLuMgNi9
_symmetry_space_group_name_H-M   'P 1'
_cell_length_a   8.40995559
_cell_length_b   8.40995575
_cell_length_c   8.40995557
_cell_angle_alpha   33.72733728
_cell_angle_beta   33.72733760
_cell_angle_gamma   33.72732998
_symmetry_Int_Tables_number   1
_chemical_formula_structural   DyLuMgNi9
_chemical_formula_sum   'Dy1 Lu1 Mg1 Ni9'
_cell_volume   163.38389544
_cell_formula_units_Z   1
loop_
 _symmetry_equiv_pos_site_id
 _symmetry_equiv_pos_as_xyz
  1  'x, y, z'
loop_
 _atom_site_type_symbol
 _atom_site_label
 _atom_site_symmetry_multiplicity
 _atom_site_fract_x
 _atom_site_fract_y
 _atom_site_fract_z
 _atom_site_occupancy
  Dy  Dy0  1  0.003553  0.003553  0.003553  1
  Lu  Lu1  1  0.856710  0.856710  0.856710  1
  Mg  Mg2  1  0.140531  0.140531  0.140531  1
  Ni  Ni3  1  0.584485  0.082222  0.584485  1
  Ni  Ni4  1  0.082222  0.584485  0.584485  1
  Ni  Ni5  1  0.584485  0.584485  0.082222  1
  Ni  Ni6  1  0.415099  0.918913  0.415099  1
  Ni  Ni7  1  0.918913  0.415099  0.415099  1
  Ni  Ni8  1  0.333008  0.333008  0.333008  1
  Ni  Ni9  1  0.415099  0.415099  0.918913  1
  Ni  Ni10  1  0.499633  0.499633  0.499633  1
  Ni  Ni11  1  0.666261  0.666261  0.666261  1
