# generated using pymatgen
data_Zr10InB2Pb5
_symmetry_space_group_name_H-M   'P 1'
_cell_length_a   8.71374367
_cell_length_b   8.69078530
_cell_length_c   5.88589400
_cell_angle_alpha   90.00000000
_cell_angle_beta   90.00000000
_cell_angle_gamma   119.91287812
_symmetry_Int_Tables_number   1
_chemical_formula_structural   Zr10InB2Pb5
_chemical_formula_sum   'Zr10 In1 B2 Pb5'
_cell_volume   386.35582704
_cell_formula_units_Z   1
loop_
 _symmetry_equiv_pos_site_id
 _symmetry_equiv_pos_as_xyz
  1  'x, y, z'
loop_
 _atom_site_type_symbol
 _atom_site_label
 _atom_site_symmetry_multiplicity
 _atom_site_fract_x
 _atom_site_fract_y
 _atom_site_fract_z
 _atom_site_occupancy
  Zr  Zr0  1  0.668625  0.333671  0.001506  1
  Zr  Zr1  1  0.331375  0.665048  0.001506  1
  Zr  Zr2  1  0.331375  0.665048  0.498494  1
  Zr  Zr3  1  0.668625  0.333671  0.498494  1
  Zr  Zr4  1  0.777419  0.777195  0.750000  1
  Zr  Zr5  1  0.222581  0.999776  0.750000  1
  Zr  Zr6  1  0.000000  0.223408  0.750000  1
  Zr  Zr7  1  0.221597  0.224272  0.250000  1
  Zr  Zr8  1  0.778403  0.002675  0.250000  1
  Zr  Zr9  1  0.000000  0.775800  0.250000  1
  In  In10  1  0.000000  0.398279  0.250000  1
  B  B11  1  0.000000  0.000277  0.000075  1
  B  B12  1  0.000000  0.000277  0.499925  1
  Pb  Pb13  1  0.398387  0.397422  0.750000  1
  Pb  Pb14  1  0.601613  0.999034  0.750000  1
  Pb  Pb15  1  0.000000  0.600640  0.750000  1
  Pb  Pb16  1  0.602288  0.602897  0.250000  1
  Pb  Pb17  1  0.397712  0.000609  0.250000  1
