# generated using pymatgen
data_Sc3W3C5
_symmetry_space_group_name_H-M   'P 1'
_cell_length_a   5.50704681
_cell_length_b   5.46367263
_cell_length_c   5.44758134
_cell_angle_alpha   80.20194120
_cell_angle_beta   82.14276841
_cell_angle_gamma   120.53183790
_symmetry_Int_Tables_number   1
_chemical_formula_structural   Sc3W3C5
_chemical_formula_sum   'Sc3 W3 C5'
_cell_volume   134.23005762
_cell_formula_units_Z   1
loop_
 _symmetry_equiv_pos_site_id
 _symmetry_equiv_pos_as_xyz
  1  'x, y, z'
loop_
 _atom_site_type_symbol
 _atom_site_label
 _atom_site_symmetry_multiplicity
 _atom_site_fract_x
 _atom_site_fract_y
 _atom_site_fract_z
 _atom_site_occupancy
  Sc  Sc0  1  0.754836  0.749896  0.744751  1
  Sc  Sc1  1  0.247489  0.256986  0.251033  1
  Sc  Sc2  1  0.094065  0.424285  0.751983  1
  W  W3  1  0.538468  0.907672  0.264673  1
  W  W4  1  0.902790  0.548693  0.255655  1
  W  W5  1  0.454433  0.100769  0.743065  1
  C  C6  1  0.513608  0.506120  0.489181  1
  C  C7  1  0.665281  0.324205  0.004758  1
  C  C8  1  0.330461  0.682356  0.003619  1
  C  C9  1  0.822370  0.166205  0.497799  1
  C  C10  1  0.176198  0.832814  0.493482  1
