# generated using pymatgen
data_LuHf3(ZrSn)6
_symmetry_space_group_name_H-M   'P 1'
_cell_length_a   8.57883400
_cell_length_b   8.57786244
_cell_length_c   5.81070706
_cell_angle_alpha   89.98542814
_cell_angle_beta   90.00015209
_cell_angle_gamma   120.64891662
_symmetry_Int_Tables_number   1
_chemical_formula_structural   LuHf3(ZrSn)6
_chemical_formula_sum   'Lu1 Hf3 Zr6 Sn6'
_cell_volume   367.86614412
_cell_formula_units_Z   1
loop_
 _symmetry_equiv_pos_site_id
 _symmetry_equiv_pos_as_xyz
  1  'x, y, z'
loop_
 _atom_site_type_symbol
 _atom_site_label
 _atom_site_symmetry_multiplicity
 _atom_site_fract_x
 _atom_site_fract_y
 _atom_site_fract_z
 _atom_site_occupancy
  Lu  Lu0  1  0.764829  0.764751  0.750460  1
  Hf  Hf1  1  0.332787  0.665478  0.000594  1
  Hf  Hf2  1  0.332641  0.665336  0.499394  1
  Hf  Hf3  1  0.665434  0.332613  0.499583  1
  Zr  Zr4  1  0.250612  0.001870  0.750390  1
  Zr  Zr5  1  0.001427  0.250649  0.750598  1
  Zr  Zr6  1  0.240084  0.239762  0.249551  1
  Zr  Zr7  1  0.750654  0.999117  0.249491  1
  Zr  Zr8  1  0.998976  0.750890  0.249491  1
  Zr  Zr9  1  0.665505  0.332675  0.000829  1
  Sn  Sn10  1  0.392758  0.393490  0.748783  1
  Sn  Sn11  1  0.605810  0.000649  0.749026  1
  Sn  Sn12  1  0.002494  0.606772  0.748882  1
  Sn  Sn13  1  0.605014  0.605799  0.250868  1
  Sn  Sn14  1  0.390836  0.998538  0.251066  1
  Sn  Sn15  1  0.000139  0.391614  0.250993  1
