# generated using pymatgen
data_Tb9Dy11Co3Bi8Os
_symmetry_space_group_name_H-M   'P 1'
_cell_length_a   8.00704270
_cell_length_b   8.91480500
_cell_length_c   12.43923279
_cell_angle_alpha   90.00000000
_cell_angle_beta   90.24354896
_cell_angle_gamma   90.00000000
_symmetry_Int_Tables_number   1
_chemical_formula_structural   Tb9Dy11Co3Bi8Os
_chemical_formula_sum   'Tb9 Dy11 Co3 Bi8 Os1'
_cell_volume   887.91964469
_cell_formula_units_Z   1
loop_
 _symmetry_equiv_pos_site_id
 _symmetry_equiv_pos_as_xyz
  1  'x, y, z'
loop_
 _atom_site_type_symbol
 _atom_site_label
 _atom_site_symmetry_multiplicity
 _atom_site_fract_x
 _atom_site_fract_y
 _atom_site_fract_z
 _atom_site_occupancy
  Tb  Tb0  1  0.846327  0.750000  0.800321  1
  Tb  Tb1  1  0.152819  0.250000  0.198083  1
  Tb  Tb2  1  0.347326  0.250000  0.699352  1
  Tb  Tb3  1  0.654906  0.750000  0.294637  1
  Tb  Tb4  1  0.377140  0.750000  0.694036  1
  Tb  Tb5  1  0.620083  0.250000  0.310410  1
  Tb  Tb6  1  0.879985  0.250000  0.811542  1
  Tb  Tb7  1  0.119775  0.750000  0.186963  1
  Tb  Tb8  1  0.050031  0.250000  0.496572  1
  Dy  Dy9  1  0.945642  0.750000  0.504111  1
  Dy  Dy10  1  0.451777  0.250000  0.997085  1
  Dy  Dy11  1  0.547585  0.750000  0.002654  1
  Dy  Dy12  1  0.676504  0.040703  0.564916  1
  Dy  Dy13  1  0.324187  0.964588  0.436319  1
  Dy  Dy14  1  0.175651  0.966413  0.936813  1
  Dy  Dy15  1  0.324187  0.535412  0.436319  1
  Dy  Dy16  1  0.823848  0.035967  0.063046  1
  Dy  Dy17  1  0.676504  0.459297  0.564916  1
  Dy  Dy18  1  0.823848  0.464033  0.063046  1
  Dy  Dy19  1  0.175651  0.533587  0.936813  1
  Co  Co20  1  0.434431  0.250000  0.491122  1
  Co  Co21  1  0.060421  0.250000  0.992002  1
  Co  Co22  1  0.938329  0.750000  0.007258  1
  Bi  Bi23  1  0.570500  0.491967  0.827776  1
  Bi  Bi24  1  0.429187  0.507202  0.172769  1
  Bi  Bi25  1  0.070229  0.507564  0.674386  1
  Bi  Bi26  1  0.429187  0.992798  0.172769  1
  Bi  Bi27  1  0.931549  0.492727  0.325889  1
  Bi  Bi28  1  0.570500  0.008033  0.827776  1
  Bi  Bi29  1  0.931549  0.007273  0.325889  1
  Bi  Bi30  1  0.070229  0.992436  0.674386  1
  Os  Os31  1  0.570116  0.750000  0.510024  1
