# generated using pymatgen
data_Tm12Ni4HgOs
_symmetry_space_group_name_H-M   'P 1'
_cell_length_a   8.16618086
_cell_length_b   8.16502735
_cell_length_c   8.16588600
_cell_angle_alpha   106.89798786
_cell_angle_beta   110.00567951
_cell_angle_gamma   111.54760254
_symmetry_Int_Tables_number   1
_chemical_formula_structural   Tm12Ni4HgOs
_chemical_formula_sum   'Tm12 Ni4 Hg1 Os1'
_cell_volume   418.41081521
_cell_formula_units_Z   1
loop_
 _symmetry_equiv_pos_site_id
 _symmetry_equiv_pos_as_xyz
  1  'x, y, z'
loop_
 _atom_site_type_symbol
 _atom_site_label
 _atom_site_symmetry_multiplicity
 _atom_site_fract_x
 _atom_site_fract_y
 _atom_site_fract_z
 _atom_site_occupancy
  Tm  Tm0  1  0.689922  0.272701  0.962662  1
  Tm  Tm1  1  0.310092  0.727308  0.037385  1
  Tm  Tm2  1  0.689939  0.727267  0.417221  1
  Tm  Tm3  1  0.310082  0.272700  0.582790  1
  Tm  Tm4  1  0.804086  0.127767  0.323752  1
  Tm  Tm5  1  0.804059  0.480284  0.676282  1
  Tm  Tm6  1  0.195939  0.872207  0.676273  1
  Tm  Tm7  1  0.195972  0.519697  0.323744  1
  Tm  Tm8  1  0.598615  0.777234  0.821388  1
  Tm  Tm9  1  0.955885  0.777234  0.178662  1
  Tm  Tm10  1  0.044107  0.222769  0.821328  1
  Tm  Tm11  1  0.401352  0.222743  0.178602  1
  Ni  Ni12  1  0.856294  0.500040  0.356056  1
  Ni  Ni13  1  0.143907  0.499894  0.644005  1
  Ni  Ni14  1  0.999794  0.119128  0.119002  1
  Ni  Ni15  1  0.999941  0.881022  0.880820  1
  Hg  Hg16  1  0.500030  0.999997  0.500031  1
  Os  Os17  1  0.499984  0.500005  0.999996  1
