# generated using pymatgen
data_Dy3Ho7In8(RuPt)2
_symmetry_space_group_name_H-M   'P 1'
_cell_length_a   3.62055700
_cell_length_b   8.06423773
_cell_length_c   18.27633773
_cell_angle_alpha   89.90449060
_cell_angle_beta   90.00000000
_cell_angle_gamma   90.00000000
_symmetry_Int_Tables_number   1
_chemical_formula_structural   Dy3Ho7In8(RuPt)2
_chemical_formula_sum   'Dy3 Ho7 In8 Ru2 Pt2'
_cell_volume   533.61408299
_cell_formula_units_Z   1
loop_
 _symmetry_equiv_pos_site_id
 _symmetry_equiv_pos_as_xyz
  1  'x, y, z'
loop_
 _atom_site_type_symbol
 _atom_site_label
 _atom_site_symmetry_multiplicity
 _atom_site_fract_x
 _atom_site_fract_y
 _atom_site_fract_z
 _atom_site_occupancy
  Dy  Dy0  1  0.000000  0.752142  0.279478  1
  Dy  Dy1  1  0.000000  0.999977  0.999982  1
  Dy  Dy2  1  0.000000  0.500026  0.499985  1
  Ho  Ho3  1  0.000000  0.115898  0.412294  1
  Ho  Ho4  1  0.000000  0.884258  0.587772  1
  Ho  Ho5  1  0.000000  0.381457  0.913291  1
  Ho  Ho6  1  0.000000  0.618414  0.086656  1
  Ho  Ho7  1  0.000000  0.235399  0.222578  1
  Ho  Ho8  1  0.000000  0.764485  0.777426  1
  Ho  Ho9  1  0.000000  0.247819  0.720595  1
  In  In10  1  0.500000  0.424849  0.351500  1
  In  In11  1  0.500000  0.574923  0.648533  1
  In  In12  1  0.500000  0.067295  0.849734  1
  In  In13  1  0.500000  0.932819  0.150155  1
  In  In14  1  0.500000  0.292506  0.066155  1
  In  In15  1  0.500000  0.707477  0.933816  1
  In  In16  1  0.500000  0.206514  0.568780  1
  In  In17  1  0.500000  0.793685  0.431426  1
  Ru  Ru18  1  0.500000  0.021336  0.304058  1
  Ru  Ru19  1  0.500000  0.979515  0.696033  1
  Pt  Pt20  1  0.500000  0.477976  0.803229  1
  Pt  Pt21  1  0.500000  0.521229  0.196524  1
