# generated using pymatgen
data_PmGd(NiP)2
_symmetry_space_group_name_H-M   'P 1'
_cell_length_a   5.78514328
_cell_length_b   5.78514257
_cell_length_c   5.78514300
_cell_angle_alpha   138.90583591
_cell_angle_beta   104.71012602
_cell_angle_gamma   89.56687418
_symmetry_Int_Tables_number   1
_chemical_formula_structural   PmGd(NiP)2
_chemical_formula_sum   'Pm1 Gd1 Ni2 P2'
_cell_volume   117.83554928
_cell_formula_units_Z   1
loop_
 _symmetry_equiv_pos_site_id
 _symmetry_equiv_pos_as_xyz
  1  'x, y, z'
loop_
 _atom_site_type_symbol
 _atom_site_label
 _atom_site_symmetry_multiplicity
 _atom_site_fract_x
 _atom_site_fract_y
 _atom_site_fract_z
 _atom_site_occupancy
  Pm  Pm0  1  0.000197  0.000000  0.000197  1
  Gd  Gd1  1  0.500079  0.500000  0.000079  1
  Ni  Ni2  1  0.915731  0.249728  0.666002  1
  Ni  Ni3  1  0.416273  0.750271  0.666001  1
  P  P4  1  0.584254  0.250395  0.333860  1
  P  P5  1  0.083464  0.749604  0.333860  1
