# generated using pymatgen
data_Eu3TiP3O
_symmetry_space_group_name_H-M   'P 1'
_cell_length_a   5.96920100
_cell_length_b   10.00402700
_cell_length_c   12.05573700
_cell_angle_alpha   90.00000000
_cell_angle_beta   90.00000000
_cell_angle_gamma   90.00000000
_symmetry_Int_Tables_number   1
_chemical_formula_structural   Eu3TiP3O
_chemical_formula_sum   'Eu12 Ti4 P12 O4'
_cell_volume   719.92096903
_cell_formula_units_Z   4
loop_
 _symmetry_equiv_pos_site_id
 _symmetry_equiv_pos_as_xyz
  1  'x, y, z'
loop_
 _atom_site_type_symbol
 _atom_site_label
 _atom_site_symmetry_multiplicity
 _atom_site_fract_x
 _atom_site_fract_y
 _atom_site_fract_z
 _atom_site_occupancy
  Eu  Eu0  1  0.266654  0.750000  0.129051  1
  Eu  Eu1  1  0.751006  0.038004  0.129288  1
  Eu  Eu2  1  0.751006  0.461997  0.129288  1
  Eu  Eu3  1  0.251007  0.038004  0.370713  1
  Eu  Eu4  1  0.251007  0.461997  0.370713  1
  Eu  Eu5  1  0.766653  0.750000  0.370949  1
  Eu  Eu6  1  0.233347  0.250000  0.629051  1
  Eu  Eu7  1  0.748993  0.538004  0.629287  1
  Eu  Eu8  1  0.748993  0.961997  0.629287  1
  Eu  Eu9  1  0.248994  0.538004  0.870712  1
  Eu  Eu10  1  0.248994  0.961997  0.870712  1
  Eu  Eu11  1  0.733346  0.250000  0.870949  1
  Ti  Ti12  1  0.165047  0.250000  0.055461  1
  Ti  Ti13  1  0.665047  0.250000  0.444539  1
  Ti  Ti14  1  0.334953  0.750000  0.555461  1
  Ti  Ti15  1  0.834953  0.750000  0.944539  1
  P  P16  1  0.261322  0.037735  0.124667  1
  P  P17  1  0.261322  0.462265  0.124667  1
  P  P18  1  0.763442  0.750000  0.134975  1
  P  P19  1  0.263443  0.750000  0.365024  1
  P  P20  1  0.761321  0.037735  0.375333  1
  P  P21  1  0.761321  0.462265  0.375333  1
  P  P22  1  0.238678  0.537735  0.624667  1
  P  P23  1  0.238678  0.962265  0.624667  1
  P  P24  1  0.736557  0.250000  0.634976  1
  P  P25  1  0.236558  0.250000  0.865024  1
  P  P26  1  0.738678  0.537735  0.875333  1
  P  P27  1  0.738678  0.962265  0.875333  1
  O  O28  1  0.853988  0.250000  0.061203  1
  O  O29  1  0.353989  0.250000  0.438797  1
  O  O30  1  0.646011  0.750000  0.561203  1
  O  O31  1  0.146012  0.750000  0.938796  1
