# generated using pymatgen
data_La3Hf(Co4P3)2
_symmetry_space_group_name_H-M   'P 1'
_cell_length_a   3.80097400
_cell_length_b   10.87350600
_cell_length_c   12.68396800
_cell_angle_alpha   90.00000000
_cell_angle_beta   90.00000000
_cell_angle_gamma   90.00000000
_symmetry_Int_Tables_number   1
_chemical_formula_structural   La3Hf(Co4P3)2
_chemical_formula_sum   'La6 Hf2 Co16 P12'
_cell_volume   524.22730148
_cell_formula_units_Z   2
loop_
 _symmetry_equiv_pos_site_id
 _symmetry_equiv_pos_as_xyz
  1  'x, y, z'
loop_
 _atom_site_type_symbol
 _atom_site_label
 _atom_site_symmetry_multiplicity
 _atom_site_fract_x
 _atom_site_fract_y
 _atom_site_fract_z
 _atom_site_occupancy
  La  La0  1  0.000000  0.500000  0.530129  1
  La  La1  1  0.500000  0.000000  0.469871  1
  La  La2  1  0.500000  0.822464  0.206643  1
  La  La3  1  0.500000  0.177536  0.206643  1
  La  La4  1  0.000000  0.677536  0.793357  1
  La  La5  1  0.000000  0.322464  0.793357  1
  Hf  Hf6  1  0.500000  0.500000  0.154338  1
  Hf  Hf7  1  0.000000  0.000000  0.845662  1
  Co  Co8  1  0.500000  0.500000  0.706017  1
  Co  Co9  1  0.000000  0.000000  0.293983  1
  Co  Co10  1  0.000000  0.500000  0.988438  1
  Co  Co11  1  0.500000  0.000000  0.011562  1
  Co  Co12  1  0.500000  0.332026  0.994976  1
  Co  Co13  1  0.500000  0.667974  0.994976  1
  Co  Co14  1  0.000000  0.167974  0.005024  1
  Co  Co15  1  0.000000  0.832026  0.005024  1
  Co  Co16  1  0.500000  0.297178  0.433162  1
  Co  Co17  1  0.500000  0.702822  0.433162  1
  Co  Co18  1  0.000000  0.202822  0.566838  1
  Co  Co19  1  0.000000  0.797178  0.566838  1
  Co  Co20  1  0.500000  0.881706  0.703015  1
  Co  Co21  1  0.500000  0.118294  0.703015  1
  Co  Co22  1  0.000000  0.618294  0.296985  1
  Co  Co23  1  0.000000  0.381706  0.296985  1
  P  P24  1  0.500000  0.500000  0.890086  1
  P  P25  1  0.000000  0.000000  0.109914  1
  P  P26  1  0.500000  0.500000  0.355820  1
  P  P27  1  0.000000  0.000000  0.644180  1
  P  P28  1  0.500000  0.300586  0.612089  1
  P  P29  1  0.500000  0.699414  0.612089  1
  P  P30  1  0.000000  0.199414  0.387911  1
  P  P31  1  0.000000  0.800586  0.387911  1
  P  P32  1  0.500000  0.841387  0.897759  1
  P  P33  1  0.500000  0.158613  0.897759  1
  P  P34  1  0.000000  0.658613  0.102241  1
  P  P35  1  0.000000  0.341387  0.102241  1
