# generated using pymatgen
data_Ba4SmU3O14
_symmetry_space_group_name_H-M   'P 1'
_cell_length_a   8.16838219
_cell_length_b   8.16838146
_cell_length_c   8.20455870
_cell_angle_alpha   120.37627527
_cell_angle_beta   118.58352283
_cell_angle_gamma   90.66037298
_symmetry_Int_Tables_number   1
_chemical_formula_structural   Ba4SmU3O14
_chemical_formula_sum   'Ba4 Sm1 U3 O14'
_cell_volume   390.81835076
_cell_formula_units_Z   1
loop_
 _symmetry_equiv_pos_site_id
 _symmetry_equiv_pos_as_xyz
  1  'x, y, z'
loop_
 _atom_site_type_symbol
 _atom_site_label
 _atom_site_symmetry_multiplicity
 _atom_site_fract_x
 _atom_site_fract_y
 _atom_site_fract_z
 _atom_site_occupancy
  Ba  Ba0  1  0.000000  0.000000  0.000000  1
  Ba  Ba1  1  0.500000  0.500000  0.000000  1
  Ba  Ba2  1  0.500000  0.000000  0.000000  1
  Ba  Ba3  1  0.500000  0.500000  0.500000  1
  Sm  Sm4  1  0.000000  0.000000  0.500000  1
  U  U5  1  0.000000  0.500000  0.500000  1
  U  U6  1  0.000000  0.500000  0.000000  1
  U  U7  1  0.500000  0.000000  0.500000  1
  O  O8  1  0.900024  0.733085  0.133109  1
  O  O9  1  0.664768  0.913206  0.359720  1
  O  O10  1  0.624445  0.904721  0.711160  1
  O  O11  1  0.690297  0.315814  0.766680  1
  O  O12  1  0.309703  0.684186  0.233320  1
  O  O13  1  0.335232  0.086794  0.640280  1
  O  O14  1  0.693562  0.413285  0.288840  1
  O  O15  1  0.053486  0.805048  0.640280  1
  O  O16  1  0.049134  0.423617  0.233320  1
  O  O17  1  0.099976  0.266915  0.866891  1
  O  O18  1  0.375555  0.095279  0.288840  1
  O  O19  1  0.946514  0.194952  0.359720  1
  O  O20  1  0.950866  0.576383  0.766680  1
  O  O21  1  0.306438  0.586715  0.711160  1
