# generated using pymatgen
data_Yb3SnBi2Pt3
_symmetry_space_group_name_H-M   'P 1'
_cell_length_a   7.57732600
_cell_length_b   7.67822859
_cell_length_c   4.15436400
_cell_angle_alpha   90.00000000
_cell_angle_beta   90.00000000
_cell_angle_gamma   119.56623020
_symmetry_Int_Tables_number   1
_chemical_formula_structural   Yb3SnBi2Pt3
_chemical_formula_sum   'Yb3 Sn1 Bi2 Pt3'
_cell_volume   210.22962777
_cell_formula_units_Z   1
loop_
 _symmetry_equiv_pos_site_id
 _symmetry_equiv_pos_as_xyz
  1  'x, y, z'
loop_
 _atom_site_type_symbol
 _atom_site_label
 _atom_site_symmetry_multiplicity
 _atom_site_fract_x
 _atom_site_fract_y
 _atom_site_fract_z
 _atom_site_occupancy
  Yb  Yb0  1  0.404110  0.400181  0.000000  1
  Yb  Yb1  1  0.590262  0.000000  0.000000  1
  Yb  Yb2  1  0.003929  0.599819  0.000000  1
  Sn  Sn3  1  0.262199  0.000000  0.500000  1
  Bi  Bi4  1  0.002117  0.264202  0.500000  1
  Bi  Bi5  1  0.737916  0.735798  0.500000  1
  Pt  Pt6  1  0.651292  0.323078  0.500000  1
  Pt  Pt7  1  0.019962  0.000000  0.000000  1
  Pt  Pt8  1  0.328213  0.676922  0.500000  1
