# generated using pymatgen
data_Tb6Fe7Co9(P6W)2
_symmetry_space_group_name_H-M   'P 1'
_cell_length_a   3.73727500
_cell_length_b   10.61229900
_cell_length_c   12.20084700
_cell_angle_alpha   90.00000000
_cell_angle_beta   90.00000000
_cell_angle_gamma   90.00000000
_symmetry_Int_Tables_number   1
_chemical_formula_structural   Tb6Fe7Co9(P6W)2
_chemical_formula_sum   'Tb6 Fe7 Co9 P12 W2'
_cell_volume   483.89876583
_cell_formula_units_Z   1
loop_
 _symmetry_equiv_pos_site_id
 _symmetry_equiv_pos_as_xyz
  1  'x, y, z'
loop_
 _atom_site_type_symbol
 _atom_site_label
 _atom_site_symmetry_multiplicity
 _atom_site_fract_x
 _atom_site_fract_y
 _atom_site_fract_z
 _atom_site_occupancy
  Tb  Tb0  1  0.000000  0.500000  0.524979  1
  Tb  Tb1  1  0.500000  0.000000  0.474757  1
  Tb  Tb2  1  0.500000  0.820395  0.205324  1
  Tb  Tb3  1  0.500000  0.179605  0.205324  1
  Tb  Tb4  1  0.000000  0.678514  0.795299  1
  Tb  Tb5  1  0.000000  0.321486  0.795299  1
  Fe  Fe6  1  0.000000  0.500000  0.987688  1
  Fe  Fe7  1  0.500000  0.330479  0.995701  1
  Fe  Fe8  1  0.500000  0.669521  0.995701  1
  Fe  Fe9  1  0.000000  0.167424  0.004341  1
  Fe  Fe10  1  0.000000  0.832576  0.004341  1
  Fe  Fe11  1  0.500000  0.296503  0.431305  1
  Fe  Fe12  1  0.500000  0.703497  0.431305  1
  Co  Co13  1  0.500000  0.500000  0.700886  1
  Co  Co14  1  0.000000  0.000000  0.298876  1
  Co  Co15  1  0.500000  0.000000  0.012466  1
  Co  Co16  1  0.000000  0.203175  0.570491  1
  Co  Co17  1  0.000000  0.796825  0.570491  1
  Co  Co18  1  0.500000  0.879582  0.707519  1
  Co  Co19  1  0.500000  0.120418  0.707519  1
  Co  Co20  1  0.000000  0.620650  0.291862  1
  Co  Co21  1  0.000000  0.379350  0.291862  1
  P  P22  1  0.500000  0.500000  0.886231  1
  P  P23  1  0.000000  0.000000  0.115275  1
  P  P24  1  0.500000  0.500000  0.350519  1
  P  P25  1  0.000000  0.000000  0.649477  1
  P  P26  1  0.500000  0.308122  0.614464  1
  P  P27  1  0.500000  0.691878  0.614464  1
  P  P28  1  0.000000  0.193363  0.385197  1
  P  P29  1  0.000000  0.806637  0.385197  1
  P  P30  1  0.500000  0.842604  0.893809  1
  P  P31  1  0.500000  0.157396  0.893809  1
  P  P32  1  0.000000  0.656903  0.104845  1
  P  P33  1  0.000000  0.343097  0.104845  1
  W  W34  1  0.500000  0.500000  0.152210  1
  W  W35  1  0.000000  0.000000  0.846316  1
