# generated using pymatgen
data_Ce11Nd(SiOs)8
_symmetry_space_group_name_H-M   'P 1'
_cell_length_a   5.54715800
_cell_length_b   7.89604428
_cell_length_c   13.36635200
_cell_angle_alpha   90.00000000
_cell_angle_beta   90.00000000
_cell_angle_gamma   89.96738309
_symmetry_Int_Tables_number   1
_chemical_formula_structural   Ce11Nd(SiOs)8
_chemical_formula_sum   'Ce11 Nd1 Si8 Os8'
_cell_volume   585.45421196
_cell_formula_units_Z   1
loop_
 _symmetry_equiv_pos_site_id
 _symmetry_equiv_pos_as_xyz
  1  'x, y, z'
loop_
 _atom_site_type_symbol
 _atom_site_label
 _atom_site_symmetry_multiplicity
 _atom_site_fract_x
 _atom_site_fract_y
 _atom_site_fract_z
 _atom_site_occupancy
  Ce  Ce0  1  0.868782  0.750098  0.250000  1
  Ce  Ce1  1  0.131431  0.250174  0.250000  1
  Ce  Ce2  1  0.866226  0.749873  0.750000  1
  Ce  Ce3  1  0.651603  0.400827  0.599165  1
  Ce  Ce4  1  0.347932  0.602075  0.101689  1
  Ce  Ce5  1  0.651945  0.099787  0.399388  1
  Ce  Ce6  1  0.349722  0.896788  0.899947  1
  Ce  Ce7  1  0.347932  0.602075  0.398311  1
  Ce  Ce8  1  0.651603  0.400827  0.900835  1
  Ce  Ce9  1  0.349722  0.896788  0.600053  1
  Ce  Ce10  1  0.651945  0.099787  0.100612  1
  Nd  Nd11  1  0.137408  0.247389  0.750000  1
  Si  Si12  1  0.108696  0.250230  0.500405  1
  Si  Si13  1  0.890818  0.749949  0.000626  1
  Si  Si14  1  0.890818  0.749949  0.499374  1
  Si  Si15  1  0.108696  0.250230  0.999595  1
  Si  Si16  1  0.643342  0.101421  0.750000  1
  Si  Si17  1  0.360048  0.899317  0.250000  1
  Si  Si18  1  0.639398  0.398907  0.250000  1
  Si  Si19  1  0.358664  0.599865  0.750000  1
  Os  Os20  1  0.850220  0.025629  0.589799  1
  Os  Os21  1  0.145721  0.973563  0.091480  1
  Os  Os22  1  0.854795  0.472371  0.408218  1
  Os  Os23  1  0.145900  0.530259  0.910197  1
  Os  Os24  1  0.145721  0.973563  0.408520  1
  Os  Os25  1  0.850220  0.025629  0.910201  1
  Os  Os26  1  0.145900  0.530259  0.589803  1
  Os  Os27  1  0.854795  0.472371  0.091782  1
