# generated using pymatgen
data_Dy2Ga10Tc2Os
_symmetry_space_group_name_H-M   'P 1'
_cell_length_a   9.03789600
_cell_length_b   9.03789600
_cell_length_c   6.35546600
_cell_angle_alpha   90.00000000
_cell_angle_beta   90.00000000
_cell_angle_gamma   90.00000000
_symmetry_Int_Tables_number   1
_chemical_formula_structural   Dy2Ga10Tc2Os
_chemical_formula_sum   'Dy4 Ga20 Tc4 Os2'
_cell_volume   519.13711444
_cell_formula_units_Z   2
loop_
 _symmetry_equiv_pos_site_id
 _symmetry_equiv_pos_as_xyz
  1  'x, y, z'
loop_
 _atom_site_type_symbol
 _atom_site_label
 _atom_site_symmetry_multiplicity
 _atom_site_fract_x
 _atom_site_fract_y
 _atom_site_fract_z
 _atom_site_occupancy
  Dy  Dy0  1  0.682589  0.182589  0.000000  1
  Dy  Dy1  1  0.317411  0.817411  0.000000  1
  Dy  Dy2  1  0.817411  0.682589  0.000000  1
  Dy  Dy3  1  0.182589  0.317411  0.000000  1
  Ga  Ga4  1  0.940167  0.205248  0.292398  1
  Ga  Ga5  1  0.705248  0.440167  0.292398  1
  Ga  Ga6  1  0.500000  0.000000  0.290206  1
  Ga  Ga7  1  0.559833  0.705248  0.707602  1
  Ga  Ga8  1  0.294752  0.559833  0.707602  1
  Ga  Ga9  1  0.794752  0.940167  0.292398  1
  Ga  Ga10  1  0.940167  0.205248  0.707602  1
  Ga  Ga11  1  0.294752  0.559833  0.292398  1
  Ga  Ga12  1  0.059833  0.794752  0.292398  1
  Ga  Ga13  1  0.705248  0.440167  0.707602  1
  Ga  Ga14  1  0.440167  0.294752  0.707602  1
  Ga  Ga15  1  0.059833  0.794752  0.707602  1
  Ga  Ga16  1  0.205248  0.059833  0.707602  1
  Ga  Ga17  1  0.794752  0.940167  0.707602  1
  Ga  Ga18  1  0.205248  0.059833  0.292398  1
  Ga  Ga19  1  0.000000  0.500000  0.709794  1
  Ga  Ga20  1  0.000000  0.500000  0.290206  1
  Ga  Ga21  1  0.559833  0.705248  0.292398  1
  Ga  Ga22  1  0.440167  0.294752  0.292398  1
  Ga  Ga23  1  0.500000  0.000000  0.709794  1
  Tc  Tc24  1  0.679676  0.179676  0.500000  1
  Tc  Tc25  1  0.820324  0.679676  0.500000  1
  Tc  Tc26  1  0.179676  0.320324  0.500000  1
  Tc  Tc27  1  0.320324  0.820324  0.500000  1
  Os  Os28  1  0.000000  0.000000  0.000000  1
  Os  Os29  1  0.500000  0.500000  0.000000  1
