# generated using pymatgen
data_Er12Si12Ru3Au
_symmetry_space_group_name_H-M   'P 1'
_cell_length_a   4.20013600
_cell_length_b   10.67909221
_cell_length_c   12.26735561
_cell_angle_alpha   89.92015353
_cell_angle_beta   90.00000000
_cell_angle_gamma   90.00000000
_symmetry_Int_Tables_number   1
_chemical_formula_structural   Er12Si12Ru3Au
_chemical_formula_sum   'Er12 Si12 Ru3 Au1'
_cell_volume   550.23501345
_cell_formula_units_Z   1
loop_
 _symmetry_equiv_pos_site_id
 _symmetry_equiv_pos_as_xyz
  1  'x, y, z'
loop_
 _atom_site_type_symbol
 _atom_site_label
 _atom_site_symmetry_multiplicity
 _atom_site_fract_x
 _atom_site_fract_y
 _atom_site_fract_z
 _atom_site_occupancy
  Er  Er0  1  0.250000  0.880652  0.021852  1
  Er  Er1  1  0.250000  0.625379  0.516770  1
  Er  Er2  1  0.750000  0.121639  0.981727  1
  Er  Er3  1  0.750000  0.379312  0.477140  1
  Er  Er4  1  0.250000  0.921615  0.602844  1
  Er  Er5  1  0.250000  0.578163  0.104069  1
  Er  Er6  1  0.750000  0.078682  0.394522  1
  Er  Er7  1  0.750000  0.420253  0.895781  1
  Er  Er8  1  0.250000  0.667575  0.802653  1
  Er  Er9  1  0.250000  0.839873  0.299300  1
  Er  Er10  1  0.750000  0.339040  0.201267  1
  Er  Er11  1  0.750000  0.156570  0.701450  1
  Si  Si12  1  0.250000  0.008754  0.821012  1
  Si  Si13  1  0.250000  0.487840  0.322441  1
  Si  Si14  1  0.750000  0.987135  0.178531  1
  Si  Si15  1  0.750000  0.526574  0.674817  1
  Si  Si16  1  0.250000  0.242400  0.849741  1
  Si  Si17  1  0.250000  0.249509  0.340076  1
  Si  Si18  1  0.750000  0.748898  0.159462  1
  Si  Si19  1  0.750000  0.753496  0.659243  1
  Si  Si20  1  0.250000  0.187016  0.537123  1
  Si  Si21  1  0.250000  0.301181  0.046389  1
  Si  Si22  1  0.750000  0.801041  0.455133  1
  Si  Si23  1  0.750000  0.701823  0.958601  1
  Ru  Ru24  1  0.250000  0.108778  0.179465  1
  Ru  Ru25  1  0.750000  0.608253  0.319838  1
  Ru  Ru26  1  0.750000  0.890479  0.820248  1
  Au  Au27  1  0.250000  0.388073  0.678505  1
