# generated using pymatgen
data_Er16In6FeRu
_symmetry_space_group_name_H-M   'P 1'
_cell_length_a   10.29138100
_cell_length_b   10.29138042
_cell_length_c   6.99683500
_cell_angle_alpha   90.00000000
_cell_angle_beta   90.00000000
_cell_angle_gamma   119.99999866
_symmetry_Int_Tables_number   1
_chemical_formula_structural   Er16In6FeRu
_chemical_formula_sum   'Er16 In6 Fe1 Ru1'
_cell_volume   641.77021691
_cell_formula_units_Z   1
loop_
 _symmetry_equiv_pos_site_id
 _symmetry_equiv_pos_as_xyz
  1  'x, y, z'
loop_
 _atom_site_type_symbol
 _atom_site_label
 _atom_site_symmetry_multiplicity
 _atom_site_fract_x
 _atom_site_fract_y
 _atom_site_fract_z
 _atom_site_occupancy
  Er  Er0  1  0.535176  0.070352  0.792629  1
  Er  Er1  1  0.929648  0.464824  0.792629  1
  Er  Er2  1  0.535176  0.464824  0.792629  1
  Er  Er3  1  0.467462  0.934925  0.294403  1
  Er  Er4  1  0.065075  0.532538  0.294403  1
  Er  Er5  1  0.467462  0.532538  0.294403  1
  Er  Er6  1  0.821041  0.642081  0.499227  1
  Er  Er7  1  0.357919  0.178959  0.499227  1
  Er  Er8  1  0.821041  0.178959  0.499227  1
  Er  Er9  1  0.177266  0.354532  0.997028  1
  Er  Er10  1  0.645468  0.822734  0.997028  1
  Er  Er11  1  0.177266  0.822734  0.997028  1
  Er  Er12  1  0.666667  0.333333  0.179457  1
  Er  Er13  1  0.333333  0.666667  0.672091  1
  Er  Er14  1  0.000000  0.000000  0.778658  1
  Er  Er15  1  0.000000  0.000000  0.278277  1
  In  In16  1  0.837034  0.674069  0.040158  1
  In  In17  1  0.325931  0.162966  0.040158  1
  In  In18  1  0.837034  0.162966  0.040158  1
  In  In19  1  0.162798  0.325596  0.539429  1
  In  In20  1  0.674404  0.837202  0.539429  1
  In  In21  1  0.162798  0.837202  0.539429  1
  Fe  Fe22  1  0.666667  0.333333  0.568249  1
  Ru  Ru23  1  0.333333  0.666667  0.070553  1
