# generated using pymatgen
data_Sr5Yb(YSn2)4
_symmetry_space_group_name_H-M   'P 1'
_cell_length_a   8.09735500
_cell_length_b   8.68017900
_cell_length_c   16.55559200
_cell_angle_alpha   90.00000000
_cell_angle_beta   90.00000000
_cell_angle_gamma   90.00000000
_symmetry_Int_Tables_number   1
_chemical_formula_structural   Sr5Yb(YSn2)4
_chemical_formula_sum   'Sr10 Yb2 Y8 Sn16'
_cell_volume   1163.63446524
_cell_formula_units_Z   2
loop_
 _symmetry_equiv_pos_site_id
 _symmetry_equiv_pos_as_xyz
  1  'x, y, z'
loop_
 _atom_site_type_symbol
 _atom_site_label
 _atom_site_symmetry_multiplicity
 _atom_site_fract_x
 _atom_site_fract_y
 _atom_site_fract_z
 _atom_site_occupancy
  Sr  Sr0  1  0.505023  0.680934  0.590941  1
  Sr  Sr1  1  0.005023  0.819066  0.909059  1
  Sr  Sr2  1  0.494698  0.318379  0.095379  1
  Sr  Sr3  1  0.994698  0.181621  0.404621  1
  Sr  Sr4  1  0.494698  0.318379  0.404621  1
  Sr  Sr5  1  0.994698  0.181621  0.095379  1
  Sr  Sr6  1  0.505023  0.680934  0.909059  1
  Sr  Sr7  1  0.005023  0.819066  0.590941  1
  Sr  Sr8  1  0.830101  0.516802  0.750000  1
  Sr  Sr9  1  0.330101  0.983198  0.750000  1
  Yb  Yb10  1  0.165644  0.492011  0.250000  1
  Yb  Yb11  1  0.665644  0.007989  0.250000  1
  Y  Y12  1  0.673028  0.169320  0.620838  1
  Y  Y13  1  0.173028  0.330680  0.879162  1
  Y  Y14  1  0.327501  0.831303  0.123516  1
  Y  Y15  1  0.827501  0.668697  0.376484  1
  Y  Y16  1  0.327501  0.831303  0.376484  1
  Y  Y17  1  0.827501  0.668697  0.123516  1
  Y  Y18  1  0.673028  0.169320  0.879162  1
  Y  Y19  1  0.173028  0.330680  0.620838  1
  Sn  Sn20  1  0.663802  0.959557  0.458278  1
  Sn  Sn21  1  0.163802  0.540443  0.041722  1
  Sn  Sn22  1  0.337078  0.041087  0.962773  1
  Sn  Sn23  1  0.837078  0.458913  0.537227  1
  Sn  Sn24  1  0.337078  0.041087  0.537227  1
  Sn  Sn25  1  0.837078  0.458913  0.962773  1
  Sn  Sn26  1  0.663802  0.959557  0.041722  1
  Sn  Sn27  1  0.163802  0.540443  0.458278  1
  Sn  Sn28  1  0.464141  0.361870  0.750000  1
  Sn  Sn29  1  0.964141  0.138130  0.750000  1
  Sn  Sn30  1  0.531624  0.629977  0.250000  1
  Sn  Sn31  1  0.031624  0.870023  0.250000  1
  Sn  Sn32  1  0.721847  0.889547  0.750000  1
  Sn  Sn33  1  0.221847  0.610453  0.750000  1
  Sn  Sn34  1  0.284383  0.116227  0.250000  1
  Sn  Sn35  1  0.784383  0.383773  0.250000  1
