# generated using pymatgen
data_Ti2Nb2AlGaC2
_symmetry_space_group_name_H-M   'P 1'
_cell_length_a   3.09562100
_cell_length_b   3.09562225
_cell_length_c   13.71138000
_cell_angle_alpha   90.00000000
_cell_angle_beta   90.00000000
_cell_angle_gamma   120.00001874
_symmetry_Int_Tables_number   1
_chemical_formula_structural   Ti2Nb2AlGaC2
_chemical_formula_sum   'Ti2 Nb2 Al1 Ga1 C2'
_cell_volume   113.79088105
_cell_formula_units_Z   1
loop_
 _symmetry_equiv_pos_site_id
 _symmetry_equiv_pos_as_xyz
  1  'x, y, z'
loop_
 _atom_site_type_symbol
 _atom_site_label
 _atom_site_symmetry_multiplicity
 _atom_site_fract_x
 _atom_site_fract_y
 _atom_site_fract_z
 _atom_site_occupancy
  Ti  Ti0  1  0.666667  0.333333  0.914512  1
  Ti  Ti1  1  0.333333  0.666667  0.411289  1
  Nb  Nb2  1  0.333333  0.666667  0.090727  1
  Nb  Nb3  1  0.666667  0.333333  0.587603  1
  Al  Al4  1  0.333333  0.666667  0.751953  1
  Ga  Ga5  1  0.666667  0.333333  0.252947  1
  C  C6  1  0.000000  0.000000  0.493671  1
  C  C7  1  0.000000  0.000000  0.997298  1
