# generated using pymatgen
data_Tb4Ho6InBi5
_symmetry_space_group_name_H-M   'P 1'
_cell_length_a   9.12705447
_cell_length_b   9.15480159
_cell_length_c   6.45849900
_cell_angle_alpha   90.00000000
_cell_angle_beta   90.00000000
_cell_angle_gamma   120.10061285
_symmetry_Int_Tables_number   1
_chemical_formula_structural   Tb4Ho6InBi5
_chemical_formula_sum   'Tb4 Ho6 In1 Bi5'
_cell_volume   466.87498794
_cell_formula_units_Z   1
loop_
 _symmetry_equiv_pos_site_id
 _symmetry_equiv_pos_as_xyz
  1  'x, y, z'
loop_
 _atom_site_type_symbol
 _atom_site_label
 _atom_site_symmetry_multiplicity
 _atom_site_fract_x
 _atom_site_fract_y
 _atom_site_fract_z
 _atom_site_occupancy
  Tb  Tb0  1  0.758819  0.757033  0.750000  1
  Tb  Tb1  1  0.241181  0.998214  0.750000  1
  Tb  Tb2  1  0.236137  0.244200  0.250000  1
  Tb  Tb3  1  0.763863  0.008063  0.250000  1
  Ho  Ho4  1  0.671704  0.334011  0.999909  1
  Ho  Ho5  1  0.328296  0.662308  0.999909  1
  Ho  Ho6  1  0.328296  0.662308  0.500091  1
  Ho  Ho7  1  0.671704  0.334011  0.500091  1
  Ho  Ho8  1  0.000000  0.242218  0.750000  1
  Ho  Ho9  1  0.000000  0.754521  0.250000  1
  In  In10  1  0.000000  0.396156  0.250000  1
  Bi  Bi11  1  0.391128  0.389463  0.750000  1
  Bi  Bi12  1  0.608872  0.998334  0.750000  1
  Bi  Bi13  1  0.000000  0.607490  0.750000  1
  Bi  Bi14  1  0.610651  0.611161  0.250000  1
  Bi  Bi15  1  0.389349  0.000509  0.250000  1
