# generated using pymatgen
data_Tb3Nd2P12Pd3Ru16
_symmetry_space_group_name_H-M   'P 1'
_cell_length_a   3.99371200
_cell_length_b   12.65101234
_cell_length_c   12.65032701
_cell_angle_alpha   119.99748684
_cell_angle_beta   90.00000000
_cell_angle_gamma   90.00000000
_symmetry_Int_Tables_number   1
_chemical_formula_structural   Tb3Nd2P12Pd3Ru16
_chemical_formula_sum   'Tb3 Nd2 P12 Pd3 Ru16'
_cell_volume   553.53540461
_cell_formula_units_Z   1
loop_
 _symmetry_equiv_pos_site_id
 _symmetry_equiv_pos_as_xyz
  1  'x, y, z'
loop_
 _atom_site_type_symbol
 _atom_site_label
 _atom_site_symmetry_multiplicity
 _atom_site_fract_x
 _atom_site_fract_y
 _atom_site_fract_z
 _atom_site_occupancy
  Tb  Tb0  1  0.500000  0.817427  0.817445  1
  Tb  Tb1  1  0.000000  0.333637  0.667157  1
  Tb  Tb2  1  0.000000  0.667189  0.333674  1
  Nd  Nd3  1  0.500000  0.999570  0.182290  1
  Nd  Nd4  1  0.500000  0.182297  0.999581  1
  P  P5  1  0.000000  0.998187  0.811408  1
  P  P6  1  0.000000  0.811374  0.998159  1
  P  P7  1  0.000000  0.188539  0.188518  1
  P  P8  1  0.500000  0.300584  0.481288  1
  P  P9  1  0.500000  0.180020  0.699884  1
  P  P10  1  0.500000  0.519207  0.819474  1
  P  P11  1  0.500000  0.819483  0.519237  1
  P  P12  1  0.500000  0.481316  0.300608  1
  P  P13  1  0.500000  0.699889  0.180029  1
  P  P14  1  0.000000  0.999883  0.367917  1
  P  P15  1  0.000000  0.367921  0.999886  1
  P  P16  1  0.000000  0.633744  0.633747  1
  Pd  Pd17  1  0.000000  0.999307  0.553247  1
  Pd  Pd18  1  0.000000  0.553232  0.999303  1
  Pd  Pd19  1  0.000000  0.447555  0.447553  1
  Ru  Ru20  1  0.500000  0.998778  0.709357  1
  Ru  Ru21  1  0.500000  0.709331  0.998765  1
  Ru  Ru22  1  0.500000  0.291278  0.291264  1
  Ru  Ru23  1  0.000000  0.195575  0.381547  1
  Ru  Ru24  1  0.000000  0.185133  0.804333  1
  Ru  Ru25  1  0.000000  0.620393  0.813701  1
  Ru  Ru26  1  0.000000  0.813718  0.620432  1
  Ru  Ru27  1  0.000000  0.381574  0.195581  1
  Ru  Ru28  1  0.000000  0.804324  0.185128  1
  Ru  Ru29  1  0.500000  0.124159  0.494043  1
  Ru  Ru30  1  0.500000  0.369340  0.875878  1
  Ru  Ru31  1  0.500000  0.506805  0.630941  1
  Ru  Ru32  1  0.500000  0.630956  0.506849  1
  Ru  Ru33  1  0.500000  0.494070  0.124182  1
  Ru  Ru34  1  0.500000  0.875873  0.369353  1
  Ru  Ru35  1  0.000000  0.998229  0.998240  1
