# generated using pymatgen
data_LiTaIrRh
_symmetry_space_group_name_H-M   'P 1'
_cell_length_a   4.35285661
_cell_length_b   4.35285638
_cell_length_c   4.35285600
_cell_angle_alpha   59.99998770
_cell_angle_beta   59.99998942
_cell_angle_gamma   59.99999562
_symmetry_Int_Tables_number   1
_chemical_formula_structural   LiTaIrRh
_chemical_formula_sum   'Li1 Ta1 Ir1 Rh1'
_cell_volume   58.31871043
_cell_formula_units_Z   1
loop_
 _symmetry_equiv_pos_site_id
 _symmetry_equiv_pos_as_xyz
  1  'x, y, z'
loop_
 _atom_site_type_symbol
 _atom_site_label
 _atom_site_symmetry_multiplicity
 _atom_site_fract_x
 _atom_site_fract_y
 _atom_site_fract_z
 _atom_site_occupancy
  Li  Li0  1  0.500000  0.500000  0.500000  1
  Ta  Ta1  1  0.000000  0.000000  0.000000  1
  Ir  Ir2  1  0.250000  0.250000  0.250000  1
  Rh  Rh3  1  0.750000  0.750000  0.750000  1
