# generated using pymatgen
data_La5Sc3(Ni4P3)4
_symmetry_space_group_name_H-M   'P 1'
_cell_length_a   12.50279500
_cell_length_b   12.50279567
_cell_length_c   3.91473400
_cell_angle_alpha   90.00000000
_cell_angle_beta   90.00000000
_cell_angle_gamma   120.00000616
_symmetry_Int_Tables_number   1
_chemical_formula_structural   La5Sc3(Ni4P3)4
_chemical_formula_sum   'La5 Sc3 Ni16 P12'
_cell_volume   529.96489981
_cell_formula_units_Z   1
loop_
 _symmetry_equiv_pos_site_id
 _symmetry_equiv_pos_as_xyz
  1  'x, y, z'
loop_
 _atom_site_type_symbol
 _atom_site_label
 _atom_site_symmetry_multiplicity
 _atom_site_fract_x
 _atom_site_fract_y
 _atom_site_fract_z
 _atom_site_occupancy
  La  La0  1  0.189023  0.189023  0.500000  1
  La  La1  1  0.810977  0.000000  0.500000  1
  La  La2  1  0.000000  0.810977  0.500000  1
  La  La3  1  0.333333  0.666667  0.000000  1
  La  La4  1  0.666667  0.333333  0.000000  1
  Sc  Sc5  1  0.571333  0.571333  0.000000  1
  Sc  Sc6  1  0.428667  0.000000  0.000000  1
  Sc  Sc7  1  0.000000  0.428667  0.000000  1
  Ni  Ni8  1  0.723707  0.723707  0.500000  1
  Ni  Ni9  1  0.276293  0.000000  0.500000  1
  Ni  Ni10  1  0.000000  0.276293  0.500000  1
  Ni  Ni11  1  0.190505  0.381810  0.000000  1
  Ni  Ni12  1  0.618190  0.808696  0.000000  1
  Ni  Ni13  1  0.191304  0.809495  0.000000  1
  Ni  Ni14  1  0.808696  0.618190  0.000000  1
  Ni  Ni15  1  0.809495  0.191304  0.000000  1
  Ni  Ni16  1  0.381810  0.190505  0.000000  1
  Ni  Ni17  1  0.365948  0.486086  0.500000  1
  Ni  Ni18  1  0.513914  0.879862  0.500000  1
  Ni  Ni19  1  0.120138  0.634052  0.500000  1
  Ni  Ni20  1  0.879862  0.513914  0.500000  1
  Ni  Ni21  1  0.634052  0.120138  0.500000  1
  Ni  Ni22  1  0.486086  0.365948  0.500000  1
  Ni  Ni23  1  0.000000  0.000000  0.000000  1
  P  P24  1  0.817913  0.817913  0.000000  1
  P  P25  1  0.182087  0.000000  0.000000  1
  P  P26  1  0.000000  0.182087  0.000000  1
  P  P27  1  0.169381  0.469794  0.500000  1
  P  P28  1  0.530206  0.699587  0.500000  1
  P  P29  1  0.300413  0.830619  0.500000  1
  P  P30  1  0.699587  0.530206  0.500000  1
  P  P31  1  0.830619  0.300413  0.500000  1
  P  P32  1  0.469794  0.169381  0.500000  1
  P  P33  1  0.366115  0.366115  0.000000  1
  P  P34  1  0.633885  0.000000  0.000000  1
  P  P35  1  0.000000  0.633885  0.000000  1
