# generated using pymatgen
data_SrCd7Ag5
_symmetry_space_group_name_H-M   'P 1'
_cell_length_a   7.60259019
_cell_length_b   7.60258956
_cell_length_c   7.60258982
_cell_angle_alpha   134.72230717
_cell_angle_beta   98.22944677
_cell_angle_gamma   98.81190341
_symmetry_Int_Tables_number   1
_chemical_formula_structural   SrCd7Ag5
_chemical_formula_sum   'Sr1 Cd7 Ag5'
_cell_volume   288.16067713
_cell_formula_units_Z   1
loop_
 _symmetry_equiv_pos_site_id
 _symmetry_equiv_pos_as_xyz
  1  'x, y, z'
loop_
 _atom_site_type_symbol
 _atom_site_label
 _atom_site_symmetry_multiplicity
 _atom_site_fract_x
 _atom_site_fract_y
 _atom_site_fract_z
 _atom_site_occupancy
  Sr  Sr0  1  0.003983  0.003983  0.000000  1
  Cd  Cd1  1  0.651961  0.651961  0.000000  1
  Cd  Cd2  1  0.348387  0.348387  0.000000  1
  Cd  Cd3  1  0.340924  0.995610  0.345314  1
  Cd  Cd4  1  0.650296  0.995610  0.654686  1
  Cd  Cd5  1  0.774444  0.274444  0.500000  1
  Cd  Cd6  1  0.791366  0.502138  0.289228  1
  Cd  Cd7  1  0.212910  0.502138  0.710772  1
  Ag  Ag8  1  0.500213  0.500354  0.499586  1
  Ag  Ag9  1  0.500213  0.000627  0.999858  1
  Ag  Ag10  1  0.000768  0.500354  0.000142  1
  Ag  Ag11  1  0.000768  0.000627  0.500414  1
  Ag  Ag12  1  0.223766  0.723766  0.500000  1
