# generated using pymatgen
data_KNdAgTe4
_symmetry_space_group_name_H-M   'P 1'
_cell_length_a   4.47951000
_cell_length_b   4.46427700
_cell_length_c   22.42789700
_cell_angle_alpha   90.00000000
_cell_angle_beta   90.00000000
_cell_angle_gamma   90.00000000
_symmetry_Int_Tables_number   1
_chemical_formula_structural   KNdAgTe4
_chemical_formula_sum   'K2 Nd2 Ag2 Te8'
_cell_volume   448.50800349
_cell_formula_units_Z   2
loop_
 _symmetry_equiv_pos_site_id
 _symmetry_equiv_pos_as_xyz
  1  'x, y, z'
loop_
 _atom_site_type_symbol
 _atom_site_label
 _atom_site_symmetry_multiplicity
 _atom_site_fract_x
 _atom_site_fract_y
 _atom_site_fract_z
 _atom_site_occupancy
  K  K0  1  0.749999  0.749999  0.153742  1
  K  K1  1  0.250000  0.250000  0.846258  1
  Nd  Nd2  1  0.250000  0.250000  0.405575  1
  Nd  Nd3  1  0.749999  0.749999  0.594425  1
  Ag  Ag4  1  0.749999  0.250000  0.999696  1
  Ag  Ag5  1  0.250000  0.749999  0.000305  1
  Te  Te6  1  0.250000  0.250000  0.081997  1
  Te  Te7  1  0.749999  0.250000  0.293480  1
  Te  Te8  1  0.250000  0.749999  0.293380  1
  Te  Te9  1  0.749999  0.749999  0.447051  1
  Te  Te10  1  0.250000  0.250000  0.552949  1
  Te  Te11  1  0.749999  0.250000  0.706619  1
  Te  Te12  1  0.250000  0.749999  0.706520  1
  Te  Te13  1  0.749999  0.749999  0.918003  1
