# generated using pymatgen
data_BeNb3B4(Ru5W)2
_symmetry_space_group_name_H-M   'P 1'
_cell_length_a   9.33358300
_cell_length_b   9.36733700
_cell_length_c   2.94907300
_cell_angle_alpha   90.00000000
_cell_angle_beta   90.00000000
_cell_angle_gamma   90.00047206
_symmetry_Int_Tables_number   1
_chemical_formula_structural   BeNb3B4(Ru5W)2
_chemical_formula_sum   'Be1 Nb3 B4 Ru10 W2'
_cell_volume   257.83986289
_cell_formula_units_Z   1
loop_
 _symmetry_equiv_pos_site_id
 _symmetry_equiv_pos_as_xyz
  1  'x, y, z'
loop_
 _atom_site_type_symbol
 _atom_site_label
 _atom_site_symmetry_multiplicity
 _atom_site_fract_x
 _atom_site_fract_y
 _atom_site_fract_z
 _atom_site_occupancy
  Be  Be0  1  0.499153  0.499257  0.000000  1
  Nb  Nb1  1  0.182161  0.326231  0.000000  1
  Nb  Nb2  1  0.324952  0.818420  0.000000  1
  Nb  Nb3  1  0.674236  0.182932  0.000000  1
  B  B4  1  0.611971  0.864874  0.000000  1
  B  B5  1  0.387804  0.135336  0.000000  1
  B  B6  1  0.135956  0.612570  0.000000  1
  B  B7  1  0.865169  0.386474  0.000000  1
  Ru  Ru8  1  0.569340  0.705183  0.500000  1
  Ru  Ru9  1  0.436131  0.293103  0.500000  1
  Ru  Ru10  1  0.068186  0.778561  0.500000  1
  Ru  Ru11  1  0.926440  0.221061  0.500000  1
  Ru  Ru12  1  0.292925  0.565285  0.500000  1
  Ru  Ru13  1  0.708295  0.440058  0.500000  1
  Ru  Ru14  1  0.220766  0.073249  0.500000  1
  Ru  Ru15  1  0.781785  0.920234  0.500000  1
  Ru  Ru16  1  0.501110  0.999423  0.500000  1
  Ru  Ru17  1  0.996673  0.503043  0.500000  1
  W  W18  1  0.816567  0.673527  0.000000  1
  W  W19  1  0.000378  0.001178  0.000000  1
