# generated using pymatgen
data_Zr8Be(Al2Rh)7
_symmetry_space_group_name_H-M   'P 1'
_cell_length_a   8.89327823
_cell_length_b   8.89327855
_cell_length_c   8.89327812
_cell_angle_alpha   120.07464222
_cell_angle_beta   119.96839728
_cell_angle_gamma   89.96275882
_symmetry_Int_Tables_number   1
_chemical_formula_structural   Zr8Be(Al2Rh)7
_chemical_formula_sum   'Zr8 Be1 Al14 Rh7'
_cell_volume   497.19732705
_cell_formula_units_Z   1
loop_
 _symmetry_equiv_pos_site_id
 _symmetry_equiv_pos_as_xyz
  1  'x, y, z'
loop_
 _atom_site_type_symbol
 _atom_site_label
 _atom_site_symmetry_multiplicity
 _atom_site_fract_x
 _atom_site_fract_y
 _atom_site_fract_z
 _atom_site_occupancy
  Zr  Zr0  1  0.808999  0.305052  0.103014  1
  Zr  Zr1  1  0.202038  0.305052  0.496053  1
  Zr  Zr2  1  0.188240  0.688240  0.500000  1
  Zr  Zr3  1  0.202038  0.705985  0.896986  1
  Zr  Zr4  1  0.808999  0.705985  0.503947  1
  Zr  Zr5  1  0.790177  0.290177  0.500000  1
  Zr  Zr6  1  0.379088  0.118667  0.739579  1
  Zr  Zr7  1  0.379088  0.639508  0.260421  1
  Be  Be8  1  0.986863  0.486863  0.500000  1
  Al  Al9  1  0.160157  0.330210  0.170052  1
  Al  Al10  1  0.160157  0.990104  0.829948  1
  Al  Al11  1  0.151200  0.341489  0.809711  1
  Al  Al12  1  0.531776  0.341489  0.190289  1
  Al  Al13  1  0.839205  0.658791  0.819588  1
  Al  Al14  1  0.839205  0.019617  0.180412  1
  Al  Al15  1  0.836786  0.662272  0.174515  1
  Al  Al16  1  0.487757  0.662272  0.825485  1
  Al  Al17  1  0.379788  0.121425  0.258362  1
  Al  Al18  1  0.863065  0.121425  0.741638  1
  Al  Al19  1  0.622728  0.877529  0.254800  1
  Al  Al20  1  0.622728  0.367928  0.745200  1
  Al  Al21  1  0.626288  0.879402  0.746886  1
  Al  Al22  1  0.132515  0.879402  0.253114  1
  Rh  Rh23  1  0.999235  0.999406  0.501095  1
  Rh  Rh24  1  0.498309  0.999406  0.000171  1
  Rh  Rh25  1  0.498707  0.498707  0.000000  1
  Rh  Rh26  1  0.498309  0.498139  0.498905  1
  Rh  Rh27  1  0.999235  0.498139  0.999829  1
  Rh  Rh28  1  0.999220  0.999220  0.000000  1
  Rh  Rh29  1  0.508097  0.008097  0.500000  1
