# generated using pymatgen
data_Ba5P3H
_symmetry_space_group_name_H-M   'P 1'
_cell_length_a   7.61256800
_cell_length_b   9.29411861
_cell_length_c   9.29411900
_cell_angle_alpha   119.99999782
_cell_angle_beta   90.00000000
_cell_angle_gamma   90.00000000
_symmetry_Int_Tables_number   1
_chemical_formula_structural   Ba5P3H
_chemical_formula_sum   'Ba10 P6 H2'
_cell_volume   569.47972376
_cell_formula_units_Z   2
loop_
 _symmetry_equiv_pos_site_id
 _symmetry_equiv_pos_as_xyz
  1  'x, y, z'
loop_
 _atom_site_type_symbol
 _atom_site_label
 _atom_site_symmetry_multiplicity
 _atom_site_fract_x
 _atom_site_fract_y
 _atom_site_fract_z
 _atom_site_occupancy
  Ba  Ba0  1  0.500000  0.333333  0.666667  1
  Ba  Ba1  1  0.500000  0.666666  0.333333  1
  Ba  Ba2  1  0.000000  0.666667  0.333333  1
  Ba  Ba3  1  0.000000  0.333334  0.666667  1
  Ba  Ba4  1  0.750000  0.251951  0.000000  1
  Ba  Ba5  1  0.750000  0.748049  0.748049  1
  Ba  Ba6  1  0.750000  0.000000  0.251951  1
  Ba  Ba7  1  0.250000  0.748049  0.000000  1
  Ba  Ba8  1  0.250000  0.251951  0.251951  1
  Ba  Ba9  1  0.250000  0.000000  0.748049  1
  P  P10  1  0.750000  0.604476  0.000000  1
  P  P11  1  0.750000  0.395524  0.395524  1
  P  P12  1  0.750000  0.000000  0.604476  1
  P  P13  1  0.250000  0.395524  0.000000  1
  P  P14  1  0.250000  0.604476  0.604476  1
  P  P15  1  0.250000  0.000000  0.395524  1
  H  H16  1  0.500000  0.000000  0.000000  1
  H  H17  1  0.000000  0.000000  0.000000  1
