# generated using pymatgen
data_NdAl3Ni
_symmetry_space_group_name_H-M   'P 1'
_cell_length_a   4.10305900
_cell_length_b   8.23444000
_cell_length_c   10.82655700
_cell_angle_alpha   90.00000000
_cell_angle_beta   90.00000000
_cell_angle_gamma   90.00000000
_symmetry_Int_Tables_number   1
_chemical_formula_structural   NdAl3Ni
_chemical_formula_sum   'Nd4 Al12 Ni4'
_cell_volume   365.79031128
_cell_formula_units_Z   4
loop_
 _symmetry_equiv_pos_site_id
 _symmetry_equiv_pos_as_xyz
  1  'x, y, z'
loop_
 _atom_site_type_symbol
 _atom_site_label
 _atom_site_symmetry_multiplicity
 _atom_site_fract_x
 _atom_site_fract_y
 _atom_site_fract_z
 _atom_site_occupancy
  Nd  Nd0  1  0.250000  0.683102  0.510414  1
  Nd  Nd1  1  0.750000  0.316898  0.489586  1
  Nd  Nd2  1  0.750000  0.816898  0.010414  1
  Nd  Nd3  1  0.250000  0.183102  0.989586  1
  Al  Al4  1  0.250000  0.857617  0.225099  1
  Al  Al5  1  0.750000  0.142383  0.774901  1
  Al  Al6  1  0.750000  0.642383  0.725099  1
  Al  Al7  1  0.250000  0.357617  0.274901  1
  Al  Al8  1  0.250000  0.554470  0.082117  1
  Al  Al9  1  0.750000  0.445530  0.917883  1
  Al  Al10  1  0.750000  0.945530  0.582117  1
  Al  Al11  1  0.250000  0.054470  0.417883  1
  Al  Al12  1  0.250000  0.881333  0.783228  1
  Al  Al13  1  0.750000  0.118667  0.216772  1
  Al  Al14  1  0.750000  0.618667  0.283228  1
  Al  Al15  1  0.250000  0.381333  0.716772  1
  Ni  Ni16  1  0.250000  0.602333  0.855835  1
  Ni  Ni17  1  0.750000  0.397667  0.144165  1
  Ni  Ni18  1  0.750000  0.897667  0.355835  1
  Ni  Ni19  1  0.250000  0.102333  0.644165  1
