# generated using pymatgen
data_Tb2Er6Si12Pd3Au
_symmetry_space_group_name_H-M   'P 1'
_cell_length_a   8.16250900
_cell_length_b   8.16250739
_cell_length_c   8.04893900
_cell_angle_alpha   90.00000000
_cell_angle_beta   90.00000000
_cell_angle_gamma   120.00001059
_symmetry_Int_Tables_number   1
_chemical_formula_structural   Tb2Er6Si12Pd3Au
_chemical_formula_sum   'Tb2 Er6 Si12 Pd3 Au1'
_cell_volume   464.42595388
_cell_formula_units_Z   1
loop_
 _symmetry_equiv_pos_site_id
 _symmetry_equiv_pos_as_xyz
  1  'x, y, z'
loop_
 _atom_site_type_symbol
 _atom_site_label
 _atom_site_symmetry_multiplicity
 _atom_site_fract_x
 _atom_site_fract_y
 _atom_site_fract_z
 _atom_site_occupancy
  Tb  Tb0  1  0.000000  0.000000  0.251397  1
  Tb  Tb1  1  0.000000  0.000000  0.748008  1
  Er  Er2  1  0.501284  0.002567  0.252416  1
  Er  Er3  1  0.500676  0.001353  0.747790  1
  Er  Er4  1  0.997433  0.498716  0.252416  1
  Er  Er5  1  0.998647  0.499324  0.747790  1
  Er  Er6  1  0.501284  0.498716  0.252416  1
  Er  Er7  1  0.500676  0.499324  0.747790  1
  Si  Si8  1  0.162227  0.324455  0.999341  1
  Si  Si9  1  0.832733  0.665468  0.999931  1
  Si  Si10  1  0.675545  0.837773  0.999341  1
  Si  Si11  1  0.834096  0.668192  0.501474  1
  Si  Si12  1  0.334532  0.167267  0.999931  1
  Si  Si13  1  0.166165  0.332330  0.498662  1
  Si  Si14  1  0.162227  0.837773  0.999341  1
  Si  Si15  1  0.331808  0.165904  0.501474  1
  Si  Si16  1  0.832733  0.167267  0.999931  1
  Si  Si17  1  0.667670  0.833835  0.498662  1
  Si  Si18  1  0.834096  0.165904  0.501474  1
  Si  Si19  1  0.166165  0.833835  0.498662  1
  Pd  Pd20  1  0.666667  0.333333  0.000457  1
  Pd  Pd21  1  0.666667  0.333333  0.500669  1
  Pd  Pd22  1  0.333333  0.666667  0.499301  1
  Au  Au23  1  0.333333  0.666667  0.001322  1
