# generated using pymatgen
data_Na3Ca2AuO6
_symmetry_space_group_name_H-M   'P 1'
_cell_length_a   10.96680466
_cell_length_b   10.42621884
_cell_length_c   5.83663405
_cell_angle_alpha   79.34578728
_cell_angle_beta   69.11820187
_cell_angle_gamma   31.53601224
_symmetry_Int_Tables_number   1
_chemical_formula_structural   Na3Ca2AuO6
_chemical_formula_sum   'Na6 Ca4 Au2 O12'
_cell_volume   316.32905216
_cell_formula_units_Z   2
loop_
 _symmetry_equiv_pos_site_id
 _symmetry_equiv_pos_as_xyz
  1  'x, y, z'
loop_
 _atom_site_type_symbol
 _atom_site_label
 _atom_site_symmetry_multiplicity
 _atom_site_fract_x
 _atom_site_fract_y
 _atom_site_fract_z
 _atom_site_occupancy
  Na  Na0  1  0.000000  0.000000  0.000000  1
  Na  Na1  1  0.084657  0.084657  0.415343  1
  Na  Na2  1  0.834657  0.834657  0.165343  1
  Na  Na3  1  0.165343  0.165343  0.834657  1
  Na  Na4  1  0.250000  0.250000  0.250000  1
  Na  Na5  1  0.415343  0.415343  0.084657  1
  Ca  Ca6  1  0.580522  0.580522  0.919478  1
  Ca  Ca7  1  0.919478  0.919478  0.580522  1
  Ca  Ca8  1  0.669478  0.669478  0.330522  1
  Ca  Ca9  1  0.330522  0.330522  0.669478  1
  Au  Au10  1  0.750000  0.750000  0.750000  1
  Au  Au11  1  0.500000  0.500000  0.500000  1
  O  O12  1  0.281986  0.718014  0.281986  1
  O  O13  1  0.718014  0.281986  0.718014  1
  O  O14  1  0.968014  0.531986  0.968014  1
  O  O15  1  0.531986  0.968014  0.531986  1
  O  O16  1  0.202133  0.647449  0.794678  1
  O  O17  1  0.355740  0.794678  0.647449  1
  O  O18  1  0.794678  0.355740  0.202133  1
  O  O19  1  0.647449  0.202133  0.355740  1
  O  O20  1  0.602551  0.047867  0.894260  1
  O  O21  1  0.894260  0.455322  0.602551  1
  O  O22  1  0.455322  0.894260  0.047867  1
  O  O23  1  0.047867  0.602551  0.455322  1
