# generated using pymatgen
data_Tm7Th2Ru9
_symmetry_space_group_name_H-M   'P 1'
_cell_length_a   8.29835008
_cell_length_b   8.29357121
_cell_length_c   5.91119500
_cell_angle_alpha   89.98540934
_cell_angle_beta   90.02917142
_cell_angle_gamma   120.01906679
_symmetry_Int_Tables_number   1
_chemical_formula_structural   Tm7Th2Ru9
_chemical_formula_sum   'Tm7 Th2 Ru9'
_cell_volume   352.25382597
_cell_formula_units_Z   1
loop_
 _symmetry_equiv_pos_site_id
 _symmetry_equiv_pos_as_xyz
  1  'x, y, z'
loop_
 _atom_site_type_symbol
 _atom_site_label
 _atom_site_symmetry_multiplicity
 _atom_site_fract_x
 _atom_site_fract_y
 _atom_site_fract_z
 _atom_site_occupancy
  Tm  Tm0  1  0.662019  0.000000  0.234824  1
  Tm  Tm1  1  0.333129  0.328414  0.234838  1
  Tm  Tm2  1  0.004713  0.671586  0.234838  1
  Tm  Tm3  1  0.661558  0.328130  0.549194  1
  Tm  Tm4  1  0.333429  0.671870  0.549194  1
  Tm  Tm5  1  0.005130  0.000000  0.549989  1
  Tm  Tm6  1  0.333419  0.000000  0.892455  1
  Th  Th7  1  0.000109  0.333538  0.892051  1
  Th  Th8  1  0.666571  0.666462  0.892051  1
  Ru  Ru9  1  0.670599  0.337225  0.054055  1
  Ru  Ru10  1  0.333374  0.662775  0.054055  1
  Ru  Ru11  1  0.995743  0.000000  0.054657  1
  Ru  Ru12  1  0.333182  0.000000  0.391933  1
  Ru  Ru13  1  0.000029  0.333415  0.392181  1
  Ru  Ru14  1  0.666614  0.666585  0.392181  1
  Ru  Ru15  1  0.670799  0.000000  0.729801  1
  Ru  Ru16  1  0.333621  0.337658  0.729773  1
  Ru  Ru17  1  0.995963  0.662342  0.729773  1
