# generated using pymatgen
data_Hf5Sc3Nb12Si15P
_symmetry_space_group_name_H-M   'P 1'
_cell_length_a   6.68172159
_cell_length_b   6.87477698
_cell_length_c   13.09368710
_cell_angle_alpha   90.01777138
_cell_angle_beta   90.22387446
_cell_angle_gamma   90.08010075
_symmetry_Int_Tables_number   1
_chemical_formula_structural   Hf5Sc3Nb12Si15P
_chemical_formula_sum   'Hf5 Sc3 Nb12 Si15 P1'
_cell_volume   601.45783457
_cell_formula_units_Z   1
loop_
 _symmetry_equiv_pos_site_id
 _symmetry_equiv_pos_as_xyz
  1  'x, y, z'
loop_
 _atom_site_type_symbol
 _atom_site_label
 _atom_site_symmetry_multiplicity
 _atom_site_fract_x
 _atom_site_fract_y
 _atom_site_fract_z
 _atom_site_occupancy
  Hf  Hf0  1  0.498748  0.674983  0.592679  1
  Hf  Hf1  1  0.000213  0.826106  0.904471  1
  Hf  Hf2  1  0.502016  0.326723  0.093727  1
  Hf  Hf3  1  0.002745  0.174261  0.405715  1
  Hf  Hf4  1  0.503840  0.323914  0.407243  1
  Sc  Sc5  1  0.003701  0.172429  0.093006  1
  Sc  Sc6  1  0.498026  0.673316  0.906716  1
  Sc  Sc7  1  0.995455  0.826847  0.592744  1
  Nb  Nb8  1  0.663057  0.167541  0.621072  1
  Nb  Nb9  1  0.165842  0.329666  0.875968  1
  Nb  Nb10  1  0.335628  0.830067  0.124685  1
  Nb  Nb11  1  0.832812  0.671399  0.377824  1
  Nb  Nb12  1  0.339266  0.831226  0.378183  1
  Nb  Nb13  1  0.833669  0.668988  0.124928  1
  Nb  Nb14  1  0.666002  0.170117  0.875508  1
  Nb  Nb15  1  0.164955  0.331012  0.623574  1
  Nb  Nb16  1  0.837416  0.495658  0.750014  1
  Nb  Nb17  1  0.338059  0.003401  0.748553  1
  Nb  Nb18  1  0.162313  0.503552  0.252438  1
  Nb  Nb19  1  0.661771  0.998592  0.252662  1
  Si  Si20  1  0.168734  0.534907  0.040033  1
  Si  Si21  1  0.330827  0.034222  0.960322  1
  Si  Si22  1  0.828718  0.463581  0.539284  1
  Si  Si23  1  0.321057  0.037367  0.539765  1
  Si  Si24  1  0.829642  0.465580  0.960554  1
  Si  Si25  1  0.670711  0.965602  0.040400  1
  Si  Si26  1  0.171383  0.536066  0.460402  1
  Si  Si27  1  0.462061  0.386928  0.749675  1
  Si  Si28  1  0.961349  0.112394  0.749217  1
  Si  Si29  1  0.537418  0.611863  0.250429  1
  Si  Si30  1  0.038977  0.886516  0.250841  1
  Si  Si31  1  0.704622  0.859812  0.750002  1
  Si  Si32  1  0.205260  0.639444  0.749536  1
  Si  Si33  1  0.294040  0.140494  0.249312  1
  Si  Si34  1  0.795799  0.360390  0.249692  1
  P  P35  1  0.673870  0.965038  0.458823  1
