# generated using pymatgen
data_Dy2Co3Si4Rh3
_symmetry_space_group_name_H-M   'P 1'
_cell_length_a   6.45026970
_cell_length_b   6.51130260
_cell_length_c   6.45026954
_cell_angle_alpha   131.37543100
_cell_angle_beta   114.15592084
_cell_angle_gamma   85.65573624
_symmetry_Int_Tables_number   1
_chemical_formula_structural   Dy2Co3Si4Rh3
_chemical_formula_sum   'Dy2 Co3 Si4 Rh3'
_cell_volume   177.82682029
_cell_formula_units_Z   1
loop_
 _symmetry_equiv_pos_site_id
 _symmetry_equiv_pos_as_xyz
  1  'x, y, z'
loop_
 _atom_site_type_symbol
 _atom_site_label
 _atom_site_symmetry_multiplicity
 _atom_site_fract_x
 _atom_site_fract_y
 _atom_site_fract_z
 _atom_site_occupancy
  Dy  Dy0  1  0.253968  0.534487  0.284385  1
  Dy  Dy1  1  0.749898  0.465513  0.719482  1
  Co  Co2  1  0.718368  0.000000  0.718368  1
  Co  Co3  1  0.219017  0.500000  0.719017  1
  Co  Co4  1  0.279644  0.000000  0.279644  1
  Si  Si5  1  0.076991  0.877268  0.809196  1
  Si  Si6  1  0.931927  0.122732  0.199723  1
  Si  Si7  1  0.565199  0.777658  0.200312  1
  Si  Si8  1  0.422654  0.222342  0.787541  1
  Rh  Rh9  1  0.782422  0.500000  0.282422  1
  Rh  Rh10  1  0.001090  0.009703  0.508523  1
  Rh  Rh11  1  0.498821  0.990297  0.991388  1
