# generated using pymatgen
data_TbErLu6(WO6)4
_symmetry_space_group_name_H-M   'P 1'
_cell_length_a   5.33032500
_cell_length_b   7.61972204
_cell_length_c   11.34226815
_cell_angle_alpha   75.18282899
_cell_angle_beta   90.00000000
_cell_angle_gamma   90.00000000
_symmetry_Int_Tables_number   1
_chemical_formula_structural   TbErLu6(WO6)4
_chemical_formula_sum   'Tb1 Er1 Lu6 W4 O24'
_cell_volume   445.35411346
_cell_formula_units_Z   1
loop_
 _symmetry_equiv_pos_site_id
 _symmetry_equiv_pos_as_xyz
  1  'x, y, z'
loop_
 _atom_site_type_symbol
 _atom_site_label
 _atom_site_symmetry_multiplicity
 _atom_site_fract_x
 _atom_site_fract_y
 _atom_site_fract_z
 _atom_site_occupancy
  Tb  Tb0  1  0.684926  0.500000  0.250000  1
  Er  Er1  1  0.314876  0.500000  0.750000  1
  Lu  Lu2  1  0.183505  0.203862  0.421864  1
  Lu  Lu3  1  0.183505  0.796138  0.078136  1
  Lu  Lu4  1  0.817031  0.794998  0.578930  1
  Lu  Lu5  1  0.817031  0.205002  0.921070  1
  Lu  Lu6  1  0.741942  0.000000  0.250000  1
  Lu  Lu7  1  0.258441  0.000000  0.750000  1
  W  W8  1  0.256331  0.274651  0.114216  1
  W  W9  1  0.256331  0.725349  0.385784  1
  W  W10  1  0.743601  0.724913  0.884660  1
  W  W11  1  0.743601  0.275087  0.615340  1
  O  O12  1  0.459015  0.204161  0.275137  1
  O  O13  1  0.459015  0.795839  0.224863  1
  O  O14  1  0.540289  0.794874  0.724517  1
  O  O15  1  0.540289  0.205126  0.775483  1
  O  O16  1  0.041913  0.057424  0.103895  1
  O  O17  1  0.041913  0.942576  0.396105  1
  O  O18  1  0.957604  0.943168  0.894888  1
  O  O19  1  0.957604  0.056832  0.605112  1
  O  O20  1  0.981172  0.284182  0.230776  1
  O  O21  1  0.981172  0.715818  0.269224  1
  O  O22  1  0.020873  0.713242  0.769575  1
  O  O23  1  0.020873  0.286758  0.730425  1
  O  O24  1  0.853484  0.364120  0.451363  1
  O  O25  1  0.853484  0.635880  0.048637  1
  O  O26  1  0.147565  0.635866  0.550571  1
  O  O27  1  0.147565  0.364134  0.949429  1
  O  O28  1  0.640878  0.512132  0.614688  1
  O  O29  1  0.640878  0.487868  0.885312  1
  O  O30  1  0.355337  0.487939  0.386669  1
  O  O31  1  0.355337  0.512061  0.113331  1
  O  O32  1  0.459189  0.153329  0.569506  1
  O  O33  1  0.459189  0.846671  0.930494  1
  O  O34  1  0.542119  0.846484  0.430958  1
  O  O35  1  0.542119  0.153516  0.069042  1
