# generated using pymatgen
data_Nd2Tc14(WC)3
_symmetry_space_group_name_H-M   'P 1'
_cell_length_a   7.05234098
_cell_length_b   7.05234075
_cell_length_c   7.05234010
_cell_angle_alpha   82.74323816
_cell_angle_beta   82.74324252
_cell_angle_gamma   82.74324197
_symmetry_Int_Tables_number   1
_chemical_formula_structural   Nd2Tc14(WC)3
_chemical_formula_sum   'Nd2 Tc14 W3 C3'
_cell_volume   342.97777031
_cell_formula_units_Z   1
loop_
 _symmetry_equiv_pos_site_id
 _symmetry_equiv_pos_as_xyz
  1  'x, y, z'
loop_
 _atom_site_type_symbol
 _atom_site_label
 _atom_site_symmetry_multiplicity
 _atom_site_fract_x
 _atom_site_fract_y
 _atom_site_fract_z
 _atom_site_occupancy
  Nd  Nd0  1  0.649599  0.649599  0.649599  1
  Nd  Nd1  1  0.350401  0.350401  0.350401  1
  Tc  Tc2  1  0.721805  0.278195  0.000000  1
  Tc  Tc3  1  0.000000  0.721805  0.278195  1
  Tc  Tc4  1  0.278195  0.000000  0.721805  1
  Tc  Tc5  1  0.000000  0.278195  0.721805  1
  Tc  Tc6  1  0.721805  0.000000  0.278195  1
  Tc  Tc7  1  0.278195  0.721805  0.000000  1
  Tc  Tc8  1  0.349425  0.863332  0.349425  1
  Tc  Tc9  1  0.349425  0.349425  0.863332  1
  Tc  Tc10  1  0.863332  0.349425  0.349425  1
  Tc  Tc11  1  0.650575  0.136668  0.650575  1
  Tc  Tc12  1  0.650575  0.650575  0.136668  1
  Tc  Tc13  1  0.136668  0.650575  0.650575  1
  Tc  Tc14  1  0.904362  0.904362  0.904362  1
  Tc  Tc15  1  0.095638  0.095638  0.095638  1
  W  W16  1  0.000000  0.000000  0.500000  1
  W  W17  1  0.500000  0.000000  0.000000  1
  W  W18  1  0.000000  0.500000  0.000000  1
  C  C19  1  0.500000  0.500000  0.000000  1
  C  C20  1  0.000000  0.500000  0.500000  1
  C  C21  1  0.500000  0.000000  0.500000  1
