# generated using pymatgen
data_Y4LuCo2
_symmetry_space_group_name_H-M   'P 1'
_cell_length_a   6.29778941
_cell_length_b   6.93993062
_cell_length_c   8.54669122
_cell_angle_alpha   96.28232862
_cell_angle_beta   111.61909045
_cell_angle_gamma   89.99999740
_symmetry_Int_Tables_number   1
_chemical_formula_structural   Y4LuCo2
_chemical_formula_sum   'Y8 Lu2 Co4'
_cell_volume   344.85209068
_cell_formula_units_Z   2
loop_
 _symmetry_equiv_pos_site_id
 _symmetry_equiv_pos_as_xyz
  1  'x, y, z'
loop_
 _atom_site_type_symbol
 _atom_site_label
 _atom_site_symmetry_multiplicity
 _atom_site_fract_x
 _atom_site_fract_y
 _atom_site_fract_z
 _atom_site_occupancy
  Y  Y0  1  0.520183  0.086115  0.813549  1
  Y  Y1  1  0.479817  0.913885  0.186451  1
  Y  Y2  1  0.706634  0.413885  0.186451  1
  Y  Y3  1  0.293366  0.586115  0.813549  1
  Y  Y4  1  0.286204  0.314611  0.430932  1
  Y  Y5  1  0.713796  0.685389  0.569068  1
  Y  Y6  1  0.855273  0.185389  0.569068  1
  Y  Y7  1  0.144727  0.814611  0.430932  1
  Lu  Lu8  1  0.070301  0.250000  0.000000  1
  Lu  Lu9  1  0.929699  0.750000  0.000000  1
  Co  Co10  1  0.314012  0.570586  0.213771  1
  Co  Co11  1  0.685988  0.429414  0.786229  1
  Co  Co12  1  0.100243  0.929414  0.786229  1
  Co  Co13  1  0.899757  0.070586  0.213771  1
