# generated using pymatgen
data_DyTh13(TcRh)3
_symmetry_space_group_name_H-M   'P 1'
_cell_length_a   9.98538300
_cell_length_b   9.98538295
_cell_length_c   6.33843100
_cell_angle_alpha   90.00000000
_cell_angle_beta   90.00000000
_cell_angle_gamma   120.00000347
_symmetry_Int_Tables_number   1
_chemical_formula_structural   DyTh13(TcRh)3
_chemical_formula_sum   'Dy1 Th13 Tc3 Rh3'
_cell_volume   547.32065254
_cell_formula_units_Z   1
loop_
 _symmetry_equiv_pos_site_id
 _symmetry_equiv_pos_as_xyz
  1  'x, y, z'
loop_
 _atom_site_type_symbol
 _atom_site_label
 _atom_site_symmetry_multiplicity
 _atom_site_fract_x
 _atom_site_fract_y
 _atom_site_fract_z
 _atom_site_occupancy
  Dy  Dy0  1  0.666667  0.333333  0.554320  1
  Th  Th1  1  0.333333  0.666667  0.027726  1
  Th  Th2  1  0.874539  0.749078  0.755314  1
  Th  Th3  1  0.250922  0.125461  0.755314  1
  Th  Th4  1  0.874539  0.125461  0.755314  1
  Th  Th5  1  0.125903  0.251805  0.253475  1
  Th  Th6  1  0.748195  0.874097  0.253475  1
  Th  Th7  1  0.125903  0.874097  0.253475  1
  Th  Th8  1  0.458733  0.917467  0.547796  1
  Th  Th9  1  0.082533  0.541267  0.547796  1
  Th  Th10  1  0.458733  0.541267  0.547796  1
  Th  Th11  1  0.537582  0.075164  0.052518  1
  Th  Th12  1  0.924836  0.462418  0.052518  1
  Th  Th13  1  0.537582  0.462418  0.052518  1
  Tc  Tc14  1  0.183546  0.367092  0.796629  1
  Tc  Tc15  1  0.632908  0.816454  0.796629  1
  Tc  Tc16  1  0.183546  0.816454  0.796629  1
  Rh  Rh17  1  0.812617  0.625233  0.294420  1
  Rh  Rh18  1  0.374767  0.187383  0.294420  1
  Rh  Rh19  1  0.812617  0.187383  0.294420  1
