# generated using pymatgen
data_EuMnH9
_symmetry_space_group_name_H-M   'P 1'
_cell_length_a   4.76736000
_cell_length_b   4.76735925
_cell_length_c   8.69798500
_cell_angle_alpha   90.00000000
_cell_angle_beta   90.00000000
_cell_angle_gamma   120.00000522
_symmetry_Int_Tables_number   1
_chemical_formula_structural   EuMnH9
_chemical_formula_sum   'Eu2 Mn2 H18'
_cell_volume   171.20052462
_cell_formula_units_Z   2
loop_
 _symmetry_equiv_pos_site_id
 _symmetry_equiv_pos_as_xyz
  1  'x, y, z'
loop_
 _atom_site_type_symbol
 _atom_site_label
 _atom_site_symmetry_multiplicity
 _atom_site_fract_x
 _atom_site_fract_y
 _atom_site_fract_z
 _atom_site_occupancy
  Eu  Eu0  1  0.000000  0.000000  0.000000  1
  Eu  Eu1  1  0.000000  0.000000  0.500000  1
  Mn  Mn2  1  0.333333  0.666667  0.250000  1
  Mn  Mn3  1  0.666667  0.333333  0.750000  1
  H  H4  1  0.469685  0.530315  0.374583  1
  H  H5  1  0.469685  0.939369  0.374583  1
  H  H6  1  0.060631  0.530315  0.374583  1
  H  H7  1  0.939369  0.469685  0.874583  1
  H  H8  1  0.147837  0.295674  0.250000  1
  H  H9  1  0.852163  0.147837  0.750000  1
  H  H10  1  0.295674  0.147837  0.750000  1
  H  H11  1  0.704326  0.852163  0.250000  1
  H  H12  1  0.147837  0.852163  0.250000  1
  H  H13  1  0.852163  0.704326  0.750000  1
  H  H14  1  0.469685  0.939369  0.125417  1
  H  H15  1  0.530315  0.469685  0.625417  1
  H  H16  1  0.939369  0.469685  0.625417  1
  H  H17  1  0.060631  0.530315  0.125417  1
  H  H18  1  0.469685  0.530315  0.125417  1
  H  H19  1  0.530315  0.060631  0.874583  1
  H  H20  1  0.530315  0.469685  0.874583  1
  H  H21  1  0.530315  0.060631  0.625417  1
