# generated using pymatgen
data_Tb4Nd2FeCl10
_symmetry_space_group_name_H-M   'P 1'
_cell_length_a   7.20187105
_cell_length_b   8.87601144
_cell_length_c   9.05226069
_cell_angle_alpha   107.44963656
_cell_angle_beta   94.99008443
_cell_angle_gamma   106.80618627
_symmetry_Int_Tables_number   1
_chemical_formula_structural   Tb4Nd2FeCl10
_chemical_formula_sum   'Tb4 Nd2 Fe1 Cl10'
_cell_volume   518.80318193
_cell_formula_units_Z   1
loop_
 _symmetry_equiv_pos_site_id
 _symmetry_equiv_pos_as_xyz
  1  'x, y, z'
loop_
 _atom_site_type_symbol
 _atom_site_label
 _atom_site_symmetry_multiplicity
 _atom_site_fract_x
 _atom_site_fract_y
 _atom_site_fract_z
 _atom_site_occupancy
  Tb  Tb0  1  0.966023  0.293212  0.089117  1
  Tb  Tb1  1  0.033977  0.706788  0.910883  1
  Tb  Tb2  1  0.364591  0.139936  0.181208  1
  Tb  Tb3  1  0.635409  0.860064  0.818792  1
  Nd  Nd4  1  0.137554  0.056638  0.757205  1
  Nd  Nd5  1  0.862446  0.943362  0.242795  1
  Fe  Fe6  1  0.000000  0.000000  0.000000  1
  Cl  Cl7  1  0.555249  0.174805  0.923045  1
  Cl  Cl8  1  0.444751  0.825195  0.076955  1
  Cl  Cl9  1  0.335417  0.443500  0.262724  1
  Cl  Cl10  1  0.664583  0.556500  0.737276  1
  Cl  Cl11  1  0.245712  0.077481  0.439646  1
  Cl  Cl12  1  0.754288  0.922519  0.560354  1
  Cl  Cl13  1  0.777744  0.251531  0.332629  1
  Cl  Cl14  1  0.222256  0.748469  0.667371  1
  Cl  Cl15  1  0.086699  0.376992  0.836307  1
  Cl  Cl16  1  0.913301  0.623008  0.163693  1
