# generated using pymatgen
data_Li2HgP2O7
_symmetry_space_group_name_H-M   'P 1'
_cell_length_a   5.21262770
_cell_length_b   7.46369622
_cell_length_c   9.04554579
_cell_angle_alpha   113.92362773
_cell_angle_beta   84.88492202
_cell_angle_gamma   100.76804042
_symmetry_Int_Tables_number   1
_chemical_formula_structural   Li2HgP2O7
_chemical_formula_sum   'Li4 Hg2 P4 O14'
_cell_volume   315.98700835
_cell_formula_units_Z   2
loop_
 _symmetry_equiv_pos_site_id
 _symmetry_equiv_pos_as_xyz
  1  'x, y, z'
loop_
 _atom_site_type_symbol
 _atom_site_label
 _atom_site_symmetry_multiplicity
 _atom_site_fract_x
 _atom_site_fract_y
 _atom_site_fract_z
 _atom_site_occupancy
  Li  Li0  1  0.684163  0.175395  0.563848  1
  Li  Li1  1  0.711035  0.129711  0.995683  1
  Li  Li2  1  0.288965  0.870289  0.004317  1
  Li  Li3  1  0.315837  0.824605  0.436152  1
  Hg  Hg4  1  0.786306  0.715966  0.706276  1
  Hg  Hg5  1  0.213694  0.284034  0.293724  1
  P  P6  1  0.768010  0.884938  0.192884  1
  P  P7  1  0.759659  0.557406  0.287356  1
  P  P8  1  0.240341  0.442594  0.712644  1
  P  P9  1  0.231990  0.115062  0.807116  1
  O  O10  1  0.949905  0.688833  0.422659  1
  O  O11  1  0.931983  0.028976  0.796223  1
  O  O12  1  0.815069  0.346506  0.194682  1
  O  O13  1  0.775962  0.652073  0.152449  1
  O  O14  1  0.650030  0.886217  0.045315  1
  O  O15  1  0.617336  0.971421  0.349739  1
  O  O16  1  0.529634  0.438623  0.646013  1
  O  O17  1  0.470366  0.561377  0.353987  1
  O  O18  1  0.382664  0.028579  0.650261  1
  O  O19  1  0.349970  0.113783  0.954685  1
  O  O20  1  0.224038  0.347927  0.847551  1
  O  O21  1  0.184931  0.653494  0.805318  1
  O  O22  1  0.068017  0.971024  0.203777  1
  O  O23  1  0.050095  0.311167  0.577341  1
