# generated using pymatgen
data_Cs4Tb11DySe20
_symmetry_space_group_name_H-M   'P 1'
_cell_length_a   4.17848100
_cell_length_b   12.54524505
_cell_length_c   22.38012809
_cell_angle_alpha   90.01009980
_cell_angle_beta   90.00000000
_cell_angle_gamma   90.00000000
_symmetry_Int_Tables_number   1
_chemical_formula_structural   Cs4Tb11DySe20
_chemical_formula_sum   'Cs4 Tb11 Dy1 Se20'
_cell_volume   1173.16781965
_cell_formula_units_Z   1
loop_
 _symmetry_equiv_pos_site_id
 _symmetry_equiv_pos_as_xyz
  1  'x, y, z'
loop_
 _atom_site_type_symbol
 _atom_site_label
 _atom_site_symmetry_multiplicity
 _atom_site_fract_x
 _atom_site_fract_y
 _atom_site_fract_z
 _atom_site_occupancy
  Cs  Cs0  1  0.250000  0.853422  0.092386  1
  Cs  Cs1  1  0.750000  0.146580  0.907615  1
  Cs  Cs2  1  0.750000  0.353403  0.407621  1
  Cs  Cs3  1  0.250000  0.646581  0.592386  1
  Tb  Tb4  1  0.750000  0.797135  0.825375  1
  Tb  Tb5  1  0.250000  0.202865  0.174628  1
  Tb  Tb6  1  0.250000  0.297098  0.674608  1
  Tb  Tb7  1  0.750000  0.702860  0.325376  1
  Tb  Tb8  1  0.250000  0.957323  0.697880  1
  Tb  Tb9  1  0.750000  0.042706  0.302124  1
  Tb  Tb10  1  0.750000  0.457307  0.802108  1
  Tb  Tb11  1  0.250000  0.542693  0.197894  1
  Tb  Tb12  1  0.750000  0.391666  0.053923  1
  Tb  Tb13  1  0.250000  0.608332  0.946078  1
  Tb  Tb14  1  0.250000  0.891709  0.446091  1
  Dy  Dy15  1  0.750000  0.108293  0.553947  1
  Se  Se16  1  0.250000  0.948499  0.568952  1
  Se  Se17  1  0.750000  0.052025  0.431191  1
  Se  Se18  1  0.750000  0.448088  0.931011  1
  Se  Se19  1  0.250000  0.551914  0.068987  1
  Se  Se20  1  0.750000  0.764511  0.952444  1
  Se  Se21  1  0.250000  0.235488  0.047555  1
  Se  Se22  1  0.250000  0.264022  0.547547  1
  Se  Se23  1  0.750000  0.735483  0.452447  1
  Se  Se24  1  0.250000  0.949566  0.825523  1
  Se  Se25  1  0.750000  0.050435  0.174481  1
  Se  Se26  1  0.750000  0.449568  0.674471  1
  Se  Se27  1  0.250000  0.550435  0.325525  1
  Se  Se28  1  0.750000  0.126158  0.684567  1
  Se  Se29  1  0.250000  0.873837  0.315268  1
  Se  Se30  1  0.250000  0.626170  0.815267  1
  Se  Se31  1  0.750000  0.373830  0.184732  1
  Se  Se32  1  0.750000  0.693818  0.197593  1
  Se  Se33  1  0.250000  0.306181  0.802407  1
  Se  Se34  1  0.250000  0.193816  0.302401  1
  Se  Se35  1  0.750000  0.806183  0.697590  1
