# generated using pymatgen
data_La13Pr3Cd4Co3Os
_symmetry_space_group_name_H-M   'P 1'
_cell_length_a   10.05248019
_cell_length_b   9.99431305
_cell_length_c   9.98049800
_cell_angle_alpha   60.04571530
_cell_angle_beta   60.23659071
_cell_angle_gamma   60.27023372
_symmetry_Int_Tables_number   1
_chemical_formula_structural   La13Pr3Cd4Co3Os
_chemical_formula_sum   'La13 Pr3 Cd4 Co3 Os1'
_cell_volume   711.97900340
_cell_formula_units_Z   1
loop_
 _symmetry_equiv_pos_site_id
 _symmetry_equiv_pos_as_xyz
  1  'x, y, z'
loop_
 _atom_site_type_symbol
 _atom_site_label
 _atom_site_symmetry_multiplicity
 _atom_site_fract_x
 _atom_site_fract_y
 _atom_site_fract_z
 _atom_site_occupancy
  La  La0  1  0.684112  0.693741  0.311074  1
  La  La1  1  0.159401  0.152157  0.535961  1
  La  La2  1  0.308697  0.690710  0.689399  1
  La  La3  1  0.159401  0.152157  0.152480  1
  La  La4  1  0.536887  0.153787  0.154662  1
  La  La5  1  0.308697  0.690710  0.311194  1
  La  La6  1  0.309460  0.310825  0.689858  1
  La  La7  1  0.684694  0.310924  0.692844  1
  La  La8  1  0.937265  0.558675  0.558652  1
  La  La9  1  0.559968  0.560994  0.939519  1
  La  La10  1  0.159115  0.536829  0.152027  1
  La  La11  1  0.684694  0.310924  0.311537  1
  La  La12  1  0.937265  0.558675  0.945408  1
  Pr  Pr13  1  0.935524  0.944031  0.560223  1
  Pr  Pr14  1  0.561342  0.938976  0.562306  1
  Pr  Pr15  1  0.561342  0.938976  0.937377  1
  Cd  Cd16  1  0.238946  0.920687  0.920183  1
  Cd  Cd17  1  0.919915  0.921637  0.920977  1
  Cd  Cd18  1  0.919915  0.921637  0.237469  1
  Cd  Cd19  1  0.920234  0.237238  0.921263  1
  Co  Co20  1  0.364679  0.358911  0.917271  1
  Co  Co21  1  0.364277  0.917453  0.359135  1
  Co  Co22  1  0.364679  0.358911  0.359137  1
  Os  Os23  1  0.919484  0.360431  0.360042  1
