# generated using pymatgen
data_Er9ScAl3Ru
_symmetry_space_group_name_H-M   'P 1'
_cell_length_a   9.27724900
_cell_length_b   9.27724848
_cell_length_c   9.52952800
_cell_angle_alpha   90.00000000
_cell_angle_beta   90.00000000
_cell_angle_gamma   119.99999829
_symmetry_Int_Tables_number   1
_chemical_formula_structural   Er9ScAl3Ru
_chemical_formula_sum   'Er18 Sc2 Al6 Ru2'
_cell_volume   710.29773801
_cell_formula_units_Z   2
loop_
 _symmetry_equiv_pos_site_id
 _symmetry_equiv_pos_as_xyz
  1  'x, y, z'
loop_
 _atom_site_type_symbol
 _atom_site_label
 _atom_site_symmetry_multiplicity
 _atom_site_fract_x
 _atom_site_fract_y
 _atom_site_fract_z
 _atom_site_occupancy
  Er  Er0  1  0.206210  0.793790  0.441830  1
  Er  Er1  1  0.206210  0.412419  0.441830  1
  Er  Er2  1  0.587581  0.793790  0.441830  1
  Er  Er3  1  0.793790  0.206210  0.558170  1
  Er  Er4  1  0.793790  0.587581  0.558170  1
  Er  Er5  1  0.412419  0.206210  0.558170  1
  Er  Er6  1  0.793790  0.206210  0.941830  1
  Er  Er7  1  0.793790  0.587581  0.941830  1
  Er  Er8  1  0.412419  0.206210  0.941830  1
  Er  Er9  1  0.206210  0.793790  0.058170  1
  Er  Er10  1  0.206210  0.412419  0.058170  1
  Er  Er11  1  0.587581  0.793790  0.058170  1
  Er  Er12  1  0.540034  0.459966  0.250000  1
  Er  Er13  1  0.540034  0.080067  0.250000  1
  Er  Er14  1  0.919933  0.459966  0.250000  1
  Er  Er15  1  0.459966  0.540034  0.750000  1
  Er  Er16  1  0.459966  0.919933  0.750000  1
  Er  Er17  1  0.080067  0.540034  0.750000  1
  Sc  Sc18  1  0.000000  0.000000  0.500000  1
  Sc  Sc19  1  0.000000  0.000000  0.000000  1
  Al  Al20  1  0.894157  0.105843  0.250000  1
  Al  Al21  1  0.894157  0.788316  0.250000  1
  Al  Al22  1  0.211684  0.105843  0.250000  1
  Al  Al23  1  0.105843  0.894157  0.750000  1
  Al  Al24  1  0.105843  0.211684  0.750000  1
  Al  Al25  1  0.788316  0.894157  0.750000  1
  Ru  Ru26  1  0.333333  0.666667  0.250000  1
  Ru  Ru27  1  0.666667  0.333333  0.750000  1
