# generated using pymatgen
data_NaTc(MoS2)2
_symmetry_space_group_name_H-M   'P 1'
_cell_length_a   6.82416605
_cell_length_b   6.63875387
_cell_length_c   6.76850601
_cell_angle_alpha   96.92448618
_cell_angle_beta   90.76350951
_cell_angle_gamma   96.90405537
_symmetry_Int_Tables_number   1
_chemical_formula_structural   NaTc(MoS2)2
_chemical_formula_sum   'Na2 Tc2 Mo4 S8'
_cell_volume   302.07576585
_cell_formula_units_Z   2
loop_
 _symmetry_equiv_pos_site_id
 _symmetry_equiv_pos_as_xyz
  1  'x, y, z'
loop_
 _atom_site_type_symbol
 _atom_site_label
 _atom_site_symmetry_multiplicity
 _atom_site_fract_x
 _atom_site_fract_y
 _atom_site_fract_z
 _atom_site_occupancy
  Na  Na0  1  0.006203  0.709688  0.916805  1
  Na  Na1  1  0.993797  0.290312  0.083195  1
  Tc  Tc2  1  0.239064  0.899079  0.555734  1
  Tc  Tc3  1  0.760936  0.100921  0.444266  1
  Mo  Mo4  1  0.547783  0.732866  0.404298  1
  Mo  Mo5  1  0.452217  0.267134  0.595702  1
  Mo  Mo6  1  0.588141  0.963528  0.759999  1
  Mo  Mo7  1  0.411859  0.036472  0.240001  1
  S  S8  1  0.773568  0.305992  0.760425  1
  S  S9  1  0.226432  0.694008  0.239575  1
  S  S10  1  0.711478  0.888729  0.121501  1
  S  S11  1  0.288522  0.111271  0.878499  1
  S  S12  1  0.861432  0.812323  0.587997  1
  S  S13  1  0.138568  0.187677  0.412003  1
  S  S14  1  0.379921  0.633753  0.713005  1
  S  S15  1  0.620079  0.366247  0.286995  1
