# generated using pymatgen
data_Th8Sc11Si16Au
_symmetry_space_group_name_H-M   'P 1'
_cell_length_a   7.18388680
_cell_length_b   7.46074855
_cell_length_c   14.30411000
_cell_angle_alpha   90.00000000
_cell_angle_beta   90.00000000
_cell_angle_gamma   89.88936435
_symmetry_Int_Tables_number   1
_chemical_formula_structural   Th8Sc11Si16Au
_chemical_formula_sum   'Th8 Sc11 Si16 Au1'
_cell_volume   766.65843008
_cell_formula_units_Z   1
loop_
 _symmetry_equiv_pos_site_id
 _symmetry_equiv_pos_as_xyz
  1  'x, y, z'
loop_
 _atom_site_type_symbol
 _atom_site_label
 _atom_site_symmetry_multiplicity
 _atom_site_fract_x
 _atom_site_fract_y
 _atom_site_fract_z
 _atom_site_occupancy
  Th  Th0  1  0.006260  0.171345  0.096137  1
  Th  Th1  1  0.997370  0.821074  0.899730  1
  Th  Th2  1  0.485735  0.669806  0.898362  1
  Th  Th3  1  0.997370  0.821074  0.600270  1
  Th  Th4  1  0.506158  0.326211  0.096419  1
  Th  Th5  1  0.006260  0.171345  0.403863  1
  Th  Th6  1  0.506158  0.326211  0.403581  1
  Th  Th7  1  0.485735  0.669806  0.601638  1
  Sc  Sc8  1  0.835482  0.496771  0.250000  1
  Sc  Sc9  1  0.336303  0.002847  0.250000  1
  Sc  Sc10  1  0.663145  0.000604  0.750000  1
  Sc  Sc11  1  0.329328  0.186765  0.624592  1
  Sc  Sc12  1  0.665074  0.824492  0.376101  1
  Sc  Sc13  1  0.166929  0.678303  0.373914  1
  Sc  Sc14  1  0.665074  0.824492  0.123899  1
  Sc  Sc15  1  0.845621  0.325046  0.624533  1
  Sc  Sc16  1  0.329328  0.186765  0.875408  1
  Sc  Sc17  1  0.845621  0.325046  0.875467  1
  Sc  Sc18  1  0.166929  0.678303  0.126086  1
  Si  Si19  1  0.036006  0.110733  0.750000  1
  Si  Si20  1  0.962218  0.876460  0.250000  1
  Si  Si21  1  0.465645  0.621461  0.250000  1
  Si  Si22  1  0.552783  0.373854  0.750000  1
  Si  Si23  1  0.296874  0.900010  0.750000  1
  Si  Si24  1  0.709190  0.125331  0.250000  1
  Si  Si25  1  0.208518  0.375107  0.250000  1
  Si  Si26  1  0.780166  0.622726  0.750000  1
  Si  Si27  1  0.163052  0.460494  0.528365  1
  Si  Si28  1  0.839662  0.537795  0.461607  1
  Si  Si29  1  0.339743  0.961534  0.463801  1
  Si  Si30  1  0.839662  0.537795  0.038393  1
  Si  Si31  1  0.661424  0.033382  0.541629  1
  Si  Si32  1  0.163052  0.460494  0.971635  1
  Si  Si33  1  0.661424  0.033382  0.958371  1
  Si  Si34  1  0.339743  0.961534  0.036199  1
  Au  Au35  1  0.140956  0.501599  0.750000  1
