# generated using pymatgen
data_KMoH5
_symmetry_space_group_name_H-M   'P 1'
_cell_length_a   4.75285700
_cell_length_b   5.70146900
_cell_length_c   12.94689000
_cell_angle_alpha   90.00000000
_cell_angle_beta   90.00000000
_cell_angle_gamma   90.00000000
_symmetry_Int_Tables_number   1
_chemical_formula_structural   KMoH5
_chemical_formula_sum   'K4 Mo4 H20'
_cell_volume   350.83828006
_cell_formula_units_Z   4
loop_
 _symmetry_equiv_pos_site_id
 _symmetry_equiv_pos_as_xyz
  1  'x, y, z'
loop_
 _atom_site_type_symbol
 _atom_site_label
 _atom_site_symmetry_multiplicity
 _atom_site_fract_x
 _atom_site_fract_y
 _atom_site_fract_z
 _atom_site_occupancy
  K  K0  1  0.268364  0.250033  0.656810  1
  K  K1  1  0.768364  0.249967  0.343190  1
  K  K2  1  0.231636  0.749967  0.156810  1
  K  K3  1  0.731636  0.750033  0.843190  1
  Mo  Mo4  1  0.237709  0.250060  0.957532  1
  Mo  Mo5  1  0.737709  0.249940  0.042468  1
  Mo  Mo6  1  0.262291  0.749940  0.457532  1
  Mo  Mo7  1  0.762291  0.750060  0.542468  1
  H  H8  1  0.508051  0.514346  0.486806  1
  H  H9  1  0.008051  0.985654  0.513194  1
  H  H10  1  0.991949  0.485654  0.986806  1
  H  H11  1  0.491949  0.014346  0.013194  1
  H  H12  1  0.220949  0.067710  0.849070  1
  H  H13  1  0.720949  0.432290  0.150930  1
  H  H14  1  0.279051  0.932290  0.349070  1
  H  H15  1  0.779051  0.567710  0.650930  1
  H  H16  1  0.221310  0.432560  0.849094  1
  H  H17  1  0.721310  0.067440  0.150906  1
  H  H18  1  0.278690  0.567440  0.349094  1
  H  H19  1  0.778690  0.932560  0.650906  1
  H  H20  1  0.618299  0.249962  0.904654  1
  H  H21  1  0.118299  0.250038  0.095346  1
  H  H22  1  0.881701  0.750038  0.404654  1
  H  H23  1  0.381701  0.749962  0.595346  1
  H  H24  1  0.991978  0.014342  0.986822  1
  H  H25  1  0.491978  0.485658  0.013178  1
  H  H26  1  0.508022  0.985658  0.486822  1
  H  H27  1  0.008022  0.514342  0.513178  1
