# generated using pymatgen
data_Ho2Lu3OsRu
_symmetry_space_group_name_H-M   'P 1'
_cell_length_a   6.23815121
_cell_length_b   7.26050788
_cell_length_c   8.32918352
_cell_angle_alpha   97.20683302
_cell_angle_beta   112.01131400
_cell_angle_gamma   89.90217387
_symmetry_Int_Tables_number   1
_chemical_formula_structural   Ho2Lu3OsRu
_chemical_formula_sum   'Ho4 Lu6 Os2 Ru2'
_cell_volume   346.56465443
_cell_formula_units_Z   2
loop_
 _symmetry_equiv_pos_site_id
 _symmetry_equiv_pos_as_xyz
  1  'x, y, z'
loop_
 _atom_site_type_symbol
 _atom_site_label
 _atom_site_symmetry_multiplicity
 _atom_site_fract_x
 _atom_site_fract_y
 _atom_site_fract_z
 _atom_site_occupancy
  Ho  Ho0  1  0.521987  0.082582  0.811289  1
  Ho  Ho1  1  0.478013  0.917418  0.188711  1
  Ho  Ho2  1  0.711629  0.417108  0.187564  1
  Ho  Ho3  1  0.288371  0.582892  0.812436  1
  Lu  Lu4  1  0.300809  0.314899  0.434631  1
  Lu  Lu5  1  0.699191  0.685101  0.565369  1
  Lu  Lu6  1  0.865623  0.185876  0.566639  1
  Lu  Lu7  1  0.134377  0.814124  0.433361  1
  Lu  Lu8  1  0.079531  0.250595  0.999782  1
  Lu  Lu9  1  0.920469  0.749405  0.000218  1
  Os  Os10  1  0.317588  0.576928  0.221219  1
  Os  Os11  1  0.682412  0.423072  0.778781  1
  Ru  Ru12  1  0.096562  0.924125  0.777512  1
  Ru  Ru13  1  0.903438  0.075875  0.222488  1
