# generated using pymatgen
data_Pu3Ga3Ge2Os
_symmetry_space_group_name_H-M   'P 1'
_cell_length_a   6.91160125
_cell_length_b   6.90828468
_cell_length_c   4.35733300
_cell_angle_alpha   90.00000000
_cell_angle_beta   90.00000000
_cell_angle_gamma   120.01573122
_symmetry_Int_Tables_number   1
_chemical_formula_structural   Pu3Ga3Ge2Os
_chemical_formula_sum   'Pu3 Ga3 Ge2 Os1'
_cell_volume   180.14881840
_cell_formula_units_Z   1
loop_
 _symmetry_equiv_pos_site_id
 _symmetry_equiv_pos_as_xyz
  1  'x, y, z'
loop_
 _atom_site_type_symbol
 _atom_site_label
 _atom_site_symmetry_multiplicity
 _atom_site_fract_x
 _atom_site_fract_y
 _atom_site_fract_z
 _atom_site_occupancy
  Pu  Pu0  1  0.000147  0.415061  0.500000  1
  Pu  Pu1  1  0.585058  0.584932  0.500000  1
  Pu  Pu2  1  0.414840  0.999964  0.500000  1
  Ga  Ga3  1  0.000101  0.769241  0.000000  1
  Ga  Ga4  1  0.230774  0.230708  0.000000  1
  Ga  Ga5  1  0.769172  0.000089  0.000000  1
  Ge  Ge6  1  0.333341  0.666654  0.000000  1
  Ge  Ge7  1  0.666824  0.333331  0.000000  1
  Os  Os8  1  0.999744  0.000018  0.500000  1
