# generated using pymatgen
data_YPa3IrRh3
_symmetry_space_group_name_H-M   'P 1'
_cell_length_a   3.74180100
_cell_length_b   4.20589000
_cell_length_c   10.87399200
_cell_angle_alpha   90.00000000
_cell_angle_beta   90.00000000
_cell_angle_gamma   90.00000000
_symmetry_Int_Tables_number   1
_chemical_formula_structural   YPa3IrRh3
_chemical_formula_sum   'Y1 Pa3 Ir1 Rh3'
_cell_volume   171.13057356
_cell_formula_units_Z   1
loop_
 _symmetry_equiv_pos_site_id
 _symmetry_equiv_pos_as_xyz
  1  'x, y, z'
loop_
 _atom_site_type_symbol
 _atom_site_label
 _atom_site_symmetry_multiplicity
 _atom_site_fract_x
 _atom_site_fract_y
 _atom_site_fract_z
 _atom_site_occupancy
  Y  Y0  1  0.500000  0.750000  0.360401  1
  Pa  Pa1  1  0.000000  0.750000  0.865338  1
  Pa  Pa2  1  0.000000  0.250000  0.146079  1
  Pa  Pa3  1  0.500000  0.250000  0.628870  1
  Ir  Ir4  1  0.500000  0.750000  0.091198  1
  Rh  Rh5  1  0.000000  0.750000  0.603817  1
  Rh  Rh6  1  0.000000  0.250000  0.407847  1
  Rh  Rh7  1  0.500000  0.250000  0.896449  1
