# generated using pymatgen
data_Pr4Al19Rh5
_symmetry_space_group_name_H-M   'P 1'
_cell_length_a   7.68160153
_cell_length_b   7.68160268
_cell_length_c   9.68279721
_cell_angle_alpha   89.68148996
_cell_angle_beta   89.68149083
_cell_angle_gamma   119.01624380
_symmetry_Int_Tables_number   1
_chemical_formula_structural   Pr4Al19Rh5
_chemical_formula_sum   'Pr4 Al19 Rh5'
_cell_volume   499.60798806
_cell_formula_units_Z   1
loop_
 _symmetry_equiv_pos_site_id
 _symmetry_equiv_pos_as_xyz
  1  'x, y, z'
loop_
 _atom_site_type_symbol
 _atom_site_label
 _atom_site_symmetry_multiplicity
 _atom_site_fract_x
 _atom_site_fract_y
 _atom_site_fract_z
 _atom_site_occupancy
  Pr  Pr0  1  0.995487  0.680793  0.746462  1
  Pr  Pr1  1  0.004513  0.319207  0.253538  1
  Pr  Pr2  1  0.680793  0.995487  0.746462  1
  Pr  Pr3  1  0.319207  0.004513  0.253538  1
  Al  Al4  1  0.143042  0.143042  0.763687  1
  Al  Al5  1  0.856958  0.856958  0.236313  1
  Al  Al6  1  0.008059  0.351432  0.579233  1
  Al  Al7  1  0.991941  0.648568  0.420767  1
  Al  Al8  1  0.999887  0.662928  0.067781  1
  Al  Al9  1  0.337072  0.000113  0.932219  1
  Al  Al10  1  0.000113  0.337072  0.932219  1
  Al  Al11  1  0.662928  0.999887  0.067781  1
  Al  Al12  1  0.648568  0.991941  0.420767  1
  Al  Al13  1  0.351432  0.008059  0.579233  1
  Al  Al14  1  0.333286  0.333286  0.042225  1
  Al  Al15  1  0.666714  0.666714  0.957775  1
  Al  Al16  1  0.651617  0.651617  0.556815  1
  Al  Al17  1  0.348383  0.348383  0.443185  1
  Al  Al18  1  0.339507  0.551245  0.753245  1
  Al  Al19  1  0.660493  0.448755  0.246755  1
  Al  Al20  1  0.551245  0.339507  0.753245  1
  Al  Al21  1  0.448755  0.660493  0.246755  1
  Al  Al22  1  0.000000  0.000000  0.500000  1
  Rh  Rh23  1  0.671360  0.328640  0.500000  1
  Rh  Rh24  1  0.328640  0.671360  0.500000  1
  Rh  Rh25  1  0.329619  0.670381  0.000000  1
  Rh  Rh26  1  0.670381  0.329619  0.000000  1
  Rh  Rh27  1  0.000000  0.000000  0.000000  1
