# generated using pymatgen
data_Pr16Ga5Co2Au
_symmetry_space_group_name_H-M   'P 1'
_cell_length_a   10.46138000
_cell_length_b   10.50830808
_cell_length_c   7.19847036
_cell_angle_alpha   89.96856962
_cell_angle_beta   89.99998640
_cell_angle_gamma   119.85108369
_symmetry_Int_Tables_number   1
_chemical_formula_structural   Pr16Ga5Co2Au
_chemical_formula_sum   'Pr16 Ga5 Co2 Au1'
_cell_volume   686.34469204
_cell_formula_units_Z   1
loop_
 _symmetry_equiv_pos_site_id
 _symmetry_equiv_pos_as_xyz
  1  'x, y, z'
loop_
 _atom_site_type_symbol
 _atom_site_label
 _atom_site_symmetry_multiplicity
 _atom_site_fract_x
 _atom_site_fract_y
 _atom_site_fract_z
 _atom_site_occupancy
  Pr  Pr0  1  0.665883  0.331767  0.179191  1
  Pr  Pr1  1  0.008027  0.016051  0.277703  1
  Pr  Pr2  1  0.459480  0.918963  0.288836  1
  Pr  Pr3  1  0.081231  0.537524  0.292031  1
  Pr  Pr4  1  0.456279  0.537504  0.292000  1
  Pr  Pr5  1  0.342143  0.168638  0.489711  1
  Pr  Pr6  1  0.826492  0.168630  0.489689  1
  Pr  Pr7  1  0.830191  0.660383  0.471452  1
  Pr  Pr8  1  0.334703  0.669400  0.680448  1
  Pr  Pr9  1  0.999249  0.998501  0.772998  1
  Pr  Pr10  1  0.537415  0.074832  0.794093  1
  Pr  Pr11  1  0.545105  0.464426  0.791034  1
  Pr  Pr12  1  0.919318  0.464403  0.791055  1
  Pr  Pr13  1  0.164113  0.829900  0.990571  1
  Pr  Pr14  1  0.665791  0.829901  0.990582  1
  Pr  Pr15  1  0.170597  0.341204  0.980380  1
  Ga  Ga16  1  0.329599  0.165146  0.040115  1
  Ga  Ga17  1  0.835537  0.165145  0.040121  1
  Ga  Ga18  1  0.164227  0.328460  0.541446  1
  Ga  Ga19  1  0.163855  0.834394  0.542870  1
  Ga  Ga20  1  0.670543  0.834389  0.542862  1
  Co  Co21  1  0.335587  0.671173  0.051345  1
  Co  Co22  1  0.666327  0.332652  0.552164  1
  Au  Au23  1  0.828307  0.656611  0.043305  1
