# generated using pymatgen
data_Dy8AlSi11Pt4
_symmetry_space_group_name_H-M   'P 1'
_cell_length_a   8.19970200
_cell_length_b   8.18422859
_cell_length_c   8.12379103
_cell_angle_alpha   89.99106012
_cell_angle_beta   90.00000000
_cell_angle_gamma   120.06255342
_symmetry_Int_Tables_number   1
_chemical_formula_structural   Dy8AlSi11Pt4
_chemical_formula_sum   'Dy8 Al1 Si11 Pt4'
_cell_volume   471.83602288
_cell_formula_units_Z   1
loop_
 _symmetry_equiv_pos_site_id
 _symmetry_equiv_pos_as_xyz
  1  'x, y, z'
loop_
 _atom_site_type_symbol
 _atom_site_label
 _atom_site_symmetry_multiplicity
 _atom_site_fract_x
 _atom_site_fract_y
 _atom_site_fract_z
 _atom_site_occupancy
  Dy  Dy0  1  0.998103  0.996205  0.251467  1
  Dy  Dy1  1  0.998053  0.996106  0.748345  1
  Dy  Dy2  1  0.001689  0.502586  0.250266  1
  Dy  Dy3  1  0.500897  0.502586  0.250266  1
  Dy  Dy4  1  0.501601  0.003202  0.750535  1
  Dy  Dy5  1  0.498826  0.997652  0.249579  1
  Dy  Dy6  1  0.503571  0.499884  0.749787  1
  Dy  Dy7  1  0.996313  0.499884  0.749787  1
  Al  Al8  1  0.166306  0.332612  0.999161  1
  Si  Si9  1  0.668285  0.833584  0.999287  1
  Si  Si10  1  0.164973  0.329946  0.500809  1
  Si  Si11  1  0.332257  0.163188  0.000751  1
  Si  Si12  1  0.165299  0.833584  0.999287  1
  Si  Si13  1  0.668892  0.834927  0.500869  1
  Si  Si14  1  0.834568  0.669136  0.000599  1
  Si  Si15  1  0.330781  0.165633  0.499190  1
  Si  Si16  1  0.166035  0.834927  0.500869  1
  Si  Si17  1  0.834974  0.669948  0.499217  1
  Si  Si18  1  0.830931  0.163188  0.000751  1
  Si  Si19  1  0.834852  0.165633  0.499190  1
  Pt  Pt20  1  0.335856  0.671713  0.996299  1
  Pt  Pt21  1  0.333309  0.666619  0.502978  1
  Pt  Pt22  1  0.667125  0.334250  0.003479  1
  Pt  Pt23  1  0.666504  0.333007  0.497232  1
