# generated using pymatgen
data_Pa2(Ga3Ru)3
_symmetry_space_group_name_H-M   'P 1'
_cell_length_a   7.61496294
_cell_length_b   7.61496289
_cell_length_c   9.42055600
_cell_angle_alpha   90.00000000
_cell_angle_beta   90.00000000
_cell_angle_gamma   119.68486923
_symmetry_Int_Tables_number   1
_chemical_formula_structural   Pa2(Ga3Ru)3
_chemical_formula_sum   'Pa4 Ga18 Ru6'
_cell_volume   474.58400890
_cell_formula_units_Z   2
loop_
 _symmetry_equiv_pos_site_id
 _symmetry_equiv_pos_as_xyz
  1  'x, y, z'
loop_
 _atom_site_type_symbol
 _atom_site_label
 _atom_site_symmetry_multiplicity
 _atom_site_fract_x
 _atom_site_fract_y
 _atom_site_fract_z
 _atom_site_occupancy
  Pa  Pa0  1  0.997924  0.669882  0.250000  1
  Pa  Pa1  1  0.002076  0.330118  0.750000  1
  Pa  Pa2  1  0.669882  0.997924  0.250000  1
  Pa  Pa3  1  0.330118  0.002076  0.750000  1
  Ga  Ga4  1  0.129617  0.129617  0.250000  1
  Ga  Ga5  1  0.870383  0.870383  0.750000  1
  Ga  Ga6  1  0.004495  0.335511  0.080625  1
  Ga  Ga7  1  0.995505  0.664489  0.919375  1
  Ga  Ga8  1  0.995505  0.664489  0.580625  1
  Ga  Ga9  1  0.335511  0.004495  0.419375  1
  Ga  Ga10  1  0.004495  0.335511  0.419375  1
  Ga  Ga11  1  0.664489  0.995505  0.580625  1
  Ga  Ga12  1  0.664489  0.995505  0.919375  1
  Ga  Ga13  1  0.335511  0.004495  0.080625  1
  Ga  Ga14  1  0.336440  0.336440  0.564516  1
  Ga  Ga15  1  0.663560  0.663560  0.435484  1
  Ga  Ga16  1  0.663560  0.663560  0.064516  1
  Ga  Ga17  1  0.336440  0.336440  0.935484  1
  Ga  Ga18  1  0.338905  0.546875  0.250000  1
  Ga  Ga19  1  0.661095  0.453125  0.750000  1
  Ga  Ga20  1  0.546875  0.338905  0.250000  1
  Ga  Ga21  1  0.453125  0.661095  0.750000  1
  Ru  Ru22  1  0.674501  0.325499  0.000000  1
  Ru  Ru23  1  0.325499  0.674501  0.000000  1
  Ru  Ru24  1  0.325499  0.674501  0.500000  1
  Ru  Ru25  1  0.674501  0.325499  0.500000  1
  Ru  Ru26  1  0.000000  0.000000  0.000000  1
  Ru  Ru27  1  0.000000  0.000000  0.500000  1
