# generated using pymatgen
data_CaNdFeIr3
_symmetry_space_group_name_H-M   'P 1'
_cell_length_a   5.21502303
_cell_length_b   5.21502223
_cell_length_c   5.21502212
_cell_angle_alpha   63.85889812
_cell_angle_beta   63.85889782
_cell_angle_gamma   63.85889407
_symmetry_Int_Tables_number   1
_chemical_formula_structural   CaNdFeIr3
_chemical_formula_sum   'Ca1 Nd1 Fe1 Ir3'
_cell_volume   108.82222737
_cell_formula_units_Z   1
loop_
 _symmetry_equiv_pos_site_id
 _symmetry_equiv_pos_as_xyz
  1  'x, y, z'
loop_
 _atom_site_type_symbol
 _atom_site_label
 _atom_site_symmetry_multiplicity
 _atom_site_fract_x
 _atom_site_fract_y
 _atom_site_fract_z
 _atom_site_occupancy
  Ca  Ca0  1  0.999086  0.999086  0.999086  1
  Nd  Nd1  1  0.249566  0.249566  0.249566  1
  Fe  Fe2  1  0.624952  0.624952  0.624952  1
  Ir  Ir3  1  0.625920  0.625920  0.124557  1
  Ir  Ir4  1  0.625920  0.124557  0.625920  1
  Ir  Ir5  1  0.124557  0.625920  0.625920  1
