# generated using pymatgen
data_Ho2Er3Bi2Ir
_symmetry_space_group_name_H-M   'P 1'
_cell_length_a   7.94543000
_cell_length_b   8.98440000
_cell_length_c   12.44560200
_cell_angle_alpha   90.00000000
_cell_angle_beta   90.00000000
_cell_angle_gamma   90.00000000
_symmetry_Int_Tables_number   1
_chemical_formula_structural   Ho2Er3Bi2Ir
_chemical_formula_sum   'Ho8 Er12 Bi8 Ir4'
_cell_volume   888.42831920
_cell_formula_units_Z   4
loop_
 _symmetry_equiv_pos_site_id
 _symmetry_equiv_pos_as_xyz
  1  'x, y, z'
loop_
 _atom_site_type_symbol
 _atom_site_label
 _atom_site_symmetry_multiplicity
 _atom_site_fract_x
 _atom_site_fract_y
 _atom_site_fract_z
 _atom_site_occupancy
  Ho  Ho0  1  0.879483  0.750000  0.806962  1
  Ho  Ho1  1  0.120517  0.250000  0.193038  1
  Ho  Ho2  1  0.379483  0.250000  0.693038  1
  Ho  Ho3  1  0.620517  0.750000  0.306962  1
  Ho  Ho4  1  0.054175  0.750000  0.498829  1
  Ho  Ho5  1  0.945825  0.250000  0.501171  1
  Ho  Ho6  1  0.554175  0.250000  0.001171  1
  Ho  Ho7  1  0.445825  0.750000  0.998829  1
  Er  Er8  1  0.342563  0.750000  0.705500  1
  Er  Er9  1  0.657437  0.250000  0.294500  1
  Er  Er10  1  0.842563  0.250000  0.794500  1
  Er  Er11  1  0.157437  0.750000  0.205500  1
  Er  Er12  1  0.676033  0.541783  0.565170  1
  Er  Er13  1  0.323967  0.458217  0.434830  1
  Er  Er14  1  0.176033  0.458217  0.934830  1
  Er  Er15  1  0.323967  0.041783  0.434830  1
  Er  Er16  1  0.823967  0.541783  0.065170  1
  Er  Er17  1  0.676033  0.958217  0.565170  1
  Er  Er18  1  0.823967  0.958217  0.065170  1
  Er  Er19  1  0.176033  0.041783  0.934830  1
  Bi  Bi20  1  0.569873  0.509629  0.827111  1
  Bi  Bi21  1  0.430127  0.490371  0.172889  1
  Bi  Bi22  1  0.069873  0.490371  0.672889  1
  Bi  Bi23  1  0.430127  0.009629  0.172889  1
  Bi  Bi24  1  0.930127  0.509629  0.327111  1
  Bi  Bi25  1  0.569873  0.990371  0.827111  1
  Bi  Bi26  1  0.930127  0.990371  0.327111  1
  Bi  Bi27  1  0.069873  0.009629  0.672889  1
  Ir  Ir28  1  0.070098  0.750000  0.991433  1
  Ir  Ir29  1  0.929902  0.250000  0.008567  1
  Ir  Ir30  1  0.570098  0.250000  0.508567  1
  Ir  Ir31  1  0.429902  0.750000  0.491433  1
