# generated using pymatgen
data_HfPa5Co15Si7Rh
_symmetry_space_group_name_H-M   'P 1'
_cell_length_a   8.26923291
_cell_length_b   8.24697953
_cell_length_c   8.26559127
_cell_angle_alpha   60.07445742
_cell_angle_beta   59.82270213
_cell_angle_gamma   60.08897717
_symmetry_Int_Tables_number   1
_chemical_formula_structural   HfPa5Co15Si7Rh
_chemical_formula_sum   'Hf1 Pa5 Co15 Si7 Rh1'
_cell_volume   398.53607735
_cell_formula_units_Z   1
loop_
 _symmetry_equiv_pos_site_id
 _symmetry_equiv_pos_as_xyz
  1  'x, y, z'
loop_
 _atom_site_type_symbol
 _atom_site_label
 _atom_site_symmetry_multiplicity
 _atom_site_fract_x
 _atom_site_fract_y
 _atom_site_fract_z
 _atom_site_occupancy
  Hf  Hf0  1  0.212763  0.785161  0.216915  1
  Pa  Pa1  1  0.213681  0.787816  0.789714  1
  Pa  Pa2  1  0.793656  0.788457  0.213940  1
  Pa  Pa3  1  0.793656  0.203946  0.213940  1
  Pa  Pa4  1  0.213681  0.208788  0.789714  1
  Pa  Pa5  1  0.784046  0.218312  0.779331  1
  Co  Co6  1  0.164410  0.500678  0.166229  1
  Co  Co7  1  0.862892  0.377715  0.381678  1
  Co  Co8  1  0.497174  0.837423  0.827976  1
  Co  Co9  1  0.503055  0.165965  0.165014  1
  Co  Co10  1  0.830376  0.834191  0.501239  1
  Co  Co11  1  0.164388  0.167261  0.501092  1
  Co  Co12  1  0.136271  0.621852  0.620024  1
  Co  Co13  1  0.164410  0.168683  0.166229  1
  Co  Co14  1  0.378883  0.378148  0.864820  1
  Co  Co15  1  0.620448  0.620691  0.621339  1
  Co  Co16  1  0.376212  0.864744  0.380655  1
  Co  Co17  1  0.376212  0.378389  0.380655  1
  Co  Co18  1  0.836715  0.838813  0.830231  1
  Co  Co19  1  0.620448  0.137522  0.621339  1
  Co  Co20  1  0.836715  0.494239  0.830231  1
  Si  Si21  1  0.496916  0.003271  0.496541  1
  Si  Si22  1  0.492877  0.503129  0.005906  1
  Si  Si23  1  0.494432  0.498475  0.508618  1
  Si  Si24  1  0.011019  0.990012  0.493268  1
  Si  Si25  1  0.003597  0.500962  0.994479  1
  Si  Si26  1  0.011019  0.505700  0.493268  1
  Si  Si27  1  0.492877  0.998088  0.005906  1
  Rh  Rh28  1  0.617166  0.621565  0.139707  1
