# generated using pymatgen
data_NdScSb5
_symmetry_space_group_name_H-M   'P 1'
_cell_length_a   4.26036800
_cell_length_b   13.20953939
_cell_length_c   14.33897476
_cell_angle_alpha   78.20446648
_cell_angle_beta   90.00000000
_cell_angle_gamma   90.00000000
_symmetry_Int_Tables_number   1
_chemical_formula_structural   NdScSb5
_chemical_formula_sum   'Nd4 Sc4 Sb20'
_cell_volume   789.92129169
_cell_formula_units_Z   4
loop_
 _symmetry_equiv_pos_site_id
 _symmetry_equiv_pos_as_xyz
  1  'x, y, z'
loop_
 _atom_site_type_symbol
 _atom_site_label
 _atom_site_symmetry_multiplicity
 _atom_site_fract_x
 _atom_site_fract_y
 _atom_site_fract_z
 _atom_site_occupancy
  Nd  Nd0  1  0.250000  0.669916  0.577709  1
  Nd  Nd1  1  0.750000  0.330084  0.422291  1
  Nd  Nd2  1  0.250000  0.951210  0.351822  1
  Nd  Nd3  1  0.750000  0.048790  0.648178  1
  Sc  Sc4  1  0.250000  0.399672  0.775383  1
  Sc  Sc5  1  0.750000  0.600328  0.224617  1
  Sc  Sc6  1  0.250000  0.657052  0.860659  1
  Sc  Sc7  1  0.750000  0.342948  0.139341  1
  Sb  Sb8  1  0.250000  0.152479  0.788059  1
  Sb  Sb9  1  0.750000  0.847521  0.211941  1
  Sb  Sb10  1  0.250000  0.140885  0.480028  1
  Sb  Sb11  1  0.750000  0.859115  0.519972  1
  Sb  Sb12  1  0.250000  0.164854  0.156513  1
  Sb  Sb13  1  0.750000  0.835146  0.843487  1
  Sb  Sb14  1  0.250000  0.422846  0.975311  1
  Sb  Sb15  1  0.750000  0.577154  0.024689  1
  Sb  Sb16  1  0.750000  0.030173  0.910175  1
  Sb  Sb17  1  0.250000  0.969827  0.089825  1
  Sb  Sb18  1  0.750000  0.144592  0.308788  1
  Sb  Sb19  1  0.250000  0.855408  0.691212  1
  Sb  Sb20  1  0.750000  0.284073  0.938438  1
  Sb  Sb21  1  0.250000  0.715927  0.061562  1
  Sb  Sb22  1  0.750000  0.293592  0.662588  1
  Sb  Sb23  1  0.250000  0.706408  0.337412  1
  Sb  Sb24  1  0.750000  0.571527  0.747599  1
  Sb  Sb25  1  0.250000  0.428473  0.252401  1
  Sb  Sb26  1  0.750000  0.572890  0.440939  1
  Sb  Sb27  1  0.250000  0.427110  0.559061  1
