# generated using pymatgen
data_Y11HoOs3Ru
_symmetry_space_group_name_H-M   'P 1'
_cell_length_a   6.35927844
_cell_length_b   7.41565782
_cell_length_c   9.13254252
_cell_angle_alpha   90.00058667
_cell_angle_beta   90.06632579
_cell_angle_gamma   90.01061224
_symmetry_Int_Tables_number   1
_chemical_formula_structural   Y11HoOs3Ru
_chemical_formula_sum   'Y11 Ho1 Os3 Ru1'
_cell_volume   430.67427102
_cell_formula_units_Z   1
loop_
 _symmetry_equiv_pos_site_id
 _symmetry_equiv_pos_as_xyz
  1  'x, y, z'
loop_
 _atom_site_type_symbol
 _atom_site_label
 _atom_site_symmetry_multiplicity
 _atom_site_fract_x
 _atom_site_fract_y
 _atom_site_fract_z
 _atom_site_occupancy
  Y  Y0  1  0.329759  0.675724  0.064452  1
  Y  Y1  1  0.169251  0.175263  0.436811  1
  Y  Y2  1  0.668451  0.324468  0.563199  1
  Y  Y3  1  0.832671  0.825645  0.937594  1
  Y  Y4  1  0.668347  0.324292  0.936927  1
  Y  Y5  1  0.832456  0.825635  0.562509  1
  Y  Y6  1  0.329820  0.675600  0.435562  1
  Y  Y7  1  0.868472  0.539441  0.249882  1
  Y  Y8  1  0.631094  0.040093  0.249822  1
  Y  Y9  1  0.133038  0.459371  0.750243  1
  Y  Y10  1  0.368578  0.958421  0.750257  1
  Ho  Ho11  1  0.169300  0.174832  0.063438  1
  Os  Os12  1  0.039266  0.884314  0.249256  1
  Os  Os13  1  0.460225  0.383055  0.249440  1
  Os  Os14  1  0.961620  0.117151  0.750613  1
  Ru  Ru15  1  0.537650  0.616697  0.749994  1
