# generated using pymatgen
data_Hf4Ta5VTc2
_symmetry_space_group_name_H-M   'P 1'
_cell_length_a   5.54330444
_cell_length_b   5.62535892
_cell_length_c   8.44336100
_cell_angle_alpha   90.00000000
_cell_angle_beta   90.00000000
_cell_angle_gamma   120.49086913
_symmetry_Int_Tables_number   1
_chemical_formula_structural   Hf4Ta5VTc2
_chemical_formula_sum   'Hf4 Ta5 V1 Tc2'
_cell_volume   226.87961463
_cell_formula_units_Z   1
loop_
 _symmetry_equiv_pos_site_id
 _symmetry_equiv_pos_as_xyz
  1  'x, y, z'
loop_
 _atom_site_type_symbol
 _atom_site_label
 _atom_site_symmetry_multiplicity
 _atom_site_fract_x
 _atom_site_fract_y
 _atom_site_fract_z
 _atom_site_occupancy
  Hf  Hf0  1  0.336647  0.668324  0.440926  1
  Hf  Hf1  1  0.667409  0.333704  0.563396  1
  Hf  Hf2  1  0.667409  0.333704  0.936604  1
  Hf  Hf3  1  0.336647  0.668324  0.059074  1
  Ta  Ta4  1  0.830713  0.168854  0.250000  1
  Ta  Ta5  1  0.830713  0.661860  0.250000  1
  Ta  Ta6  1  0.336856  0.168428  0.250000  1
  Ta  Ta7  1  0.171142  0.829875  0.750000  1
  Ta  Ta8  1  0.171142  0.341267  0.750000  1
  V  V9  1  0.662794  0.831397  0.750000  1
  Tc  Tc10  1  0.994264  0.997132  0.504752  1
  Tc  Tc11  1  0.994264  0.997132  0.995248  1
