# generated using pymatgen
data_Na4Ca(ReN3)2
_symmetry_space_group_name_H-M   'P 1'
_cell_length_a   6.08112888
_cell_length_b   6.49387485
_cell_length_c   13.30471314
_cell_angle_alpha   89.99999893
_cell_angle_beta   99.22455937
_cell_angle_gamma   122.27182380
_symmetry_Int_Tables_number   1
_chemical_formula_structural   Na4Ca(ReN3)2
_chemical_formula_sum   'Na8 Ca2 Re4 N12'
_cell_volume   436.18502817
_cell_formula_units_Z   2
loop_
 _symmetry_equiv_pos_site_id
 _symmetry_equiv_pos_as_xyz
  1  'x, y, z'
loop_
 _atom_site_type_symbol
 _atom_site_label
 _atom_site_symmetry_multiplicity
 _atom_site_fract_x
 _atom_site_fract_y
 _atom_site_fract_z
 _atom_site_occupancy
  Na  Na0  1  0.000000  0.380568  0.750000  1
  Na  Na1  1  0.000000  0.615166  0.250000  1
  Na  Na2  1  0.116055  0.764581  0.976538  1
  Na  Na3  1  0.883945  0.648526  0.523462  1
  Na  Na4  1  0.841796  0.154033  0.975360  1
  Na  Na5  1  0.158204  0.312237  0.524640  1
  Na  Na6  1  0.304516  0.053684  0.718422  1
  Na  Na7  1  0.695484  0.749167  0.781578  1
  Ca  Ca8  1  0.695340  0.949423  0.290470  1
  Ca  Ca9  1  0.304660  0.254084  0.209530  1
  Re  Re10  1  0.550692  0.897954  0.574760  1
  Re  Re11  1  0.449308  0.347263  0.925240  1
  Re  Re12  1  0.439226  0.110856  0.420229  1
  Re  Re13  1  0.560774  0.671629  0.079771  1
  N  N14  1  0.300945  0.681632  0.642380  1
  N  N15  1  0.699055  0.380688  0.857620  1
  N  N16  1  0.674652  0.305253  0.340994  1
  N  N17  1  0.325348  0.630601  0.159006  1
  N  N18  1  0.556168  0.210887  0.568457  1
  N  N19  1  0.443832  0.654717  0.931543  1
  N  N20  1  0.438019  0.808457  0.422552  1
  N  N21  1  0.561981  0.370439  0.077448  1
  N  N22  1  0.875893  0.962822  0.624067  1
  N  N23  1  0.124107  0.086930  0.875933  1
  N  N24  1  0.119055  0.058730  0.367111  1
  N  N25  1  0.880945  0.939675  0.132889  1
