# generated using pymatgen
data_Li3La4AgAs8
_symmetry_space_group_name_H-M   'P 1'
_cell_length_a   4.00811700
_cell_length_b   4.04875600
_cell_length_c   21.52924700
_cell_angle_alpha   90.00260387
_cell_angle_beta   90.00000000
_cell_angle_gamma   90.00000000
_symmetry_Int_Tables_number   1
_chemical_formula_structural   Li3La4AgAs8
_chemical_formula_sum   'Li3 La4 Ag1 As8'
_cell_volume   349.37420371
_cell_formula_units_Z   1
loop_
 _symmetry_equiv_pos_site_id
 _symmetry_equiv_pos_as_xyz
  1  'x, y, z'
loop_
 _atom_site_type_symbol
 _atom_site_label
 _atom_site_symmetry_multiplicity
 _atom_site_fract_x
 _atom_site_fract_y
 _atom_site_fract_z
 _atom_site_occupancy
  Li  Li0  1  0.250000  0.224701  0.250016  1
  Li  Li1  1  0.750000  0.724764  0.249954  1
  Li  Li2  1  0.750000  0.775114  0.750010  1
  La  La3  1  0.250000  0.772289  0.616367  1
  La  La4  1  0.750000  0.227725  0.382419  1
  La  La5  1  0.750000  0.273475  0.883554  1
  La  La6  1  0.250000  0.728119  0.117592  1
  Ag  Ag7  1  0.250000  0.275274  0.750355  1
  As  As8  1  0.250000  0.775200  0.832132  1
  As  As9  1  0.750000  0.225209  0.172543  1
  As  As10  1  0.750000  0.274162  0.667808  1
  As  As11  1  0.250000  0.725174  0.327367  1
  As  As12  1  0.250000  0.295767  0.501441  1
  As  As13  1  0.250000  0.203467  0.001905  1
  As  As14  1  0.750000  0.795929  0.998441  1
  As  As15  1  0.750000  0.703630  0.498098  1
