# generated using pymatgen
data_Th8CrSe17
_symmetry_space_group_name_H-M   'P 1'
_cell_length_a   8.48614533
_cell_length_b   8.48614457
_cell_length_c   11.21789324
_cell_angle_alpha   80.10664056
_cell_angle_beta   80.10663929
_cell_angle_gamma   64.51661032
_symmetry_Int_Tables_number   1
_chemical_formula_structural   Th8CrSe17
_chemical_formula_sum   'Th8 Cr1 Se17'
_cell_volume   714.04627686
_cell_formula_units_Z   1
loop_
 _symmetry_equiv_pos_site_id
 _symmetry_equiv_pos_as_xyz
  1  'x, y, z'
loop_
 _atom_site_type_symbol
 _atom_site_label
 _atom_site_symmetry_multiplicity
 _atom_site_fract_x
 _atom_site_fract_y
 _atom_site_fract_z
 _atom_site_occupancy
  Th  Th0  1  0.816413  0.303394  0.295008  1
  Th  Th1  1  0.696606  0.183587  0.704992  1
  Th  Th2  1  0.183587  0.696606  0.704992  1
  Th  Th3  1  0.303394  0.816413  0.295008  1
  Th  Th4  1  0.203510  0.203510  0.545065  1
  Th  Th5  1  0.796490  0.796490  0.454935  1
  Th  Th6  1  0.682819  0.682819  0.980489  1
  Th  Th7  1  0.317181  0.317181  0.019511  1
  Cr  Cr8  1  0.000000  0.000000  0.000000  1
  Se  Se9  1  0.821913  0.431890  0.533242  1
  Se  Se10  1  0.568110  0.178087  0.466758  1
  Se  Se11  1  0.178087  0.568110  0.466758  1
  Se  Se12  1  0.431890  0.821913  0.533242  1
  Se  Se13  1  0.944996  0.323747  0.030338  1
  Se  Se14  1  0.676252  0.055004  0.969662  1
  Se  Se15  1  0.055004  0.676252  0.969662  1
  Se  Se16  1  0.323748  0.944996  0.030338  1
  Se  Se17  1  0.211350  0.211350  0.279082  1
  Se  Se18  1  0.788650  0.788650  0.720918  1
  Se  Se19  1  0.056268  0.056268  0.774273  1
  Se  Se20  1  0.943732  0.943732  0.225727  1
  Se  Se21  1  0.301339  0.301339  0.754861  1
  Se  Se22  1  0.698661  0.698661  0.245139  1
  Se  Se23  1  0.519668  0.519668  0.830766  1
  Se  Se24  1  0.480332  0.480332  0.169234  1
  Se  Se25  1  0.000000  0.000000  0.500000  1
