# generated using pymatgen
data_Nd3InPd3Pb2
_symmetry_space_group_name_H-M   'P 1'
_cell_length_a   7.83711600
_cell_length_b   7.92093909
_cell_length_c   4.05452400
_cell_angle_alpha   90.00000000
_cell_angle_beta   90.00000000
_cell_angle_gamma   119.65054785
_symmetry_Int_Tables_number   1
_chemical_formula_structural   Nd3InPd3Pb2
_chemical_formula_sum   'Nd3 In1 Pd3 Pb2'
_cell_volume   218.73687187
_cell_formula_units_Z   1
loop_
 _symmetry_equiv_pos_site_id
 _symmetry_equiv_pos_as_xyz
  1  'x, y, z'
loop_
 _atom_site_type_symbol
 _atom_site_label
 _atom_site_symmetry_multiplicity
 _atom_site_fract_x
 _atom_site_fract_y
 _atom_site_fract_z
 _atom_site_occupancy
  Nd  Nd0  1  0.003385  0.593575  0.000000  1
  Nd  Nd1  1  0.409810  0.406425  0.000000  1
  Nd  Nd2  1  0.585600  0.000000  0.000000  1
  In  In3  1  0.256778  0.000000  0.500000  1
  Pd  Pd4  1  0.331862  0.671580  0.500000  1
  Pd  Pd5  1  0.004580  0.000000  0.000000  1
  Pd  Pd6  1  0.660283  0.328420  0.500000  1
  Pb  Pb7  1  0.744875  0.742049  0.500000  1
  Pb  Pb8  1  0.002826  0.257951  0.500000  1
