# generated using pymatgen
data_HoEr2In3AgRh2
_symmetry_space_group_name_H-M   'P 1'
_cell_length_a   7.77786169
_cell_length_b   7.78170963
_cell_length_c   3.77362100
_cell_angle_alpha   90.00000000
_cell_angle_beta   90.00000000
_cell_angle_gamma   120.03171152
_symmetry_Int_Tables_number   1
_chemical_formula_structural   HoEr2In3AgRh2
_chemical_formula_sum   'Ho1 Er2 In3 Ag1 Rh2'
_cell_volume   197.73578986
_cell_formula_units_Z   1
loop_
 _symmetry_equiv_pos_site_id
 _symmetry_equiv_pos_as_xyz
  1  'x, y, z'
loop_
 _atom_site_type_symbol
 _atom_site_label
 _atom_site_symmetry_multiplicity
 _atom_site_fract_x
 _atom_site_fract_y
 _atom_site_fract_z
 _atom_site_occupancy
  Ho  Ho0  1  0.029231  0.615813  0.500000  1
  Er  Er1  1  0.383334  0.413266  0.500000  1
  Er  Er2  1  0.587064  0.970194  0.500000  1
  In  In3  1  0.263741  0.005731  0.000000  1
  In  In4  1  0.741691  0.736061  0.000000  1
  In  In5  1  0.994536  0.258155  0.000000  1
  Ag  Ag6  1  0.665869  0.332877  0.000000  1
  Rh  Rh7  1  0.334832  0.667813  0.000000  1
  Rh  Rh8  1  0.999703  0.000091  0.500000  1
