# generated using pymatgen
data_PrHo2Hf3(SnRh)6
_symmetry_space_group_name_H-M   'P 1'
_cell_length_a   7.49871326
_cell_length_b   7.49007682
_cell_length_c   7.57574200
_cell_angle_alpha   90.00000000
_cell_angle_beta   90.00000000
_cell_angle_gamma   119.97168565
_symmetry_Int_Tables_number   1
_chemical_formula_structural   PrHo2Hf3(SnRh)6
_chemical_formula_sum   'Pr1 Ho2 Hf3 Sn6 Rh6'
_cell_volume   368.59773852
_cell_formula_units_Z   1
loop_
 _symmetry_equiv_pos_site_id
 _symmetry_equiv_pos_as_xyz
  1  'x, y, z'
loop_
 _atom_site_type_symbol
 _atom_site_label
 _atom_site_symmetry_multiplicity
 _atom_site_fract_x
 _atom_site_fract_y
 _atom_site_fract_z
 _atom_site_occupancy
  Pr  Pr0  1  0.999909  0.408633  0.750000  1
  Ho  Ho1  1  0.594494  0.594644  0.750000  1
  Ho  Ho2  1  0.405705  0.000572  0.750000  1
  Hf  Hf3  1  0.999222  0.392499  0.250000  1
  Hf  Hf4  1  0.605851  0.605842  0.250000  1
  Hf  Hf5  1  0.394887  0.001496  0.250000  1
  Sn  Sn6  1  0.267665  0.266113  0.492534  1
  Sn  Sn7  1  0.000652  0.736158  0.488441  1
  Sn  Sn8  1  0.000652  0.736158  0.011559  1
  Sn  Sn9  1  0.731767  0.997018  0.492605  1
  Sn  Sn10  1  0.731767  0.997018  0.007395  1
  Sn  Sn11  1  0.267665  0.266113  0.007466  1
  Rh  Rh12  1  0.335044  0.667952  0.456793  1
  Rh  Rh13  1  0.664864  0.332816  0.458171  1
  Rh  Rh14  1  0.335044  0.667952  0.043207  1
  Rh  Rh15  1  0.999956  0.993932  0.750000  1
  Rh  Rh16  1  0.999993  0.002268  0.250000  1
  Rh  Rh17  1  0.664864  0.332816  0.041829  1
