# generated using pymatgen
data_CaDy3Sb6Rh7
_symmetry_space_group_name_H-M   'P 1'
_cell_length_a   7.60630461
_cell_length_b   7.62900564
_cell_length_c   7.62900561
_cell_angle_alpha   109.53142671
_cell_angle_beta   109.41095592
_cell_angle_gamma   109.41094716
_symmetry_Int_Tables_number   1
_chemical_formula_structural   CaDy3Sb6Rh7
_chemical_formula_sum   'Ca1 Dy3 Sb6 Rh7'
_cell_volume   341.04379937
_cell_formula_units_Z   1
loop_
 _symmetry_equiv_pos_site_id
 _symmetry_equiv_pos_as_xyz
  1  'x, y, z'
loop_
 _atom_site_type_symbol
 _atom_site_label
 _atom_site_symmetry_multiplicity
 _atom_site_fract_x
 _atom_site_fract_y
 _atom_site_fract_z
 _atom_site_occupancy
  Ca  Ca0  1  0.500000  0.000000  0.000000  1
  Dy  Dy1  1  0.000000  0.500000  0.000000  1
  Dy  Dy2  1  0.000000  0.000000  0.500000  1
  Dy  Dy3  1  0.500000  0.500000  0.500000  1
  Sb  Sb4  1  0.319298  0.000000  0.316616  1
  Sb  Sb5  1  0.002682  0.683384  0.683384  1
  Sb  Sb6  1  0.680702  0.683384  0.000000  1
  Sb  Sb7  1  0.680702  0.000000  0.683384  1
  Sb  Sb8  1  0.997318  0.316616  0.316616  1
  Sb  Sb9  1  0.319298  0.316616  0.000000  1
  Rh  Rh10  1  0.246334  0.492668  0.746334  1
  Rh  Rh11  1  0.500000  0.253666  0.746334  1
  Rh  Rh12  1  0.753666  0.253666  0.507332  1
  Rh  Rh13  1  0.500000  0.746334  0.253666  1
  Rh  Rh14  1  0.000000  0.000000  0.000000  1
  Rh  Rh15  1  0.246334  0.746334  0.492668  1
  Rh  Rh16  1  0.753666  0.507332  0.253666  1
