# generated using pymatgen
data_Li3Pr2DyPt3
_symmetry_space_group_name_H-M   'P 1'
_cell_length_a   7.26136461
_cell_length_b   7.29423293
_cell_length_c   4.14890400
_cell_angle_alpha   90.00000000
_cell_angle_beta   90.00000000
_cell_angle_gamma   120.14982412
_symmetry_Int_Tables_number   1
_chemical_formula_structural   Li3Pr2DyPt3
_chemical_formula_sum   'Li3 Pr2 Dy1 Pt3'
_cell_volume   190.02215627
_cell_formula_units_Z   1
loop_
 _symmetry_equiv_pos_site_id
 _symmetry_equiv_pos_as_xyz
  1  'x, y, z'
loop_
 _atom_site_type_symbol
 _atom_site_label
 _atom_site_symmetry_multiplicity
 _atom_site_fract_x
 _atom_site_fract_y
 _atom_site_fract_z
 _atom_site_occupancy
  Li  Li0  1  0.775081  0.770124  0.500000  1
  Li  Li1  1  0.224919  0.995043  0.500000  1
  Li  Li2  1  0.000000  0.230687  0.500000  1
  Pr  Pr3  1  0.412366  0.413906  0.000000  1
  Pr  Pr4  1  0.587634  0.001540  0.000000  1
  Dy  Dy5  1  0.000000  0.592335  0.000000  1
  Pt  Pt6  1  0.000000  0.989919  0.000000  1
  Pt  Pt7  1  0.680830  0.343637  0.500000  1
  Pt  Pt8  1  0.319170  0.662808  0.500000  1
