# generated using pymatgen
data_NCl31
_symmetry_space_group_name_H-M   'P 1'
_cell_length_a   7.49043800
_cell_length_b   8.61829865
_cell_length_c   17.07018100
_cell_angle_alpha   80.71571633
_cell_angle_beta   90.00000000
_cell_angle_gamma   90.00000000
_symmetry_Int_Tables_number   1
_chemical_formula_structural   NCl31
_chemical_formula_sum   'N1 Cl31'
_cell_volume   1087.52695870
_cell_formula_units_Z   1
loop_
 _symmetry_equiv_pos_site_id
 _symmetry_equiv_pos_as_xyz
  1  'x, y, z'
loop_
 _atom_site_type_symbol
 _atom_site_label
 _atom_site_symmetry_multiplicity
 _atom_site_fract_x
 _atom_site_fract_y
 _atom_site_fract_z
 _atom_site_occupancy
  N  N0  1  0.750000  0.848341  0.145835  1
  Cl  Cl1  1  0.750000  0.419105  0.343222  1
  Cl  Cl2  1  0.250000  0.577381  0.646193  1
  Cl  Cl3  1  0.250000  0.190051  0.828331  1
  Cl  Cl4  1  0.250000  0.377048  0.166467  1
  Cl  Cl5  1  0.750000  0.895402  0.794466  1
  Cl  Cl6  1  0.750000  0.850592  0.249043  1
  Cl  Cl7  1  0.559316  0.748255  0.119722  1
  Cl  Cl8  1  0.250000  0.619544  0.296217  1
  Cl  Cl9  1  0.513596  0.746944  0.605045  1
  Cl  Cl10  1  0.250000  0.633966  0.769786  1
  Cl  Cl11  1  0.250000  0.124192  0.438485  1
  Cl  Cl12  1  0.750000  0.551276  0.447882  1
  Cl  Cl13  1  0.479751  0.254162  0.898315  1
  Cl  Cl14  1  0.250000  0.829074  0.940991  1
  Cl  Cl15  1  0.750000  0.320971  0.228682  1
  Cl  Cl16  1  0.485446  0.256587  0.395016  1
  Cl  Cl17  1  0.750000  0.186805  0.657197  1
  Cl  Cl18  1  0.250000  0.821658  0.339378  1
  Cl  Cl19  1  0.014554  0.256587  0.395016  1
  Cl  Cl20  1  0.750000  0.886053  0.568771  1
  Cl  Cl21  1  0.940684  0.748255  0.119722  1
  Cl  Cl22  1  0.250000  0.143343  0.196868  1
  Cl  Cl23  1  0.750000  0.110777  0.073258  1
  Cl  Cl24  1  0.750000  0.686399  0.865700  1
  Cl  Cl25  1  0.750000  0.385359  0.702976  1
  Cl  Cl26  1  0.250000  0.623101  0.014385  1
  Cl  Cl27  1  0.986404  0.746944  0.605045  1
  Cl  Cl28  1  0.750000  0.334352  0.009644  1
  Cl  Cl29  1  0.250000  0.487468  0.527991  1
  Cl  Cl30  1  0.250000  0.085847  0.712039  1
  Cl  Cl31  1  0.020249  0.254162  0.898315  1
