# generated using pymatgen
data_Cs2Bi4O11
_symmetry_space_group_name_H-M   'P 1'
_cell_length_a   11.34383433
_cell_length_b   11.34383544
_cell_length_c   7.80380990
_cell_angle_alpha   84.46914782
_cell_angle_beta   84.46914747
_cell_angle_gamma   42.27888890
_symmetry_Int_Tables_number   1
_chemical_formula_structural   Cs2Bi4O11
_chemical_formula_sum   'Cs4 Bi8 O22'
_cell_volume   671.95852240
_cell_formula_units_Z   2
loop_
 _symmetry_equiv_pos_site_id
 _symmetry_equiv_pos_as_xyz
  1  'x, y, z'
loop_
 _atom_site_type_symbol
 _atom_site_label
 _atom_site_symmetry_multiplicity
 _atom_site_fract_x
 _atom_site_fract_y
 _atom_site_fract_z
 _atom_site_occupancy
  Cs  Cs0  1  0.508443  0.508443  0.745949  1
  Cs  Cs1  1  0.265407  0.265407  0.007319  1
  Cs  Cs2  1  0.491557  0.491557  0.254051  1
  Cs  Cs3  1  0.734593  0.734593  0.992681  1
  Bi  Bi4  1  0.928124  0.928124  0.100597  1
  Bi  Bi5  1  0.431274  0.917083  0.561636  1
  Bi  Bi6  1  0.082917  0.568726  0.438364  1
  Bi  Bi7  1  0.917083  0.431274  0.561636  1
  Bi  Bi8  1  0.924426  0.924426  0.619757  1
  Bi  Bi9  1  0.071876  0.071876  0.899403  1
  Bi  Bi10  1  0.075574  0.075574  0.380243  1
  Bi  Bi11  1  0.568726  0.082917  0.438364  1
  O  O12  1  0.050041  0.474964  0.668302  1
  O  O13  1  0.119610  0.119610  0.128084  1
  O  O14  1  0.474964  0.050041  0.668302  1
  O  O15  1  0.166908  0.655846  0.571651  1
  O  O16  1  0.834084  0.834084  0.510964  1
  O  O17  1  0.342910  0.342910  0.349803  1
  O  O18  1  0.332816  0.925762  0.814665  1
  O  O19  1  0.828672  0.171328  0.000000  1
  O  O20  1  0.655846  0.166908  0.571651  1
  O  O21  1  0.667184  0.074239  0.185335  1
  O  O22  1  0.165916  0.165916  0.489036  1
  O  O23  1  0.833092  0.344154  0.428349  1
  O  O24  1  0.074239  0.667184  0.185335  1
  O  O25  1  0.171328  0.828672  0.000000  1
  O  O26  1  0.525036  0.949959  0.331698  1
  O  O27  1  0.925762  0.332816  0.814665  1
  O  O28  1  0.657090  0.657090  0.650197  1
  O  O29  1  0.975502  0.975502  0.347718  1
  O  O30  1  0.949959  0.525036  0.331698  1
  O  O31  1  0.344154  0.833092  0.428349  1
  O  O32  1  0.024498  0.024498  0.652282  1
  O  O33  1  0.880390  0.880390  0.871916  1
