# generated using pymatgen
data_LaTb2(AlPt)4
_symmetry_space_group_name_H-M   'P 1'
_cell_length_a   8.30849621
_cell_length_b   8.30849664
_cell_length_c   8.30849666
_cell_angle_alpha   151.22397464
_cell_angle_beta   127.33519945
_cell_angle_gamma   61.11945382
_symmetry_Int_Tables_number   1
_chemical_formula_structural   LaTb2(AlPt)4
_chemical_formula_sum   'La1 Tb2 Al4 Pt4'
_cell_volume   217.74834904
_cell_formula_units_Z   1
loop_
 _symmetry_equiv_pos_site_id
 _symmetry_equiv_pos_as_xyz
  1  'x, y, z'
loop_
 _atom_site_type_symbol
 _atom_site_label
 _atom_site_symmetry_multiplicity
 _atom_site_fract_x
 _atom_site_fract_y
 _atom_site_fract_z
 _atom_site_occupancy
  La  La0  1  0.500000  0.000000  0.500000  1
  Tb  Tb1  1  0.879181  0.879181  0.000000  1
  Tb  Tb2  1  0.120819  0.120819  0.000000  1
  Al  Al3  1  0.481633  0.678862  0.802770  1
  Al  Al4  1  0.876091  0.678862  0.197230  1
  Al  Al5  1  0.123909  0.321138  0.802770  1
  Al  Al6  1  0.518367  0.321138  0.197230  1
  Pt  Pt7  1  0.278791  0.778791  0.500000  1
  Pt  Pt8  1  0.721209  0.221209  0.500000  1
  Pt  Pt9  1  0.797500  0.500000  0.297500  1
  Pt  Pt10  1  0.202500  0.500000  0.702500  1
