# generated using pymatgen
data_Sc4CrGa(B2Ru5)2
_symmetry_space_group_name_H-M   'P 1'
_cell_length_a   9.36764300
_cell_length_b   9.36764300
_cell_length_c   3.01934300
_cell_angle_alpha   90.00000000
_cell_angle_beta   90.00000000
_cell_angle_gamma   90.00000000
_symmetry_Int_Tables_number   1
_chemical_formula_structural   Sc4CrGa(B2Ru5)2
_chemical_formula_sum   'Sc4 Cr1 Ga1 B4 Ru10'
_cell_volume   264.95560729
_cell_formula_units_Z   1
loop_
 _symmetry_equiv_pos_site_id
 _symmetry_equiv_pos_as_xyz
  1  'x, y, z'
loop_
 _atom_site_type_symbol
 _atom_site_label
 _atom_site_symmetry_multiplicity
 _atom_site_fract_x
 _atom_site_fract_y
 _atom_site_fract_z
 _atom_site_occupancy
  Sc  Sc0  1  0.673764  0.174195  0.000000  1
  Sc  Sc1  1  0.326236  0.825805  0.000000  1
  Sc  Sc2  1  0.174195  0.326236  0.000000  1
  Sc  Sc3  1  0.825805  0.673764  0.000000  1
  Cr  Cr4  1  0.000000  0.000000  0.000000  1
  Ga  Ga5  1  0.500000  0.500000  0.000000  1
  B  B6  1  0.125393  0.622258  0.000000  1
  B  B7  1  0.874607  0.377742  0.000000  1
  B  B8  1  0.622258  0.874607  0.000000  1
  B  B9  1  0.377742  0.125393  0.000000  1
  Ru  Ru10  1  0.210275  0.069014  0.500000  1
  Ru  Ru11  1  0.789725  0.930986  0.500000  1
  Ru  Ru12  1  0.069014  0.789725  0.500000  1
  Ru  Ru13  1  0.715423  0.425843  0.500000  1
  Ru  Ru14  1  0.930986  0.210275  0.500000  1
  Ru  Ru15  1  0.284577  0.574157  0.500000  1
  Ru  Ru16  1  0.574157  0.715423  0.500000  1
  Ru  Ru17  1  0.425843  0.284577  0.500000  1
  Ru  Ru18  1  0.500000  0.000000  0.500000  1
  Ru  Ru19  1  0.000000  0.500000  0.500000  1
