# generated using pymatgen
data_Pr14Nd6Si15Tc
_symmetry_space_group_name_H-M   'P 1'
_cell_length_a   7.92571299
_cell_length_b   7.92266660
_cell_length_c   15.24813154
_cell_angle_alpha   90.23029652
_cell_angle_beta   89.98791952
_cell_angle_gamma   90.07657708
_symmetry_Int_Tables_number   1
_chemical_formula_structural   Pr14Nd6Si15Tc
_chemical_formula_sum   'Pr14 Nd6 Si15 Tc1'
_cell_volume   957.46398326
_cell_formula_units_Z   1
loop_
 _symmetry_equiv_pos_site_id
 _symmetry_equiv_pos_as_xyz
  1  'x, y, z'
loop_
 _atom_site_type_symbol
 _atom_site_label
 _atom_site_symmetry_multiplicity
 _atom_site_fract_x
 _atom_site_fract_y
 _atom_site_fract_z
 _atom_site_occupancy
  Pr  Pr0  1  0.510732  0.123803  0.199257  1
  Pr  Pr1  1  0.875968  0.488710  0.300681  1
  Pr  Pr2  1  0.127918  0.503618  0.798195  1
  Pr  Pr3  1  0.626076  0.988127  0.949094  1
  Pr  Pr4  1  0.008240  0.376835  0.551431  1
  Pr  Pr5  1  0.988461  0.625472  0.050518  1
  Pr  Pr6  1  0.131377  0.983447  0.872280  1
  Pr  Pr7  1  0.516503  0.629294  0.126329  1
  Pr  Pr8  1  0.472229  0.360750  0.628504  1
  Pr  Pr9  1  0.627766  0.516007  0.874874  1
  Pr  Pr10  1  0.374738  0.483542  0.374083  1
  Pr  Pr11  1  0.873196  0.019675  0.376423  1
  Pr  Pr12  1  0.982622  0.127056  0.124589  1
  Pr  Pr13  1  0.025261  0.881359  0.627423  1
  Nd  Nd14  1  0.306895  0.305856  0.997780  1
  Nd  Nd15  1  0.191875  0.809682  0.250075  1
  Nd  Nd16  1  0.822181  0.189891  0.748841  1
  Nd  Nd17  1  0.694985  0.690103  0.502448  1
  Nd  Nd18  1  0.371851  0.011279  0.451230  1
  Nd  Nd19  1  0.484328  0.882456  0.695796  1
  Si  Si20  1  0.333060  0.694766  0.951439  1
  Si  Si21  1  0.664792  0.301709  0.450826  1
  Si  Si22  1  0.696911  0.333822  0.050389  1
  Si  Si23  1  0.304157  0.669363  0.547326  1
  Si  Si24  1  0.805386  0.832147  0.202575  1
  Si  Si25  1  0.168324  0.197220  0.298754  1
  Si  Si26  1  0.830695  0.802285  0.799891  1
  Si  Si27  1  0.288580  0.922533  0.058699  1
  Si  Si28  1  0.579196  0.787590  0.310856  1
  Si  Si29  1  0.422264  0.210748  0.812105  1
  Si  Si30  1  0.779287  0.582781  0.691386  1
  Si  Si31  1  0.211937  0.422162  0.190265  1
  Si  Si32  1  0.705120  0.074614  0.558590  1
  Si  Si33  1  0.920463  0.287870  0.941387  1
  Si  Si34  1  0.078906  0.714892  0.440551  1
  Tc  Tc35  1  0.197716  0.168531  0.695109  1
