# generated using pymatgen
data_DySc6CoSn23Ru5
_symmetry_space_group_name_H-M   'P 1'
_cell_length_a   9.69320059
_cell_length_b   9.69319919
_cell_length_c   9.88184229
_cell_angle_alpha   90.05269048
_cell_angle_beta   89.94730925
_cell_angle_gamma   119.93243813
_symmetry_Int_Tables_number   1
_chemical_formula_structural   DySc6CoSn23Ru5
_chemical_formula_sum   'Dy1 Sc6 Co1 Sn23 Ru5'
_cell_volume   804.63312320
_cell_formula_units_Z   1
loop_
 _symmetry_equiv_pos_site_id
 _symmetry_equiv_pos_as_xyz
  1  'x, y, z'
loop_
 _atom_site_type_symbol
 _atom_site_label
 _atom_site_symmetry_multiplicity
 _atom_site_fract_x
 _atom_site_fract_y
 _atom_site_fract_z
 _atom_site_occupancy
  Dy  Dy0  1  0.004635  0.995365  0.994137  1
  Sc  Sc1  1  0.510557  0.489443  0.697350  1
  Sc  Sc2  1  0.510850  0.022143  0.696686  1
  Sc  Sc3  1  0.977857  0.489150  0.696686  1
  Sc  Sc4  1  0.024247  0.513513  0.304350  1
  Sc  Sc5  1  0.486487  0.975753  0.304350  1
  Sc  Sc6  1  0.487313  0.512687  0.303315  1
  Co  Co7  1  0.827300  0.172700  0.203280  1
  Sn  Sn8  1  0.668180  0.331820  0.177284  1
  Sn  Sn9  1  0.666533  0.333467  0.856454  1
  Sn  Sn10  1  0.332998  0.667002  0.143358  1
  Sn  Sn11  1  0.350057  0.350194  0.000038  1
  Sn  Sn12  1  0.998689  0.646326  0.000369  1
  Sn  Sn13  1  0.654282  0.002527  0.005423  1
  Sn  Sn14  1  0.649806  0.649943  0.000038  1
  Sn  Sn15  1  0.333151  0.666849  0.825873  1
  Sn  Sn16  1  0.445556  0.223297  0.465494  1
  Sn  Sn17  1  0.222792  0.777208  0.535396  1
  Sn  Sn18  1  0.222266  0.444798  0.534209  1
  Sn  Sn19  1  0.555202  0.777734  0.534209  1
  Sn  Sn20  1  0.123284  0.876716  0.276777  1
  Sn  Sn21  1  0.776703  0.554444  0.465494  1
  Sn  Sn22  1  0.779425  0.220575  0.459270  1
  Sn  Sn23  1  0.353674  0.001311  0.000369  1
  Sn  Sn24  1  0.113904  0.240384  0.275409  1
  Sn  Sn25  1  0.759616  0.886096  0.275409  1
  Sn  Sn26  1  0.244436  0.122808  0.721163  1
  Sn  Sn27  1  0.877192  0.755564  0.721163  1
  Sn  Sn28  1  0.876923  0.123077  0.722426  1
  Sn  Sn29  1  0.000577  0.999423  0.499001  1
  Sn  Sn30  1  0.997473  0.345718  0.005423  1
  Ru  Ru31  1  0.170703  0.829297  0.797356  1
  Ru  Ru32  1  0.169499  0.342372  0.796485  1
  Ru  Ru33  1  0.657628  0.830501  0.796485  1
  Ru  Ru34  1  0.342070  0.171866  0.204738  1
  Ru  Ru35  1  0.828134  0.657930  0.204738  1
