# generated using pymatgen
data_Th4Re15Si8Ir
_symmetry_space_group_name_H-M   'P 1'
_cell_length_a   4.14329700
_cell_length_b   7.32611525
_cell_length_c   15.66618855
_cell_angle_alpha   90.02999066
_cell_angle_beta   90.00000000
_cell_angle_gamma   90.00000000
_symmetry_Int_Tables_number   1
_chemical_formula_structural   Th4Re15Si8Ir
_chemical_formula_sum   'Th4 Re15 Si8 Ir1'
_cell_volume   475.53567257
_cell_formula_units_Z   1
loop_
 _symmetry_equiv_pos_site_id
 _symmetry_equiv_pos_as_xyz
  1  'x, y, z'
loop_
 _atom_site_type_symbol
 _atom_site_label
 _atom_site_symmetry_multiplicity
 _atom_site_fract_x
 _atom_site_fract_y
 _atom_site_fract_z
 _atom_site_occupancy
  Th  Th0  1  0.000000  0.583981  0.120140  1
  Th  Th1  1  0.000000  0.416384  0.878609  1
  Th  Th2  1  0.500000  0.086127  0.381473  1
  Th  Th3  1  0.500000  0.913823  0.618368  1
  Re  Re4  1  0.000000  0.858098  0.950986  1
  Re  Re5  1  0.500000  0.642051  0.448521  1
  Re  Re6  1  0.500000  0.358904  0.551170  1
  Re  Re7  1  0.000000  0.739758  0.320690  1
  Re  Re8  1  0.000000  0.261284  0.678861  1
  Re  Re9  1  0.500000  0.232784  0.177705  1
  Re  Re10  1  0.500000  0.762151  0.822957  1
  Re  Re11  1  0.000000  0.427455  0.419142  1
  Re  Re12  1  0.000000  0.571796  0.580353  1
  Re  Re13  1  0.500000  0.928618  0.081029  1
  Re  Re14  1  0.500000  0.067118  0.921380  1
  Re  Re15  1  0.000000  0.997456  0.204975  1
  Re  Re16  1  0.000000  0.002218  0.794154  1
  Re  Re17  1  0.500000  0.497647  0.293366  1
  Re  Re18  1  0.500000  0.501084  0.706984  1
  Si  Si19  1  0.000000  0.828836  0.474872  1
  Si  Si20  1  0.000000  0.170980  0.525154  1
  Si  Si21  1  0.500000  0.331219  0.024710  1
  Si  Si22  1  0.500000  0.667992  0.975894  1
  Si  Si23  1  0.000000  0.301557  0.272990  1
  Si  Si24  1  0.000000  0.698269  0.726769  1
  Si  Si25  1  0.500000  0.799908  0.227209  1
  Si  Si26  1  0.500000  0.195057  0.773193  1
  Ir  Ir27  1  0.000000  0.157444  0.048344  1
