# generated using pymatgen
data_Hf4FePd
_symmetry_space_group_name_H-M   'P 1'
_cell_length_a   8.62555770
_cell_length_b   8.62555828
_cell_length_c   8.62555800
_cell_angle_alpha   60.00000107
_cell_angle_beta   59.99999884
_cell_angle_gamma   60.00000146
_symmetry_Int_Tables_number   1
_chemical_formula_structural   Hf4FePd
_chemical_formula_sum   'Hf16 Fe4 Pd4'
_cell_volume   453.78131043
_cell_formula_units_Z   4
loop_
 _symmetry_equiv_pos_site_id
 _symmetry_equiv_pos_as_xyz
  1  'x, y, z'
loop_
 _atom_site_type_symbol
 _atom_site_label
 _atom_site_symmetry_multiplicity
 _atom_site_fract_x
 _atom_site_fract_y
 _atom_site_fract_z
 _atom_site_occupancy
  Hf  Hf0  1  0.183175  0.605608  0.605608  1
  Hf  Hf1  1  0.605608  0.183175  0.605608  1
  Hf  Hf2  1  0.605608  0.605608  0.183175  1
  Hf  Hf3  1  0.605608  0.605608  0.605608  1
  Hf  Hf4  1  0.809665  0.809665  0.190335  1
  Hf  Hf5  1  0.190335  0.190335  0.809665  1
  Hf  Hf6  1  0.809665  0.190335  0.809665  1
  Hf  Hf7  1  0.190335  0.809665  0.190335  1
  Hf  Hf8  1  0.190335  0.809665  0.809665  1
  Hf  Hf9  1  0.809665  0.190335  0.190335  1
  Hf  Hf10  1  0.438944  0.438944  0.061056  1
  Hf  Hf11  1  0.061056  0.061056  0.438944  1
  Hf  Hf12  1  0.438944  0.061056  0.438944  1
  Hf  Hf13  1  0.061056  0.438944  0.061056  1
  Hf  Hf14  1  0.061056  0.438944  0.438944  1
  Hf  Hf15  1  0.438944  0.061056  0.061056  1
  Fe  Fe16  1  0.818720  0.393760  0.393760  1
  Fe  Fe17  1  0.393760  0.818720  0.393760  1
  Fe  Fe18  1  0.393760  0.393760  0.818720  1
  Fe  Fe19  1  0.393760  0.393760  0.393760  1
  Pd  Pd20  1  0.489556  0.836815  0.836815  1
  Pd  Pd21  1  0.836815  0.489556  0.836815  1
  Pd  Pd22  1  0.836815  0.836815  0.489556  1
  Pd  Pd23  1  0.836815  0.836815  0.836815  1
