# generated using pymatgen
data_Ta3Ti(NbN2)6
_symmetry_space_group_name_H-M   'P 1'
_cell_length_a   5.24391800
_cell_length_b   5.24391919
_cell_length_c   10.37350300
_cell_angle_alpha   90.00000000
_cell_angle_beta   90.00000000
_cell_angle_gamma   120.00000511
_symmetry_Int_Tables_number   1
_chemical_formula_structural   Ta3Ti(NbN2)6
_chemical_formula_sum   'Ta3 Ti1 Nb6 N12'
_cell_volume   247.04036973
_cell_formula_units_Z   1
loop_
 _symmetry_equiv_pos_site_id
 _symmetry_equiv_pos_as_xyz
  1  'x, y, z'
loop_
 _atom_site_type_symbol
 _atom_site_label
 _atom_site_symmetry_multiplicity
 _atom_site_fract_x
 _atom_site_fract_y
 _atom_site_fract_z
 _atom_site_occupancy
  Ta  Ta0  1  0.333333  0.666667  0.500000  1
  Ta  Ta1  1  0.666667  0.333333  0.000000  1
  Ta  Ta2  1  0.666667  0.333333  0.500000  1
  Ti  Ti3  1  0.333333  0.666667  0.000000  1
  Nb  Nb4  1  0.676419  0.998801  0.751163  1
  Nb  Nb5  1  0.676419  0.677619  0.248837  1
  Nb  Nb6  1  0.001199  0.323581  0.248837  1
  Nb  Nb7  1  0.001199  0.677619  0.751163  1
  Nb  Nb8  1  0.322381  0.323581  0.751163  1
  Nb  Nb9  1  0.322381  0.998801  0.248837  1
  N  N10  1  0.342061  0.341849  0.380285  1
  N  N11  1  0.658151  0.000212  0.380285  1
  N  N12  1  0.999788  0.657939  0.380285  1
  N  N13  1  0.000940  0.346007  0.880890  1
  N  N14  1  0.653993  0.999060  0.119110  1
  N  N15  1  0.653993  0.654933  0.880890  1
  N  N16  1  0.345067  0.999060  0.880890  1
  N  N17  1  0.658151  0.657939  0.619715  1
  N  N18  1  0.999788  0.341849  0.619715  1
  N  N19  1  0.000940  0.654933  0.119110  1
  N  N20  1  0.342061  0.000212  0.619715  1
  N  N21  1  0.345067  0.346007  0.119110  1
