# generated using pymatgen
data_Tm12Cd2Tc3
_symmetry_space_group_name_H-M   'P 1'
_cell_length_a   8.32651670
_cell_length_b   8.32651589
_cell_length_c   8.32651657
_cell_angle_alpha   109.69305289
_cell_angle_beta   109.69305780
_cell_angle_gamma   109.02845309
_symmetry_Int_Tables_number   1
_chemical_formula_structural   Tm12Cd2Tc3
_chemical_formula_sum   'Tm12 Cd2 Tc3'
_cell_volume   444.37407723
_cell_formula_units_Z   1
loop_
 _symmetry_equiv_pos_site_id
 _symmetry_equiv_pos_as_xyz
  1  'x, y, z'
loop_
 _atom_site_type_symbol
 _atom_site_label
 _atom_site_symmetry_multiplicity
 _atom_site_fract_x
 _atom_site_fract_y
 _atom_site_fract_z
 _atom_site_occupancy
  Tm  Tm0  1  0.187288  0.431495  0.244207  1
  Tm  Tm1  1  0.812712  0.568505  0.755793  1
  Tm  Tm2  1  0.187288  0.943082  0.755793  1
  Tm  Tm3  1  0.943082  0.187288  0.755793  1
  Tm  Tm4  1  0.812712  0.056918  0.244207  1
  Tm  Tm5  1  0.056918  0.812712  0.244207  1
  Tm  Tm6  1  0.431495  0.187288  0.244207  1
  Tm  Tm7  1  0.568505  0.812712  0.755793  1
  Tm  Tm8  1  0.319555  0.319555  0.639111  1
  Tm  Tm9  1  0.680445  0.680445  0.360889  1
  Tm  Tm10  1  0.680445  0.319555  0.000000  1
  Tm  Tm11  1  0.319555  0.680445  0.000000  1
  Cd  Cd12  1  0.000000  0.500000  0.500000  1
  Cd  Cd13  1  0.500000  0.000000  0.500000  1
  Tc  Tc14  1  0.338945  0.338945  0.000000  1
  Tc  Tc15  1  0.661055  0.661055  0.000000  1
  Tc  Tc16  1  0.000000  0.000000  0.000000  1
