# generated using pymatgen
data_YbHo3(Ga8Pt3)3
_symmetry_space_group_name_H-M   'P 1'
_cell_length_a   7.51796062
_cell_length_b   7.58569558
_cell_length_c   13.38247914
_cell_angle_alpha   84.69412309
_cell_angle_beta   79.38489791
_cell_angle_gamma   60.24771044
_symmetry_Int_Tables_number   1
_chemical_formula_structural   YbHo3(Ga8Pt3)3
_chemical_formula_sum   'Yb1 Ho3 Ga24 Pt9'
_cell_volume   651.24511981
_cell_formula_units_Z   1
loop_
 _symmetry_equiv_pos_site_id
 _symmetry_equiv_pos_as_xyz
  1  'x, y, z'
loop_
 _atom_site_type_symbol
 _atom_site_label
 _atom_site_symmetry_multiplicity
 _atom_site_fract_x
 _atom_site_fract_y
 _atom_site_fract_z
 _atom_site_occupancy
  Yb  Yb0  1  0.395805  0.168189  0.808840  1
  Ho  Ho1  1  0.604197  0.832716  0.189767  1
  Ho  Ho2  1  0.731956  0.498618  0.811150  1
  Ho  Ho3  1  0.267530  0.501077  0.188987  1
  Ga  Ga4  1  0.684866  0.835240  0.938550  1
  Ga  Ga5  1  0.313894  0.166178  0.061213  1
  Ga  Ga6  1  0.146024  0.832367  0.559580  1
  Ga  Ga7  1  0.854155  0.167706  0.440011  1
  Ga  Ga8  1  0.478719  0.166557  0.556500  1
  Ga  Ga9  1  0.521659  0.833189  0.442993  1
  Ga  Ga10  1  0.222437  0.164948  0.322453  1
  Ga  Ga11  1  0.778114  0.835672  0.676268  1
  Ga  Ga12  1  0.437552  0.503071  0.674768  1
  Ga  Ga13  1  0.562998  0.496414  0.323839  1
  Ga  Ga14  1  0.107552  0.163138  0.674122  1
  Ga  Ga15  1  0.893473  0.836658  0.324384  1
  Ga  Ga16  1  0.358504  0.496259  0.939125  1
  Ga  Ga17  1  0.640046  0.503197  0.062068  1
  Ga  Ga18  1  0.020700  0.169424  0.944944  1
  Ga  Ga19  1  0.979010  0.829668  0.057147  1
  Ga  Ga20  1  0.187062  0.499103  0.442263  1
  Ga  Ga21  1  0.813090  0.501194  0.557507  1
  Ga  Ga22  1  0.734984  0.164116  0.182255  1
  Ga  Ga23  1  0.266990  0.833142  0.818277  1
  Ga  Ga24  1  0.059479  0.631221  0.817448  1
  Ga  Ga25  1  0.938034  0.369901  0.183294  1
  Ga  Ga26  1  0.857506  0.041978  0.817070  1
  Ga  Ga27  1  0.143685  0.959021  0.183573  1
  Pt  Pt28  1  0.117294  0.495196  0.639155  1
  Pt  Pt29  1  0.883631  0.504714  0.360443  1
  Pt  Pt30  1  0.660570  0.169259  0.000307  1
  Pt  Pt31  1  0.338634  0.830455  0.001677  1
  Pt  Pt32  1  0.541359  0.167036  0.360014  1
  Pt  Pt33  1  0.458238  0.833705  0.639640  1
  Pt  Pt34  1  0.779685  0.172299  0.637008  1
  Pt  Pt35  1  0.221488  0.827208  0.362277  1
  Pt  Pt36  1  0.999078  0.500166  0.001082  1
