# generated using pymatgen
data_Nb12Al9Ir3C4
_symmetry_space_group_name_H-M   'P 1'
_cell_length_a   8.36788613
_cell_length_b   8.35579681
_cell_length_c   8.36788600
_cell_angle_alpha   59.95212862
_cell_angle_beta   60.00000051
_cell_angle_gamma   59.95213302
_symmetry_Int_Tables_number   1
_chemical_formula_structural   Nb12Al9Ir3C4
_chemical_formula_sum   'Nb12 Al9 Ir3 C4'
_cell_volume   413.41838061
_cell_formula_units_Z   1
loop_
 _symmetry_equiv_pos_site_id
 _symmetry_equiv_pos_as_xyz
  1  'x, y, z'
loop_
 _atom_site_type_symbol
 _atom_site_label
 _atom_site_symmetry_multiplicity
 _atom_site_fract_x
 _atom_site_fract_y
 _atom_site_fract_z
 _atom_site_occupancy
  Nb  Nb0  1  0.814920  0.815404  0.184838  1
  Nb  Nb1  1  0.189676  0.186005  0.812160  1
  Nb  Nb2  1  0.812160  0.186005  0.812160  1
  Nb  Nb3  1  0.184838  0.815404  0.184838  1
  Nb  Nb4  1  0.184838  0.815404  0.814920  1
  Nb  Nb5  1  0.812160  0.186005  0.189676  1
  Nb  Nb6  1  0.435080  0.434596  0.065162  1
  Nb  Nb7  1  0.060324  0.063995  0.437840  1
  Nb  Nb8  1  0.437840  0.063995  0.437840  1
  Nb  Nb9  1  0.065162  0.434596  0.065162  1
  Nb  Nb10  1  0.065162  0.434596  0.435080  1
  Nb  Nb11  1  0.437840  0.063995  0.060324  1
  Al  Al12  1  0.625000  0.125000  0.625000  1
  Al  Al13  1  0.753406  0.424654  0.410971  1
  Al  Al14  1  0.415063  0.754813  0.415063  1
  Al  Al15  1  0.410971  0.424654  0.753406  1
  Al  Al16  1  0.410971  0.424654  0.410971  1
  Al  Al17  1  0.496594  0.825346  0.839029  1
  Al  Al18  1  0.834937  0.495187  0.834937  1
  Al  Al19  1  0.839029  0.825346  0.496594  1
  Al  Al20  1  0.839029  0.825346  0.839029  1
  Ir  Ir21  1  0.125000  0.625000  0.625000  1
  Ir  Ir22  1  0.625000  0.625000  0.125000  1
  Ir  Ir23  1  0.625000  0.625000  0.625000  1
  C  C24  1  0.625000  0.125000  0.125000  1
  C  C25  1  0.125000  0.625000  0.125000  1
  C  C26  1  0.125000  0.125000  0.625000  1
  C  C27  1  0.125000  0.125000  0.125000  1
