# generated using pymatgen
data_Ca2DyCd(Ru2O7)2
_symmetry_space_group_name_H-M   'P 1'
_cell_length_a   7.31897842
_cell_length_b   7.31897765
_cell_length_c   7.22197733
_cell_angle_alpha   59.44938799
_cell_angle_beta   59.44939258
_cell_angle_gamma   59.86715720
_symmetry_Int_Tables_number   1
_chemical_formula_structural   Ca2DyCd(Ru2O7)2
_chemical_formula_sum   'Ca2 Dy1 Cd1 Ru4 O14'
_cell_volume   270.98578807
_cell_formula_units_Z   1
loop_
 _symmetry_equiv_pos_site_id
 _symmetry_equiv_pos_as_xyz
  1  'x, y, z'
loop_
 _atom_site_type_symbol
 _atom_site_label
 _atom_site_symmetry_multiplicity
 _atom_site_fract_x
 _atom_site_fract_y
 _atom_site_fract_z
 _atom_site_occupancy
  Ca  Ca0  1  0.125000  0.625000  0.125000  1
  Ca  Ca1  1  0.625000  0.125000  0.125000  1
  Dy  Dy2  1  0.125000  0.125000  0.125000  1
  Cd  Cd3  1  0.125000  0.125000  0.625000  1
  Ru  Ru4  1  0.625000  0.125000  0.625000  1
  Ru  Ru5  1  0.625000  0.625000  0.125000  1
  Ru  Ru6  1  0.125000  0.625000  0.625000  1
  Ru  Ru7  1  0.625000  0.625000  0.625000  1
  O  O8  1  0.696814  0.696814  0.300174  1
  O  O9  1  0.943463  0.557837  0.558072  1
  O  O10  1  0.542183  0.952709  0.954027  1
  O  O11  1  0.945543  0.945543  0.549558  1
  O  O12  1  0.952709  0.542183  0.954027  1
  O  O13  1  0.557837  0.943463  0.558072  1
  O  O14  1  0.297291  0.707817  0.295973  1
  O  O15  1  0.306537  0.692163  0.691928  1
  O  O16  1  0.707817  0.297291  0.295973  1
  O  O17  1  0.692163  0.306537  0.691928  1
  O  O18  1  0.553186  0.553186  0.949826  1
  O  O19  1  0.304457  0.304457  0.700442  1
  O  O20  1  0.242270  0.242270  0.259826  1
  O  O21  1  0.007730  0.007730  0.990174  1
