# generated using pymatgen
data_CeTaP3Rh4
_symmetry_space_group_name_H-M   'P 1'
_cell_length_a   3.96780200
_cell_length_b   10.97676800
_cell_length_c   12.56037200
_cell_angle_alpha   90.00000000
_cell_angle_beta   90.00000000
_cell_angle_gamma   90.00000000
_symmetry_Int_Tables_number   1
_chemical_formula_structural   CeTaP3Rh4
_chemical_formula_sum   'Ce4 Ta4 P12 Rh16'
_cell_volume   547.04994578
_cell_formula_units_Z   4
loop_
 _symmetry_equiv_pos_site_id
 _symmetry_equiv_pos_as_xyz
  1  'x, y, z'
loop_
 _atom_site_type_symbol
 _atom_site_label
 _atom_site_symmetry_multiplicity
 _atom_site_fract_x
 _atom_site_fract_y
 _atom_site_fract_z
 _atom_site_occupancy
  Ce  Ce0  1  0.250000  0.582994  0.706381  1
  Ce  Ce1  1  0.250000  0.917006  0.206381  1
  Ce  Ce2  1  0.750000  0.417006  0.293619  1
  Ce  Ce3  1  0.750000  0.082994  0.793619  1
  Ta  Ta4  1  0.250000  0.712991  0.989512  1
  Ta  Ta5  1  0.250000  0.787009  0.489512  1
  Ta  Ta6  1  0.750000  0.287009  0.010488  1
  Ta  Ta7  1  0.750000  0.212991  0.510488  1
  P  P8  1  0.250000  0.415832  0.121208  1
  P  P9  1  0.250000  0.084168  0.621208  1
  P  P10  1  0.750000  0.584168  0.878792  1
  P  P11  1  0.750000  0.915832  0.378792  1
  P  P12  1  0.250000  0.259573  0.865348  1
  P  P13  1  0.250000  0.240427  0.365348  1
  P  P14  1  0.750000  0.740427  0.134652  1
  P  P15  1  0.750000  0.759573  0.634652  1
  P  P16  1  0.250000  0.595456  0.390050  1
  P  P17  1  0.250000  0.904544  0.890050  1
  P  P18  1  0.750000  0.404544  0.609950  1
  P  P19  1  0.750000  0.095456  0.109950  1
  Rh  Rh20  1  0.250000  0.406589  0.488178  1
  Rh  Rh21  1  0.250000  0.093411  0.988178  1
  Rh  Rh22  1  0.750000  0.593411  0.511822  1
  Rh  Rh23  1  0.750000  0.906589  0.011822  1
  Rh  Rh24  1  0.250000  0.226222  0.179844  1
  Rh  Rh25  1  0.250000  0.273778  0.679844  1
  Rh  Rh26  1  0.750000  0.773778  0.820156  1
  Rh  Rh27  1  0.750000  0.726222  0.320156  1
  Rh  Rh28  1  0.250000  0.889454  0.704566  1
  Rh  Rh29  1  0.250000  0.610546  0.204566  1
  Rh  Rh30  1  0.750000  0.110546  0.295434  1
  Rh  Rh31  1  0.750000  0.389454  0.795434  1
  Rh  Rh32  1  0.250000  0.464365  0.931694  1
  Rh  Rh33  1  0.250000  0.035635  0.431694  1
  Rh  Rh34  1  0.750000  0.535635  0.068306  1
  Rh  Rh35  1  0.750000  0.964365  0.568306  1
