# generated using pymatgen
data_Th5(CS2)2
_symmetry_space_group_name_H-M   'P 1'
_cell_length_a   3.89259738
_cell_length_b   8.87877381
_cell_length_c   9.33129500
_cell_angle_alpha   92.65179736
_cell_angle_beta   77.75185640
_cell_angle_gamma   49.08414154
_symmetry_Int_Tables_number   1
_chemical_formula_structural   Th5(CS2)2
_chemical_formula_sum   'Th5 C2 S4'
_cell_volume   230.54761331
_cell_formula_units_Z   1
loop_
 _symmetry_equiv_pos_site_id
 _symmetry_equiv_pos_as_xyz
  1  'x, y, z'
loop_
 _atom_site_type_symbol
 _atom_site_label
 _atom_site_symmetry_multiplicity
 _atom_site_fract_x
 _atom_site_fract_y
 _atom_site_fract_z
 _atom_site_occupancy
  Th  Th0  1  0.427959  0.928356  0.832085  1
  Th  Th1  1  0.332514  0.789325  0.439062  1
  Th  Th2  1  0.481997  0.297763  0.617724  1
  Th  Th3  1  0.387355  0.158361  0.224443  1
  Th  Th4  1  0.407578  0.543663  0.027631  1
  C  C5  1  0.395606  0.073996  0.459887  1
  C  C6  1  0.418894  0.013124  0.596821  1
  S  S7  1  0.452290  0.617478  0.717464  1
  S  S8  1  0.399705  0.846104  0.136290  1
  S  S9  1  0.362798  0.469692  0.338048  1
  S  S10  1  0.415650  0.240665  0.920228  1
