# generated using pymatgen
data_BaLi(PrS2)2
_symmetry_space_group_name_H-M   'P 1'
_cell_length_a   4.15822700
_cell_length_b   7.20306130
_cell_length_c   14.18999800
_cell_angle_alpha   90.00000000
_cell_angle_beta   90.00000000
_cell_angle_gamma   73.22327001
_symmetry_Int_Tables_number   1
_chemical_formula_structural   BaLi(PrS2)2
_chemical_formula_sum   'Ba2 Li2 Pr4 S8'
_cell_volume   406.92817197
_cell_formula_units_Z   2
loop_
 _symmetry_equiv_pos_site_id
 _symmetry_equiv_pos_as_xyz
  1  'x, y, z'
loop_
 _atom_site_type_symbol
 _atom_site_label
 _atom_site_symmetry_multiplicity
 _atom_site_fract_x
 _atom_site_fract_y
 _atom_site_fract_z
 _atom_site_occupancy
  Ba  Ba0  1  0.889135  0.221731  0.250000  1
  Ba  Ba1  1  0.110866  0.778268  0.750000  1
  Li  Li2  1  0.161055  0.677891  0.250000  1
  Li  Li3  1  0.838946  0.322108  0.750000  1
  Pr  Pr4  1  0.629141  0.741720  0.055446  1
  Pr  Pr5  1  0.629141  0.741720  0.444553  1
  Pr  Pr6  1  0.370860  0.258279  0.555446  1
  Pr  Pr7  1  0.370860  0.258279  0.944553  1
  S  S8  1  0.000000  0.000000  0.000000  1
  S  S9  1  0.268733  0.462537  0.118534  1
  S  S10  1  0.566988  0.866023  0.250000  1
  S  S11  1  0.268733  0.462537  0.381466  1
  S  S12  1  0.000000  0.000000  0.500000  1
  S  S13  1  0.731268  0.537462  0.618534  1
  S  S14  1  0.433012  0.133978  0.750000  1
  S  S15  1  0.731268  0.537462  0.881466  1
