# generated using pymatgen
data_Er8InHgIrRh
_symmetry_space_group_name_H-M   'P 1'
_cell_length_a   9.52832591
_cell_length_b   9.54624711
_cell_length_c   9.54624694
_cell_angle_alpha   60.13493990
_cell_angle_beta   60.06208114
_cell_angle_gamma   60.06208759
_symmetry_Int_Tables_number   1
_chemical_formula_structural   Er8InHgIrRh
_chemical_formula_sum   'Er16 In2 Hg2 Ir2 Rh2'
_cell_volume   615.19900071
_cell_formula_units_Z   2
loop_
 _symmetry_equiv_pos_site_id
 _symmetry_equiv_pos_as_xyz
  1  'x, y, z'
loop_
 _atom_site_type_symbol
 _atom_site_label
 _atom_site_symmetry_multiplicity
 _atom_site_fract_x
 _atom_site_fract_y
 _atom_site_fract_z
 _atom_site_occupancy
  Er  Er0  1  0.189701  0.190650  0.809369  1
  Er  Er1  1  0.438923  0.061077  0.061077  1
  Er  Er2  1  0.439849  0.059408  0.435350  1
  Er  Er3  1  0.065392  0.435350  0.059408  1
  Er  Er4  1  0.650222  0.052508  0.647048  1
  Er  Er5  1  0.190721  0.809279  0.809279  1
  Er  Er6  1  0.065392  0.059408  0.435350  1
  Er  Er7  1  0.807280  0.192720  0.192720  1
  Er  Er8  1  0.810279  0.809369  0.190650  1
  Er  Er9  1  0.650222  0.647048  0.052508  1
  Er  Er10  1  0.654268  0.649028  0.649028  1
  Er  Er11  1  0.065193  0.434807  0.434807  1
  Er  Er12  1  0.047676  0.649028  0.649028  1
  Er  Er13  1  0.810279  0.190650  0.809369  1
  Er  Er14  1  0.439849  0.435350  0.059408  1
  Er  Er15  1  0.189701  0.809369  0.190650  1
  In  In16  1  0.744437  0.420302  0.420302  1
  In  In17  1  0.414959  0.420302  0.420302  1
  Hg  Hg18  1  0.412973  0.759889  0.414164  1
  Hg  Hg19  1  0.412973  0.414164  0.759889  1
  Ir  Ir20  1  0.857521  0.424520  0.860439  1
  Ir  Ir21  1  0.857521  0.860439  0.424520  1
  Rh  Rh22  1  0.427575  0.857668  0.857668  1
  Rh  Rh23  1  0.857089  0.857668  0.857668  1
