# generated using pymatgen
data_Yb5Si12IrRh18
_symmetry_space_group_name_H-M   'P 1'
_cell_length_a   12.79490700
_cell_length_b   12.79490632
_cell_length_c   3.96937700
_cell_angle_alpha   90.00000000
_cell_angle_beta   90.00000000
_cell_angle_gamma   119.99999918
_symmetry_Int_Tables_number   1
_chemical_formula_structural   Yb5Si12IrRh18
_chemical_formula_sum   'Yb5 Si12 Ir1 Rh18'
_cell_volume   562.76519245
_cell_formula_units_Z   1
loop_
 _symmetry_equiv_pos_site_id
 _symmetry_equiv_pos_as_xyz
  1  'x, y, z'
loop_
 _atom_site_type_symbol
 _atom_site_label
 _atom_site_symmetry_multiplicity
 _atom_site_fract_x
 _atom_site_fract_y
 _atom_site_fract_z
 _atom_site_occupancy
  Yb  Yb0  1  0.333333  0.666667  0.500000  1
  Yb  Yb1  1  0.666667  0.333333  0.500000  1
  Yb  Yb2  1  0.000000  0.815512  0.000000  1
  Yb  Yb3  1  0.184488  0.184488  0.000000  1
  Yb  Yb4  1  0.815512  0.000000  0.000000  1
  Si  Si5  1  0.000000  0.625808  0.500000  1
  Si  Si6  1  0.374192  0.374192  0.500000  1
  Si  Si7  1  0.625808  0.000000  0.500000  1
  Si  Si8  1  0.524632  0.686968  0.000000  1
  Si  Si9  1  0.313032  0.837663  0.000000  1
  Si  Si10  1  0.162337  0.475368  0.000000  1
  Si  Si11  1  0.475368  0.162337  0.000000  1
  Si  Si12  1  0.686968  0.524632  0.000000  1
  Si  Si13  1  0.837663  0.313032  0.000000  1
  Si  Si14  1  0.000000  0.182155  0.500000  1
  Si  Si15  1  0.817845  0.817845  0.500000  1
  Si  Si16  1  0.182155  0.000000  0.500000  1
  Ir  Ir17  1  0.000000  0.000000  0.500000  1
  Rh  Rh18  1  0.512514  0.872770  0.000000  1
  Rh  Rh19  1  0.127230  0.639744  0.000000  1
  Rh  Rh20  1  0.360256  0.487486  0.000000  1
  Rh  Rh21  1  0.487486  0.360256  0.000000  1
  Rh  Rh22  1  0.872770  0.512514  0.000000  1
  Rh  Rh23  1  0.639744  0.127230  0.000000  1
  Rh  Rh24  1  0.000000  0.443470  0.500000  1
  Rh  Rh25  1  0.556530  0.556530  0.500000  1
  Rh  Rh26  1  0.443470  0.000000  0.500000  1
  Rh  Rh27  1  0.000000  0.277099  0.000000  1
  Rh  Rh28  1  0.722901  0.722901  0.000000  1
  Rh  Rh29  1  0.277099  0.000000  0.000000  1
  Rh  Rh30  1  0.623800  0.808030  0.500000  1
  Rh  Rh31  1  0.191970  0.815769  0.500000  1
  Rh  Rh32  1  0.184231  0.376200  0.500000  1
  Rh  Rh33  1  0.376200  0.184231  0.500000  1
  Rh  Rh34  1  0.808030  0.623800  0.500000  1
  Rh  Rh35  1  0.815769  0.191970  0.500000  1
