# generated using pymatgen
data_BaCrBF10
_symmetry_space_group_name_H-M   'P 1'
_cell_length_a   6.49185900
_cell_length_b   10.70630300
_cell_length_c   12.13367400
_cell_angle_alpha   90.00000000
_cell_angle_beta   90.00000000
_cell_angle_gamma   90.00000000
_symmetry_Int_Tables_number   1
_chemical_formula_structural   BaCrBF10
_chemical_formula_sum   'Ba4 Cr4 B4 F40'
_cell_volume   843.33656608
_cell_formula_units_Z   4
loop_
 _symmetry_equiv_pos_site_id
 _symmetry_equiv_pos_as_xyz
  1  'x, y, z'
loop_
 _atom_site_type_symbol
 _atom_site_label
 _atom_site_symmetry_multiplicity
 _atom_site_fract_x
 _atom_site_fract_y
 _atom_site_fract_z
 _atom_site_occupancy
  Ba  Ba0  1  0.750000  0.264170  0.612389  1
  Ba  Ba1  1  0.750000  0.764170  0.887611  1
  Ba  Ba2  1  0.250000  0.735830  0.387611  1
  Ba  Ba3  1  0.250000  0.235830  0.112389  1
  Cr  Cr4  1  0.250000  0.982705  0.699125  1
  Cr  Cr5  1  0.250000  0.482705  0.800875  1
  Cr  Cr6  1  0.750000  0.017295  0.300875  1
  Cr  Cr7  1  0.750000  0.517295  0.199125  1
  B  B8  1  0.750000  0.641749  0.571183  1
  B  B9  1  0.750000  0.141749  0.928817  1
  B  B10  1  0.250000  0.358251  0.428817  1
  B  B11  1  0.250000  0.858251  0.071183  1
  F  F12  1  0.572215  0.686012  0.516433  1
  F  F13  1  0.927785  0.186012  0.983567  1
  F  F14  1  0.072215  0.313988  0.483567  1
  F  F15  1  0.427785  0.813988  0.016433  1
  F  F16  1  0.427785  0.313988  0.483567  1
  F  F17  1  0.072215  0.813988  0.016433  1
  F  F18  1  0.927785  0.686012  0.516433  1
  F  F19  1  0.572215  0.186012  0.983567  1
  F  F20  1  0.750000  0.509552  0.571638  1
  F  F21  1  0.750000  0.009552  0.928362  1
  F  F22  1  0.250000  0.490448  0.428362  1
  F  F23  1  0.250000  0.990448  0.071638  1
  F  F24  1  0.750000  0.685481  0.681255  1
  F  F25  1  0.750000  0.185481  0.818745  1
  F  F26  1  0.250000  0.314519  0.318745  1
  F  F27  1  0.250000  0.814519  0.181255  1
  F  F28  1  0.250000  0.889136  0.576932  1
  F  F29  1  0.250000  0.389136  0.923068  1
  F  F30  1  0.750000  0.110864  0.423068  1
  F  F31  1  0.750000  0.610864  0.076932  1
  F  F32  1  0.447564  0.882954  0.757976  1
  F  F33  1  0.052436  0.382954  0.742024  1
  F  F34  1  0.947564  0.117046  0.242024  1
  F  F35  1  0.552436  0.617046  0.257976  1
  F  F36  1  0.552436  0.117046  0.242024  1
  F  F37  1  0.947564  0.617046  0.257976  1
  F  F38  1  0.052436  0.882954  0.757976  1
  F  F39  1  0.447564  0.382954  0.742024  1
  F  F40  1  0.250000  0.076530  0.817256  1
  F  F41  1  0.250000  0.576530  0.682744  1
  F  F42  1  0.750000  0.923470  0.182744  1
  F  F43  1  0.750000  0.423470  0.317256  1
  F  F44  1  0.050649  0.080168  0.637507  1
  F  F45  1  0.449351  0.580168  0.862493  1
  F  F46  1  0.550649  0.919832  0.362493  1
  F  F47  1  0.949351  0.419832  0.137507  1
  F  F48  1  0.949351  0.919832  0.362493  1
  F  F49  1  0.550649  0.419832  0.137507  1
  F  F50  1  0.449351  0.080168  0.637507  1
  F  F51  1  0.050649  0.580168  0.862493  1
