# generated using pymatgen
data_Ho2Er10TcOs3
_symmetry_space_group_name_H-M   'P 1'
_cell_length_a   6.24999602
_cell_length_b   7.36684664
_cell_length_c   8.97169200
_cell_angle_alpha   90.00000000
_cell_angle_beta   90.00000000
_cell_angle_gamma   90.06617092
_symmetry_Int_Tables_number   1
_chemical_formula_structural   Ho2Er10TcOs3
_chemical_formula_sum   'Ho2 Er10 Tc1 Os3'
_cell_volume   413.08120565
_cell_formula_units_Z   1
loop_
 _symmetry_equiv_pos_site_id
 _symmetry_equiv_pos_as_xyz
  1  'x, y, z'
loop_
 _atom_site_type_symbol
 _atom_site_label
 _atom_site_symmetry_multiplicity
 _atom_site_fract_x
 _atom_site_fract_y
 _atom_site_fract_z
 _atom_site_occupancy
  Ho  Ho0  1  0.871383  0.539348  0.250000  1
  Ho  Ho1  1  0.627033  0.039377  0.250000  1
  Er  Er2  1  0.335044  0.674934  0.062415  1
  Er  Er3  1  0.165849  0.175377  0.437476  1
  Er  Er4  1  0.666693  0.324390  0.562503  1
  Er  Er5  1  0.834367  0.824920  0.936960  1
  Er  Er6  1  0.666693  0.324390  0.937497  1
  Er  Er7  1  0.834367  0.824920  0.563040  1
  Er  Er8  1  0.335044  0.674934  0.437585  1
  Er  Er9  1  0.165849  0.175377  0.062524  1
  Er  Er10  1  0.130037  0.460112  0.750000  1
  Er  Er11  1  0.369612  0.960834  0.750000  1
  Tc  Tc12  1  0.038907  0.882746  0.250000  1
  Os  Os13  1  0.459891  0.382209  0.250000  1
  Os  Os14  1  0.959855  0.118608  0.750000  1
  Os  Os15  1  0.539376  0.617527  0.750000  1
