# generated using pymatgen
data_ZrSc11(CoIr)6
_symmetry_space_group_name_H-M   'P 1'
_cell_length_a   4.50514800
_cell_length_b   6.45688800
_cell_length_c   13.50354900
_cell_angle_alpha   90.00006057
_cell_angle_beta   89.99941896
_cell_angle_gamma   90.00015617
_symmetry_Int_Tables_number   1
_chemical_formula_structural   ZrSc11(CoIr)6
_chemical_formula_sum   'Zr1 Sc11 Co6 Ir6'
_cell_volume   392.80792449
_cell_formula_units_Z   1
loop_
 _symmetry_equiv_pos_site_id
 _symmetry_equiv_pos_as_xyz
  1  'x, y, z'
loop_
 _atom_site_type_symbol
 _atom_site_label
 _atom_site_symmetry_multiplicity
 _atom_site_fract_x
 _atom_site_fract_y
 _atom_site_fract_z
 _atom_site_occupancy
  Zr  Zr0  1  0.500001  0.249648  0.000018  1
  Sc  Sc1  1  0.499999  0.750547  0.999970  1
  Sc  Sc2  1  0.999712  0.250012  0.169671  1
  Sc  Sc3  1  0.999696  0.750031  0.167852  1
  Sc  Sc4  1  0.499701  0.249685  0.334260  1
  Sc  Sc5  1  0.499695  0.750186  0.334184  1
  Sc  Sc6  1  0.999999  0.250087  0.500014  1
  Sc  Sc7  1  0.000000  0.749979  0.500016  1
  Sc  Sc8  1  0.500298  0.249722  0.665768  1
  Sc  Sc9  1  0.500305  0.750145  0.665839  1
  Sc  Sc10  1  0.000289  0.250018  0.830303  1
  Sc  Sc11  1  0.000305  0.750021  0.832124  1
  Co  Co12  1  0.999998  0.001820  0.999998  1
  Co  Co13  1  0.499612  0.499395  0.165478  1
  Co  Co14  1  0.999607  0.999517  0.333250  1
  Co  Co15  1  0.499999  0.500067  0.499995  1
  Co  Co16  1  0.000394  0.999516  0.666744  1
  Co  Co17  1  0.500387  0.499392  0.834524  1
  Ir  Ir18  1  0.999999  0.498490  0.000015  1
  Ir  Ir19  1  0.499667  0.000519  0.166038  1
  Ir  Ir20  1  0.999663  0.500341  0.333509  1
  Ir  Ir21  1  0.500000  0.000001  0.499978  1
  Ir  Ir22  1  0.000337  0.500341  0.666470  1
  Ir  Ir23  1  0.500334  0.000520  0.833982  1
