# generated using pymatgen
data_Ca3CeDy4(Si3Rh4)2
_symmetry_space_group_name_H-M   'P 1'
_cell_length_a   10.70529910
_cell_length_b   10.74816738
_cell_length_c   7.70977570
_cell_angle_alpha   71.91131833
_cell_angle_beta   72.03113541
_cell_angle_gamma   30.14452355
_symmetry_Int_Tables_number   1
_chemical_formula_structural   Ca3CeDy4(Si3Rh4)2
_chemical_formula_sum   'Ca3 Ce1 Dy4 Si6 Rh8'
_cell_volume   421.98212058
_cell_formula_units_Z   1
loop_
 _symmetry_equiv_pos_site_id
 _symmetry_equiv_pos_as_xyz
  1  'x, y, z'
loop_
 _atom_site_type_symbol
 _atom_site_label
 _atom_site_symmetry_multiplicity
 _atom_site_fract_x
 _atom_site_fract_y
 _atom_site_fract_z
 _atom_site_occupancy
  Ca  Ca0  1  0.804076  0.062848  0.168685  1
  Ca  Ca1  1  0.926984  0.210112  0.326555  1
  Ca  Ca2  1  0.200505  0.936515  0.835553  1
  Ce  Ce3  1  0.075702  0.796450  0.665525  1
  Dy  Dy4  1  0.782086  0.558490  0.600739  1
  Dy  Dy5  1  0.443176  0.211808  0.904132  1
  Dy  Dy6  1  0.217082  0.441522  0.398943  1
  Dy  Dy7  1  0.555254  0.783815  0.099894  1
  Si  Si8  1  0.951715  0.703248  0.060543  1
  Si  Si9  1  0.294056  0.050243  0.441117  1
  Si  Si10  1  0.047755  0.301912  0.937728  1
  Si  Si11  1  0.704825  0.949447  0.554929  1
  Si  Si12  1  0.616076  0.387519  0.752279  1
  Si  Si13  1  0.393758  0.602299  0.248261  1
  Rh  Rh14  1  0.578654  0.292816  0.535887  1
  Rh  Rh15  1  0.697307  0.429859  0.973399  1
  Rh  Rh16  1  0.412645  0.705495  0.475851  1
  Rh  Rh17  1  0.298546  0.574437  0.018747  1
  Rh  Rh18  1  0.632917  0.919963  0.312397  1
  Rh  Rh19  1  0.068419  0.374907  0.189393  1
  Rh  Rh20  1  0.372237  0.070725  0.688727  1
  Rh  Rh21  1  0.926225  0.635570  0.810713  1
