# generated using pymatgen
data_CeEr15(ZnCo)4
_symmetry_space_group_name_H-M   'P 1'
_cell_length_a   9.23055068
_cell_length_b   9.27840927
_cell_length_c   9.23055200
_cell_angle_alpha   60.17047636
_cell_angle_beta   59.99999527
_cell_angle_gamma   60.17047998
_symmetry_Int_Tables_number   1
_chemical_formula_structural   CeEr15(ZnCo)4
_chemical_formula_sum   'Ce1 Er15 Zn4 Co4'
_cell_volume   560.43865629
_cell_formula_units_Z   1
loop_
 _symmetry_equiv_pos_site_id
 _symmetry_equiv_pos_as_xyz
  1  'x, y, z'
loop_
 _atom_site_type_symbol
 _atom_site_label
 _atom_site_symmetry_multiplicity
 _atom_site_fract_x
 _atom_site_fract_y
 _atom_site_fract_z
 _atom_site_occupancy
  Ce  Ce0  1  0.157678  0.526967  0.157678  1
  Er  Er1  1  0.689093  0.312577  0.689093  1
  Er  Er2  1  0.689093  0.312577  0.309238  1
  Er  Er3  1  0.937349  0.563275  0.562027  1
  Er  Er4  1  0.555257  0.148080  0.148331  1
  Er  Er5  1  0.148331  0.148080  0.555257  1
  Er  Er6  1  0.937425  0.937721  0.562428  1
  Er  Er7  1  0.309169  0.692677  0.309169  1
  Er  Er8  1  0.562428  0.937721  0.937425  1
  Er  Er9  1  0.562428  0.937721  0.562428  1
  Er  Er10  1  0.688985  0.692677  0.309169  1
  Er  Er11  1  0.562027  0.563275  0.937349  1
  Er  Er12  1  0.937349  0.563275  0.937349  1
  Er  Er13  1  0.309169  0.692677  0.688985  1
  Er  Er14  1  0.148331  0.148080  0.148331  1
  Er  Er15  1  0.309238  0.312577  0.689093  1
  Zn  Zn16  1  0.923767  0.228700  0.923767  1
  Zn  Zn17  1  0.923439  0.919634  0.923439  1
  Zn  Zn18  1  0.923439  0.919634  0.233489  1
  Zn  Zn19  1  0.233489  0.919634  0.923439  1
  Co  Co20  1  0.352514  0.364366  0.930607  1
  Co  Co21  1  0.356887  0.929340  0.356887  1
  Co  Co22  1  0.930607  0.364366  0.352514  1
  Co  Co23  1  0.352514  0.364366  0.352514  1
