# generated using pymatgen
data_Y12Co4HgRh
_symmetry_space_group_name_H-M   'P 1'
_cell_length_a   8.32892167
_cell_length_b   8.32892144
_cell_length_c   8.32892080
_cell_angle_alpha   110.53232969
_cell_angle_beta   109.79496666
_cell_angle_gamma   108.09592483
_symmetry_Int_Tables_number   1
_chemical_formula_structural   Y12Co4HgRh
_chemical_formula_sum   'Y12 Co4 Hg1 Rh1'
_cell_volume   444.56861049
_cell_formula_units_Z   1
loop_
 _symmetry_equiv_pos_site_id
 _symmetry_equiv_pos_as_xyz
  1  'x, y, z'
loop_
 _atom_site_type_symbol
 _atom_site_label
 _atom_site_symmetry_multiplicity
 _atom_site_fract_x
 _atom_site_fract_y
 _atom_site_fract_z
 _atom_site_occupancy
  Y  Y0  1  0.409138  0.212711  0.196427  1
  Y  Y1  1  0.590862  0.787289  0.803573  1
  Y  Y2  1  0.016285  0.212711  0.803573  1
  Y  Y3  1  0.983715  0.787289  0.196427  1
  Y  Y4  1  0.185082  0.292077  0.477159  1
  Y  Y5  1  0.814918  0.707923  0.522841  1
  Y  Y6  1  0.185082  0.707923  0.893005  1
  Y  Y7  1  0.814918  0.292077  0.106995  1
  Y  Y8  1  0.316571  0.618164  0.301595  1
  Y  Y9  1  0.683429  0.381836  0.698405  1
  Y  Y10  1  0.316571  0.014976  0.698405  1
  Y  Y11  1  0.683429  0.985024  0.301595  1
  Co  Co12  1  0.382411  0.000000  0.382411  1
  Co  Co13  1  0.617589  0.000000  0.617589  1
  Co  Co14  1  0.112318  0.612318  0.500000  1
  Co  Co15  1  0.887682  0.387682  0.500000  1
  Hg  Hg16  1  0.500000  0.500000  0.000000  1
  Rh  Rh17  1  0.000000  0.000000  0.000000  1
