# generated using pymatgen
data_Fe8Si3Mo12AsN4
_symmetry_space_group_name_H-M   'P 1'
_cell_length_a   7.84790485
_cell_length_b   7.84790447
_cell_length_c   7.84790427
_cell_angle_alpha   60.22778052
_cell_angle_beta   60.22778001
_cell_angle_gamma   60.22778202
_symmetry_Int_Tables_number   1
_chemical_formula_structural   Fe8Si3Mo12AsN4
_chemical_formula_sum   'Fe8 Si3 Mo12 As1 N4'
_cell_volume   343.54211974
_cell_formula_units_Z   1
loop_
 _symmetry_equiv_pos_site_id
 _symmetry_equiv_pos_as_xyz
  1  'x, y, z'
loop_
 _atom_site_type_symbol
 _atom_site_label
 _atom_site_symmetry_multiplicity
 _atom_site_fract_x
 _atom_site_fract_y
 _atom_site_fract_z
 _atom_site_occupancy
  Fe  Fe0  1  0.916432  0.916432  0.247085  1
  Fe  Fe1  1  0.247085  0.916432  0.916432  1
  Fe  Fe2  1  0.916432  0.247085  0.916432  1
  Fe  Fe3  1  0.333568  0.002915  0.333568  1
  Fe  Fe4  1  0.333568  0.333568  0.002915  1
  Fe  Fe5  1  0.331166  0.331166  0.331166  1
  Fe  Fe6  1  0.918834  0.918834  0.918834  1
  Fe  Fe7  1  0.002915  0.333568  0.333568  1
  Si  Si8  1  0.625000  0.125000  0.125000  1
  Si  Si9  1  0.125000  0.125000  0.625000  1
  Si  Si10  1  0.125000  0.625000  0.125000  1
  Mo  Mo11  1  0.557944  0.943569  0.943569  1
  Mo  Mo12  1  0.306431  0.692056  0.306431  1
  Mo  Mo13  1  0.943569  0.943569  0.557944  1
  Mo  Mo14  1  0.945249  0.554456  0.554456  1
  Mo  Mo15  1  0.695544  0.304751  0.695544  1
  Mo  Mo16  1  0.306431  0.306431  0.692056  1
  Mo  Mo17  1  0.692056  0.306431  0.306431  1
  Mo  Mo18  1  0.554456  0.945249  0.554456  1
  Mo  Mo19  1  0.304751  0.695544  0.695544  1
  Mo  Mo20  1  0.943569  0.557944  0.943569  1
  Mo  Mo21  1  0.554456  0.554456  0.945249  1
  Mo  Mo22  1  0.695544  0.695544  0.304751  1
  As  As23  1  0.125000  0.125000  0.125000  1
  N  N24  1  0.625000  0.625000  0.625000  1
  N  N25  1  0.125000  0.625000  0.625000  1
  N  N26  1  0.625000  0.125000  0.625000  1
  N  N27  1  0.625000  0.625000  0.125000  1
