# generated using pymatgen
data_SmDyPa(Co3P2)3
_symmetry_space_group_name_H-M   'P 1'
_cell_length_a   3.72841100
_cell_length_b   10.54690100
_cell_length_c   12.18538400
_cell_angle_alpha   90.00000000
_cell_angle_beta   90.00000000
_cell_angle_gamma   90.00000000
_symmetry_Int_Tables_number   1
_chemical_formula_structural   SmDyPa(Co3P2)3
_chemical_formula_sum   'Sm2 Dy2 Pa2 Co18 P12'
_cell_volume   479.16806917
_cell_formula_units_Z   2
loop_
 _symmetry_equiv_pos_site_id
 _symmetry_equiv_pos_as_xyz
  1  'x, y, z'
loop_
 _atom_site_type_symbol
 _atom_site_label
 _atom_site_symmetry_multiplicity
 _atom_site_fract_x
 _atom_site_fract_y
 _atom_site_fract_z
 _atom_site_occupancy
  Sm  Sm0  1  0.500000  0.814346  0.205324  1
  Sm  Sm1  1  0.500000  0.185654  0.205324  1
  Dy  Dy2  1  0.000000  0.685052  0.794521  1
  Dy  Dy3  1  0.000000  0.314948  0.794521  1
  Pa  Pa4  1  0.000000  0.500000  0.528989  1
  Pa  Pa5  1  0.500000  0.000000  0.472289  1
  Co  Co6  1  0.500000  0.500000  0.158359  1
  Co  Co7  1  0.000000  0.000000  0.841282  1
  Co  Co8  1  0.500000  0.500000  0.696149  1
  Co  Co9  1  0.000000  0.000000  0.305565  1
  Co  Co10  1  0.000000  0.500000  0.982854  1
  Co  Co11  1  0.500000  0.000000  0.013560  1
  Co  Co12  1  0.500000  0.334851  0.992680  1
  Co  Co13  1  0.500000  0.665149  0.992680  1
  Co  Co14  1  0.000000  0.166566  0.004399  1
  Co  Co15  1  0.000000  0.833434  0.004399  1
  Co  Co16  1  0.500000  0.302276  0.432871  1
  Co  Co17  1  0.500000  0.697724  0.432871  1
  Co  Co18  1  0.000000  0.198583  0.569628  1
  Co  Co19  1  0.000000  0.801417  0.569628  1
  Co  Co20  1  0.500000  0.880419  0.710717  1
  Co  Co21  1  0.500000  0.119581  0.710717  1
  Co  Co22  1  0.000000  0.618399  0.290413  1
  Co  Co23  1  0.000000  0.381601  0.290413  1
  P  P24  1  0.500000  0.500000  0.878192  1
  P  P25  1  0.000000  0.000000  0.118646  1
  P  P26  1  0.500000  0.500000  0.343468  1
  P  P27  1  0.000000  0.000000  0.657055  1
  P  P28  1  0.500000  0.306917  0.617389  1
  P  P29  1  0.500000  0.693083  0.617389  1
  P  P30  1  0.000000  0.194124  0.385624  1
  P  P31  1  0.000000  0.805876  0.385624  1
  P  P32  1  0.500000  0.846968  0.894282  1
  P  P33  1  0.500000  0.153032  0.894282  1
  P  P34  1  0.000000  0.650488  0.103949  1
  P  P35  1  0.000000  0.349512  0.103949  1
