# generated using pymatgen
data_Sm4Ga24IrPt8
_symmetry_space_group_name_H-M   'P 1'
_cell_length_a   7.54691236
_cell_length_b   7.60777904
_cell_length_c   13.39259200
_cell_angle_alpha   84.61798314
_cell_angle_beta   79.24369079
_cell_angle_gamma   59.94262490
_symmetry_Int_Tables_number   1
_chemical_formula_structural   Sm4Ga24IrPt8
_chemical_formula_sum   'Sm4 Ga24 Ir1 Pt8'
_cell_volume   653.84169296
_cell_formula_units_Z   1
loop_
 _symmetry_equiv_pos_site_id
 _symmetry_equiv_pos_as_xyz
  1  'x, y, z'
loop_
 _atom_site_type_symbol
 _atom_site_label
 _atom_site_symmetry_multiplicity
 _atom_site_fract_x
 _atom_site_fract_y
 _atom_site_fract_z
 _atom_site_occupancy
  Sm  Sm0  1  0.395149  0.167609  0.809843  1
  Sm  Sm1  1  0.604851  0.832391  0.190157  1
  Sm  Sm2  1  0.730712  0.499278  0.810434  1
  Sm  Sm3  1  0.269288  0.500722  0.189566  1
  Ga  Ga4  1  0.689319  0.831695  0.940702  1
  Ga  Ga5  1  0.310681  0.168305  0.059298  1
  Ga  Ga6  1  0.145463  0.832048  0.560807  1
  Ga  Ga7  1  0.854537  0.167952  0.439193  1
  Ga  Ga8  1  0.480330  0.166236  0.556954  1
  Ga  Ga9  1  0.519670  0.833764  0.443046  1
  Ga  Ga10  1  0.220277  0.165327  0.325586  1
  Ga  Ga11  1  0.779723  0.834673  0.674414  1
  Ga  Ga12  1  0.436971  0.504511  0.673224  1
  Ga  Ga13  1  0.563029  0.495489  0.326776  1
  Ga  Ga14  1  0.107638  0.162639  0.671301  1
  Ga  Ga15  1  0.892362  0.837361  0.328699  1
  Ga  Ga16  1  0.353707  0.498535  0.941651  1
  Ga  Ga17  1  0.646293  0.501465  0.058349  1
  Ga  Ga18  1  0.018839  0.172688  0.947724  1
  Ga  Ga19  1  0.981161  0.827312  0.052276  1
  Ga  Ga20  1  0.186256  0.499542  0.442356  1
  Ga  Ga21  1  0.813744  0.500458  0.557644  1
  Ga  Ga22  1  0.737011  0.163624  0.182563  1
  Ga  Ga23  1  0.262989  0.836376  0.817437  1
  Ga  Ga24  1  0.061808  0.629713  0.818099  1
  Ga  Ga25  1  0.938192  0.370287  0.181901  1
  Ga  Ga26  1  0.859093  0.039014  0.816222  1
  Ga  Ga27  1  0.140907  0.960986  0.183779  1
  Ir  Ir28  1  0.000000  0.500000  0.000000  1
  Pt  Pt29  1  0.118112  0.495582  0.638718  1
  Pt  Pt30  1  0.881888  0.504418  0.361282  1
  Pt  Pt31  1  0.660523  0.169448  0.999758  1
  Pt  Pt32  1  0.339477  0.830552  0.000242  1
  Pt  Pt33  1  0.540916  0.167509  0.361164  1
  Pt  Pt34  1  0.459084  0.832491  0.638836  1
  Pt  Pt35  1  0.780080  0.171697  0.636526  1
  Pt  Pt36  1  0.219920  0.828303  0.363474  1
