# generated using pymatgen
data_Pr7Gd3(In3Cl)2
_symmetry_space_group_name_H-M   'P 1'
_cell_length_a   9.56356900
_cell_length_b   9.56356727
_cell_length_c   6.80919800
_cell_angle_alpha   90.00000000
_cell_angle_beta   90.00000000
_cell_angle_gamma   120.00000251
_symmetry_Int_Tables_number   1
_chemical_formula_structural   Pr7Gd3(In3Cl)2
_chemical_formula_sum   'Pr7 Gd3 In6 Cl2'
_cell_volume   539.34480061
_cell_formula_units_Z   1
loop_
 _symmetry_equiv_pos_site_id
 _symmetry_equiv_pos_as_xyz
  1  'x, y, z'
loop_
 _atom_site_type_symbol
 _atom_site_label
 _atom_site_symmetry_multiplicity
 _atom_site_fract_x
 _atom_site_fract_y
 _atom_site_fract_z
 _atom_site_occupancy
  Pr  Pr0  1  0.741755  0.738973  0.248975  1
  Pr  Pr1  1  0.997218  0.738973  0.751025  1
  Pr  Pr2  1  0.741755  0.002782  0.751025  1
  Pr  Pr3  1  0.333333  0.666667  0.500000  1
  Pr  Pr4  1  0.261027  0.258245  0.751025  1
  Pr  Pr5  1  0.997218  0.258245  0.248975  1
  Pr  Pr6  1  0.261027  0.002782  0.248975  1
  Gd  Gd7  1  0.666667  0.333333  0.500000  1
  Gd  Gd8  1  0.333333  0.666667  0.000000  1
  Gd  Gd9  1  0.666667  0.333333  0.000000  1
  In  In10  1  0.395912  0.002630  0.748605  1
  In  In11  1  0.997370  0.604088  0.251395  1
  In  In12  1  0.606718  0.002630  0.251395  1
  In  In13  1  0.997370  0.393282  0.748605  1
  In  In14  1  0.395912  0.393282  0.251395  1
  In  In15  1  0.606718  0.604088  0.748605  1
  Cl  Cl16  1  0.000000  0.000000  0.500000  1
  Cl  Cl17  1  0.000000  0.000000  0.000000  1
