# generated using pymatgen
data_LiLaPr7Rh6
_symmetry_space_group_name_H-M   'P 1'
_cell_length_a   7.66588983
_cell_length_b   7.66588981
_cell_length_c   7.66588961
_cell_angle_alpha   70.18938262
_cell_angle_beta   70.18938791
_cell_angle_gamma   70.18937497
_symmetry_Int_Tables_number   1
_chemical_formula_structural   LiLaPr7Rh6
_chemical_formula_sum   'Li1 La1 Pr7 Rh6'
_cell_volume   385.76255621
_cell_formula_units_Z   1
loop_
 _symmetry_equiv_pos_site_id
 _symmetry_equiv_pos_as_xyz
  1  'x, y, z'
loop_
 _atom_site_type_symbol
 _atom_site_label
 _atom_site_symmetry_multiplicity
 _atom_site_fract_x
 _atom_site_fract_y
 _atom_site_fract_z
 _atom_site_occupancy
  Li  Li0  1  0.000433  0.000433  0.000433  1
  La  La1  1  0.810153  0.810153  0.810153  1
  Pr  Pr2  1  0.189278  0.189278  0.189278  1
  Pr  Pr3  1  0.150271  0.383253  0.673987  1
  Pr  Pr4  1  0.673987  0.150271  0.383253  1
  Pr  Pr5  1  0.383253  0.673987  0.150271  1
  Pr  Pr6  1  0.850709  0.614886  0.326515  1
  Pr  Pr7  1  0.326515  0.850709  0.614886  1
  Pr  Pr8  1  0.614886  0.326515  0.850709  1
  Rh  Rh9  1  0.949597  0.177382  0.577254  1
  Rh  Rh10  1  0.577254  0.949597  0.177382  1
  Rh  Rh11  1  0.177382  0.577254  0.949597  1
  Rh  Rh12  1  0.047694  0.821954  0.426634  1
  Rh  Rh13  1  0.426634  0.047694  0.821954  1
  Rh  Rh14  1  0.821954  0.426634  0.047694  1
