# generated using pymatgen
data_Eu5P2Pb
_symmetry_space_group_name_H-M   'P 1'
_cell_length_a   9.23480783
_cell_length_b   9.23480801
_cell_length_c   9.23480600
_cell_angle_alpha   127.96264012
_cell_angle_beta   127.96264628
_cell_angle_gamma   76.68554451
_symmetry_Int_Tables_number   1
_chemical_formula_structural   Eu5P2Pb
_chemical_formula_sum   'Eu10 P4 Pb2'
_cell_volume   475.44186984
_cell_formula_units_Z   2
loop_
 _symmetry_equiv_pos_site_id
 _symmetry_equiv_pos_as_xyz
  1  'x, y, z'
loop_
 _atom_site_type_symbol
 _atom_site_label
 _atom_site_symmetry_multiplicity
 _atom_site_fract_x
 _atom_site_fract_y
 _atom_site_fract_z
 _atom_site_occupancy
  Eu  Eu0  1  0.500000  0.500000  0.000000  1
  Eu  Eu1  1  0.000000  0.000000  0.000000  1
  Eu  Eu2  1  0.521967  0.021967  0.808123  1
  Eu  Eu3  1  0.213846  0.713846  0.191877  1
  Eu  Eu4  1  0.021967  0.213846  0.500000  1
  Eu  Eu5  1  0.713846  0.521967  0.500000  1
  Eu  Eu6  1  0.478033  0.978033  0.191877  1
  Eu  Eu7  1  0.786154  0.286154  0.808123  1
  Eu  Eu8  1  0.978033  0.786154  0.500000  1
  Eu  Eu9  1  0.286154  0.478033  0.500000  1
  P  P10  1  0.154459  0.654459  0.808916  1
  P  P11  1  0.845541  0.345541  0.191084  1
  P  P12  1  0.654459  0.845541  0.500000  1
  P  P13  1  0.345541  0.154459  0.500000  1
  Pb  Pb14  1  0.250000  0.250000  0.000000  1
  Pb  Pb15  1  0.750000  0.750000  0.000000  1
