# generated using pymatgen
data_Dy8Zr12Si15Ir
_symmetry_space_group_name_H-M   'P 1'
_cell_length_a   7.17457291
_cell_length_b   7.32156402
_cell_length_c   13.94994091
_cell_angle_alpha   89.83425582
_cell_angle_beta   89.90090109
_cell_angle_gamma   90.13858916
_symmetry_Int_Tables_number   1
_chemical_formula_structural   Dy8Zr12Si15Ir
_chemical_formula_sum   'Dy8 Zr12 Si15 Ir1'
_cell_volume   732.77145434
_cell_formula_units_Z   1
loop_
 _symmetry_equiv_pos_site_id
 _symmetry_equiv_pos_as_xyz
  1  'x, y, z'
loop_
 _atom_site_type_symbol
 _atom_site_label
 _atom_site_symmetry_multiplicity
 _atom_site_fract_x
 _atom_site_fract_y
 _atom_site_fract_z
 _atom_site_occupancy
  Dy  Dy0  1  0.016249  0.175334  0.097160  1
  Dy  Dy1  1  0.985620  0.825021  0.903344  1
  Dy  Dy2  1  0.485781  0.676550  0.902723  1
  Dy  Dy3  1  0.983110  0.825270  0.596984  1
  Dy  Dy4  1  0.514434  0.324063  0.096195  1
  Dy  Dy5  1  0.013383  0.178666  0.402259  1
  Dy  Dy6  1  0.514975  0.324584  0.400913  1
  Dy  Dy7  1  0.483329  0.673133  0.596985  1
  Zr  Zr8  1  0.159589  0.502962  0.745933  1
  Zr  Zr9  1  0.844060  0.500808  0.249256  1
  Zr  Zr10  1  0.344711  0.999150  0.249590  1
  Zr  Zr11  1  0.654535  0.001512  0.748961  1
  Zr  Zr12  1  0.330571  0.180578  0.622146  1
  Zr  Zr13  1  0.671772  0.824572  0.374991  1
  Zr  Zr14  1  0.173013  0.668240  0.379874  1
  Zr  Zr15  1  0.673297  0.822072  0.124588  1
  Zr  Zr16  1  0.829770  0.322986  0.624330  1
  Zr  Zr17  1  0.328339  0.174726  0.874734  1
  Zr  Zr18  1  0.829854  0.321820  0.875620  1
  Zr  Zr19  1  0.170485  0.676792  0.124775  1
  Si  Si20  1  0.032861  0.117553  0.751552  1
  Si  Si21  1  0.969453  0.881255  0.250810  1
  Si  Si22  1  0.467521  0.617476  0.250086  1
  Si  Si23  1  0.535247  0.381903  0.752637  1
  Si  Si24  1  0.281884  0.875796  0.751381  1
  Si  Si25  1  0.717785  0.126355  0.248644  1
  Si  Si26  1  0.218713  0.372302  0.248224  1
  Si  Si27  1  0.781772  0.626615  0.753434  1
  Si  Si28  1  0.839606  0.534134  0.457522  1
  Si  Si29  1  0.347167  0.969822  0.456684  1
  Si  Si30  1  0.843907  0.531491  0.040518  1
  Si  Si31  1  0.653315  0.033565  0.539354  1
  Si  Si32  1  0.155610  0.466237  0.959858  1
  Si  Si33  1  0.654539  0.031373  0.959348  1
  Si  Si34  1  0.347327  0.967493  0.041413  1
  Ir  Ir35  1  0.146418  0.467793  0.547176  1
