# generated using pymatgen
data_LiGd12InCo4
_symmetry_space_group_name_H-M   'P 1'
_cell_length_a   8.44761527
_cell_length_b   8.44761645
_cell_length_c   8.44761700
_cell_angle_alpha   111.90039674
_cell_angle_beta   110.21050594
_cell_angle_gamma   106.35187497
_symmetry_Int_Tables_number   1
_chemical_formula_structural   LiGd12InCo4
_chemical_formula_sum   'Li1 Gd12 In1 Co4'
_cell_volume   462.93564255
_cell_formula_units_Z   1
loop_
 _symmetry_equiv_pos_site_id
 _symmetry_equiv_pos_as_xyz
  1  'x, y, z'
loop_
 _atom_site_type_symbol
 _atom_site_label
 _atom_site_symmetry_multiplicity
 _atom_site_fract_x
 _atom_site_fract_y
 _atom_site_fract_z
 _atom_site_occupancy
  Li  Li0  1  0.000000  0.000000  0.000000  1
  Gd  Gd1  1  0.426805  0.230033  0.196772  1
  Gd  Gd2  1  0.573195  0.769967  0.803228  1
  Gd  Gd3  1  0.033261  0.230033  0.803228  1
  Gd  Gd4  1  0.966739  0.769967  0.196772  1
  Gd  Gd5  1  0.183782  0.290183  0.473965  1
  Gd  Gd6  1  0.816218  0.709817  0.526035  1
  Gd  Gd7  1  0.183782  0.709817  0.893602  1
  Gd  Gd8  1  0.816218  0.290183  0.106398  1
  Gd  Gd9  1  0.324463  0.639137  0.314674  1
  Gd  Gd10  1  0.675537  0.360863  0.685326  1
  Gd  Gd11  1  0.324463  0.009788  0.685326  1
  Gd  Gd12  1  0.675537  0.990212  0.314674  1
  In  In13  1  0.500000  0.500000  0.000000  1
  Co  Co14  1  0.332881  0.000000  0.332881  1
  Co  Co15  1  0.667119  0.000000  0.667119  1
  Co  Co16  1  0.115212  0.615212  0.500000  1
  Co  Co17  1  0.884788  0.384788  0.500000  1
