# generated using pymatgen
data_YNbSnB2Ru5
_symmetry_space_group_name_H-M   'P 1'
_cell_length_a   9.64978170
_cell_length_b   9.64978040
_cell_length_c   3.09359100
_cell_angle_alpha   90.00000000
_cell_angle_beta   90.00000000
_cell_angle_gamma   91.86041396
_symmetry_Int_Tables_number   1
_chemical_formula_structural   YNbSnB2Ru5
_chemical_formula_sum   'Y2 Nb2 Sn2 B4 Ru10'
_cell_volume   287.91800916
_cell_formula_units_Z   2
loop_
 _symmetry_equiv_pos_site_id
 _symmetry_equiv_pos_as_xyz
  1  'x, y, z'
loop_
 _atom_site_type_symbol
 _atom_site_label
 _atom_site_symmetry_multiplicity
 _atom_site_fract_x
 _atom_site_fract_y
 _atom_site_fract_z
 _atom_site_occupancy
  Y  Y0  1  0.823230  0.676770  0.000000  1
  Y  Y1  1  0.176770  0.323230  0.000000  1
  Nb  Nb2  1  0.325917  0.825917  0.000000  1
  Nb  Nb3  1  0.674083  0.174083  0.000000  1
  Sn  Sn4  1  0.500000  0.500000  0.000000  1
  Sn  Sn5  1  0.000000  0.000000  0.000000  1
  B  B6  1  0.619571  0.880429  0.000000  1
  B  B7  1  0.380429  0.119571  0.000000  1
  B  B8  1  0.122312  0.622312  0.000000  1
  B  B9  1  0.877688  0.377688  0.000000  1
  Ru  Ru10  1  0.554445  0.728821  0.500000  1
  Ru  Ru11  1  0.445555  0.271179  0.500000  1
  Ru  Ru12  1  0.087193  0.782817  0.500000  1
  Ru  Ru13  1  0.912807  0.217183  0.500000  1
  Ru  Ru14  1  0.282817  0.587193  0.500000  1
  Ru  Ru15  1  0.717183  0.412807  0.500000  1
  Ru  Ru16  1  0.228821  0.054445  0.500000  1
  Ru  Ru17  1  0.771179  0.945555  0.500000  1
  Ru  Ru18  1  0.500000  0.000000  0.500000  1
  Ru  Ru19  1  0.000000  0.500000  0.500000  1
