# generated using pymatgen
data_HoTh(Si2Ni9)2
_symmetry_space_group_name_H-M   'P 1'
_cell_length_a   7.57528901
_cell_length_b   7.57518687
_cell_length_c   7.57529069
_cell_angle_alpha   99.57046781
_cell_angle_beta   99.57713735
_cell_angle_gamma   131.86483232
_symmetry_Int_Tables_number   1
_chemical_formula_structural   HoTh(Si2Ni9)2
_chemical_formula_sum   'Ho1 Th1 Si4 Ni18'
_cell_volume   295.58636742
_cell_formula_units_Z   1
loop_
 _symmetry_equiv_pos_site_id
 _symmetry_equiv_pos_as_xyz
  1  'x, y, z'
loop_
 _atom_site_type_symbol
 _atom_site_label
 _atom_site_symmetry_multiplicity
 _atom_site_fract_x
 _atom_site_fract_y
 _atom_site_fract_z
 _atom_site_occupancy
  Ho  Ho0  1  0.750008  0.250081  0.500074  1
  Th  Th1  1  0.500022  0.500036  0.000013  1
  Si  Si2  1  0.624659  0.875767  0.748909  1
  Si  Si3  1  0.124225  0.375320  0.251095  1
  Si  Si4  1  0.124214  0.873098  0.748885  1
  Si  Si5  1  0.126858  0.875767  0.251108  1
  Ni  Ni6  1  0.249986  0.749984  0.499998  1
  Ni  Ni7  1  0.000022  0.000012  0.999989  1
  Ni  Ni8  1  0.686743  0.014067  0.079013  1
  Ni  Ni9  1  0.686732  0.607690  0.672685  1
  Ni  Ni10  1  0.263873  0.437566  0.578849  1
  Ni  Ni11  1  0.263822  0.684990  0.826273  1
  Ni  Ni12  1  0.935055  0.014067  0.327324  1
  Ni  Ni13  1  0.935005  0.607690  0.920957  1
  Ni  Ni14  1  0.858718  0.437566  0.173692  1
  Ni  Ni15  1  0.858716  0.684990  0.421167  1
  Ni  Ni16  1  0.562424  0.736109  0.421171  1
  Ni  Ni17  1  0.562458  0.141298  0.826277  1
  Ni  Ni18  1  0.985957  0.313270  0.920956  1
  Ni  Ni19  1  0.985956  0.064978  0.672701  1
  Ni  Ni20  1  0.314937  0.736109  0.173685  1
  Ni  Ni21  1  0.315021  0.141298  0.578841  1
  Ni  Ni22  1  0.392313  0.313270  0.327314  1
  Ni  Ni23  1  0.392278  0.064978  0.079024  1
