# generated using pymatgen
data_Y2MgTiRh2
_symmetry_space_group_name_H-M   'P 1'
_cell_length_a   4.32397700
_cell_length_b   7.03967917
_cell_length_c   8.26433695
_cell_angle_alpha   93.89083769
_cell_angle_beta   90.00000000
_cell_angle_gamma   90.00000000
_symmetry_Int_Tables_number   1
_chemical_formula_structural   Y2MgTiRh2
_chemical_formula_sum   'Y4 Mg2 Ti2 Rh4'
_cell_volume   250.98173411
_cell_formula_units_Z   2
loop_
 _symmetry_equiv_pos_site_id
 _symmetry_equiv_pos_as_xyz
  1  'x, y, z'
loop_
 _atom_site_type_symbol
 _atom_site_label
 _atom_site_symmetry_multiplicity
 _atom_site_fract_x
 _atom_site_fract_y
 _atom_site_fract_z
 _atom_site_occupancy
  Y  Y0  1  0.250000  0.530208  0.181385  1
  Y  Y1  1  0.750000  0.469792  0.818615  1
  Y  Y2  1  0.250000  0.022127  0.324115  1
  Y  Y3  1  0.750000  0.977873  0.675885  1
  Mg  Mg4  1  0.250000  0.643652  0.569700  1
  Mg  Mg5  1  0.750000  0.356348  0.430300  1
  Ti  Ti6  1  0.250000  0.130099  0.933871  1
  Ti  Ti7  1  0.750000  0.869901  0.066129  1
  Rh  Rh8  1  0.750000  0.742756  0.364499  1
  Rh  Rh9  1  0.250000  0.257244  0.635501  1
  Rh  Rh10  1  0.750000  0.223201  0.086610  1
  Rh  Rh11  1  0.250000  0.776799  0.913390  1
