# generated using pymatgen
data_Li4Nd2SmPb4
_symmetry_space_group_name_H-M   'P 1'
_cell_length_a   4.77397567
_cell_length_b   7.26225621
_cell_length_c   8.92987870
_cell_angle_alpha   113.99311814
_cell_angle_beta   105.50388208
_cell_angle_gamma   89.99999852
_symmetry_Int_Tables_number   1
_chemical_formula_structural   Li4Nd2SmPb4
_chemical_formula_sum   'Li4 Nd2 Sm1 Pb4'
_cell_volume   270.46897176
_cell_formula_units_Z   1
loop_
 _symmetry_equiv_pos_site_id
 _symmetry_equiv_pos_as_xyz
  1  'x, y, z'
loop_
 _atom_site_type_symbol
 _atom_site_label
 _atom_site_symmetry_multiplicity
 _atom_site_fract_x
 _atom_site_fract_y
 _atom_site_fract_z
 _atom_site_occupancy
  Li  Li0  1  0.672543  0.981713  0.345085  1
  Li  Li1  1  0.327457  0.018287  0.654915  1
  Li  Li2  1  0.327457  0.636627  0.654915  1
  Li  Li3  1  0.672543  0.363373  0.345085  1
  Nd  Nd4  1  0.129632  0.629632  0.259262  1
  Nd  Nd5  1  0.870368  0.370368  0.740738  1
  Sm  Sm6  1  0.000000  0.000000  0.000000  1
  Pb  Pb7  1  0.500000  0.706352  0.000000  1
  Pb  Pb8  1  0.500000  0.293648  0.000000  1
  Pb  Pb9  1  0.787129  0.787129  0.574257  1
  Pb  Pb10  1  0.212871  0.212871  0.425743  1
