# generated using pymatgen
data_SmTmFe3Re14C3
_symmetry_space_group_name_H-M   'P 1'
_cell_length_a   6.93193738
_cell_length_b   6.93193933
_cell_length_c   6.93193841
_cell_angle_alpha   82.61208356
_cell_angle_beta   82.61208027
_cell_angle_gamma   82.61208115
_symmetry_Int_Tables_number   1
_chemical_formula_structural   SmTmFe3Re14C3
_chemical_formula_sum   'Sm1 Tm1 Fe3 Re14 C3'
_cell_volume   325.45120784
_cell_formula_units_Z   1
loop_
 _symmetry_equiv_pos_site_id
 _symmetry_equiv_pos_as_xyz
  1  'x, y, z'
loop_
 _atom_site_type_symbol
 _atom_site_label
 _atom_site_symmetry_multiplicity
 _atom_site_fract_x
 _atom_site_fract_y
 _atom_site_fract_z
 _atom_site_occupancy
  Sm  Sm0  1  0.648308  0.648308  0.648308  1
  Tm  Tm1  1  0.350787  0.350787  0.350787  1
  Fe  Fe2  1  0.998691  0.998691  0.500662  1
  Fe  Fe3  1  0.500662  0.998691  0.998691  1
  Fe  Fe4  1  0.998691  0.500662  0.998691  1
  Re  Re5  1  0.721836  0.277550  0.000417  1
  Re  Re6  1  0.000417  0.721836  0.277550  1
  Re  Re7  1  0.277550  0.000417  0.721836  1
  Re  Re8  1  0.000417  0.277550  0.721836  1
  Re  Re9  1  0.721836  0.000417  0.277550  1
  Re  Re10  1  0.277550  0.721836  0.000417  1
  Re  Re11  1  0.345740  0.345740  0.863128  1
  Re  Re12  1  0.863128  0.345740  0.345740  1
  Re  Re13  1  0.345740  0.863128  0.345740  1
  Re  Re14  1  0.652954  0.652954  0.140983  1
  Re  Re15  1  0.140983  0.652954  0.652954  1
  Re  Re16  1  0.652954  0.140983  0.652954  1
  Re  Re17  1  0.898157  0.898157  0.898157  1
  Re  Re18  1  0.102356  0.102356  0.102356  1
  C  C19  1  0.496621  0.496621  0.008002  1
  C  C20  1  0.008002  0.496621  0.496621  1
  C  C21  1  0.496621  0.008002  0.496621  1
