# generated using pymatgen
data_Na12Cr(WN4)3
_symmetry_space_group_name_H-M   'P 1'
_cell_length_a   6.39936776
_cell_length_b   8.82057824
_cell_length_c   8.76518620
_cell_angle_alpha   102.68383526
_cell_angle_beta   111.19790834
_cell_angle_gamma   68.96100113
_symmetry_Int_Tables_number   1
_chemical_formula_structural   Na12Cr(WN4)3
_chemical_formula_sum   'Na12 Cr1 W3 N12'
_cell_volume   428.23639034
_cell_formula_units_Z   1
loop_
 _symmetry_equiv_pos_site_id
 _symmetry_equiv_pos_as_xyz
  1  'x, y, z'
loop_
 _atom_site_type_symbol
 _atom_site_label
 _atom_site_symmetry_multiplicity
 _atom_site_fract_x
 _atom_site_fract_y
 _atom_site_fract_z
 _atom_site_occupancy
  Na  Na0  1  0.467238  0.470877  0.006167  1
  Na  Na1  1  0.375931  0.850670  0.120757  1
  Na  Na2  1  0.875205  0.877399  0.144704  1
  Na  Na3  1  0.970830  0.278565  0.292217  1
  Na  Na4  1  0.187866  0.603506  0.348326  1
  Na  Na5  1  0.692858  0.640333  0.391885  1
  Na  Na6  1  0.967785  0.992099  0.528154  1
  Na  Na7  1  0.426495  0.367551  0.604702  1
  Na  Na8  1  0.930070  0.399372  0.641033  1
  Na  Na9  1  0.477636  0.705912  0.729010  1
  Na  Na10  1  0.375063  0.090018  0.855051  1
  Na  Na11  1  0.885909  0.149222  0.917059  1
  Cr  Cr12  1  0.919788  0.507363  0.005688  1
  W  W13  1  0.487579  0.241184  0.237192  1
  W  W14  1  0.422620  0.993321  0.492505  1
  W  W15  1  0.994111  0.756060  0.765945  1
  N  N16  1  0.665704  0.168324  0.095297  1
  N  N17  1  0.163770  0.335090  0.112475  1
  N  N18  1  0.770157  0.624637  0.137047  1
  N  N19  1  0.545350  0.055642  0.352325  1
  N  N20  1  0.256371  0.854098  0.364059  1
  N  N21  1  0.590507  0.401131  0.388406  1
  N  N22  1  0.222862  0.170170  0.577182  1
  N  N23  1  0.090115  0.611576  0.599615  1
  N  N24  1  0.668861  0.881897  0.676541  1
  N  N25  1  0.736322  0.427990  0.842264  1
  N  N26  1  0.172090  0.898446  0.840945  1
  N  N27  1  0.037306  0.637611  0.943390  1
