# generated using pymatgen
data_Cs5Tl11Zn2
_symmetry_space_group_name_H-M   'P 1'
_cell_length_a   11.52112701
_cell_length_b   11.52112718
_cell_length_c   5.67696300
_cell_angle_alpha   90.00000000
_cell_angle_beta   90.00000000
_cell_angle_gamma   107.98760050
_symmetry_Int_Tables_number   1
_chemical_formula_structural   Cs5Tl11Zn2
_chemical_formula_sum   'Cs5 Tl11 Zn2'
_cell_volume   716.70898842
_cell_formula_units_Z   1
loop_
 _symmetry_equiv_pos_site_id
 _symmetry_equiv_pos_as_xyz
  1  'x, y, z'
loop_
 _atom_site_type_symbol
 _atom_site_label
 _atom_site_symmetry_multiplicity
 _atom_site_fract_x
 _atom_site_fract_y
 _atom_site_fract_z
 _atom_site_occupancy
  Cs  Cs0  1  0.221759  0.604848  0.000000  1
  Cs  Cs1  1  0.508826  0.890052  0.500000  1
  Cs  Cs2  1  0.604848  0.221759  0.000000  1
  Cs  Cs3  1  0.630347  0.630347  0.000000  1
  Cs  Cs4  1  0.890052  0.508826  0.500000  1
  Tl  Tl5  1  0.138044  0.334262  0.500000  1
  Tl  Tl6  1  0.144765  0.843881  0.500000  1
  Tl  Tl7  1  0.273322  0.273322  0.000000  1
  Tl  Tl8  1  0.277180  0.976111  0.000000  1
  Tl  Tl9  1  0.334262  0.138044  0.500000  1
  Tl  Tl10  1  0.430647  0.430647  0.500000  1
  Tl  Tl11  1  0.796455  0.982496  0.000000  1
  Tl  Tl12  1  0.842875  0.842875  0.500000  1
  Tl  Tl13  1  0.843881  0.144765  0.500000  1
  Tl  Tl14  1  0.976111  0.277180  0.000000  1
  Tl  Tl15  1  0.982496  0.796455  0.000000  1
  Zn  Zn16  1  0.059515  0.059515  0.750579  1
  Zn  Zn17  1  0.059515  0.059515  0.249421  1
