# generated using pymatgen
data_Sm2(SeO4)3
_symmetry_space_group_name_H-M   'P 1'
_cell_length_a   10.18766617
_cell_length_b   10.18767581
_cell_length_c   10.18767306
_cell_angle_alpha   57.70114135
_cell_angle_beta   57.70115092
_cell_angle_gamma   57.70114039
_symmetry_Int_Tables_number   1
_chemical_formula_structural   Sm2(SeO4)3
_chemical_formula_sum   'Sm4 Se6 O24'
_cell_volume   708.18004867
_cell_formula_units_Z   2
loop_
 _symmetry_equiv_pos_site_id
 _symmetry_equiv_pos_as_xyz
  1  'x, y, z'
loop_
 _atom_site_type_symbol
 _atom_site_label
 _atom_site_symmetry_multiplicity
 _atom_site_fract_x
 _atom_site_fract_y
 _atom_site_fract_z
 _atom_site_occupancy
  Sm  Sm0  1  0.144105  0.144105  0.144105  1
  Sm  Sm1  1  0.855895  0.855895  0.855895  1
  Sm  Sm2  1  0.355895  0.355895  0.355895  1
  Sm  Sm3  1  0.644105  0.644105  0.644105  1
  Se  Se4  1  0.036424  0.463577  0.750000  1
  Se  Se5  1  0.463577  0.750000  0.036424  1
  Se  Se6  1  0.750000  0.036424  0.463576  1
  Se  Se7  1  0.963576  0.536423  0.250000  1
  Se  Se8  1  0.250000  0.963576  0.536424  1
  Se  Se9  1  0.536423  0.250000  0.963576  1
  O  O10  1  0.227281  0.991870  0.372102  1
  O  O11  1  0.372102  0.227281  0.991870  1
  O  O12  1  0.991870  0.372102  0.227281  1
  O  O13  1  0.772719  0.008130  0.627898  1
  O  O14  1  0.627898  0.772719  0.008130  1
  O  O15  1  0.008130  0.627898  0.772719  1
  O  O16  1  0.272719  0.127898  0.508130  1
  O  O17  1  0.508130  0.272719  0.127898  1
  O  O18  1  0.127898  0.508130  0.272719  1
  O  O19  1  0.727281  0.872102  0.491870  1
  O  O20  1  0.064175  0.296221  0.915887  1
  O  O21  1  0.296222  0.915887  0.064175  1
  O  O22  1  0.915886  0.064175  0.296222  1
  O  O23  1  0.935825  0.703779  0.084113  1
  O  O24  1  0.703778  0.084113  0.935825  1
  O  O25  1  0.084114  0.935825  0.703778  1
  O  O26  1  0.203778  0.435825  0.584113  1
  O  O27  1  0.435826  0.584113  0.203778  1
  O  O28  1  0.584113  0.203778  0.435825  1
  O  O29  1  0.796222  0.564175  0.415887  1
  O  O30  1  0.564174  0.415887  0.796222  1
  O  O31  1  0.415887  0.796222  0.564175  1
  O  O32  1  0.872102  0.491870  0.727281  1
  O  O33  1  0.491870  0.727281  0.872102  1
