# generated using pymatgen
data_DyHo5Al24IrOs7
_symmetry_space_group_name_H-M   'P 1'
_cell_length_a   8.81227656
_cell_length_b   8.82459280
_cell_length_c   9.54455001
_cell_angle_alpha   89.99690323
_cell_angle_beta   89.82151147
_cell_angle_gamma   120.05858831
_symmetry_Int_Tables_number   1
_chemical_formula_structural   DyHo5Al24IrOs7
_chemical_formula_sum   'Dy1 Ho5 Al24 Ir1 Os7'
_cell_volume   642.40560311
_cell_formula_units_Z   1
loop_
 _symmetry_equiv_pos_site_id
 _symmetry_equiv_pos_as_xyz
  1  'x, y, z'
loop_
 _atom_site_type_symbol
 _atom_site_label
 _atom_site_symmetry_multiplicity
 _atom_site_fract_x
 _atom_site_fract_y
 _atom_site_fract_z
 _atom_site_occupancy
  Dy  Dy0  1  0.195239  0.387146  0.250941  1
  Ho  Ho1  1  0.804596  0.612556  0.748947  1
  Ho  Ho2  1  0.610680  0.805372  0.249834  1
  Ho  Ho3  1  0.389364  0.194694  0.750155  1
  Ho  Ho4  1  0.195443  0.807995  0.251091  1
  Ho  Ho5  1  0.804595  0.192074  0.748964  1
  Al  Al6  1  0.334351  0.667273  0.019199  1
  Al  Al7  1  0.665780  0.332913  0.980641  1
  Al  Al8  1  0.666726  0.333385  0.517810  1
  Al  Al9  1  0.333335  0.666767  0.482347  1
  Al  Al10  1  0.161929  0.325225  0.576845  1
  Al  Al11  1  0.838033  0.674744  0.423401  1
  Al  Al12  1  0.673643  0.836829  0.575236  1
  Al  Al13  1  0.836286  0.674654  0.075647  1
  Al  Al14  1  0.326447  0.163108  0.424865  1
  Al  Al15  1  0.163692  0.325312  0.924104  1
  Al  Al16  1  0.161920  0.836734  0.576697  1
  Al  Al17  1  0.326373  0.163068  0.075148  1
  Al  Al18  1  0.837889  0.163175  0.423412  1
  Al  Al19  1  0.673709  0.836858  0.924754  1
  Al  Al20  1  0.836172  0.161539  0.075639  1
  Al  Al21  1  0.163669  0.838376  0.924269  1
  Al  Al22  1  0.561719  0.122019  0.249388  1
  Al  Al23  1  0.438262  0.877947  0.750620  1
  Al  Al24  1  0.878444  0.439378  0.250115  1
  Al  Al25  1  0.121278  0.560649  0.749909  1
  Al  Al26  1  0.562031  0.439738  0.249377  1
  Al  Al27  1  0.438291  0.560304  0.750612  1
  Al  Al28  1  0.999693  0.999586  0.249987  1
  Al  Al29  1  0.000153  0.000077  0.750007  1
  Ir  Ir30  1  0.999914  0.500069  0.999887  1
  Os  Os31  1  0.500037  0.000095  0.999958  1
  Os  Os32  1  0.500039  0.000094  0.500048  1
  Os  Os33  1  0.500201  0.500078  0.999842  1
  Os  Os34  1  0.999884  0.500068  0.500148  1
  Os  Os35  1  0.500177  0.500090  0.500146  1
  Os  Os36  1  0.000003  0.000007  0.999983  1
  Os  Os37  1  0.000004  0.000006  0.500023  1
