# generated using pymatgen
data_PuPbO4
_symmetry_space_group_name_H-M   'P 1'
_cell_length_a   5.58581100
_cell_length_b   7.99841400
_cell_length_c   8.22372500
_cell_angle_alpha   90.00000000
_cell_angle_beta   90.00000000
_cell_angle_gamma   90.00000000
_symmetry_Int_Tables_number   1
_chemical_formula_structural   PuPbO4
_chemical_formula_sum   'Pu4 Pb4 O16'
_cell_volume   367.41653376
_cell_formula_units_Z   4
loop_
 _symmetry_equiv_pos_site_id
 _symmetry_equiv_pos_as_xyz
  1  'x, y, z'
loop_
 _atom_site_type_symbol
 _atom_site_label
 _atom_site_symmetry_multiplicity
 _atom_site_fract_x
 _atom_site_fract_y
 _atom_site_fract_z
 _atom_site_occupancy
  Pu  Pu0  1  0.000000  0.000000  0.000000  1
  Pu  Pu1  1  0.000000  0.500000  0.000000  1
  Pu  Pu2  1  0.000000  0.500000  0.500000  1
  Pu  Pu3  1  0.000000  0.000000  0.500000  1
  Pb  Pb4  1  0.500242  0.200836  0.250000  1
  Pb  Pb5  1  0.500242  0.299164  0.750000  1
  Pb  Pb6  1  0.499758  0.700836  0.250000  1
  Pb  Pb7  1  0.499758  0.799164  0.750000  1
  O  O8  1  0.295733  0.916709  0.077040  1
  O  O9  1  0.295733  0.583291  0.922960  1
  O  O10  1  0.704267  0.416709  0.422960  1
  O  O11  1  0.704267  0.083291  0.577040  1
  O  O12  1  0.704267  0.083291  0.922960  1
  O  O13  1  0.704267  0.416709  0.077040  1
  O  O14  1  0.295733  0.583291  0.577040  1
  O  O15  1  0.295733  0.916709  0.422960  1
  O  O16  1  0.158522  0.250000  0.000000  1
  O  O17  1  0.841478  0.750000  0.500000  1
  O  O18  1  0.841478  0.750000  0.000000  1
  O  O19  1  0.158522  0.250000  0.500000  1
  O  O20  1  0.865004  0.037275  0.250000  1
  O  O21  1  0.865004  0.462725  0.750000  1
  O  O22  1  0.134996  0.537275  0.250000  1
  O  O23  1  0.134996  0.962725  0.750000  1
