# generated using pymatgen
data_DyEr7In3Rh
_symmetry_space_group_name_H-M   'P 1'
_cell_length_a   10.35871902
_cell_length_b   10.35871783
_cell_length_c   6.97589600
_cell_angle_alpha   90.00000000
_cell_angle_beta   90.00000000
_cell_angle_gamma   119.99293978
_symmetry_Int_Tables_number   1
_chemical_formula_structural   DyEr7In3Rh
_chemical_formula_sum   'Dy2 Er14 In6 Rh2'
_cell_volume   648.29635243
_cell_formula_units_Z   2
loop_
 _symmetry_equiv_pos_site_id
 _symmetry_equiv_pos_as_xyz
  1  'x, y, z'
loop_
 _atom_site_type_symbol
 _atom_site_label
 _atom_site_symmetry_multiplicity
 _atom_site_fract_x
 _atom_site_fract_y
 _atom_site_fract_z
 _atom_site_occupancy
  Dy  Dy0  1  0.532235  0.064559  0.793918  1
  Dy  Dy1  1  0.935441  0.467765  0.793918  1
  Er  Er2  1  0.532478  0.467522  0.793997  1
  Er  Er3  1  0.467259  0.934577  0.293907  1
  Er  Er4  1  0.065423  0.532741  0.293907  1
  Er  Er5  1  0.467389  0.532611  0.293920  1
  Er  Er6  1  0.823434  0.647147  0.499452  1
  Er  Er7  1  0.352853  0.176566  0.499452  1
  Er  Er8  1  0.823708  0.176292  0.499233  1
  Er  Er9  1  0.176673  0.352874  0.999901  1
  Er  Er10  1  0.647126  0.823327  0.999901  1
  Er  Er11  1  0.176359  0.823641  0.000088  1
  Er  Er12  1  0.666538  0.333462  0.174077  1
  Er  Er13  1  0.333444  0.666556  0.673651  1
  Er  Er14  1  0.999988  0.000012  0.778872  1
  Er  Er15  1  0.999979  0.000021  0.279041  1
  In  In16  1  0.837130  0.674588  0.038940  1
  In  In17  1  0.325412  0.162870  0.038940  1
  In  In18  1  0.837396  0.162604  0.039170  1
  In  In19  1  0.162808  0.325576  0.538639  1
  In  In20  1  0.674424  0.837192  0.538639  1
  In  In21  1  0.162779  0.837221  0.538549  1
  Rh  Rh22  1  0.666375  0.333625  0.567630  1
  Rh  Rh23  1  0.333348  0.666652  0.068166  1
