# generated using pymatgen
data_DyLu3Ga7Ag5
_symmetry_space_group_name_H-M   'P 1'
_cell_length_a   4.28373200
_cell_length_b   6.97005485
_cell_length_c   10.31573202
_cell_angle_alpha   89.95480538
_cell_angle_beta   90.00000000
_cell_angle_gamma   90.00000000
_symmetry_Int_Tables_number   1
_chemical_formula_structural   DyLu3Ga7Ag5
_chemical_formula_sum   'Dy1 Lu3 Ga7 Ag5'
_cell_volume   308.00545248
_cell_formula_units_Z   1
loop_
 _symmetry_equiv_pos_site_id
 _symmetry_equiv_pos_as_xyz
  1  'x, y, z'
loop_
 _atom_site_type_symbol
 _atom_site_label
 _atom_site_symmetry_multiplicity
 _atom_site_fract_x
 _atom_site_fract_y
 _atom_site_fract_z
 _atom_site_occupancy
  Dy  Dy0  1  0.000000  0.222116  0.826141  1
  Lu  Lu1  1  0.500000  0.776342  0.176432  1
  Lu  Lu2  1  0.500000  0.269190  0.323817  1
  Lu  Lu3  1  0.000000  0.731086  0.672953  1
  Ga  Ga4  1  0.500000  0.928599  0.844427  1
  Ga  Ga5  1  0.500000  0.433114  0.659201  1
  Ga  Ga6  1  0.000000  0.070088  0.153751  1
  Ga  Ga7  1  0.000000  0.567399  0.342224  1
  Ga  Ga8  1  0.500000  0.198859  0.034249  1
  Ga  Ga9  1  0.000000  0.304530  0.533061  1
  Ga  Ga10  1  0.000000  0.797008  0.965468  1
  Ag  Ag11  1  0.500000  0.546643  0.906291  1
  Ag  Ag12  1  0.500000  0.051416  0.598467  1
  Ag  Ag13  1  0.000000  0.453128  0.096385  1
  Ag  Ag14  1  0.000000  0.957653  0.401785  1
  Ag  Ag15  1  0.500000  0.692829  0.465346  1
