# generated using pymatgen
data_Lu5GaNiBi
_symmetry_space_group_name_H-M   'P 1'
_cell_length_a   8.42589577
_cell_length_b   8.42589582
_cell_length_c   8.58951576
_cell_angle_alpha   125.33449735
_cell_angle_beta   125.33449306
_cell_angle_gamma   79.67920623
_symmetry_Int_Tables_number   1
_chemical_formula_structural   Lu5GaNiBi
_chemical_formula_sum   'Lu10 Ga2 Ni2 Bi2'
_cell_volume   394.63344924
_cell_formula_units_Z   2
loop_
 _symmetry_equiv_pos_site_id
 _symmetry_equiv_pos_as_xyz
  1  'x, y, z'
loop_
 _atom_site_type_symbol
 _atom_site_label
 _atom_site_symmetry_multiplicity
 _atom_site_fract_x
 _atom_site_fract_y
 _atom_site_fract_z
 _atom_site_occupancy
  Lu  Lu0  1  0.000000  0.000000  0.000000  1
  Lu  Lu1  1  0.500000  0.500000  0.000000  1
  Lu  Lu2  1  0.778452  0.278452  0.788673  1
  Lu  Lu3  1  0.221548  0.721548  0.211327  1
  Lu  Lu4  1  0.489780  0.989780  0.211327  1
  Lu  Lu5  1  0.305711  0.460540  0.500000  1
  Lu  Lu6  1  0.039460  0.194289  0.500000  1
  Lu  Lu7  1  0.510220  0.010220  0.788673  1
  Lu  Lu8  1  0.694289  0.539460  0.500000  1
  Lu  Lu9  1  0.960540  0.805711  0.500000  1
  Ga  Ga10  1  0.138110  0.638110  0.776220  1
  Ga  Ga11  1  0.861890  0.361890  0.223780  1
  Ni  Ni12  1  0.630925  0.869075  0.500000  1
  Ni  Ni13  1  0.369075  0.130925  0.500000  1
  Bi  Bi14  1  0.250000  0.250000  0.000000  1
  Bi  Bi15  1  0.750000  0.750000  0.000000  1
