# generated using pymatgen
data_Ho6Ga3Tc13O
_symmetry_space_group_name_H-M   'P 1'
_cell_length_a   8.05769399
_cell_length_b   8.03860970
_cell_length_c   8.01681840
_cell_angle_alpha   108.94423163
_cell_angle_beta   110.65142779
_cell_angle_gamma   108.81609029
_symmetry_Int_Tables_number   1
_chemical_formula_structural   Ho6Ga3Tc13O
_chemical_formula_sum   'Ho6 Ga3 Tc13 O1'
_cell_volume   399.64780523
_cell_formula_units_Z   1
loop_
 _symmetry_equiv_pos_site_id
 _symmetry_equiv_pos_as_xyz
  1  'x, y, z'
loop_
 _atom_site_type_symbol
 _atom_site_label
 _atom_site_symmetry_multiplicity
 _atom_site_fract_x
 _atom_site_fract_y
 _atom_site_fract_z
 _atom_site_occupancy
  Ho  Ho0  1  0.737845  0.738866  0.998850  1
  Ho  Ho1  1  0.266358  0.002350  0.269141  1
  Ho  Ho2  1  0.734267  0.001530  0.729183  1
  Ho  Ho3  1  0.998386  0.737471  0.736691  1
  Ho  Ho4  1  0.002070  0.261841  0.262899  1
  Ho  Ho5  1  0.260654  0.262210  0.999194  1
  Ga  Ga6  1  0.343565  0.339547  0.686838  1
  Ga  Ga7  1  0.649218  0.649757  0.304080  1
  Ga  Ga8  1  0.999207  0.342103  0.656223  1
  Tc  Tc9  1  0.000510  0.506716  0.001324  1
  Tc  Tc10  1  0.502265  0.003481  0.000918  1
  Tc  Tc11  1  0.995316  0.988299  0.485318  1
  Tc  Tc12  1  0.497541  0.499883  0.499455  1
  Tc  Tc13  1  0.314158  0.660505  0.662214  1
  Tc  Tc14  1  0.664229  0.323735  0.665460  1
  Tc  Tc15  1  0.344371  0.997952  0.657201  1
  Tc  Tc16  1  0.656070  0.337807  0.001524  1
  Tc  Tc17  1  0.342447  0.665764  0.003725  1
  Tc  Tc18  1  0.342481  0.684356  0.346552  1
  Tc  Tc19  1  0.999733  0.653805  0.345125  1
  Tc  Tc20  1  0.663572  0.000817  0.344202  1
  Tc  Tc21  1  0.685150  0.339865  0.345057  1
  O  O22  1  0.000585  0.001340  0.998828  1
