# generated using pymatgen
data_Ba2TiNbO6
_symmetry_space_group_name_H-M   'P 1'
_cell_length_a   5.78915709
_cell_length_b   5.78915672
_cell_length_c   5.78910500
_cell_angle_alpha   59.99973465
_cell_angle_beta   59.99974054
_cell_angle_gamma   90.00004513
_symmetry_Int_Tables_number   1
_chemical_formula_structural   Ba2TiNbO6
_chemical_formula_sum   'Ba2 Ti1 Nb1 O6'
_cell_volume   137.19031511
_cell_formula_units_Z   1
loop_
 _symmetry_equiv_pos_site_id
 _symmetry_equiv_pos_as_xyz
  1  'x, y, z'
loop_
 _atom_site_type_symbol
 _atom_site_label
 _atom_site_symmetry_multiplicity
 _atom_site_fract_x
 _atom_site_fract_y
 _atom_site_fract_z
 _atom_site_occupancy
  Ba  Ba0  1  0.250001  0.750001  0.499999  1
  Ba  Ba1  1  0.750000  0.249999  0.500001  1
  Ti  Ti2  1  0.499999  0.499999  0.000000  1
  Nb  Nb3  1  0.000000  0.000000  0.000000  1
  O  O4  1  0.748499  0.251501  0.000000  1
  O  O5  1  0.251501  0.251501  0.000000  1
  O  O6  1  0.251501  0.748498  0.000000  1
  O  O7  1  0.748498  0.748498  0.000000  1
  O  O8  1  0.748500  0.748500  0.503000  1
  O  O9  1  0.251500  0.251500  0.497000  1
