# generated using pymatgen
data_Er12FeCo3BiOs
_symmetry_space_group_name_H-M   'P 1'
_cell_length_a   8.24620465
_cell_length_b   8.24620391
_cell_length_c   8.24620353
_cell_angle_alpha   110.62788072
_cell_angle_beta   112.02038132
_cell_angle_gamma   105.82895020
_symmetry_Int_Tables_number   1
_chemical_formula_structural   Er12FeCo3BiOs
_chemical_formula_sum   'Er12 Fe1 Co3 Bi1 Os1'
_cell_volume   430.29294193
_cell_formula_units_Z   1
loop_
 _symmetry_equiv_pos_site_id
 _symmetry_equiv_pos_as_xyz
  1  'x, y, z'
loop_
 _atom_site_type_symbol
 _atom_site_label
 _atom_site_symmetry_multiplicity
 _atom_site_fract_x
 _atom_site_fract_y
 _atom_site_fract_z
 _atom_site_occupancy
  Er  Er0  1  0.277552  0.182328  0.459880  1
  Er  Er1  1  0.720254  0.818116  0.538371  1
  Er  Er2  1  0.279746  0.818116  0.097863  1
  Er  Er3  1  0.722448  0.182328  0.904776  1
  Er  Er4  1  0.618656  0.308395  0.306774  1
  Er  Er5  1  0.381344  0.688118  0.689739  1
  Er  Er6  1  0.001623  0.308395  0.689739  1
  Er  Er7  1  0.998377  0.688118  0.306774  1
  Er  Er8  1  0.215364  0.413014  0.197650  1
  Er  Er9  1  0.785304  0.587403  0.802099  1
  Er  Er10  1  0.214696  0.016795  0.802099  1
  Er  Er11  1  0.784636  0.982286  0.197650  1
  Fe  Fe12  1  0.000000  0.385096  0.385096  1
  Co  Co13  1  0.000000  0.624099  0.624099  1
  Co  Co14  1  0.389565  0.888834  0.499269  1
  Co  Co15  1  0.610435  0.109703  0.499269  1
  Bi  Bi16  1  0.500000  0.499163  0.999163  1
  Os  Os17  1  0.000000  0.999691  0.999691  1
