# generated using pymatgen
data_Pr3Er8In9Rh4
_symmetry_space_group_name_H-M   'P 1'
_cell_length_a   13.18438639
_cell_length_b   13.18465023
_cell_length_c   3.70470000
_cell_angle_alpha   90.00000000
_cell_angle_beta   90.00000000
_cell_angle_gamma   111.33477501
_symmetry_Int_Tables_number   1
_chemical_formula_structural   Pr3Er8In9Rh4
_chemical_formula_sum   'Pr3 Er8 In9 Rh4'
_cell_volume   599.86113544
_cell_formula_units_Z   1
loop_
 _symmetry_equiv_pos_site_id
 _symmetry_equiv_pos_as_xyz
  1  'x, y, z'
loop_
 _atom_site_type_symbol
 _atom_site_label
 _atom_site_symmetry_multiplicity
 _atom_site_fract_x
 _atom_site_fract_y
 _atom_site_fract_z
 _atom_site_occupancy
  Pr  Pr0  1  0.500000  0.500000  0.500000  1
  Pr  Pr1  1  0.342169  0.657828  0.500000  1
  Pr  Pr2  1  0.657831  0.342172  0.500000  1
  Er  Er3  1  0.817522  0.817522  0.500000  1
  Er  Er4  1  0.182478  0.182478  0.500000  1
  Er  Er5  1  0.582828  0.918865  0.500000  1
  Er  Er6  1  0.417172  0.081135  0.500000  1
  Er  Er7  1  0.918858  0.582835  0.500000  1
  Er  Er8  1  0.081142  0.417165  0.500000  1
  Er  Er9  1  0.124258  0.875736  0.500000  1
  Er  Er10  1  0.875742  0.124264  0.500000  1
  In  In11  1  0.339075  0.869679  0.000000  1
  In  In12  1  0.660925  0.130321  0.000000  1
  In  In13  1  0.869676  0.339121  0.000000  1
  In  In14  1  0.130324  0.660879  0.000000  1
  In  In15  1  0.585561  0.725167  0.000000  1
  In  In16  1  0.414439  0.274833  0.000000  1
  In  In17  1  0.725152  0.585530  0.000000  1
  In  In18  1  0.274848  0.414470  0.000000  1
  In  In19  1  0.000000  0.000000  0.000000  1
  Rh  Rh20  1  0.748537  0.952599  0.000000  1
  Rh  Rh21  1  0.251463  0.047401  0.000000  1
  Rh  Rh22  1  0.952596  0.748532  0.000000  1
  Rh  Rh23  1  0.047404  0.251468  0.000000  1
