# generated using pymatgen
data_Sr10Re3PtN14
_symmetry_space_group_name_H-M   'P 1'
_cell_length_a   6.46178298
_cell_length_b   9.23407282
_cell_length_c   9.53323926
_cell_angle_alpha   114.38988162
_cell_angle_beta   98.36118393
_cell_angle_gamma   90.11062688
_symmetry_Int_Tables_number   1
_chemical_formula_structural   Sr10Re3PtN14
_chemical_formula_sum   'Sr10 Re3 Pt1 N14'
_cell_volume   511.34961072
_cell_formula_units_Z   1
loop_
 _symmetry_equiv_pos_site_id
 _symmetry_equiv_pos_as_xyz
  1  'x, y, z'
loop_
 _atom_site_type_symbol
 _atom_site_label
 _atom_site_symmetry_multiplicity
 _atom_site_fract_x
 _atom_site_fract_y
 _atom_site_fract_z
 _atom_site_occupancy
  Sr  Sr0  1  0.853998  0.580612  0.334432  1
  Sr  Sr1  1  0.265505  0.982071  0.556983  1
  Sr  Sr2  1  0.686198  0.397231  0.835678  1
  Sr  Sr3  1  0.283933  0.588757  0.132460  1
  Sr  Sr4  1  0.392099  0.791639  0.914856  1
  Sr  Sr5  1  0.620963  0.218330  0.118319  1
  Sr  Sr6  1  0.147432  0.394732  0.648384  1
  Sr  Sr7  1  0.885038  0.832198  0.755746  1
  Sr  Sr8  1  0.151428  0.159873  0.256944  1
  Sr  Sr9  1  0.734724  0.040761  0.444885  1
  Re  Re10  1  0.421301  0.630049  0.518461  1
  Re  Re11  1  0.121318  0.212560  0.915558  1
  Re  Re12  1  0.869340  0.780863  0.081099  1
  Pt  Pt13  1  0.652092  0.387500  0.514612  1
  N  N14  1  0.505036  0.574302  0.688400  1
  N  N15  1  0.416632  0.477693  0.316464  1
  N  N16  1  0.158348  0.703710  0.557362  1
  N  N17  1  0.865750  0.273725  0.385674  1
  N  N18  1  0.417005  0.196296  0.511271  1
  N  N19  1  0.586427  0.802184  0.536212  1
  N  N20  1  0.961298  0.130258  0.719327  1
  N  N21  1  0.040729  0.853035  0.272649  1
  N  N22  1  0.230922  0.053615  0.967674  1
  N  N23  1  0.762020  0.941272  0.033066  1
  N  N24  1  0.346833  0.330824  0.912428  1
  N  N25  1  0.963174  0.342478  0.059872  1
  N  N26  1  0.020060  0.659719  0.926423  1
  N  N27  1  0.640397  0.663715  0.084761  1
