# generated using pymatgen
data_Tb(GdRh)2
_symmetry_space_group_name_H-M   'P 1'
_cell_length_a   7.45982326
_cell_length_b   7.45982219
_cell_length_c   7.45982325
_cell_angle_alpha   71.09226873
_cell_angle_beta   71.09226865
_cell_angle_gamma   71.09226533
_symmetry_Int_Tables_number   1
_chemical_formula_structural   Tb(GdRh)2
_chemical_formula_sum   'Tb3 Gd6 Rh6'
_cell_volume   360.24151673
_cell_formula_units_Z   3
loop_
 _symmetry_equiv_pos_site_id
 _symmetry_equiv_pos_as_xyz
  1  'x, y, z'
loop_
 _atom_site_type_symbol
 _atom_site_label
 _atom_site_symmetry_multiplicity
 _atom_site_fract_x
 _atom_site_fract_y
 _atom_site_fract_z
 _atom_site_occupancy
  Tb  Tb0  1  0.000000  0.000000  0.000000  1
  Tb  Tb1  1  0.797993  0.797993  0.797993  1
  Tb  Tb2  1  0.202007  0.202007  0.202007  1
  Gd  Gd3  1  0.161249  0.392873  0.666116  1
  Gd  Gd4  1  0.666116  0.161249  0.392873  1
  Gd  Gd5  1  0.392873  0.666116  0.161249  1
  Gd  Gd6  1  0.838751  0.607127  0.333884  1
  Gd  Gd7  1  0.333884  0.838751  0.607127  1
  Gd  Gd8  1  0.607127  0.333884  0.838751  1
  Rh  Rh9  1  0.955210  0.164180  0.592351  1
  Rh  Rh10  1  0.592351  0.955210  0.164180  1
  Rh  Rh11  1  0.164180  0.592351  0.955210  1
  Rh  Rh12  1  0.044790  0.835820  0.407649  1
  Rh  Rh13  1  0.407649  0.044790  0.835820  1
  Rh  Rh14  1  0.835820  0.407649  0.044790  1
