# generated using pymatgen
data_Y19LuCd6RuPt
_symmetry_space_group_name_H-M   'P 1'
_cell_length_a   9.67523100
_cell_length_b   9.67523139
_cell_length_c   9.84239900
_cell_angle_alpha   90.00000000
_cell_angle_beta   90.00000000
_cell_angle_gamma   120.00000207
_symmetry_Int_Tables_number   1
_chemical_formula_structural   Y19LuCd6RuPt
_chemical_formula_sum   'Y19 Lu1 Cd6 Ru1 Pt1'
_cell_volume   797.91070685
_cell_formula_units_Z   1
loop_
 _symmetry_equiv_pos_site_id
 _symmetry_equiv_pos_as_xyz
  1  'x, y, z'
loop_
 _atom_site_type_symbol
 _atom_site_label
 _atom_site_symmetry_multiplicity
 _atom_site_fract_x
 _atom_site_fract_y
 _atom_site_fract_z
 _atom_site_occupancy
  Y  Y0  1  0.000000  0.000000  0.000662  1
  Y  Y1  1  0.207454  0.792546  0.441819  1
  Y  Y2  1  0.207454  0.414910  0.441819  1
  Y  Y3  1  0.585090  0.792546  0.441819  1
  Y  Y4  1  0.791012  0.208988  0.560653  1
  Y  Y5  1  0.791012  0.582023  0.560653  1
  Y  Y6  1  0.417977  0.208988  0.560653  1
  Y  Y7  1  0.790132  0.209868  0.939502  1
  Y  Y8  1  0.790132  0.580264  0.939502  1
  Y  Y9  1  0.419736  0.209868  0.939502  1
  Y  Y10  1  0.208252  0.791748  0.057945  1
  Y  Y11  1  0.208252  0.416506  0.057945  1
  Y  Y12  1  0.583494  0.791748  0.057945  1
  Y  Y13  1  0.542416  0.457584  0.250122  1
  Y  Y14  1  0.542416  0.084830  0.250122  1
  Y  Y15  1  0.915170  0.457584  0.250122  1
  Y  Y16  1  0.458968  0.541032  0.749939  1
  Y  Y17  1  0.458968  0.917938  0.749939  1
  Y  Y18  1  0.082062  0.541032  0.749939  1
  Lu  Lu19  1  0.000000  0.000000  0.499187  1
  Cd  Cd20  1  0.885749  0.114251  0.251346  1
  Cd  Cd21  1  0.885749  0.771498  0.251346  1
  Cd  Cd22  1  0.228502  0.114251  0.251346  1
  Cd  Cd23  1  0.114100  0.885900  0.748788  1
  Cd  Cd24  1  0.114100  0.228198  0.748788  1
  Cd  Cd25  1  0.771802  0.885900  0.748788  1
  Ru  Ru26  1  0.666667  0.333333  0.749357  1
  Pt  Pt27  1  0.333333  0.666667  0.250447  1
