# generated using pymatgen
data_Zr6Al14Zn2Pt7
_symmetry_space_group_name_H-M   'P 1'
_cell_length_a   8.80165044
_cell_length_b   8.79802161
_cell_length_c   8.79802147
_cell_angle_alpha   59.96689898
_cell_angle_beta   59.98635258
_cell_angle_gamma   59.98635488
_symmetry_Int_Tables_number   1
_chemical_formula_structural   Zr6Al14Zn2Pt7
_chemical_formula_sum   'Zr6 Al14 Zn2 Pt7'
_cell_volume   481.52721093
_cell_formula_units_Z   1
loop_
 _symmetry_equiv_pos_site_id
 _symmetry_equiv_pos_as_xyz
  1  'x, y, z'
loop_
 _atom_site_type_symbol
 _atom_site_label
 _atom_site_symmetry_multiplicity
 _atom_site_fract_x
 _atom_site_fract_y
 _atom_site_fract_z
 _atom_site_occupancy
  Zr  Zr0  1  0.684822  0.685390  0.315780  1
  Zr  Zr1  1  0.314008  0.685390  0.315780  1
  Zr  Zr2  1  0.685576  0.314424  0.314424  1
  Zr  Zr3  1  0.314008  0.315780  0.685390  1
  Zr  Zr4  1  0.684822  0.315780  0.685390  1
  Zr  Zr5  1  0.315540  0.684460  0.684460  1
  Al  Al6  1  0.361149  0.879775  0.879775  1
  Al  Al7  1  0.879301  0.879775  0.879775  1
  Al  Al8  1  0.118516  0.122076  0.640892  1
  Al  Al9  1  0.118516  0.640892  0.122076  1
  Al  Al10  1  0.643473  0.120045  0.120045  1
  Al  Al11  1  0.116437  0.120045  0.120045  1
  Al  Al12  1  0.666363  0.662109  0.005167  1
  Al  Al13  1  0.666363  0.005167  0.662109  1
  Al  Al14  1  0.002710  0.664374  0.664374  1
  Al  Al15  1  0.668542  0.664374  0.664374  1
  Al  Al16  1  0.336194  0.334344  0.993268  1
  Al  Al17  1  0.336194  0.993268  0.334344  1
  Al  Al18  1  0.991973  0.335281  0.335281  1
  Al  Al19  1  0.337463  0.335281  0.335281  1
  Zn  Zn20  1  0.879522  0.880613  0.360343  1
  Zn  Zn21  1  0.879522  0.360343  0.880613  1
  Pt  Pt22  1  0.005754  0.994246  0.994246  1
  Pt  Pt23  1  0.002364  0.000876  0.504789  1
  Pt  Pt24  1  0.491970  0.000876  0.504789  1
  Pt  Pt25  1  0.004007  0.495993  0.495993  1
  Pt  Pt26  1  0.491970  0.504789  0.000876  1
  Pt  Pt27  1  0.002364  0.504789  0.000876  1
  Pt  Pt28  1  0.500556  0.999444  0.999444  1
