# generated using pymatgen
data_Er2Lu4Bi2W
_symmetry_space_group_name_H-M   'P 1'
_cell_length_a   8.14176300
_cell_length_b   8.14468092
_cell_length_c   4.36978000
_cell_angle_alpha   90.00000000
_cell_angle_beta   90.00000000
_cell_angle_gamma   119.98814548
_symmetry_Int_Tables_number   1
_chemical_formula_structural   Er2Lu4Bi2W
_chemical_formula_sum   'Er2 Lu4 Bi2 W1'
_cell_volume   250.97739152
_cell_formula_units_Z   1
loop_
 _symmetry_equiv_pos_site_id
 _symmetry_equiv_pos_as_xyz
  1  'x, y, z'
loop_
 _atom_site_type_symbol
 _atom_site_label
 _atom_site_symmetry_multiplicity
 _atom_site_fract_x
 _atom_site_fract_y
 _atom_site_fract_z
 _atom_site_occupancy
  Er  Er0  1  0.000255  0.614839  0.000000  1
  Er  Er1  1  0.385417  0.385161  0.000000  1
  Lu  Lu2  1  0.233457  0.000000  0.500000  1
  Lu  Lu3  1  0.999211  0.234398  0.500000  1
  Lu  Lu4  1  0.764814  0.765602  0.500000  1
  Lu  Lu5  1  0.618069  0.000000  0.000000  1
  Bi  Bi6  1  0.334078  0.667976  0.500000  1
  Bi  Bi7  1  0.666103  0.332024  0.500000  1
  W  W8  1  0.998598  0.000000  0.000000  1
