# generated using pymatgen
data_Er2TmCo8ReP6
_symmetry_space_group_name_H-M   'P 1'
_cell_length_a   3.70921100
_cell_length_b   10.48645300
_cell_length_c   12.17355800
_cell_angle_alpha   90.00000000
_cell_angle_beta   90.00000000
_cell_angle_gamma   90.00000000
_symmetry_Int_Tables_number   1
_chemical_formula_structural   Er2TmCo8ReP6
_chemical_formula_sum   'Er4 Tm2 Co16 Re2 P12'
_cell_volume   473.50839481
_cell_formula_units_Z   2
loop_
 _symmetry_equiv_pos_site_id
 _symmetry_equiv_pos_as_xyz
  1  'x, y, z'
loop_
 _atom_site_type_symbol
 _atom_site_label
 _atom_site_symmetry_multiplicity
 _atom_site_fract_x
 _atom_site_fract_y
 _atom_site_fract_z
 _atom_site_occupancy
  Er  Er0  1  0.000000  0.500000  0.525739  1
  Er  Er1  1  0.500000  0.000000  0.474207  1
  Er  Er2  1  0.500000  0.818615  0.205890  1
  Er  Er3  1  0.500000  0.181385  0.205890  1
  Tm  Tm4  1  0.000000  0.681386  0.794124  1
  Tm  Tm5  1  0.000000  0.318614  0.794124  1
  Co  Co6  1  0.500000  0.500000  0.701901  1
  Co  Co7  1  0.000000  0.000000  0.298375  1
  Co  Co8  1  0.000000  0.500000  0.987824  1
  Co  Co9  1  0.500000  0.000000  0.011873  1
  Co  Co10  1  0.500000  0.332578  0.989042  1
  Co  Co11  1  0.500000  0.667422  0.989042  1
  Co  Co12  1  0.000000  0.167510  0.010514  1
  Co  Co13  1  0.000000  0.832490  0.010514  1
  Co  Co14  1  0.500000  0.296901  0.431509  1
  Co  Co15  1  0.500000  0.703099  0.431509  1
  Co  Co16  1  0.000000  0.203192  0.568750  1
  Co  Co17  1  0.000000  0.796808  0.568750  1
  Co  Co18  1  0.500000  0.878368  0.707872  1
  Co  Co19  1  0.500000  0.121632  0.707872  1
  Co  Co20  1  0.000000  0.621376  0.292310  1
  Co  Co21  1  0.000000  0.378624  0.292310  1
  Re  Re22  1  0.500000  0.500000  0.157015  1
  Re  Re23  1  0.000000  0.000000  0.842980  1
  P  P24  1  0.500000  0.500000  0.878990  1
  P  P25  1  0.000000  0.000000  0.120607  1
  P  P26  1  0.500000  0.500000  0.350719  1
  P  P27  1  0.000000  0.000000  0.649302  1
  P  P28  1  0.500000  0.312557  0.616691  1
  P  P29  1  0.500000  0.687443  0.616691  1
  P  P30  1  0.000000  0.187549  0.383716  1
  P  P31  1  0.000000  0.812451  0.383716  1
  P  P32  1  0.500000  0.845195  0.891511  1
  P  P33  1  0.500000  0.154805  0.891511  1
  P  P34  1  0.000000  0.654511  0.108303  1
  P  P35  1  0.000000  0.345489  0.108303  1
