# generated using pymatgen
data_Ba2BeAs2
_symmetry_space_group_name_H-M   'P 1'
_cell_length_a   8.19333855
_cell_length_b   8.19333817
_cell_length_c   8.19333816
_cell_angle_alpha   134.12774168
_cell_angle_beta   130.56999801
_cell_angle_gamma   69.71824788
_symmetry_Int_Tables_number   1
_chemical_formula_structural   Ba2BeAs2
_chemical_formula_sum   'Ba4 Be2 As4'
_cell_volume   294.15341228
_cell_formula_units_Z   2
loop_
 _symmetry_equiv_pos_site_id
 _symmetry_equiv_pos_as_xyz
  1  'x, y, z'
loop_
 _atom_site_type_symbol
 _atom_site_label
 _atom_site_symmetry_multiplicity
 _atom_site_fract_x
 _atom_site_fract_y
 _atom_site_fract_z
 _atom_site_occupancy
  Ba  Ba0  1  0.663531  0.862208  0.801323  1
  Ba  Ba1  1  0.336469  0.137792  0.198677  1
  Ba  Ba2  1  0.939114  0.637792  0.301323  1
  Ba  Ba3  1  0.060886  0.362208  0.698677  1
  Be  Be4  1  0.500000  0.250000  0.750000  1
  Be  Be5  1  0.500000  0.750000  0.250000  1
  As  As6  1  0.413872  0.599711  0.814160  1
  As  As7  1  0.586128  0.400289  0.185840  1
  As  As8  1  0.214449  0.900289  0.314160  1
  As  As9  1  0.785551  0.099711  0.685840  1
