# generated using pymatgen
data_Ga2Si(PPd4)3
_symmetry_space_group_name_H-M   'P 1'
_cell_length_a   3.47153500
_cell_length_b   6.67473542
_cell_length_c   11.53783500
_cell_angle_alpha   89.93403212
_cell_angle_beta   90.00000000
_cell_angle_gamma   90.00000000
_symmetry_Int_Tables_number   1
_chemical_formula_structural   Ga2Si(PPd4)3
_chemical_formula_sum   'Ga2 Si1 P3 Pd12'
_cell_volume   267.34966230
_cell_formula_units_Z   1
loop_
 _symmetry_equiv_pos_site_id
 _symmetry_equiv_pos_as_xyz
  1  'x, y, z'
loop_
 _atom_site_type_symbol
 _atom_site_label
 _atom_site_symmetry_multiplicity
 _atom_site_fract_x
 _atom_site_fract_y
 _atom_site_fract_z
 _atom_site_occupancy
  Ga  Ga0  1  0.000000  0.499597  0.834377  1
  Ga  Ga1  1  0.000000  0.999947  0.332067  1
  Si  Si2  1  0.000000  0.500512  0.166556  1
  P  P3  1  0.500000  0.999729  0.000425  1
  P  P4  1  0.500000  0.497469  0.499738  1
  P  P5  1  0.000000  0.998658  0.667447  1
  Pd  Pd6  1  0.000000  0.743547  0.001335  1
  Pd  Pd7  1  0.000000  0.238311  0.503417  1
  Pd  Pd8  1  0.000000  0.635379  0.628602  1
  Pd  Pd9  1  0.000000  0.130655  0.126952  1
  Pd  Pd10  1  0.000000  0.124869  0.867940  1
  Pd  Pd11  1  0.000000  0.626347  0.371662  1
  Pd  Pd12  1  0.500000  0.897991  0.506319  1
  Pd  Pd13  1  0.500000  0.398459  0.010101  1
  Pd  Pd14  1  0.500000  0.811150  0.798544  1
  Pd  Pd15  1  0.500000  0.317150  0.295508  1
  Pd  Pd16  1  0.500000  0.295762  0.694723  1
  Pd  Pd17  1  0.500000  0.784669  0.194289  1
