# generated using pymatgen
data_Zr10BeSiBi6
_symmetry_space_group_name_H-M   'P 1'
_cell_length_a   8.79938500
_cell_length_b   8.79938580
_cell_length_c   5.93721500
_cell_angle_alpha   90.00000000
_cell_angle_beta   90.00000000
_cell_angle_gamma   120.00000829
_symmetry_Int_Tables_number   1
_chemical_formula_structural   Zr10BeSiBi6
_chemical_formula_sum   'Zr10 Be1 Si1 Bi6'
_cell_volume   398.12371720
_cell_formula_units_Z   1
loop_
 _symmetry_equiv_pos_site_id
 _symmetry_equiv_pos_as_xyz
  1  'x, y, z'
loop_
 _atom_site_type_symbol
 _atom_site_label
 _atom_site_symmetry_multiplicity
 _atom_site_fract_x
 _atom_site_fract_y
 _atom_site_fract_z
 _atom_site_occupancy
  Zr  Zr0  1  0.666667  0.333333  0.500000  1
  Zr  Zr1  1  0.333333  0.666667  0.500000  1
  Zr  Zr2  1  0.333333  0.666667  0.000000  1
  Zr  Zr3  1  0.666667  0.333333  0.000000  1
  Zr  Zr4  1  0.747945  0.747945  0.256252  1
  Zr  Zr5  1  0.252055  0.000000  0.256252  1
  Zr  Zr6  1  0.000000  0.252055  0.256252  1
  Zr  Zr7  1  0.252055  0.252055  0.743748  1
  Zr  Zr8  1  0.747945  0.000000  0.743748  1
  Zr  Zr9  1  0.000000  0.747945  0.743748  1
  Be  Be10  1  0.000000  0.000000  0.500000  1
  Si  Si11  1  0.000000  0.000000  0.000000  1
  Bi  Bi12  1  0.392601  0.392601  0.249780  1
  Bi  Bi13  1  0.607399  0.000000  0.249780  1
  Bi  Bi14  1  0.000000  0.607399  0.249780  1
  Bi  Bi15  1  0.607399  0.607399  0.750220  1
  Bi  Bi16  1  0.392601  0.000000  0.750220  1
  Bi  Bi17  1  0.000000  0.392601  0.750220  1
