# generated using pymatgen
data_Dy2Ho2Al4OsPt3
_symmetry_space_group_name_H-M   'P 1'
_cell_length_a   4.35375100
_cell_length_b   6.84355167
_cell_length_c   7.88456405
_cell_angle_alpha   89.77283970
_cell_angle_beta   90.00000000
_cell_angle_gamma   90.00000000
_symmetry_Int_Tables_number   1
_chemical_formula_structural   Dy2Ho2Al4OsPt3
_chemical_formula_sum   'Dy2 Ho2 Al4 Os1 Pt3'
_cell_volume   234.91968510
_cell_formula_units_Z   1
loop_
 _symmetry_equiv_pos_site_id
 _symmetry_equiv_pos_as_xyz
  1  'x, y, z'
loop_
 _atom_site_type_symbol
 _atom_site_label
 _atom_site_symmetry_multiplicity
 _atom_site_fract_x
 _atom_site_fract_y
 _atom_site_fract_z
 _atom_site_occupancy
  Dy  Dy0  1  0.250000  0.033137  0.677629  1
  Dy  Dy1  1  0.250000  0.529394  0.819157  1
  Ho  Ho2  1  0.750000  0.977928  0.321265  1
  Ho  Ho3  1  0.750000  0.466326  0.185280  1
  Al  Al4  1  0.250000  0.143656  0.063873  1
  Al  Al5  1  0.250000  0.639371  0.437195  1
  Al  Al6  1  0.750000  0.857950  0.938986  1
  Al  Al7  1  0.750000  0.354901  0.558887  1
  Os  Os8  1  0.250000  0.266716  0.378229  1
  Pt  Pt9  1  0.250000  0.770057  0.118144  1
  Pt  Pt10  1  0.750000  0.730271  0.621036  1
  Pt  Pt11  1  0.750000  0.230293  0.880319  1
