# generated using pymatgen
data_Y4TaOs6W
_symmetry_space_group_name_H-M   'P 1'
_cell_length_a   5.27543922
_cell_length_b   5.27543919
_cell_length_c   9.04459200
_cell_angle_alpha   90.00000000
_cell_angle_beta   90.00000000
_cell_angle_gamma   115.83915659
_symmetry_Int_Tables_number   1
_chemical_formula_structural   Y4TaOs6W
_chemical_formula_sum   'Y4 Ta1 Os6 W1'
_cell_volume   226.54731843
_cell_formula_units_Z   1
loop_
 _symmetry_equiv_pos_site_id
 _symmetry_equiv_pos_as_xyz
  1  'x, y, z'
loop_
 _atom_site_type_symbol
 _atom_site_label
 _atom_site_symmetry_multiplicity
 _atom_site_fract_x
 _atom_site_fract_y
 _atom_site_fract_z
 _atom_site_occupancy
  Y  Y0  1  0.329182  0.670818  0.437296  1
  Y  Y1  1  0.669114  0.330886  0.566321  1
  Y  Y2  1  0.669114  0.330886  0.933679  1
  Y  Y3  1  0.329182  0.670818  0.062704  1
  Ta  Ta4  1  0.841922  0.158078  0.250000  1
  Os  Os5  1  0.002693  0.997307  0.503169  1
  Os  Os6  1  0.002693  0.997307  0.996831  1
  Os  Os7  1  0.822246  0.648531  0.250000  1
  Os  Os8  1  0.351469  0.177754  0.250000  1
  Os  Os9  1  0.173593  0.352117  0.750000  1
  Os  Os10  1  0.647883  0.826407  0.750000  1
  W  W11  1  0.160909  0.839091  0.750000  1
