# generated using pymatgen
data_Tb7Dy3(Bi2Os)2
_symmetry_space_group_name_H-M   'P 1'
_cell_length_a   7.99416113
_cell_length_b   9.06579115
_cell_length_c   12.53777715
_cell_angle_alpha   90.01253104
_cell_angle_beta   89.98725252
_cell_angle_gamma   90.01628827
_symmetry_Int_Tables_number   1
_chemical_formula_structural   Tb7Dy3(Bi2Os)2
_chemical_formula_sum   'Tb14 Dy6 Bi8 Os4'
_cell_volume   908.65519748
_cell_formula_units_Z   2
loop_
 _symmetry_equiv_pos_site_id
 _symmetry_equiv_pos_as_xyz
  1  'x, y, z'
loop_
 _atom_site_type_symbol
 _atom_site_label
 _atom_site_symmetry_multiplicity
 _atom_site_fract_x
 _atom_site_fract_y
 _atom_site_fract_z
 _atom_site_occupancy
  Tb  Tb0  1  0.841387  0.749968  0.791978  1
  Tb  Tb1  1  0.158613  0.250032  0.208022  1
  Tb  Tb2  1  0.341269  0.250063  0.708129  1
  Tb  Tb3  1  0.658731  0.749937  0.291871  1
  Tb  Tb4  1  0.374654  0.749866  0.692501  1
  Tb  Tb5  1  0.625346  0.250134  0.307499  1
  Tb  Tb6  1  0.874769  0.250028  0.807631  1
  Tb  Tb7  1  0.125231  0.749972  0.192369  1
  Tb  Tb8  1  0.942943  0.749885  0.504493  1
  Tb  Tb9  1  0.057057  0.250115  0.495507  1
  Tb  Tb10  1  0.442914  0.250005  0.995472  1
  Tb  Tb11  1  0.557086  0.749995  0.004528  1
  Tb  Tb12  1  0.674984  0.041862  0.564127  1
  Tb  Tb13  1  0.325016  0.958138  0.435873  1
  Dy  Dy14  1  0.174413  0.958153  0.935979  1
  Dy  Dy15  1  0.325604  0.541809  0.435987  1
  Dy  Dy16  1  0.825587  0.041847  0.064021  1
  Dy  Dy17  1  0.674396  0.458191  0.564013  1
  Dy  Dy18  1  0.825592  0.458151  0.064027  1
  Dy  Dy19  1  0.174408  0.541849  0.935973  1
  Bi  Bi20  1  0.568216  0.493560  0.827768  1
  Bi  Bi21  1  0.431784  0.506440  0.172232  1
  Bi  Bi22  1  0.068187  0.506437  0.672242  1
  Bi  Bi23  1  0.431829  0.993559  0.172192  1
  Bi  Bi24  1  0.931813  0.493563  0.327758  1
  Bi  Bi25  1  0.568171  0.006441  0.827808  1
  Bi  Bi26  1  0.931647  0.006466  0.327687  1
  Bi  Bi27  1  0.068353  0.993534  0.672313  1
  Os  Os28  1  0.575420  0.749659  0.510672  1
  Os  Os29  1  0.424580  0.250341  0.489328  1
  Os  Os30  1  0.075221  0.249982  0.989387  1
  Os  Os31  1  0.924779  0.750018  0.010613  1
