# generated using pymatgen
data_Ta2Nb3(NiP)4
_symmetry_space_group_name_H-M   'P 1'
_cell_length_a   7.26444108
_cell_length_b   7.26444103
_cell_length_c   7.25235024
_cell_angle_alpha   93.33907165
_cell_angle_beta   93.45891263
_cell_angle_gamma   151.83839532
_symmetry_Int_Tables_number   1
_chemical_formula_structural   Ta2Nb3(NiP)4
_chemical_formula_sum   'Ta2 Nb3 Ni4 P4'
_cell_volume   175.18362204
_cell_formula_units_Z   1
loop_
 _symmetry_equiv_pos_site_id
 _symmetry_equiv_pos_as_xyz
  1  'x, y, z'
loop_
 _atom_site_type_symbol
 _atom_site_label
 _atom_site_symmetry_multiplicity
 _atom_site_fract_x
 _atom_site_fract_y
 _atom_site_fract_z
 _atom_site_occupancy
  Ta  Ta0  1  0.804930  0.130933  0.935863  1
  Ta  Ta1  1  0.499648  0.500196  0.999844  1
  Nb  Nb2  1  0.130761  0.194452  0.325213  1
  Nb  Nb3  1  0.868838  0.805837  0.674675  1
  Nb  Nb4  1  0.194547  0.868645  0.063192  1
  Ni  Ni5  1  0.914824  0.389822  0.304646  1
  Ni  Ni6  1  0.085731  0.609512  0.695242  1
  Ni  Ni7  1  0.609743  0.915696  0.525437  1
  Ni  Ni8  1  0.390611  0.084898  0.475510  1
  P  P9  1  0.556036  0.241138  0.797175  1
  P  P10  1  0.241292  0.444531  0.685821  1
  P  P11  1  0.758846  0.555702  0.314549  1
  P  P12  1  0.444194  0.758638  0.202832  1
