# generated using pymatgen
data_Tb3GdMg2Ga3
_symmetry_space_group_name_H-M   'P 1'
_cell_length_a   19.81872650
_cell_length_b   19.02668169
_cell_length_c   11.92233400
_cell_angle_alpha   90.00000000
_cell_angle_beta   90.00000000
_cell_angle_gamma   122.71769677
_symmetry_Int_Tables_number   1
_chemical_formula_structural   Tb3GdMg2Ga3
_chemical_formula_sum   'Tb3 Gd1 Mg2 Ga3'
_cell_volume   3782.45370230
_cell_formula_units_Z   1
loop_
 _symmetry_equiv_pos_site_id
 _symmetry_equiv_pos_as_xyz
  1  'x, y, z'
loop_
 _atom_site_type_symbol
 _atom_site_label
 _atom_site_symmetry_multiplicity
 _atom_site_fract_x
 _atom_site_fract_y
 _atom_site_fract_z
 _atom_site_occupancy
  Tb  Tb0  1  0.574307  0.999799  0.000000  1
  Tb  Tb1  1  0.000667  0.588054  0.000000  1
  Tb  Tb2  1  0.412031  0.412304  0.000000  1
  Gd  Gd3  1  0.250694  0.999178  0.500000  1
  Mg  Mg4  1  0.999913  0.248378  0.500000  1
  Mg  Mg5  1  0.751496  0.752126  0.500000  1
  Ga  Ga6  1  0.337172  0.665001  0.500000  1
  Ga  Ga7  1  0.671557  0.334871  0.500000  1
  Ga  Ga8  1  0.002162  0.000288  0.000000  1
