# generated using pymatgen
data_Rb2U3(CuSe4)2
_symmetry_space_group_name_H-M   'P 1'
_cell_length_a   4.13502608
_cell_length_b   8.04641387
_cell_length_c   14.28800645
_cell_angle_alpha   94.26069204
_cell_angle_beta   98.19178407
_cell_angle_gamma   104.94385130
_symmetry_Int_Tables_number   1
_chemical_formula_structural   Rb2U3(CuSe4)2
_chemical_formula_sum   'Rb2 U3 Cu2 Se8'
_cell_volume   451.55272800
_cell_formula_units_Z   1
loop_
 _symmetry_equiv_pos_site_id
 _symmetry_equiv_pos_as_xyz
  1  'x, y, z'
loop_
 _atom_site_type_symbol
 _atom_site_label
 _atom_site_symmetry_multiplicity
 _atom_site_fract_x
 _atom_site_fract_y
 _atom_site_fract_z
 _atom_site_occupancy
  Rb  Rb0  1  0.870111  0.540117  0.199986  1
  Rb  Rb1  1  0.129889  0.459883  0.800013  1
  U  U2  1  0.500000  0.000000  0.000000  1
  U  U3  1  0.720818  0.064844  0.378900  1
  U  U4  1  0.279181  0.935156  0.621099  1
  Cu  Cu5  1  0.141889  0.090866  0.192032  1
  Cu  Cu6  1  0.858110  0.909135  0.807967  1
  Se  Se7  1  0.147399  0.243926  0.050783  1
  Se  Se8  1  0.546522  0.905476  0.187608  1
  Se  Se9  1  0.314572  0.292379  0.337768  1
  Se  Se10  1  0.123956  0.830203  0.421400  1
  Se  Se11  1  0.876044  0.169798  0.578599  1
  Se  Se12  1  0.685429  0.707622  0.662233  1
  Se  Se13  1  0.453478  0.094524  0.812392  1
  Se  Se14  1  0.852600  0.756073  0.949216  1
