# generated using pymatgen
data_Er8ZnCo2Hg
_symmetry_space_group_name_H-M   'P 1'
_cell_length_a   9.30129551
_cell_length_b   9.30918548
_cell_length_c   9.30129601
_cell_angle_alpha   59.97193331
_cell_angle_beta   59.99859016
_cell_angle_gamma   59.97193155
_symmetry_Int_Tables_number   1
_chemical_formula_structural   Er8ZnCo2Hg
_chemical_formula_sum   'Er16 Zn2 Co4 Hg2'
_cell_volume   569.23893022
_cell_formula_units_Z   2
loop_
 _symmetry_equiv_pos_site_id
 _symmetry_equiv_pos_as_xyz
  1  'x, y, z'
loop_
 _atom_site_type_symbol
 _atom_site_label
 _atom_site_symmetry_multiplicity
 _atom_site_fract_x
 _atom_site_fract_y
 _atom_site_fract_z
 _atom_site_occupancy
  Er  Er0  1  0.151726  0.545586  0.151726  1
  Er  Er1  1  0.689292  0.310708  0.689292  1
  Er  Er2  1  0.689363  0.309584  0.311894  1
  Er  Er3  1  0.938330  0.564659  0.559255  1
  Er  Er4  1  0.545562  0.151287  0.151863  1
  Er  Er5  1  0.151863  0.151287  0.545562  1
  Er  Er6  1  0.938330  0.937755  0.559255  1
  Er  Er7  1  0.310431  0.689569  0.310431  1
  Er  Er8  1  0.559255  0.937755  0.938330  1
  Er  Er9  1  0.562373  0.937627  0.562373  1
  Er  Er10  1  0.689363  0.689158  0.311894  1
  Er  Er11  1  0.559255  0.564659  0.938330  1
  Er  Er12  1  0.938479  0.561521  0.938479  1
  Er  Er13  1  0.311894  0.689158  0.689363  1
  Er  Er14  1  0.151726  0.150960  0.151726  1
  Er  Er15  1  0.311894  0.309584  0.689363  1
  Zn  Zn16  1  0.921824  0.919079  0.240020  1
  Zn  Zn17  1  0.240020  0.919079  0.921824  1
  Co  Co18  1  0.358399  0.358664  0.924275  1
  Co  Co19  1  0.358557  0.924006  0.358557  1
  Co  Co20  1  0.924275  0.358664  0.358399  1
  Co  Co21  1  0.358557  0.358881  0.358557  1
  Hg  Hg22  1  0.919615  0.246011  0.919615  1
  Hg  Hg23  1  0.919615  0.914759  0.919615  1
