# generated using pymatgen
data_Ca2PrCdHg2Pd3
_symmetry_space_group_name_H-M   'P 1'
_cell_length_a   7.72669221
_cell_length_b   7.74160554
_cell_length_c   4.07743300
_cell_angle_alpha   90.00000000
_cell_angle_beta   90.00000000
_cell_angle_gamma   120.54093200
_symmetry_Int_Tables_number   1
_chemical_formula_structural   Ca2PrCdHg2Pd3
_chemical_formula_sum   'Ca2 Pr1 Cd1 Hg2 Pd3'
_cell_volume   210.06271161
_cell_formula_units_Z   1
loop_
 _symmetry_equiv_pos_site_id
 _symmetry_equiv_pos_as_xyz
  1  'x, y, z'
loop_
 _atom_site_type_symbol
 _atom_site_label
 _atom_site_symmetry_multiplicity
 _atom_site_fract_x
 _atom_site_fract_y
 _atom_site_fract_z
 _atom_site_occupancy
  Ca  Ca0  1  0.395083  0.395289  0.500000  1
  Ca  Ca1  1  0.599657  0.002517  0.500000  1
  Pr  Pr2  1  0.002293  0.598897  0.500000  1
  Cd  Cd3  1  0.734334  0.742773  0.000000  1
  Hg  Hg4  1  0.269864  0.006789  0.000000  1
  Hg  Hg5  1  0.997809  0.253284  0.000000  1
  Pd  Pd6  1  0.675123  0.345842  0.000000  1
  Pd  Pd7  1  0.331096  0.665075  0.000000  1
  Pd  Pd8  1  0.994742  0.989535  0.500000  1
