# generated using pymatgen
data_Hf2NbB2Ru5
_symmetry_space_group_name_H-M   'P 1'
_cell_length_a   9.47229400
_cell_length_b   9.47229400
_cell_length_c   3.11211200
_cell_angle_alpha   90.00000000
_cell_angle_beta   90.00000000
_cell_angle_gamma   90.00000000
_symmetry_Int_Tables_number   1
_chemical_formula_structural   Hf2NbB2Ru5
_chemical_formula_sum   'Hf4 Nb2 B4 Ru10'
_cell_volume   279.23223760
_cell_formula_units_Z   2
loop_
 _symmetry_equiv_pos_site_id
 _symmetry_equiv_pos_as_xyz
  1  'x, y, z'
loop_
 _atom_site_type_symbol
 _atom_site_label
 _atom_site_symmetry_multiplicity
 _atom_site_fract_x
 _atom_site_fract_y
 _atom_site_fract_z
 _atom_site_occupancy
  Hf  Hf0  1  0.824119  0.675881  0.000000  1
  Hf  Hf1  1  0.175881  0.324119  0.000000  1
  Hf  Hf2  1  0.324119  0.824119  0.000000  1
  Hf  Hf3  1  0.675881  0.175881  0.000000  1
  Nb  Nb4  1  0.500000  0.500000  0.000000  1
  Nb  Nb5  1  0.000000  0.000000  0.000000  1
  B  B6  1  0.621238  0.878762  0.000000  1
  B  B7  1  0.378762  0.121238  0.000000  1
  B  B8  1  0.121238  0.621238  0.000000  1
  B  B9  1  0.878762  0.378762  0.000000  1
  Ru  Ru10  1  0.570889  0.718423  0.500000  1
  Ru  Ru11  1  0.429111  0.281577  0.500000  1
  Ru  Ru12  1  0.070889  0.781577  0.500000  1
  Ru  Ru13  1  0.929111  0.218423  0.500000  1
  Ru  Ru14  1  0.281577  0.570889  0.500000  1
  Ru  Ru15  1  0.718423  0.429111  0.500000  1
  Ru  Ru16  1  0.218423  0.070889  0.500000  1
  Ru  Ru17  1  0.781577  0.929111  0.500000  1
  Ru  Ru18  1  0.500000  0.000000  0.500000  1
  Ru  Ru19  1  0.000000  0.500000  0.500000  1
