# generated using pymatgen
data_La3Pr(NdPd)3
_symmetry_space_group_name_H-M   'P 1'
_cell_length_a   6.55460800
_cell_length_b   10.33612213
_cell_length_c   10.33612300
_cell_angle_alpha   120.03137486
_cell_angle_beta   90.00000000
_cell_angle_gamma   90.00000000
_symmetry_Int_Tables_number   1
_chemical_formula_structural   La3Pr(NdPd)3
_chemical_formula_sum   'La6 Pr2 Nd6 Pd6'
_cell_volume   606.25490571
_cell_formula_units_Z   2
loop_
 _symmetry_equiv_pos_site_id
 _symmetry_equiv_pos_as_xyz
  1  'x, y, z'
loop_
 _atom_site_type_symbol
 _atom_site_label
 _atom_site_symmetry_multiplicity
 _atom_site_fract_x
 _atom_site_fract_y
 _atom_site_fract_z
 _atom_site_occupancy
  La  La0  1  0.242201  0.127734  0.872266  1
  La  La1  1  0.242119  0.744522  0.872319  1
  La  La2  1  0.242119  0.127681  0.255478  1
  La  La3  1  0.742201  0.872266  0.127734  1
  La  La4  1  0.742119  0.255478  0.127681  1
  La  La5  1  0.742119  0.872319  0.744522  1
  Pr  Pr6  1  0.456081  0.333242  0.666758  1
  Pr  Pr7  1  0.956081  0.666758  0.333242  1
  Nd  Nd8  1  0.444766  0.538641  0.461359  1
  Nd  Nd9  1  0.444967  0.922571  0.461308  1
  Nd  Nd10  1  0.444967  0.538692  0.077429  1
  Nd  Nd11  1  0.944766  0.461359  0.538641  1
  Nd  Nd12  1  0.944967  0.077429  0.538692  1
  Nd  Nd13  1  0.944967  0.461308  0.922571  1
  Pd  Pd14  1  0.192060  0.812221  0.187779  1
  Pd  Pd15  1  0.191858  0.375625  0.187837  1
  Pd  Pd16  1  0.191858  0.812163  0.624375  1
  Pd  Pd17  1  0.692060  0.187779  0.812221  1
  Pd  Pd18  1  0.691858  0.624375  0.812163  1
  Pd  Pd19  1  0.691858  0.187837  0.375625  1
