# generated using pymatgen
data_EuTm5AuO12
_symmetry_space_group_name_H-M   'P 1'
_cell_length_a   6.45047822
_cell_length_b   6.41611081
_cell_length_c   6.43662300
_cell_angle_alpha   98.82635025
_cell_angle_beta   99.04311465
_cell_angle_gamma   98.84106485
_symmetry_Int_Tables_number   1
_chemical_formula_structural   EuTm5AuO12
_chemical_formula_sum   'Eu1 Tm5 Au1 O12'
_cell_volume   255.61402846
_cell_formula_units_Z   1
loop_
 _symmetry_equiv_pos_site_id
 _symmetry_equiv_pos_as_xyz
  1  'x, y, z'
loop_
 _atom_site_type_symbol
 _atom_site_label
 _atom_site_symmetry_multiplicity
 _atom_site_fract_x
 _atom_site_fract_y
 _atom_site_fract_z
 _atom_site_occupancy
  Eu  Eu0  1  0.693832  0.858299  0.399626  1
  Tm  Tm1  1  0.387803  0.692005  0.858418  1
  Tm  Tm2  1  0.861411  0.392147  0.700348  1
  Tm  Tm3  1  0.305629  0.144829  0.612261  1
  Tm  Tm4  1  0.609283  0.302821  0.135241  1
  Tm  Tm5  1  0.141578  0.608154  0.306567  1
  Au  Au6  1  0.001943  0.000671  0.000805  1
  O  O7  1  0.430794  0.581887  0.175062  1
  O  O8  1  0.174328  0.435912  0.587852  1
  O  O9  1  0.589174  0.179260  0.435980  1
  O  O10  1  0.563935  0.411015  0.819507  1
  O  O11  1  0.820453  0.560540  0.409466  1
  O  O12  1  0.403082  0.821924  0.564544  1
  O  O13  1  0.947452  0.056735  0.693173  1
  O  O14  1  0.952290  0.312282  0.062489  1
  O  O15  1  0.313384  0.060297  0.953598  1
  O  O16  1  0.067435  0.951517  0.309584  1
  O  O17  1  0.048077  0.688828  0.937694  1
  O  O18  1  0.688119  0.940877  0.037784  1
