# generated using pymatgen
data_Yb6Ru2N7
_symmetry_space_group_name_H-M   'P 1'
_cell_length_a   6.02771536
_cell_length_b   6.02771526
_cell_length_c   6.02771368
_cell_angle_alpha   95.05908055
_cell_angle_beta   95.05906627
_cell_angle_gamma   95.05907342
_symmetry_Int_Tables_number   1
_chemical_formula_structural   Yb6Ru2N7
_chemical_formula_sum   'Yb6 Ru2 N7'
_cell_volume   216.28538568
_cell_formula_units_Z   1
loop_
 _symmetry_equiv_pos_site_id
 _symmetry_equiv_pos_as_xyz
  1  'x, y, z'
loop_
 _atom_site_type_symbol
 _atom_site_label
 _atom_site_symmetry_multiplicity
 _atom_site_fract_x
 _atom_site_fract_y
 _atom_site_fract_z
 _atom_site_occupancy
  Yb  Yb0  1  0.661149  0.106594  0.804777  1
  Yb  Yb1  1  0.106594  0.804777  0.661149  1
  Yb  Yb2  1  0.804777  0.661149  0.106594  1
  Yb  Yb3  1  0.338851  0.893406  0.195223  1
  Yb  Yb4  1  0.893406  0.195223  0.338851  1
  Yb  Yb5  1  0.195223  0.338851  0.893406  1
  Ru  Ru6  1  0.623680  0.623680  0.623680  1
  Ru  Ru7  1  0.376320  0.376320  0.376320  1
  N  N8  1  0.000000  0.000000  0.000000  1
  N  N9  1  0.725987  0.856425  0.462570  1
  N  N10  1  0.856425  0.462570  0.725987  1
  N  N11  1  0.462570  0.725987  0.856425  1
  N  N12  1  0.274013  0.143575  0.537430  1
  N  N13  1  0.143575  0.537430  0.274013  1
  N  N14  1  0.537430  0.274013  0.143575  1
