# generated using pymatgen
data_ErTm2In4CoIr
_symmetry_space_group_name_H-M   'P 1'
_cell_length_a   7.93335149
_cell_length_b   7.93525924
_cell_length_c   3.61077400
_cell_angle_alpha   90.00000000
_cell_angle_beta   90.00000000
_cell_angle_gamma   120.03236575
_symmetry_Int_Tables_number   1
_chemical_formula_structural   ErTm2In4CoIr
_chemical_formula_sum   'Er1 Tm2 In4 Co1 Ir1'
_cell_volume   196.79181063
_cell_formula_units_Z   1
loop_
 _symmetry_equiv_pos_site_id
 _symmetry_equiv_pos_as_xyz
  1  'x, y, z'
loop_
 _atom_site_type_symbol
 _atom_site_label
 _atom_site_symmetry_multiplicity
 _atom_site_fract_x
 _atom_site_fract_y
 _atom_site_fract_z
 _atom_site_occupancy
  Er  Er0  1  0.042952  0.746245  0.500000  1
  Tm  Tm1  1  0.703679  0.957314  0.500000  1
  Tm  Tm2  1  0.253607  0.296361  0.500000  1
  In  In3  1  0.920775  0.337983  0.000000  1
  In  In4  1  0.417454  0.079321  0.000000  1
  In  In5  1  0.661475  0.582522  0.000000  1
  In  In6  1  0.333542  0.666583  0.000000  1
  Co  Co7  1  0.666596  0.333222  0.500000  1
  Ir  Ir8  1  0.999921  0.000449  0.000000  1
