# generated using pymatgen
data_HoNb8NiSe16
_symmetry_space_group_name_H-M   'P 1'
_cell_length_a   7.00095900
_cell_length_b   7.00095859
_cell_length_c   13.55456000
_cell_angle_alpha   90.00000000
_cell_angle_beta   90.00000000
_cell_angle_gamma   120.00001613
_symmetry_Int_Tables_number   1
_chemical_formula_structural   HoNb8NiSe16
_chemical_formula_sum   'Ho1 Nb8 Ni1 Se16'
_cell_volume   575.34855709
_cell_formula_units_Z   1
loop_
 _symmetry_equiv_pos_site_id
 _symmetry_equiv_pos_as_xyz
  1  'x, y, z'
loop_
 _atom_site_type_symbol
 _atom_site_label
 _atom_site_symmetry_multiplicity
 _atom_site_fract_x
 _atom_site_fract_y
 _atom_site_fract_z
 _atom_site_occupancy
  Ho  Ho0  1  0.000000  0.000000  0.500000  1
  Nb  Nb1  1  0.000000  0.000000  0.237597  1
  Nb  Nb2  1  0.000000  0.000000  0.762403  1
  Nb  Nb3  1  0.508133  0.016266  0.234889  1
  Nb  Nb4  1  0.983734  0.491867  0.234889  1
  Nb  Nb5  1  0.508133  0.491867  0.234889  1
  Nb  Nb6  1  0.491867  0.983734  0.765111  1
  Nb  Nb7  1  0.016266  0.508133  0.765111  1
  Nb  Nb8  1  0.491867  0.508133  0.765111  1
  Ni  Ni9  1  0.000000  0.000000  0.000000  1
  Se  Se10  1  0.333333  0.666667  0.892223  1
  Se  Se11  1  0.666667  0.333333  0.107777  1
  Se  Se12  1  0.666667  0.333333  0.365212  1
  Se  Se13  1  0.333333  0.666667  0.634788  1
  Se  Se14  1  0.170362  0.829638  0.359112  1
  Se  Se15  1  0.170362  0.340726  0.359112  1
  Se  Se16  1  0.659274  0.829638  0.359112  1
  Se  Se17  1  0.829638  0.170362  0.640888  1
  Se  Se18  1  0.829638  0.659274  0.640888  1
  Se  Se19  1  0.340726  0.170362  0.640888  1
  Se  Se20  1  0.833053  0.166947  0.886629  1
  Se  Se21  1  0.833053  0.666105  0.886629  1
  Se  Se22  1  0.333895  0.166947  0.886629  1
  Se  Se23  1  0.166947  0.833053  0.113371  1
  Se  Se24  1  0.166947  0.333895  0.113371  1
  Se  Se25  1  0.666105  0.833053  0.113371  1
