# generated using pymatgen
data_Eu4In4Hg3Au
_symmetry_space_group_name_H-M   'P 1'
_cell_length_a   4.94654400
_cell_length_b   7.77047559
_cell_length_c   8.59969855
_cell_angle_alpha   89.21814064
_cell_angle_beta   90.00000000
_cell_angle_gamma   90.00000000
_symmetry_Int_Tables_number   1
_chemical_formula_structural   Eu4In4Hg3Au
_chemical_formula_sum   'Eu4 In4 Hg3 Au1'
_cell_volume   330.51583240
_cell_formula_units_Z   1
loop_
 _symmetry_equiv_pos_site_id
 _symmetry_equiv_pos_as_xyz
  1  'x, y, z'
loop_
 _atom_site_type_symbol
 _atom_site_label
 _atom_site_symmetry_multiplicity
 _atom_site_fract_x
 _atom_site_fract_y
 _atom_site_fract_z
 _atom_site_occupancy
  Eu  Eu0  1  0.750000  0.488961  0.801650  1
  Eu  Eu1  1  0.250000  0.011805  0.290884  1
  Eu  Eu2  1  0.750000  0.998189  0.708262  1
  Eu  Eu3  1  0.250000  0.499566  0.203194  1
  In  In4  1  0.250000  0.686725  0.579011  1
  In  In5  1  0.250000  0.183715  0.927097  1
  In  In6  1  0.750000  0.309539  0.413614  1
  In  In7  1  0.750000  0.822392  0.078527  1
  Hg  Hg8  1  0.250000  0.784710  0.906141  1
  Hg  Hg9  1  0.250000  0.288650  0.594669  1
  Hg  Hg10  1  0.750000  0.714446  0.406056  1
  Au  Au11  1  0.750000  0.211302  0.090896  1
