# generated using pymatgen
data_Na3TcO4F
_symmetry_space_group_name_H-M   'P 1'
_cell_length_a   5.69374300
_cell_length_b   7.58710700
_cell_length_c   12.97621600
_cell_angle_alpha   90.00000000
_cell_angle_beta   90.00000000
_cell_angle_gamma   90.00000000
_symmetry_Int_Tables_number   1
_chemical_formula_structural   Na3TcO4F
_chemical_formula_sum   'Na12 Tc4 O16 F4'
_cell_volume   560.56003992
_cell_formula_units_Z   4
loop_
 _symmetry_equiv_pos_site_id
 _symmetry_equiv_pos_as_xyz
  1  'x, y, z'
loop_
 _atom_site_type_symbol
 _atom_site_label
 _atom_site_symmetry_multiplicity
 _atom_site_fract_x
 _atom_site_fract_y
 _atom_site_fract_z
 _atom_site_occupancy
  Na  Na0  1  0.774133  0.461175  0.820807  1
  Na  Na1  1  0.225867  0.961175  0.179193  1
  Na  Na2  1  0.274122  0.750000  0.394186  1
  Na  Na3  1  0.725867  0.538825  0.320807  1
  Na  Na4  1  0.774133  0.038825  0.820807  1
  Na  Na5  1  0.774122  0.750000  0.105814  1
  Na  Na6  1  0.725878  0.250000  0.605814  1
  Na  Na7  1  0.274133  0.461175  0.679193  1
  Na  Na8  1  0.225878  0.250000  0.894186  1
  Na  Na9  1  0.725867  0.961175  0.320807  1
  Na  Na10  1  0.274133  0.038825  0.679193  1
  Na  Na11  1  0.225867  0.538825  0.179193  1
  Tc  Tc12  1  0.290273  0.750000  0.915408  1
  Tc  Tc13  1  0.790273  0.750000  0.584592  1
  Tc  Tc14  1  0.209727  0.250000  0.415408  1
  Tc  Tc15  1  0.709727  0.250000  0.084592  1
  O  O16  1  0.314574  0.441930  0.349733  1
  O  O17  1  0.673974  0.750000  0.456485  1
  O  O18  1  0.185426  0.558070  0.849733  1
  O  O19  1  0.185426  0.941930  0.849733  1
  O  O20  1  0.894297  0.250000  0.420619  1
  O  O21  1  0.814574  0.058070  0.150267  1
  O  O22  1  0.105703  0.750000  0.579381  1
  O  O23  1  0.394297  0.250000  0.079381  1
  O  O24  1  0.814574  0.441930  0.150267  1
  O  O25  1  0.685426  0.941930  0.650267  1
  O  O26  1  0.826026  0.250000  0.956485  1
  O  O27  1  0.605703  0.750000  0.920619  1
  O  O28  1  0.326026  0.250000  0.543515  1
  O  O29  1  0.685426  0.558070  0.650267  1
  O  O30  1  0.173974  0.750000  0.043515  1
  O  O31  1  0.314574  0.058070  0.349733  1
  F  F32  1  0.003385  0.250000  0.730995  1
  F  F33  1  0.996615  0.750000  0.269005  1
  F  F34  1  0.496615  0.750000  0.230995  1
  F  F35  1  0.503385  0.250000  0.769005  1
