# generated using pymatgen
data_Ti3GaWC2N
_symmetry_space_group_name_H-M   'P 1'
_cell_length_a   3.04116400
_cell_length_b   3.04116462
_cell_length_c   23.38449800
_cell_angle_alpha   90.00000000
_cell_angle_beta   90.00000000
_cell_angle_gamma   119.99999323
_symmetry_Int_Tables_number   1
_chemical_formula_structural   Ti3GaWC2N
_chemical_formula_sum   'Ti6 Ga2 W2 C4 N2'
_cell_volume   187.30030441
_cell_formula_units_Z   2
loop_
 _symmetry_equiv_pos_site_id
 _symmetry_equiv_pos_as_xyz
  1  'x, y, z'
loop_
 _atom_site_type_symbol
 _atom_site_label
 _atom_site_symmetry_multiplicity
 _atom_site_fract_x
 _atom_site_fract_y
 _atom_site_fract_z
 _atom_site_occupancy
  Ti  Ti0  1  0.000000  0.000000  0.844318  1
  Ti  Ti1  1  0.000000  0.000000  0.155682  1
  Ti  Ti2  1  0.333333  0.666667  0.445101  1
  Ti  Ti3  1  0.666667  0.333333  0.554899  1
  Ti  Ti4  1  0.666667  0.333333  0.946748  1
  Ti  Ti5  1  0.333333  0.666667  0.053252  1
  Ga  Ga6  1  0.333333  0.666667  0.248147  1
  Ga  Ga7  1  0.666667  0.333333  0.751853  1
  W  W8  1  0.000000  0.000000  0.342815  1
  W  W9  1  0.000000  0.000000  0.657185  1
  C  C10  1  0.666667  0.333333  0.393030  1
  C  C11  1  0.333333  0.666667  0.606970  1
  C  C12  1  0.333333  0.666667  0.892817  1
  C  C13  1  0.666667  0.333333  0.107183  1
  N  N14  1  0.000000  0.000000  0.500000  1
  N  N15  1  0.000000  0.000000  0.000000  1
