# generated using pymatgen
data_Tb2LuZnCd3Au2
_symmetry_space_group_name_H-M   'P 1'
_cell_length_a   7.87297300
_cell_length_b   7.82159670
_cell_length_c   3.80730700
_cell_angle_alpha   90.00000000
_cell_angle_beta   90.00000000
_cell_angle_gamma   120.21752799
_symmetry_Int_Tables_number   1
_chemical_formula_structural   Tb2LuZnCd3Au2
_chemical_formula_sum   'Tb2 Lu1 Zn1 Cd3 Au2'
_cell_volume   202.59399853
_cell_formula_units_Z   1
loop_
 _symmetry_equiv_pos_site_id
 _symmetry_equiv_pos_as_xyz
  1  'x, y, z'
loop_
 _atom_site_type_symbol
 _atom_site_label
 _atom_site_symmetry_multiplicity
 _atom_site_fract_x
 _atom_site_fract_y
 _atom_site_fract_z
 _atom_site_occupancy
  Tb  Tb0  1  0.000185  0.589725  0.000000  1
  Tb  Tb1  1  0.410459  0.410275  0.000000  1
  Lu  Lu2  1  0.589440  0.000000  0.000000  1
  Zn  Zn3  1  0.998806  0.000000  0.000000  1
  Cd  Cd4  1  0.256414  0.000000  0.500000  1
  Cd  Cd5  1  0.998409  0.254423  0.500000  1
  Cd  Cd6  1  0.743985  0.745577  0.500000  1
  Au  Au7  1  0.336895  0.671488  0.500000  1
  Au  Au8  1  0.665407  0.328512  0.500000  1
