# generated using pymatgen
data_Cs5Ti3AgO9
_symmetry_space_group_name_H-M   'P 1'
_cell_length_a   6.71273400
_cell_length_b   10.24761476
_cell_length_c   12.42512685
_cell_angle_alpha   86.82723414
_cell_angle_beta   90.00000000
_cell_angle_gamma   90.00000000
_symmetry_Int_Tables_number   1
_chemical_formula_structural   Cs5Ti3AgO9
_chemical_formula_sum   'Cs10 Ti6 Ag2 O18'
_cell_volume   853.40828780
_cell_formula_units_Z   2
loop_
 _symmetry_equiv_pos_site_id
 _symmetry_equiv_pos_as_xyz
  1  'x, y, z'
loop_
 _atom_site_type_symbol
 _atom_site_label
 _atom_site_symmetry_multiplicity
 _atom_site_fract_x
 _atom_site_fract_y
 _atom_site_fract_z
 _atom_site_occupancy
  Cs  Cs0  1  0.250000  0.348730  0.057104  1
  Cs  Cs1  1  0.750000  0.956486  0.619573  1
  Cs  Cs2  1  0.250000  0.228820  0.689145  1
  Cs  Cs3  1  0.250000  0.043514  0.380427  1
  Cs  Cs4  1  0.250000  0.738383  0.138025  1
  Cs  Cs5  1  0.250000  0.459485  0.399323  1
  Cs  Cs6  1  0.750000  0.651270  0.942896  1
  Cs  Cs7  1  0.750000  0.540515  0.600677  1
  Cs  Cs8  1  0.750000  0.261617  0.861975  1
  Cs  Cs9  1  0.750000  0.771180  0.310855  1
  Ti  Ti10  1  0.250000  0.890794  0.803019  1
  Ti  Ti11  1  0.750000  0.109206  0.196981  1
  Ti  Ti12  1  0.250000  0.556788  0.796393  1
  Ti  Ti13  1  0.750000  0.254221  0.437710  1
  Ti  Ti14  1  0.250000  0.745779  0.562290  1
  Ti  Ti15  1  0.750000  0.443212  0.203607  1
  Ag  Ag16  1  0.000000  0.000000  0.000000  1
  Ag  Ag17  1  0.500000  0.000000  0.000000  1
  O  O18  1  0.468378  0.755624  0.481846  1
  O  O19  1  0.974993  0.019535  0.163576  1
  O  O20  1  0.474993  0.980465  0.836424  1
  O  O21  1  0.466016  0.466163  0.836726  1
  O  O22  1  0.968378  0.244376  0.518154  1
  O  O23  1  0.033984  0.466163  0.836726  1
  O  O24  1  0.250000  0.720993  0.865222  1
  O  O25  1  0.750000  0.110307  0.344967  1
  O  O26  1  0.750000  0.415890  0.355600  1
  O  O27  1  0.025007  0.980465  0.836424  1
  O  O28  1  0.250000  0.584110  0.644400  1
  O  O29  1  0.525007  0.019535  0.163576  1
  O  O30  1  0.750000  0.279007  0.134778  1
  O  O31  1  0.531622  0.244376  0.518154  1
  O  O32  1  0.533984  0.533837  0.163274  1
  O  O33  1  0.031622  0.755624  0.481846  1
  O  O34  1  0.966016  0.533837  0.163274  1
  O  O35  1  0.250000  0.889693  0.655033  1
