# generated using pymatgen
data_Pr17Er3(Bi5Pb3)2
_symmetry_space_group_name_H-M   'P 1'
_cell_length_a   8.48164214
_cell_length_b   8.55769608
_cell_length_c   16.17649500
_cell_angle_alpha   90.00000000
_cell_angle_beta   90.00000000
_cell_angle_gamma   90.41208740
_symmetry_Int_Tables_number   1
_chemical_formula_structural   Pr17Er3(Bi5Pb3)2
_chemical_formula_sum   'Pr17 Er3 Bi10 Pb6'
_cell_volume   1174.11327500
_cell_formula_units_Z   1
loop_
 _symmetry_equiv_pos_site_id
 _symmetry_equiv_pos_as_xyz
  1  'x, y, z'
loop_
 _atom_site_type_symbol
 _atom_site_label
 _atom_site_symmetry_multiplicity
 _atom_site_fract_x
 _atom_site_fract_y
 _atom_site_fract_z
 _atom_site_occupancy
  Pr  Pr0  1  0.369012  0.844824  0.880336  1
  Pr  Pr1  1  0.877329  0.656409  0.621289  1
  Pr  Pr2  1  0.632525  0.153958  0.379568  1
  Pr  Pr3  1  0.122289  0.343668  0.123167  1
  Pr  Pr4  1  0.632525  0.153958  0.120432  1
  Pr  Pr5  1  0.122289  0.343668  0.376833  1
  Pr  Pr6  1  0.369012  0.844824  0.619664  1
  Pr  Pr7  1  0.877329  0.656409  0.878711  1
  Pr  Pr8  1  0.539113  0.322060  0.897603  1
  Pr  Pr9  1  0.038490  0.176002  0.600401  1
  Pr  Pr10  1  0.458853  0.676875  0.395859  1
  Pr  Pr11  1  0.961735  0.825133  0.099658  1
  Pr  Pr12  1  0.458853  0.676875  0.104141  1
  Pr  Pr13  1  0.961735  0.825133  0.400342  1
  Pr  Pr14  1  0.539113  0.322060  0.602397  1
  Pr  Pr15  1  0.038490  0.176002  0.899599  1
  Pr  Pr16  1  0.204417  0.495277  0.750000  1
  Er  Er17  1  0.704454  0.003646  0.750000  1
  Er  Er18  1  0.794325  0.505482  0.250000  1
  Er  Er19  1  0.295749  0.994457  0.250000  1
  Bi  Bi20  1  0.281157  0.029740  0.050460  1
  Bi  Bi21  1  0.776306  0.474762  0.450909  1
  Bi  Bi22  1  0.719497  0.971718  0.550401  1
  Bi  Bi23  1  0.223977  0.527322  0.955492  1
  Bi  Bi24  1  0.719497  0.971718  0.949599  1
  Bi  Bi25  1  0.223977  0.527322  0.544508  1
  Bi  Bi26  1  0.281157  0.029740  0.449540  1
  Bi  Bi27  1  0.776306  0.474762  0.049091  1
  Bi  Bi28  1  0.572427  0.630273  0.750000  1
  Bi  Bi29  1  0.433102  0.372001  0.250000  1
  Pb  Pb30  1  0.065789  0.879731  0.750000  1
  Pb  Pb31  1  0.933809  0.120427  0.250000  1
  Pb  Pb32  1  0.349739  0.145441  0.750000  1
  Pb  Pb33  1  0.848388  0.341801  0.750000  1
  Pb  Pb34  1  0.653848  0.848936  0.250000  1
  Pb  Pb35  1  0.143393  0.657587  0.250000  1
