# generated using pymatgen
data_Zr8Cd4IrAu7
_symmetry_space_group_name_H-M   'P 1'
_cell_length_a   7.64278518
_cell_length_b   7.64278499
_cell_length_c   7.06687809
_cell_angle_alpha   90.33470569
_cell_angle_beta   90.33471091
_cell_angle_gamma   90.27819398
_symmetry_Int_Tables_number   1
_chemical_formula_structural   Zr8Cd4IrAu7
_chemical_formula_sum   'Zr8 Cd4 Ir1 Au7'
_cell_volume   412.77261930
_cell_formula_units_Z   1
loop_
 _symmetry_equiv_pos_site_id
 _symmetry_equiv_pos_as_xyz
  1  'x, y, z'
loop_
 _atom_site_type_symbol
 _atom_site_label
 _atom_site_symmetry_multiplicity
 _atom_site_fract_x
 _atom_site_fract_y
 _atom_site_fract_z
 _atom_site_occupancy
  Zr  Zr0  1  0.156028  0.156028  0.010807  1
  Zr  Zr1  1  0.857358  0.857358  0.996158  1
  Zr  Zr2  1  0.636319  0.346908  0.489008  1
  Zr  Zr3  1  0.346908  0.636319  0.489008  1
  Zr  Zr4  1  0.681185  0.308164  0.006104  1
  Zr  Zr5  1  0.308164  0.681185  0.006104  1
  Zr  Zr6  1  0.808700  0.808700  0.500940  1
  Zr  Zr7  1  0.197505  0.197505  0.492439  1
  Cd  Cd8  1  0.499070  0.000846  0.248441  1
  Cd  Cd9  1  0.499246  0.997583  0.748389  1
  Cd  Cd10  1  0.000846  0.499070  0.248441  1
  Cd  Cd11  1  0.997583  0.499246  0.748389  1
  Ir  Ir12  1  0.372286  0.372286  0.222317  1
  Au  Au13  1  0.630701  0.630701  0.786326  1
  Au  Au14  1  0.635255  0.635255  0.204228  1
  Au  Au15  1  0.870251  0.133915  0.711528  1
  Au  Au16  1  0.869760  0.129955  0.292255  1
  Au  Au17  1  0.368963  0.368963  0.795336  1
  Au  Au18  1  0.129955  0.869760  0.292255  1
  Au  Au19  1  0.133915  0.870251  0.711528  1
