# generated using pymatgen
data_Tb3Dy3(TmIn4)2
_symmetry_space_group_name_H-M   'P 1'
_cell_length_a   6.49969009
_cell_length_b   6.49969169
_cell_length_c   10.33111300
_cell_angle_alpha   89.99836137
_cell_angle_beta   89.99836391
_cell_angle_gamma   103.99874874
_symmetry_Int_Tables_number   1
_chemical_formula_structural   Tb3Dy3(TmIn4)2
_chemical_formula_sum   'Tb3 Dy3 Tm2 In8'
_cell_volume   423.48594492
_cell_formula_units_Z   1
loop_
 _symmetry_equiv_pos_site_id
 _symmetry_equiv_pos_as_xyz
  1  'x, y, z'
loop_
 _atom_site_type_symbol
 _atom_site_label
 _atom_site_symmetry_multiplicity
 _atom_site_fract_x
 _atom_site_fract_y
 _atom_site_fract_z
 _atom_site_occupancy
  Tb  Tb0  1  0.247800  0.752200  0.000000  1
  Tb  Tb1  1  0.752197  0.247803  0.500000  1
  Tb  Tb2  1  0.752198  0.247802  0.000000  1
  Dy  Dy3  1  0.524132  0.524220  0.250036  1
  Dy  Dy4  1  0.475780  0.475868  0.749964  1
  Dy  Dy5  1  0.247805  0.752195  0.500000  1
  Tm  Tm6  1  0.982299  0.982207  0.250041  1
  Tm  Tm7  1  0.017793  0.017701  0.749959  1
  In  In8  1  0.250656  0.250658  0.013283  1
  In  In9  1  0.749342  0.749344  0.986717  1
  In  In10  1  0.250656  0.250645  0.486712  1
  In  In11  1  0.749355  0.749344  0.513288  1
  In  In12  1  0.486546  0.014532  0.250064  1
  In  In13  1  0.985468  0.513454  0.749936  1
  In  In14  1  0.513337  0.985365  0.749936  1
  In  In15  1  0.014635  0.486663  0.250064  1
