# generated using pymatgen
data_Ho3TmGa16Co3
_symmetry_space_group_name_H-M   'P 1'
_cell_length_a   6.01782700
_cell_length_b   6.01480500
_cell_length_c   11.10938100
_cell_angle_alpha   90.00000000
_cell_angle_beta   90.00000000
_cell_angle_gamma   90.00000000
_symmetry_Int_Tables_number   1
_chemical_formula_structural   Ho3TmGa16Co3
_chemical_formula_sum   'Ho3 Tm1 Ga16 Co3'
_cell_volume   402.11577601
_cell_formula_units_Z   1
loop_
 _symmetry_equiv_pos_site_id
 _symmetry_equiv_pos_as_xyz
  1  'x, y, z'
loop_
 _atom_site_type_symbol
 _atom_site_label
 _atom_site_symmetry_multiplicity
 _atom_site_fract_x
 _atom_site_fract_y
 _atom_site_fract_z
 _atom_site_occupancy
  Ho  Ho0  1  0.500000  0.000000  0.194872  1
  Ho  Ho1  1  0.000000  0.500000  0.194840  1
  Ho  Ho2  1  0.500000  0.000000  0.805068  1
  Tm  Tm3  1  0.000000  0.500000  0.805029  1
  Ga  Ga4  1  0.279894  0.280356  0.999784  1
  Ga  Ga5  1  0.720106  0.280356  0.999784  1
  Ga  Ga6  1  0.279894  0.719644  0.999784  1
  Ga  Ga7  1  0.720106  0.719644  0.999784  1
  Ga  Ga8  1  0.500000  0.500000  0.195013  1
  Ga  Ga9  1  0.000000  0.000000  0.217598  1
  Ga  Ga10  1  0.249516  0.249662  0.384518  1
  Ga  Ga11  1  0.750484  0.249662  0.384518  1
  Ga  Ga12  1  0.249516  0.750338  0.384518  1
  Ga  Ga13  1  0.750484  0.750338  0.384518  1
  Ga  Ga14  1  0.249345  0.249813  0.615704  1
  Ga  Ga15  1  0.750655  0.249813  0.615704  1
  Ga  Ga16  1  0.249345  0.750187  0.615704  1
  Ga  Ga17  1  0.750655  0.750187  0.615704  1
  Ga  Ga18  1  0.000000  0.000000  0.782462  1
  Ga  Ga19  1  0.500000  0.500000  0.804989  1
  Co  Co20  1  0.000000  0.000000  0.000038  1
  Co  Co21  1  0.500000  0.000000  0.499991  1
  Co  Co22  1  0.000000  0.500000  0.500079  1
