# generated using pymatgen
data_Ho8Re12Si15Ge
_symmetry_space_group_name_H-M   'P 1'
_cell_length_a   6.78434877
_cell_length_b   6.77842185
_cell_length_c   12.75573277
_cell_angle_alpha   90.10646430
_cell_angle_beta   89.84949042
_cell_angle_gamma   90.15407807
_symmetry_Int_Tables_number   1
_chemical_formula_structural   Ho8Re12Si15Ge
_chemical_formula_sum   'Ho8 Re12 Si15 Ge1'
_cell_volume   586.59500269
_cell_formula_units_Z   1
loop_
 _symmetry_equiv_pos_site_id
 _symmetry_equiv_pos_as_xyz
  1  'x, y, z'
loop_
 _atom_site_type_symbol
 _atom_site_label
 _atom_site_symmetry_multiplicity
 _atom_site_fract_x
 _atom_site_fract_y
 _atom_site_fract_z
 _atom_site_occupancy
  Ho  Ho0  1  0.007229  0.662668  0.030928  1
  Ho  Ho1  1  0.992807  0.338098  0.531628  1
  Ho  Ho2  1  0.338806  0.993270  0.469402  1
  Ho  Ho3  1  0.163063  0.492246  0.781271  1
  Ho  Ho4  1  0.835965  0.506516  0.279918  1
  Ho  Ho5  1  0.492153  0.163673  0.218603  1
  Ho  Ho6  1  0.508380  0.838617  0.719111  1
  Ho  Ho7  1  0.661991  0.007327  0.968739  1
  Re  Re8  1  0.659693  0.665819  0.501406  1
  Re  Re9  1  0.166226  0.837452  0.246450  1
  Re  Re10  1  0.335162  0.335402  0.000133  1
  Re  Re11  1  0.021756  0.810642  0.634265  1
  Re  Re12  1  0.980282  0.184935  0.130042  1
  Re  Re13  1  0.807686  0.026223  0.367106  1
  Re  Re14  1  0.317886  0.479695  0.378981  1
  Re  Re15  1  0.686338  0.520533  0.882196  1
  Re  Re16  1  0.481823  0.310977  0.619572  1
  Re  Re17  1  0.520126  0.684316  0.118649  1
  Re  Re18  1  0.184352  0.981095  0.870298  1
  Re  Re19  1  0.836201  0.164828  0.750650  1
  Si  Si20  1  0.613475  0.304873  0.434545  1
  Si  Si21  1  0.384849  0.695745  0.934592  1
  Si  Si22  1  0.195933  0.113250  0.684612  1
  Si  Si23  1  0.307042  0.611797  0.567031  1
  Si  Si24  1  0.695799  0.384233  0.065300  1
  Si  Si25  1  0.803493  0.885038  0.184037  1
  Si  Si26  1  0.113923  0.195640  0.315630  1
  Si  Si27  1  0.979519  0.275340  0.937959  1
  Si  Si28  1  0.730731  0.017835  0.561342  1
  Si  Si29  1  0.224897  0.479547  0.187390  1
  Si  Si30  1  0.772821  0.518476  0.689445  1
  Si  Si31  1  0.481077  0.227053  0.812225  1
  Si  Si32  1  0.519168  0.775768  0.311192  1
  Si  Si33  1  0.275691  0.979422  0.062305  1
  Si  Si34  1  0.885056  0.803563  0.816409  1
  Ge  Ge35  1  0.018599  0.728086  0.436641  1
