# generated using pymatgen
data_Er4Tm2MnB14Os
_symmetry_space_group_name_H-M   'P 1'
_cell_length_a   7.96703626
_cell_length_b   7.96703624
_cell_length_c   9.24057930
_cell_angle_alpha   90.02858821
_cell_angle_beta   89.97141119
_cell_angle_gamma   154.93673353
_symmetry_Int_Tables_number   1
_chemical_formula_structural   Er4Tm2MnB14Os
_chemical_formula_sum   'Er4 Tm2 Mn1 B14 Os1'
_cell_volume   248.46653787
_cell_formula_units_Z   1
loop_
 _symmetry_equiv_pos_site_id
 _symmetry_equiv_pos_as_xyz
  1  'x, y, z'
loop_
 _atom_site_type_symbol
 _atom_site_label
 _atom_site_symmetry_multiplicity
 _atom_site_fract_x
 _atom_site_fract_y
 _atom_site_fract_z
 _atom_site_occupancy
  Er  Er0  1  0.104976  0.895024  0.563638  1
  Er  Er1  1  0.894460  0.105540  0.056928  1
  Er  Er2  1  0.104961  0.895039  0.936307  1
  Er  Er3  1  0.244534  0.755466  0.250051  1
  Tm  Tm4  1  0.894590  0.105410  0.443366  1
  Tm  Tm5  1  0.759319  0.240681  0.749957  1
  Mn  Mn6  1  0.947249  0.052751  0.749819  1
  B  B7  1  0.727541  0.272459  0.466644  1
  B  B8  1  0.272289  0.727711  0.534432  1
  B  B9  1  0.727364  0.272636  0.033309  1
  B  B10  1  0.272154  0.727846  0.965484  1
  B  B11  1  0.632146  0.367854  0.149853  1
  B  B12  1  0.369672  0.630328  0.846519  1
  B  B13  1  0.632150  0.367850  0.350152  1
  B  B14  1  0.369669  0.630331  0.653207  1
  B  B15  1  0.519783  0.480217  0.094922  1
  B  B16  1  0.478823  0.521177  0.902073  1
  B  B17  1  0.519680  0.480320  0.405285  1
  B  B18  1  0.478764  0.521236  0.597700  1
  B  B19  1  0.454487  0.545513  0.250257  1
  B  B20  1  0.541982  0.458018  0.749971  1
  Os  Os21  1  0.053405  0.946595  0.250126  1
