# generated using pymatgen
data_Na5Cr(P2Ir3)6
_symmetry_space_group_name_H-M   'P 1'
_cell_length_a   12.59710120
_cell_length_b   12.64724241
_cell_length_c   3.95534600
_cell_angle_alpha   90.00000000
_cell_angle_beta   90.00000000
_cell_angle_gamma   120.13175801
_symmetry_Int_Tables_number   1
_chemical_formula_structural   Na5Cr(P2Ir3)6
_chemical_formula_sum   'Na5 Cr1 P12 Ir18'
_cell_volume   545.00870130
_cell_formula_units_Z   1
loop_
 _symmetry_equiv_pos_site_id
 _symmetry_equiv_pos_as_xyz
  1  'x, y, z'
loop_
 _atom_site_type_symbol
 _atom_site_label
 _atom_site_symmetry_multiplicity
 _atom_site_fract_x
 _atom_site_fract_y
 _atom_site_fract_z
 _atom_site_occupancy
  Na  Na0  1  0.329647  0.665096  0.500000  1
  Na  Na1  1  0.670353  0.335448  0.500000  1
  Na  Na2  1  0.000000  0.819756  0.000000  1
  Na  Na3  1  0.179278  0.178658  0.000000  1
  Na  Na4  1  0.820722  0.999379  0.000000  1
  Cr  Cr5  1  0.000000  0.453716  0.500000  1
  P  P6  1  0.000000  0.634896  0.500000  1
  P  P7  1  0.360160  0.359920  0.500000  1
  P  P8  1  0.639840  0.999761  0.500000  1
  P  P9  1  0.510693  0.688329  0.000000  1
  P  P10  1  0.309874  0.825543  0.000000  1
  P  P11  1  0.169491  0.484535  0.000000  1
  P  P12  1  0.489307  0.177636  0.000000  1
  P  P13  1  0.690126  0.515668  0.000000  1
  P  P14  1  0.830509  0.315044  0.000000  1
  P  P15  1  0.000000  0.178036  0.500000  1
  P  P16  1  0.819129  0.819995  0.500000  1
  P  P17  1  0.180871  0.000866  0.500000  1
  Ir  Ir18  1  0.509415  0.871292  0.000000  1
  Ir  Ir19  1  0.127809  0.638946  0.000000  1
  Ir  Ir20  1  0.358228  0.489830  0.000000  1
  Ir  Ir21  1  0.490585  0.361876  0.000000  1
  Ir  Ir22  1  0.872191  0.511137  0.000000  1
  Ir  Ir23  1  0.641772  0.131601  0.000000  1
  Ir  Ir24  1  0.540671  0.542229  0.500000  1
  Ir  Ir25  1  0.459329  0.001558  0.500000  1
  Ir  Ir26  1  0.000000  0.286210  0.000000  1
  Ir  Ir27  1  0.705668  0.707818  0.000000  1
  Ir  Ir28  1  0.294332  0.002150  0.000000  1
  Ir  Ir29  1  0.619052  0.802072  0.500000  1
  Ir  Ir30  1  0.196482  0.820052  0.500000  1
  Ir  Ir31  1  0.180621  0.377964  0.500000  1
  Ir  Ir32  1  0.380948  0.183020  0.500000  1
  Ir  Ir33  1  0.803518  0.623571  0.500000  1
  Ir  Ir34  1  0.819379  0.197343  0.500000  1
  Ir  Ir35  1  0.000000  0.999048  0.500000  1
