# generated using pymatgen
data_Zr10Al3Bi5
_symmetry_space_group_name_H-M   'P 1'
_cell_length_a   8.86159070
_cell_length_b   8.80751837
_cell_length_c   5.93591000
_cell_angle_alpha   90.00000000
_cell_angle_beta   90.00000000
_cell_angle_gamma   119.79834295
_symmetry_Int_Tables_number   1
_chemical_formula_structural   Zr10Al3Bi5
_chemical_formula_sum   'Zr10 Al3 Bi5'
_cell_volume   402.03336934
_cell_formula_units_Z   1
loop_
 _symmetry_equiv_pos_site_id
 _symmetry_equiv_pos_as_xyz
  1  'x, y, z'
loop_
 _atom_site_type_symbol
 _atom_site_label
 _atom_site_symmetry_multiplicity
 _atom_site_fract_x
 _atom_site_fract_y
 _atom_site_fract_z
 _atom_site_occupancy
  Zr  Zr0  1  0.673091  0.334303  0.004187  1
  Zr  Zr1  1  0.326909  0.661213  0.004187  1
  Zr  Zr2  1  0.326909  0.661213  0.495813  1
  Zr  Zr3  1  0.673091  0.334303  0.495813  1
  Zr  Zr4  1  0.737826  0.734570  0.750000  1
  Zr  Zr5  1  0.262174  0.996744  0.750000  1
  Zr  Zr6  1  0.000000  0.265382  0.750000  1
  Zr  Zr7  1  0.260387  0.276415  0.250000  1
  Zr  Zr8  1  0.739613  0.016027  0.250000  1
  Zr  Zr9  1  0.000000  0.721326  0.250000  1
  Al  Al10  1  0.000000  0.999257  0.007093  1
  Al  Al11  1  0.000000  0.999257  0.492907  1
  Al  Al12  1  0.000000  0.387624  0.250000  1
  Bi  Bi13  1  0.389626  0.387789  0.750000  1
  Bi  Bi14  1  0.610374  0.998163  0.750000  1
  Bi  Bi15  1  0.000000  0.605848  0.750000  1
  Bi  Bi16  1  0.616235  0.618401  0.250000  1
  Bi  Bi17  1  0.383765  0.002166  0.250000  1
