# generated using pymatgen
data_NaCaGePt2
_symmetry_space_group_name_H-M   'P 1'
_cell_length_a   5.62051354
_cell_length_b   5.62051311
_cell_length_c   7.74812012
_cell_angle_alpha   79.98380333
_cell_angle_beta   79.98380576
_cell_angle_gamma   61.34891384
_symmetry_Int_Tables_number   1
_chemical_formula_structural   NaCaGePt2
_chemical_formula_sum   'Na2 Ca2 Ge2 Pt4'
_cell_volume   210.35676087
_cell_formula_units_Z   2
loop_
 _symmetry_equiv_pos_site_id
 _symmetry_equiv_pos_as_xyz
  1  'x, y, z'
loop_
 _atom_site_type_symbol
 _atom_site_label
 _atom_site_symmetry_multiplicity
 _atom_site_fract_x
 _atom_site_fract_y
 _atom_site_fract_z
 _atom_site_occupancy
  Na  Na0  1  0.777852  0.523175  0.840470  1
  Na  Na1  1  0.476825  0.222148  0.659530  1
  Ca  Ca2  1  0.220273  0.480625  0.140981  1
  Ca  Ca3  1  0.519375  0.779727  0.359019  1
  Ge  Ge4  1  0.104876  0.895124  0.750000  1
  Ge  Ge5  1  0.880177  0.119823  0.250000  1
  Pt  Pt6  1  0.013068  0.734419  0.497005  1
  Pt  Pt7  1  0.265581  0.986932  0.002995  1
  Pt  Pt8  1  0.003771  0.261797  0.493475  1
  Pt  Pt9  1  0.738203  0.996229  0.006525  1
