# generated using pymatgen
data_TbDy7(Sc3Ga4)4
_symmetry_space_group_name_H-M   'P 1'
_cell_length_a   7.29105600
_cell_length_b   7.53859512
_cell_length_c   14.50537101
_cell_angle_alpha   90.00849445
_cell_angle_beta   90.00284990
_cell_angle_gamma   90.00148722
_symmetry_Int_Tables_number   1
_chemical_formula_structural   TbDy7(Sc3Ga4)4
_chemical_formula_sum   'Tb1 Dy7 Sc12 Ga16'
_cell_volume   797.27783215
_cell_formula_units_Z   1
loop_
 _symmetry_equiv_pos_site_id
 _symmetry_equiv_pos_as_xyz
  1  'x, y, z'
loop_
 _atom_site_type_symbol
 _atom_site_label
 _atom_site_symmetry_multiplicity
 _atom_site_fract_x
 _atom_site_fract_y
 _atom_site_fract_z
 _atom_site_occupancy
  Tb  Tb0  1  0.011778  0.176656  0.095733  1
  Dy  Dy1  1  0.988244  0.823030  0.903951  1
  Dy  Dy2  1  0.488277  0.676915  0.904056  1
  Dy  Dy3  1  0.988221  0.823088  0.595908  1
  Dy  Dy4  1  0.511784  0.323240  0.095901  1
  Dy  Dy5  1  0.011757  0.176917  0.404069  1
  Dy  Dy6  1  0.511800  0.323102  0.404208  1
  Dy  Dy7  1  0.488220  0.676893  0.595895  1
  Sc  Sc8  1  0.161571  0.502817  0.749933  1
  Sc  Sc9  1  0.838414  0.497368  0.250128  1
  Sc  Sc10  1  0.338479  0.002643  0.250122  1
  Sc  Sc11  1  0.661531  0.997209  0.749932  1
  Sc  Sc12  1  0.330410  0.175306  0.624552  1
  Sc  Sc13  1  0.669532  0.824666  0.375520  1
  Sc  Sc14  1  0.169624  0.675346  0.375561  1
  Sc  Sc15  1  0.669419  0.824594  0.124628  1
  Sc  Sc16  1  0.830412  0.324646  0.624537  1
  Sc  Sc17  1  0.330426  0.175281  0.875367  1
  Sc  Sc18  1  0.830287  0.324786  0.875331  1
  Sc  Sc19  1  0.169700  0.675261  0.124550  1
  Ga  Ga20  1  0.032015  0.117330  0.749955  1
  Ga  Ga21  1  0.967894  0.882424  0.250114  1
  Ga  Ga22  1  0.468003  0.617338  0.250050  1
  Ga  Ga23  1  0.531980  0.382708  0.749949  1
  Ga  Ga24  1  0.284955  0.873064  0.749942  1
  Ga  Ga25  1  0.714773  0.126825  0.250195  1
  Ga  Ga26  1  0.215280  0.373227  0.250167  1
  Ga  Ga27  1  0.784934  0.626960  0.749974  1
  Ga  Ga28  1  0.159603  0.464884  0.539863  1
  Ga  Ga29  1  0.840409  0.535000  0.460222  1
  Ga  Ga30  1  0.340335  0.964965  0.460228  1
  Ga  Ga31  1  0.840310  0.535508  0.039702  1
  Ga  Ga32  1  0.659579  0.035084  0.539864  1
  Ga  Ga33  1  0.159680  0.465268  0.960035  1
  Ga  Ga34  1  0.659497  0.035047  0.960132  1
  Ga  Ga35  1  0.340868  0.964604  0.039725  1
