# generated using pymatgen
data_Hf2Zr2Co5Si2Ni
_symmetry_space_group_name_H-M   'P 1'
_cell_length_a   4.99220309
_cell_length_b   5.01207953
_cell_length_c   7.64929706
_cell_angle_alpha   89.99999968
_cell_angle_beta   90.01262331
_cell_angle_gamma   120.13177311
_symmetry_Int_Tables_number   1
_chemical_formula_structural   Hf2Zr2Co5Si2Ni
_chemical_formula_sum   'Hf2 Zr2 Co5 Si2 Ni1'
_cell_volume   165.53282997
_cell_formula_units_Z   1
loop_
 _symmetry_equiv_pos_site_id
 _symmetry_equiv_pos_as_xyz
  1  'x, y, z'
loop_
 _atom_site_type_symbol
 _atom_site_label
 _atom_site_symmetry_multiplicity
 _atom_site_fract_x
 _atom_site_fract_y
 _atom_site_fract_z
 _atom_site_occupancy
  Hf  Hf0  1  0.664112  0.332055  0.944473  1
  Hf  Hf1  1  0.328320  0.664160  0.059375  1
  Zr  Zr2  1  0.328897  0.664449  0.436296  1
  Zr  Zr3  1  0.665172  0.332586  0.559584  1
  Co  Co4  1  0.833707  0.169112  0.247059  1
  Co  Co5  1  0.833707  0.664597  0.247059  1
  Co  Co6  1  0.338922  0.169461  0.247342  1
  Co  Co7  1  0.169373  0.832082  0.753037  1
  Co  Co8  1  0.169373  0.337291  0.753037  1
  Si  Si9  1  0.001563  0.000782  0.498615  1
  Si  Si10  1  0.002061  0.001031  0.001286  1
  Ni  Ni11  1  0.664791  0.832395  0.752838  1
