# generated using pymatgen
data_Ho4Tc5Ir2Os
_symmetry_space_group_name_H-M   'P 1'
_cell_length_a   5.25287268
_cell_length_b   5.25287138
_cell_length_c   9.23191500
_cell_angle_alpha   90.00000000
_cell_angle_beta   90.00000000
_cell_angle_gamma   120.61918219
_symmetry_Int_Tables_number   1
_chemical_formula_structural   Ho4Tc5Ir2Os
_chemical_formula_sum   'Ho4 Tc5 Ir2 Os1'
_cell_volume   219.21608927
_cell_formula_units_Z   1
loop_
 _symmetry_equiv_pos_site_id
 _symmetry_equiv_pos_as_xyz
  1  'x, y, z'
loop_
 _atom_site_type_symbol
 _atom_site_label
 _atom_site_symmetry_multiplicity
 _atom_site_fract_x
 _atom_site_fract_y
 _atom_site_fract_z
 _atom_site_occupancy
  Ho  Ho0  1  0.333986  0.666014  0.433830  1
  Ho  Ho1  1  0.666546  0.333454  0.565011  1
  Ho  Ho2  1  0.666546  0.333454  0.934989  1
  Ho  Ho3  1  0.333986  0.666014  0.066170  1
  Tc  Tc4  1  0.829594  0.660440  0.250000  1
  Tc  Tc5  1  0.339560  0.170406  0.250000  1
  Tc  Tc6  1  0.168926  0.831074  0.750000  1
  Tc  Tc7  1  0.170649  0.340699  0.750000  1
  Tc  Tc8  1  0.659301  0.829351  0.750000  1
  Ir  Ir9  1  0.000953  0.999047  0.498929  1
  Ir  Ir10  1  0.000953  0.999047  0.001071  1
  Os  Os11  1  0.828998  0.171002  0.250000  1
