# generated using pymatgen
data_YbPr3Zn4In3Sn
_symmetry_space_group_name_H-M   'P 1'
_cell_length_a   4.74643600
_cell_length_b   4.74643500
_cell_length_c   15.23961400
_cell_angle_alpha   90.00000000
_cell_angle_beta   90.00000000
_cell_angle_gamma   120.00000696
_symmetry_Int_Tables_number   1
_chemical_formula_structural   YbPr3Zn4In3Sn
_chemical_formula_sum   'Yb1 Pr3 Zn4 In3 Sn1'
_cell_volume   297.33068778
_cell_formula_units_Z   1
loop_
 _symmetry_equiv_pos_site_id
 _symmetry_equiv_pos_as_xyz
  1  'x, y, z'
loop_
 _atom_site_type_symbol
 _atom_site_label
 _atom_site_symmetry_multiplicity
 _atom_site_fract_x
 _atom_site_fract_y
 _atom_site_fract_z
 _atom_site_occupancy
  Yb  Yb0  1  0.000000  0.000000  0.495526  1
  Pr  Pr1  1  0.000000  0.000000  0.000681  1
  Pr  Pr2  1  0.000000  0.000000  0.254165  1
  Pr  Pr3  1  0.000000  0.000000  0.748012  1
  Zn  Zn4  1  0.333333  0.666667  0.397574  1
  Zn  Zn5  1  0.666667  0.333333  0.656832  1
  Zn  Zn6  1  0.666667  0.333333  0.851483  1
  Zn  Zn7  1  0.333333  0.666667  0.101483  1
  In  In8  1  0.333333  0.666667  0.888805  1
  In  In9  1  0.666667  0.333333  0.138159  1
  In  In10  1  0.666667  0.333333  0.363680  1
  Sn  Sn11  1  0.333333  0.666667  0.603600  1
