# generated using pymatgen
data_Ti13Ga9Ir8
_symmetry_space_group_name_H-M   'P 1'
_cell_length_a   8.76283285
_cell_length_b   8.76283281
_cell_length_c   8.76283226
_cell_angle_alpha   59.74513113
_cell_angle_beta   59.74513213
_cell_angle_gamma   59.74514574
_symmetry_Int_Tables_number   1
_chemical_formula_structural   Ti13Ga9Ir8
_chemical_formula_sum   'Ti13 Ga9 Ir8'
_cell_volume   473.03985598
_cell_formula_units_Z   1
loop_
 _symmetry_equiv_pos_site_id
 _symmetry_equiv_pos_as_xyz
  1  'x, y, z'
loop_
 _atom_site_type_symbol
 _atom_site_label
 _atom_site_symmetry_multiplicity
 _atom_site_fract_x
 _atom_site_fract_y
 _atom_site_fract_z
 _atom_site_occupancy
  Ti  Ti0  1  0.209286  0.209286  0.790507  1
  Ti  Ti1  1  0.790507  0.209286  0.209286  1
  Ti  Ti2  1  0.209286  0.790507  0.209286  1
  Ti  Ti3  1  0.796274  0.796274  0.188677  1
  Ti  Ti4  1  0.188677  0.796274  0.796274  1
  Ti  Ti5  1  0.796274  0.188677  0.796274  1
  Ti  Ti6  1  0.376531  0.376531  0.376531  1
  Ti  Ti7  1  0.377212  0.871150  0.377212  1
  Ti  Ti8  1  0.871150  0.377212  0.377212  1
  Ti  Ti9  1  0.377212  0.377212  0.871150  1
  Ti  Ti10  1  0.839397  0.487642  0.839397  1
  Ti  Ti11  1  0.487642  0.839397  0.839397  1
  Ti  Ti12  1  0.839397  0.839397  0.487642  1
  Ga  Ga13  1  0.151996  0.151996  0.151996  1
  Ga  Ga14  1  0.154984  0.537933  0.154984  1
  Ga  Ga15  1  0.537933  0.154984  0.154984  1
  Ga  Ga16  1  0.154984  0.154984  0.537933  1
  Ga  Ga17  1  0.620786  0.620786  0.620786  1
  Ga  Ga18  1  0.616561  0.146489  0.616561  1
  Ga  Ga19  1  0.146489  0.616561  0.616561  1
  Ga  Ga20  1  0.616561  0.616561  0.146489  1
  Ga  Ga21  1  0.829214  0.829214  0.829214  1
  Ir  Ir22  1  0.004110  0.004110  0.496791  1
  Ir  Ir23  1  0.496791  0.004110  0.004110  1
  Ir  Ir24  1  0.004110  0.496791  0.004110  1
  Ir  Ir25  1  0.498824  0.498824  0.003789  1
  Ir  Ir26  1  0.003789  0.498824  0.498824  1
  Ir  Ir27  1  0.498824  0.003789  0.498824  1
  Ir  Ir28  1  0.502352  0.502352  0.502352  1
  Ir  Ir29  1  0.002849  0.002849  0.002849  1
