# generated using pymatgen
data_Tm3Lu5V2(B12Rh)2
_symmetry_space_group_name_H-M   'P 1'
_cell_length_a   3.55310900
_cell_length_b   9.08739295
_cell_length_c   11.47552809
_cell_angle_alpha   90.30387427
_cell_angle_beta   90.00000000
_cell_angle_gamma   90.00000000
_symmetry_Int_Tables_number   1
_chemical_formula_structural   Tm3Lu5V2(B12Rh)2
_chemical_formula_sum   'Tm3 Lu5 V2 B24 Rh2'
_cell_volume   370.52235085
_cell_formula_units_Z   1
loop_
 _symmetry_equiv_pos_site_id
 _symmetry_equiv_pos_as_xyz
  1  'x, y, z'
loop_
 _atom_site_type_symbol
 _atom_site_label
 _atom_site_symmetry_multiplicity
 _atom_site_fract_x
 _atom_site_fract_y
 _atom_site_fract_z
 _atom_site_occupancy
  Tm  Tm0  1  0.500000  0.317826  0.411656  1
  Tm  Tm1  1  0.500000  0.682143  0.588312  1
  Tm  Tm2  1  0.500000  0.174308  0.916922  1
  Lu  Lu3  1  0.500000  0.825792  0.083021  1
  Lu  Lu4  1  0.500000  0.441861  0.127275  1
  Lu  Lu5  1  0.500000  0.558189  0.872808  1
  Lu  Lu6  1  0.500000  0.054265  0.628777  1
  Lu  Lu7  1  0.500000  0.945757  0.371132  1
  V  V8  1  0.500000  0.139622  0.181695  1
  V  V9  1  0.500000  0.860164  0.818494  1
  B  B10  1  0.000000  0.104918  0.472187  1
  B  B11  1  0.000000  0.895079  0.527796  1
  B  B12  1  0.000000  0.395545  0.970760  1
  B  B13  1  0.000000  0.604697  0.029317  1
  B  B14  1  0.000000  0.131923  0.316787  1
  B  B15  1  0.000000  0.868074  0.683200  1
  B  B16  1  0.000000  0.368414  0.816265  1
  B  B17  1  0.000000  0.631798  0.183600  1
  B  B18  1  0.000000  0.052031  0.066513  1
  B  B19  1  0.000000  0.947668  0.933649  1
  B  B20  1  0.000000  0.446204  0.565854  1
  B  B21  1  0.000000  0.553789  0.434153  1
  B  B22  1  0.000000  0.481514  0.287799  1
  B  B23  1  0.000000  0.518483  0.712209  1
  B  B24  1  0.000000  0.020083  0.787387  1
  B  B25  1  0.000000  0.979654  0.212475  1
  B  B26  1  0.000000  0.249414  0.079847  1
  B  B27  1  0.000000  0.750636  0.920426  1
  B  B28  1  0.000000  0.249288  0.579320  1
  B  B29  1  0.000000  0.750723  0.420683  1
  B  B30  1  0.000000  0.295211  0.236102  1
  B  B31  1  0.000000  0.704795  0.763912  1
  B  B32  1  0.000000  0.207056  0.735823  1
  B  B33  1  0.000000  0.793011  0.263999  1
  Rh  Rh34  1  0.500000  0.361062  0.678833  1
  Rh  Rh35  1  0.500000  0.639003  0.321011  1
