# generated using pymatgen
data_Tb4Dy11Lu5Sn16
_symmetry_space_group_name_H-M   'P 1'
_cell_length_a   7.98978496
_cell_length_b   8.14181066
_cell_length_c   15.41738601
_cell_angle_alpha   90.02623355
_cell_angle_beta   89.95917854
_cell_angle_gamma   90.05974580
_symmetry_Int_Tables_number   1
_chemical_formula_structural   Tb4Dy11Lu5Sn16
_chemical_formula_sum   'Tb4 Dy11 Lu5 Sn16'
_cell_volume   1002.92035007
_cell_formula_units_Z   1
loop_
 _symmetry_equiv_pos_site_id
 _symmetry_equiv_pos_as_xyz
  1  'x, y, z'
loop_
 _atom_site_type_symbol
 _atom_site_label
 _atom_site_symmetry_multiplicity
 _atom_site_fract_x
 _atom_site_fract_y
 _atom_site_fract_z
 _atom_site_occupancy
  Tb  Tb0  1  0.481326  0.680384  0.095077  1
  Tb  Tb1  1  0.980917  0.820616  0.403353  1
  Tb  Tb2  1  0.519271  0.320826  0.597359  1
  Tb  Tb3  1  0.018925  0.178475  0.903091  1
  Dy  Dy4  1  0.865229  0.662450  0.623251  1
  Dy  Dy5  1  0.634448  0.162175  0.377508  1
  Dy  Dy6  1  0.135568  0.337546  0.121020  1
  Dy  Dy7  1  0.634410  0.162954  0.122779  1
  Dy  Dy8  1  0.134146  0.337304  0.377587  1
  Dy  Dy9  1  0.365935  0.837572  0.622963  1
  Dy  Dy10  1  0.866044  0.662192  0.878042  1
  Dy  Dy11  1  0.518922  0.320173  0.903480  1
  Dy  Dy12  1  0.019938  0.178960  0.597447  1
  Dy  Dy13  1  0.480855  0.679677  0.403649  1
  Dy  Dy14  1  0.980037  0.820405  0.096539  1
  Lu  Lu15  1  0.364519  0.838483  0.875974  1
  Lu  Lu16  1  0.197299  0.503641  0.750784  1
  Lu  Lu17  1  0.696302  0.996254  0.750499  1
  Lu  Lu18  1  0.803717  0.496556  0.250086  1
  Lu  Lu19  1  0.303406  0.003040  0.249459  1
  Sn  Sn20  1  0.295234  0.035163  0.040533  1
  Sn  Sn21  1  0.794145  0.463540  0.457679  1
  Sn  Sn22  1  0.706341  0.963619  0.542852  1
  Sn  Sn23  1  0.207875  0.539946  0.956539  1
  Sn  Sn24  1  0.700981  0.962391  0.957218  1
  Sn  Sn25  1  0.205543  0.536377  0.543060  1
  Sn  Sn26  1  0.294095  0.036346  0.457353  1
  Sn  Sn27  1  0.794218  0.463344  0.042780  1
  Sn  Sn28  1  0.561399  0.618941  0.751003  1
  Sn  Sn29  1  0.062732  0.881887  0.750963  1
  Sn  Sn30  1  0.437807  0.383014  0.250094  1
  Sn  Sn31  1  0.938332  0.117456  0.249359  1
  Sn  Sn32  1  0.328846  0.149124  0.750662  1
  Sn  Sn33  1  0.828409  0.350001  0.750435  1
  Sn  Sn34  1  0.671400  0.849802  0.249891  1
  Sn  Sn35  1  0.171430  0.649369  0.249629  1
