# generated using pymatgen
data_TbDy(InPt2)2
_symmetry_space_group_name_H-M   'P 1'
_cell_length_a   4.58803100
_cell_length_b   4.58803090
_cell_length_c   9.10416900
_cell_angle_alpha   90.00000000
_cell_angle_beta   90.00000000
_cell_angle_gamma   120.00000790
_symmetry_Int_Tables_number   1
_chemical_formula_structural   TbDy(InPt2)2
_chemical_formula_sum   'Tb1 Dy1 In2 Pt4'
_cell_volume   165.96770409
_cell_formula_units_Z   1
loop_
 _symmetry_equiv_pos_site_id
 _symmetry_equiv_pos_as_xyz
  1  'x, y, z'
loop_
 _atom_site_type_symbol
 _atom_site_label
 _atom_site_symmetry_multiplicity
 _atom_site_fract_x
 _atom_site_fract_y
 _atom_site_fract_z
 _atom_site_occupancy
  Tb  Tb0  1  0.666667  0.333333  0.750000  1
  Dy  Dy1  1  0.333333  0.666667  0.250000  1
  In  In2  1  0.000000  0.000000  0.499200  1
  In  In3  1  0.000000  0.000000  0.000800  1
  Pt  Pt4  1  0.333333  0.666667  0.908947  1
  Pt  Pt5  1  0.666667  0.333333  0.092496  1
  Pt  Pt6  1  0.666667  0.333333  0.407504  1
  Pt  Pt7  1  0.333333  0.666667  0.591053  1
