# generated using pymatgen
data_Yb3FeP6N13
_symmetry_space_group_name_H-M   'P 1'
_cell_length_a   7.12921949
_cell_length_b   7.22332176
_cell_length_c   7.22332300
_cell_angle_alpha   109.73361563
_cell_angle_beta   109.20753581
_cell_angle_gamma   109.20753977
_symmetry_Int_Tables_number   1
_chemical_formula_structural   Yb3FeP6N13
_chemical_formula_sum   'Yb3 Fe1 P6 N13'
_cell_volume   287.27445778
_cell_formula_units_Z   1
loop_
 _symmetry_equiv_pos_site_id
 _symmetry_equiv_pos_as_xyz
  1  'x, y, z'
loop_
 _atom_site_type_symbol
 _atom_site_label
 _atom_site_symmetry_multiplicity
 _atom_site_fract_x
 _atom_site_fract_y
 _atom_site_fract_z
 _atom_site_occupancy
  Yb  Yb0  1  0.994391  0.000000  0.700843  1
  Yb  Yb1  1  0.994391  0.700843  0.000000  1
  Yb  Yb2  1  0.293550  0.299157  0.299157  1
  Fe  Fe3  1  0.682458  0.000000  0.000000  1
  P  P4  1  0.257668  0.750676  0.503248  1
  P  P5  1  0.754420  0.247428  0.496752  1
  P  P6  1  0.754420  0.496752  0.247428  1
  P  P7  1  0.257668  0.503248  0.750676  1
  P  P8  1  0.506992  0.752572  0.249324  1
  P  P9  1  0.506992  0.249324  0.752572  1
  N  N10  1  0.937323  0.000000  0.000000  1
  N  N11  1  0.707649  0.267673  0.267673  1
  N  N12  1  0.285667  0.716478  0.282101  1
  N  N13  1  0.299259  0.571247  0.571247  1
  N  N14  1  0.569189  0.565624  0.283522  1
  N  N15  1  0.439976  0.732327  0.000000  1
  N  N16  1  0.003565  0.717899  0.434376  1
  N  N17  1  0.569189  0.283522  0.565624  1
  N  N18  1  0.728013  0.000000  0.428753  1
  N  N19  1  0.439976  0.000000  0.732327  1
  N  N20  1  0.728013  0.428753  0.000000  1
  N  N21  1  0.285667  0.282101  0.716478  1
  N  N22  1  0.003565  0.434376  0.717899  1
