# generated using pymatgen
data_SmDy7(AlRu)8
_symmetry_space_group_name_H-M   'P 1'
_cell_length_a   4.08640800
_cell_length_b   7.01950713
_cell_length_c   15.98226480
_cell_angle_alpha   89.99015584
_cell_angle_beta   90.00000000
_cell_angle_gamma   90.00000000
_symmetry_Int_Tables_number   1
_chemical_formula_structural   SmDy7(AlRu)8
_chemical_formula_sum   'Sm1 Dy7 Al8 Ru8'
_cell_volume   458.44438802
_cell_formula_units_Z   1
loop_
 _symmetry_equiv_pos_site_id
 _symmetry_equiv_pos_as_xyz
  1  'x, y, z'
loop_
 _atom_site_type_symbol
 _atom_site_label
 _atom_site_symmetry_multiplicity
 _atom_site_fract_x
 _atom_site_fract_y
 _atom_site_fract_z
 _atom_site_occupancy
  Sm  Sm0  1  0.250000  0.535626  0.720071  1
  Dy  Dy1  1  0.750000  0.964143  0.219628  1
  Dy  Dy2  1  0.250000  0.160774  0.561985  1
  Dy  Dy3  1  0.750000  0.843026  0.436207  1
  Dy  Dy4  1  0.750000  0.463567  0.280788  1
  Dy  Dy5  1  0.750000  0.339322  0.063466  1
  Dy  Dy6  1  0.250000  0.656649  0.938113  1
  Dy  Dy7  1  0.250000  0.035574  0.781288  1
  Al  Al8  1  0.750000  0.503042  0.563807  1
  Al  Al9  1  0.750000  0.361541  0.850622  1
  Al  Al10  1  0.750000  0.998163  0.935409  1
  Al  Al11  1  0.750000  0.868556  0.649872  1
  Al  Al12  1  0.250000  0.501191  0.434223  1
  Al  Al13  1  0.250000  0.997692  0.066032  1
  Al  Al14  1  0.250000  0.633857  0.151258  1
  Al  Al15  1  0.250000  0.135888  0.348794  1
  Ru  Ru16  1  0.750000  0.749561  0.812888  1
  Ru  Ru17  1  0.250000  0.233091  0.937234  1
  Ru  Ru18  1  0.750000  0.266306  0.436288  1
  Ru  Ru19  1  0.250000  0.753608  0.311903  1
  Ru  Ru20  1  0.750000  0.763399  0.063968  1
  Ru  Ru21  1  0.750000  0.244348  0.686590  1
  Ru  Ru22  1  0.250000  0.252777  0.187357  1
  Ru  Ru23  1  0.250000  0.738300  0.562208  1
