# generated using pymatgen
data_Ti10Sn5BSb
_symmetry_space_group_name_H-M   'P 1'
_cell_length_a   8.07705298
_cell_length_b   8.07705226
_cell_length_c   5.47327932
_cell_angle_alpha   90.07203384
_cell_angle_beta   90.07203438
_cell_angle_gamma   119.96465183
_symmetry_Int_Tables_number   1
_chemical_formula_structural   Ti10Sn5BSb
_chemical_formula_sum   'Ti10 Sn5 B1 Sb1'
_cell_volume   309.34085284
_cell_formula_units_Z   1
loop_
 _symmetry_equiv_pos_site_id
 _symmetry_equiv_pos_as_xyz
  1  'x, y, z'
loop_
 _atom_site_type_symbol
 _atom_site_label
 _atom_site_symmetry_multiplicity
 _atom_site_fract_x
 _atom_site_fract_y
 _atom_site_fract_z
 _atom_site_occupancy
  Ti  Ti0  1  0.665408  0.333597  0.499535  1
  Ti  Ti1  1  0.333597  0.665408  0.499535  1
  Ti  Ti2  1  0.333531  0.665575  0.000137  1
  Ti  Ti3  1  0.665575  0.333531  0.000137  1
  Ti  Ti4  1  0.768070  0.768070  0.262890  1
  Ti  Ti5  1  0.231746  0.000447  0.261972  1
  Ti  Ti6  1  0.000447  0.231746  0.261972  1
  Ti  Ti7  1  0.233427  0.233427  0.736642  1
  Ti  Ti8  1  0.768357  0.000037  0.738348  1
  Ti  Ti9  1  0.000037  0.768357  0.738348  1
  Sn  Sn10  1  0.603289  0.000178  0.248105  1
  Sn  Sn11  1  0.000178  0.603289  0.248105  1
  Sn  Sn12  1  0.605253  0.605253  0.752086  1
  Sn  Sn13  1  0.396662  0.999256  0.752180  1
  Sn  Sn14  1  0.999256  0.396662  0.752180  1
  B  B15  1  0.999708  0.999708  0.500090  1
  Sb  Sb16  1  0.395459  0.395459  0.247739  1
