# generated using pymatgen
data_SiMo6Ir(RhN)2
_symmetry_space_group_name_H-M   'P 1'
_cell_length_a   6.82788100
_cell_length_b   6.81846651
_cell_length_c   6.82733141
_cell_angle_alpha   89.17738854
_cell_angle_beta   90.00000000
_cell_angle_gamma   90.00000000
_symmetry_Int_Tables_number   1
_chemical_formula_structural   SiMo6Ir(RhN)2
_chemical_formula_sum   'Si2 Mo12 Ir2 Rh4 N4'
_cell_volume   317.81828315
_cell_formula_units_Z   2
loop_
 _symmetry_equiv_pos_site_id
 _symmetry_equiv_pos_as_xyz
  1  'x, y, z'
loop_
 _atom_site_type_symbol
 _atom_site_label
 _atom_site_symmetry_multiplicity
 _atom_site_fract_x
 _atom_site_fract_y
 _atom_site_fract_z
 _atom_site_occupancy
  Si  Si0  1  0.682455  0.174532  0.932466  1
  Si  Si1  1  0.182455  0.825468  0.067534  1
  Mo  Mo2  1  0.621578  0.045749  0.546505  1
  Mo  Mo3  1  0.121578  0.954251  0.453495  1
  Mo  Mo4  1  0.867970  0.537857  0.944756  1
  Mo  Mo5  1  0.367970  0.462143  0.055244  1
  Mo  Mo6  1  0.201952  0.624050  0.698651  1
  Mo  Mo7  1  0.299797  0.122754  0.786391  1
  Mo  Mo8  1  0.799797  0.877246  0.213609  1
  Mo  Mo9  1  0.701952  0.375950  0.301349  1
  Mo  Mo10  1  0.047253  0.209453  0.130687  1
  Mo  Mo11  1  0.962085  0.305050  0.622486  1
  Mo  Mo12  1  0.547253  0.790547  0.869313  1
  Mo  Mo13  1  0.462085  0.694950  0.377514  1
  Ir  Ir14  1  0.813260  0.686589  0.568141  1
  Ir  Ir15  1  0.313260  0.313411  0.431859  1
  Rh  Rh16  1  0.063592  0.576488  0.295045  1
  Rh  Rh17  1  0.435257  0.060211  0.168290  1
  Rh  Rh18  1  0.563592  0.423512  0.704955  1
  Rh  Rh19  1  0.935257  0.939789  0.831710  1
  N  N20  1  0.375323  0.872062  0.618160  1
  N  N21  1  0.875323  0.127938  0.381840  1
  N  N22  1  0.129479  0.374581  0.875396  1
  N  N23  1  0.629479  0.625419  0.124604  1
