# generated using pymatgen
data_Na3SiSe3
_symmetry_space_group_name_H-M   'P 1'
_cell_length_a   11.86382500
_cell_length_b   8.42494009
_cell_length_c   8.31396822
_cell_angle_alpha   59.78591005
_cell_angle_beta   90.00000000
_cell_angle_gamma   90.00000000
_symmetry_Int_Tables_number   1
_chemical_formula_structural   Na3SiSe3
_chemical_formula_sum   'Na12 Si4 Se12'
_cell_volume   718.10770683
_cell_formula_units_Z   4
loop_
 _symmetry_equiv_pos_site_id
 _symmetry_equiv_pos_as_xyz
  1  'x, y, z'
loop_
 _atom_site_type_symbol
 _atom_site_label
 _atom_site_symmetry_multiplicity
 _atom_site_fract_x
 _atom_site_fract_y
 _atom_site_fract_z
 _atom_site_occupancy
  Na  Na0  1  0.228610  0.030543  0.720855  1
  Na  Na1  1  0.728610  0.969457  0.779145  1
  Na  Na2  1  0.771390  0.969457  0.279145  1
  Na  Na3  1  0.271390  0.030543  0.220855  1
  Na  Na4  1  0.557786  0.274231  0.022271  1
  Na  Na5  1  0.057786  0.725769  0.477729  1
  Na  Na6  1  0.442214  0.725769  0.977729  1
  Na  Na7  1  0.942214  0.274231  0.522271  1
  Na  Na8  1  0.154335  0.506001  0.979769  1
  Na  Na9  1  0.654335  0.493999  0.520231  1
  Na  Na10  1  0.845665  0.493999  0.020231  1
  Na  Na11  1  0.345665  0.506001  0.479769  1
  Si  Si12  1  0.008960  0.846642  0.033537  1
  Si  Si13  1  0.508960  0.153358  0.466463  1
  Si  Si14  1  0.991040  0.153358  0.966463  1
  Si  Si15  1  0.491040  0.846642  0.533537  1
  Se  Se16  1  0.621083  0.666401  0.757268  1
  Se  Se17  1  0.121083  0.333599  0.742732  1
  Se  Se18  1  0.378917  0.333599  0.242732  1
  Se  Se19  1  0.878917  0.666401  0.257268  1
  Se  Se20  1  0.524504  0.844529  0.262627  1
  Se  Se21  1  0.024504  0.155471  0.237373  1
  Se  Se22  1  0.475496  0.155471  0.737373  1
  Se  Se23  1  0.975496  0.844529  0.762627  1
  Se  Se24  1  0.309494  0.750330  0.635894  1
  Se  Se25  1  0.809494  0.249670  0.864106  1
  Se  Se26  1  0.690506  0.249670  0.364106  1
  Se  Se27  1  0.190506  0.750330  0.135894  1
