# generated using pymatgen
data_Nd2Th6TiTe17
_symmetry_space_group_name_H-M   'P 1'
_cell_length_a   9.08513706
_cell_length_b   9.08513772
_cell_length_c   12.03362600
_cell_angle_alpha   80.70200644
_cell_angle_beta   80.70201215
_cell_angle_gamma   65.32745807
_symmetry_Int_Tables_number   1
_chemical_formula_structural   Nd2Th6TiTe17
_chemical_formula_sum   'Nd2 Th6 Ti1 Te17'
_cell_volume   885.79793129
_cell_formula_units_Z   1
loop_
 _symmetry_equiv_pos_site_id
 _symmetry_equiv_pos_as_xyz
  1  'x, y, z'
loop_
 _atom_site_type_symbol
 _atom_site_label
 _atom_site_symmetry_multiplicity
 _atom_site_fract_x
 _atom_site_fract_y
 _atom_site_fract_z
 _atom_site_occupancy
  Nd  Nd0  1  0.816376  0.304909  0.296984  1
  Nd  Nd1  1  0.304909  0.816376  0.296984  1
  Th  Th2  1  0.183008  0.697493  0.700212  1
  Th  Th3  1  0.697493  0.183008  0.700212  1
  Th  Th4  1  0.201095  0.201095  0.539211  1
  Th  Th5  1  0.796095  0.796095  0.459977  1
  Th  Th6  1  0.681788  0.681788  0.986510  1
  Th  Th7  1  0.319362  0.319362  0.016576  1
  Ti  Ti8  1  0.004455  0.004455  0.008105  1
  Te  Te9  1  0.821530  0.432600  0.537666  1
  Te  Te10  1  0.432600  0.821530  0.537666  1
  Te  Te11  1  0.176365  0.565933  0.467620  1
  Te  Te12  1  0.565933  0.176365  0.467620  1
  Te  Te13  1  0.946608  0.324794  0.020670  1
  Te  Te14  1  0.324794  0.946608  0.020670  1
  Te  Te15  1  0.055456  0.679456  0.973036  1
  Te  Te16  1  0.679456  0.055456  0.973036  1
  Te  Te17  1  0.212190  0.212190  0.273591  1
  Te  Te18  1  0.787425  0.787425  0.726544  1
  Te  Te19  1  0.056845  0.056845  0.775496  1
  Te  Te20  1  0.937340  0.937340  0.226972  1
  Te  Te21  1  0.302504  0.302504  0.752543  1
  Te  Te22  1  0.698864  0.698864  0.245593  1
  Te  Te23  1  0.519592  0.519592  0.832211  1
  Te  Te24  1  0.480535  0.480535  0.159730  1
  Te  Te25  1  0.997384  0.997384  0.504565  1
