# generated using pymatgen
data_Sr2Mn(PtO3)6
_symmetry_space_group_name_H-M   'P 1'
_cell_length_a   6.75737191
_cell_length_b   7.12144128
_cell_length_c   7.53186315
_cell_angle_alpha   92.39361636
_cell_angle_beta   96.43052985
_cell_angle_gamma   114.62211815
_symmetry_Int_Tables_number   1
_chemical_formula_structural   Sr2Mn(PtO3)6
_chemical_formula_sum   'Sr2 Mn1 Pt6 O18'
_cell_volume   325.84891619
_cell_formula_units_Z   1
loop_
 _symmetry_equiv_pos_site_id
 _symmetry_equiv_pos_as_xyz
  1  'x, y, z'
loop_
 _atom_site_type_symbol
 _atom_site_label
 _atom_site_symmetry_multiplicity
 _atom_site_fract_x
 _atom_site_fract_y
 _atom_site_fract_z
 _atom_site_occupancy
  Sr  Sr0  1  0.680744  0.306863  0.382215  1
  Sr  Sr1  1  0.319149  0.691549  0.614717  1
  Mn  Mn2  1  0.600441  0.717536  0.118119  1
  Pt  Pt3  1  0.192346  0.873563  0.182912  1
  Pt  Pt4  1  0.181994  0.383661  0.198967  1
  Pt  Pt5  1  0.998365  0.998035  0.498980  1
  Pt  Pt6  1  0.821243  0.620984  0.802383  1
  Pt  Pt7  1  0.804846  0.122657  0.818265  1
  Pt  Pt8  1  0.399448  0.288061  0.886082  1
  O  O9  1  0.691055  0.493942  0.024408  1
  O  O10  1  0.880586  0.225124  0.075136  1
  O  O11  1  0.309850  0.179454  0.126179  1
  O  O12  1  0.501872  0.919323  0.173236  1
  O  O13  1  0.900536  0.881731  0.236985  1
  O  O14  1  0.090770  0.600436  0.282812  1
  O  O15  1  0.492706  0.566338  0.314091  1
  O  O16  1  0.077529  0.283655  0.430291  1
  O  O17  1  0.283478  0.002091  0.437954  1
  O  O18  1  0.714755  0.996248  0.562054  1
  O  O19  1  0.922102  0.714605  0.569031  1
  O  O20  1  0.513695  0.443878  0.677226  1
  O  O21  1  0.907131  0.398210  0.718399  1
  O  O22  1  0.089995  0.103961  0.764009  1
  O  O23  1  0.493779  0.072334  0.816289  1
  O  O24  1  0.694609  0.822181  0.883917  1
  O  O25  1  0.120744  0.776615  0.926489  1
  O  O26  1  0.316231  0.516962  0.978854  1
