# generated using pymatgen
data_AcLu5Np3O18
_symmetry_space_group_name_H-M   'P 1'
_cell_length_a   9.41860101
_cell_length_b   9.42816086
_cell_length_c   5.13862100
_cell_angle_alpha   90.00000000
_cell_angle_beta   90.00279222
_cell_angle_gamma   120.03358702
_symmetry_Int_Tables_number   1
_chemical_formula_structural   AcLu5Np3O18
_chemical_formula_sum   'Ac1 Lu5 Np3 O18'
_cell_volume   395.04222414
_cell_formula_units_Z   1
loop_
 _symmetry_equiv_pos_site_id
 _symmetry_equiv_pos_as_xyz
  1  'x, y, z'
loop_
 _atom_site_type_symbol
 _atom_site_label
 _atom_site_symmetry_multiplicity
 _atom_site_fract_x
 _atom_site_fract_y
 _atom_site_fract_z
 _atom_site_occupancy
  Ac  Ac0  1  0.000000  0.620138  0.000000  1
  Lu  Lu1  1  0.000000  0.288552  0.500000  1
  Lu  Lu2  1  0.369179  0.370167  0.002211  1
  Lu  Lu3  1  0.292949  0.001330  0.501676  1
  Lu  Lu4  1  0.707051  0.708381  0.498324  1
  Lu  Lu5  1  0.630821  0.000987  0.997789  1
  Np  Np6  1  0.342175  0.667664  0.498435  1
  Np  Np7  1  0.000000  0.007720  0.000000  1
  Np  Np8  1  0.657825  0.325488  0.501565  1
  O  O9  1  0.091101  0.892172  0.773237  1
  O  O10  1  0.232344  0.776650  0.298638  1
  O  O11  1  0.131488  0.528373  0.699128  1
  O  O12  1  0.417257  0.876686  0.734720  1
  O  O13  1  0.232394  0.453730  0.264523  1
  O  O14  1  0.123831  0.219036  0.784837  1
  O  O15  1  0.215594  0.125700  0.219541  1
  O  O16  1  0.553117  0.784609  0.278073  1
  O  O17  1  0.463678  0.578233  0.718386  1
  O  O18  1  0.784406  0.910107  0.780459  1
  O  O19  1  0.446883  0.231492  0.721927  1
  O  O20  1  0.582743  0.459429  0.265280  1
  O  O21  1  0.536322  0.114555  0.281614  1
  O  O22  1  0.767656  0.544307  0.701362  1
  O  O23  1  0.908899  0.801070  0.226763  1
  O  O24  1  0.767606  0.221336  0.735477  1
  O  O25  1  0.868512  0.396885  0.300872  1
  O  O26  1  0.876169  0.095205  0.215163  1
