# generated using pymatgen
data_TaTi3Nb3As4
_symmetry_space_group_name_H-M   'P 1'
_cell_length_a   3.53355700
_cell_length_b   7.83825175
_cell_length_c   14.13583135
_cell_angle_alpha   103.95856777
_cell_angle_beta   90.00000000
_cell_angle_gamma   103.02667873
_symmetry_Int_Tables_number   1
_chemical_formula_structural   TaTi3Nb3As4
_chemical_formula_sum   'Ta2 Ti6 Nb6 As8'
_cell_volume   369.56672783
_cell_formula_units_Z   2
loop_
 _symmetry_equiv_pos_site_id
 _symmetry_equiv_pos_as_xyz
  1  'x, y, z'
loop_
 _atom_site_type_symbol
 _atom_site_label
 _atom_site_symmetry_multiplicity
 _atom_site_fract_x
 _atom_site_fract_y
 _atom_site_fract_z
 _atom_site_occupancy
  Ta  Ta0  1  0.000000  0.000000  0.000000  1
  Ta  Ta1  1  0.500000  0.000000  0.500000  1
  Ti  Ti2  1  0.432102  0.864205  0.828396  1
  Ti  Ti3  1  0.567898  0.135795  0.171604  1
  Ti  Ti4  1  0.198070  0.396141  0.308279  1
  Ti  Ti5  1  0.801930  0.603859  0.691721  1
  Ti  Ti6  1  0.211828  0.423657  0.797633  1
  Ti  Ti7  1  0.788172  0.576343  0.202367  1
  Nb  Nb8  1  0.335269  0.670538  0.029323  1
  Nb  Nb9  1  0.664731  0.329462  0.970677  1
  Nb  Nb10  1  0.001122  0.002243  0.660200  1
  Nb  Nb11  1  0.998878  0.997757  0.339800  1
  Nb  Nb12  1  0.176618  0.353236  0.545404  1
  Nb  Nb13  1  0.823382  0.646764  0.454596  1
  As  As14  1  0.174500  0.348999  0.114456  1
  As  As15  1  0.825500  0.651001  0.885544  1
  As  As16  1  0.368743  0.737487  0.604718  1
  As  As17  1  0.631257  0.262513  0.395282  1
  As  As18  1  0.368705  0.737410  0.331979  1
  As  As19  1  0.631295  0.262590  0.668021  1
  As  As20  1  0.064438  0.128878  0.846527  1
  As  As21  1  0.935562  0.871122  0.153473  1
