# generated using pymatgen
data_NaTb17(DyPb8)2
_symmetry_space_group_name_H-M   'P 1'
_cell_length_a   8.23369703
_cell_length_b   15.69252902
_cell_length_c   8.30403900
_cell_angle_alpha   89.99757199
_cell_angle_beta   90.00495459
_cell_angle_gamma   90.00098602
_symmetry_Int_Tables_number   1
_chemical_formula_structural   NaTb17(DyPb8)2
_chemical_formula_sum   'Na1 Tb17 Dy2 Pb16'
_cell_volume   1072.94435949
_cell_formula_units_Z   1
loop_
 _symmetry_equiv_pos_site_id
 _symmetry_equiv_pos_as_xyz
  1  'x, y, z'
loop_
 _atom_site_type_symbol
 _atom_site_label
 _atom_site_symmetry_multiplicity
 _atom_site_fract_x
 _atom_site_fract_y
 _atom_site_fract_z
 _atom_site_occupancy
  Na  Na0  1  0.708258  0.250039  0.997316  1
  Tb  Tb1  1  0.381886  0.121093  0.842236  1
  Tb  Tb2  1  0.876623  0.379632  0.661205  1
  Tb  Tb3  1  0.381998  0.378666  0.842088  1
  Tb  Tb4  1  0.876647  0.120519  0.661262  1
  Tb  Tb5  1  0.623390  0.878730  0.159988  1
  Tb  Tb6  1  0.123125  0.620413  0.341745  1
  Tb  Tb7  1  0.466105  0.599679  0.676926  1
  Tb  Tb8  1  0.965801  0.900447  0.823443  1
  Tb  Tb9  1  0.533452  0.099649  0.319399  1
  Tb  Tb10  1  0.030802  0.400789  0.176242  1
  Tb  Tb11  1  0.533289  0.400517  0.319502  1
  Tb  Tb12  1  0.030653  0.098986  0.176322  1
  Tb  Tb13  1  0.466042  0.900272  0.676999  1
  Tb  Tb14  1  0.965548  0.599806  0.823880  1
  Tb  Tb15  1  0.791880  0.750029  0.496544  1
  Tb  Tb16  1  0.291544  0.750085  0.003428  1
  Tb  Tb17  1  0.207718  0.249847  0.504158  1
  Dy  Dy18  1  0.623435  0.621514  0.159787  1
  Dy  Dy19  1  0.123163  0.879383  0.341929  1
  Pb  Pb20  1  0.717116  0.459860  0.965008  1
  Pb  Pb21  1  0.217643  0.042677  0.532513  1
  Pb  Pb22  1  0.283511  0.957832  0.033649  1
  Pb  Pb23  1  0.782619  0.542408  0.466169  1
  Pb  Pb24  1  0.284460  0.542171  0.033092  1
  Pb  Pb25  1  0.783323  0.957568  0.466853  1
  Pb  Pb26  1  0.717270  0.040473  0.964863  1
  Pb  Pb27  1  0.217858  0.456900  0.532798  1
  Pb  Pb28  1  0.428439  0.749953  0.375634  1
  Pb  Pb29  1  0.929738  0.750094  0.124288  1
  Pb  Pb30  1  0.574172  0.249935  0.618306  1
  Pb  Pb31  1  0.071196  0.249966  0.880829  1
  Pb  Pb32  1  0.653813  0.749882  0.848630  1
  Pb  Pb33  1  0.153717  0.750107  0.652050  1
  Pb  Pb34  1  0.340680  0.250058  0.149360  1
  Pb  Pb35  1  0.843081  0.250020  0.351555  1
