# generated using pymatgen
data_Ac7GdS12
_symmetry_space_group_name_H-M   'P 1'
_cell_length_a   7.77136885
_cell_length_b   4.24175800
_cell_length_c   16.16575800
_cell_angle_alpha   90.00000000
_cell_angle_beta   90.03957652
_cell_angle_gamma   90.00000000
_symmetry_Int_Tables_number   1
_chemical_formula_structural   Ac7GdS12
_chemical_formula_sum   'Ac7 Gd1 S12'
_cell_volume   532.89221979
_cell_formula_units_Z   1
loop_
 _symmetry_equiv_pos_site_id
 _symmetry_equiv_pos_as_xyz
  1  'x, y, z'
loop_
 _atom_site_type_symbol
 _atom_site_label
 _atom_site_symmetry_multiplicity
 _atom_site_fract_x
 _atom_site_fract_y
 _atom_site_fract_z
 _atom_site_occupancy
  Ac  Ac0  1  0.727887  0.500000  0.042672  1
  Ac  Ac1  1  0.148006  0.000000  0.197073  1
  Ac  Ac2  1  0.645688  0.000000  0.294799  1
  Ac  Ac3  1  0.234157  0.500000  0.455092  1
  Ac  Ac4  1  0.765626  0.000000  0.545254  1
  Ac  Ac5  1  0.356149  0.500000  0.707118  1
  Ac  Ac6  1  0.859792  0.500000  0.798539  1
  Gd  Gd7  1  0.262937  0.000000  0.955112  1
  S  S8  1  0.134924  0.500000  0.057232  1
  S  S9  1  0.500855  0.000000  0.106486  1
  S  S10  1  0.857737  0.500000  0.216886  1
  S  S11  1  0.354716  0.500000  0.278849  1
  S  S12  1  0.006489  0.000000  0.389265  1
  S  S13  1  0.628040  0.500000  0.433040  1
  S  S14  1  0.372354  0.000000  0.567901  1
  S  S15  1  0.993409  0.500000  0.612985  1
  S  S16  1  0.646501  0.000000  0.722415  1
  S  S17  1  0.152184  0.000000  0.788129  1
  S  S18  1  0.472732  0.500000  0.896065  1
  S  S19  1  0.879822  0.000000  0.935088  1
