# generated using pymatgen
data_Ba8HoEr3(CoO5)4
_symmetry_space_group_name_H-M   'P 1'
_cell_length_a   6.14039200
_cell_length_b   7.93643056
_cell_length_c   12.45195601
_cell_angle_alpha   91.63423473
_cell_angle_beta   90.00175132
_cell_angle_gamma   89.99752791
_symmetry_Int_Tables_number   1
_chemical_formula_structural   Ba8HoEr3(CoO5)4
_chemical_formula_sum   'Ba8 Ho1 Er3 Co4 O20'
_cell_volume   606.57179407
_cell_formula_units_Z   1
loop_
 _symmetry_equiv_pos_site_id
 _symmetry_equiv_pos_as_xyz
  1  'x, y, z'
loop_
 _atom_site_type_symbol
 _atom_site_label
 _atom_site_symmetry_multiplicity
 _atom_site_fract_x
 _atom_site_fract_y
 _atom_site_fract_z
 _atom_site_occupancy
  Ba  Ba0  1  0.758160  0.492194  0.360498  1
  Ba  Ba1  1  0.741878  0.992039  0.860639  1
  Ba  Ba2  1  0.241863  0.508070  0.639406  1
  Ba  Ba3  1  0.258141  0.007849  0.139468  1
  Ba  Ba4  1  0.753348  0.992501  0.384209  1
  Ba  Ba5  1  0.746697  0.492672  0.884383  1
  Ba  Ba6  1  0.246662  0.007227  0.615679  1
  Ba  Ba7  1  0.253332  0.507404  0.115757  1
  Ho  Ho8  1  0.748002  0.263463  0.629313  1
  Er  Er9  1  0.752034  0.763191  0.129529  1
  Er  Er10  1  0.252007  0.736816  0.370468  1
  Er  Er11  1  0.247952  0.236742  0.870645  1
  Co  Co12  1  0.741407  0.745971  0.592312  1
  Co  Co13  1  0.758631  0.245964  0.092411  1
  Co  Co14  1  0.258590  0.253936  0.407303  1
  Co  Co15  1  0.241407  0.754003  0.907624  1
  O  O16  1  0.754614  0.972439  0.632810  1
  O  O17  1  0.745473  0.472982  0.132747  1
  O  O18  1  0.245417  0.026905  0.367269  1
  O  O19  1  0.254546  0.527092  0.867252  1
  O  O20  1  0.738478  0.054407  0.170969  1
  O  O21  1  0.761595  0.555001  0.671189  1
  O  O22  1  0.261539  0.945529  0.829033  1
  O  O23  1  0.238479  0.445738  0.329014  1
  O  O24  1  0.538752  0.746612  0.269063  1
  O  O25  1  0.961646  0.246510  0.769530  1
  O  O26  1  0.460284  0.253372  0.731159  1
  O  O27  1  0.038671  0.753401  0.230991  1
  O  O28  1  0.527504  0.229188  0.988347  1
  O  O29  1  0.972665  0.729160  0.488278  1
  O  O30  1  0.472655  0.770810  0.011737  1
  O  O31  1  0.028198  0.270839  0.511339  1
  O  O32  1  0.029936  0.233387  0.017514  1
  O  O33  1  0.469921  0.733336  0.517419  1
  O  O34  1  0.969973  0.766616  0.982617  1
  O  O35  1  0.529546  0.266635  0.482078  1
