# generated using pymatgen
data_Nb12Al9Rh3C4
_symmetry_space_group_name_H-M   'P 1'
_cell_length_a   8.36294181
_cell_length_b   8.37074243
_cell_length_c   8.36294100
_cell_angle_alpha   60.03082116
_cell_angle_beta   59.99999924
_cell_angle_gamma   60.03082369
_symmetry_Int_Tables_number   1
_chemical_formula_structural   Nb12Al9Rh3C4
_chemical_formula_sum   'Nb12 Al9 Rh3 C4'
_cell_volume   414.16105505
_cell_formula_units_Z   1
loop_
 _symmetry_equiv_pos_site_id
 _symmetry_equiv_pos_as_xyz
  1  'x, y, z'
loop_
 _atom_site_type_symbol
 _atom_site_label
 _atom_site_symmetry_multiplicity
 _atom_site_fract_x
 _atom_site_fract_y
 _atom_site_fract_z
 _atom_site_occupancy
  Nb  Nb0  1  0.815437  0.816330  0.184117  1
  Nb  Nb1  1  0.189166  0.184112  0.813361  1
  Nb  Nb2  1  0.813361  0.184112  0.813361  1
  Nb  Nb3  1  0.184117  0.816330  0.184117  1
  Nb  Nb4  1  0.184117  0.816330  0.815437  1
  Nb  Nb5  1  0.813361  0.184112  0.189166  1
  Nb  Nb6  1  0.434563  0.433670  0.065883  1
  Nb  Nb7  1  0.060834  0.065888  0.436639  1
  Nb  Nb8  1  0.436639  0.065888  0.436639  1
  Nb  Nb9  1  0.065883  0.433670  0.065883  1
  Nb  Nb10  1  0.065883  0.433670  0.434563  1
  Nb  Nb11  1  0.436639  0.065888  0.060834  1
  Al  Al12  1  0.625000  0.125000  0.625000  1
  Al  Al13  1  0.751834  0.426940  0.410614  1
  Al  Al14  1  0.414914  0.755261  0.414914  1
  Al  Al15  1  0.410614  0.426940  0.751834  1
  Al  Al16  1  0.410614  0.426940  0.410614  1
  Al  Al17  1  0.498166  0.823060  0.839386  1
  Al  Al18  1  0.835086  0.494739  0.835086  1
  Al  Al19  1  0.839386  0.823060  0.498166  1
  Al  Al20  1  0.839386  0.823060  0.839386  1
  Rh  Rh21  1  0.125000  0.625000  0.625000  1
  Rh  Rh22  1  0.625000  0.625000  0.125000  1
  Rh  Rh23  1  0.625000  0.625000  0.625000  1
  C  C24  1  0.625000  0.125000  0.125000  1
  C  C25  1  0.125000  0.625000  0.125000  1
  C  C26  1  0.125000  0.125000  0.625000  1
  C  C27  1  0.125000  0.125000  0.125000  1
