# generated using pymatgen
data_YTm2Fe2Co7P6
_symmetry_space_group_name_H-M   'P 1'
_cell_length_a   3.68858500
_cell_length_b   10.53981600
_cell_length_c   12.08286300
_cell_angle_alpha   90.00000000
_cell_angle_beta   90.00000000
_cell_angle_gamma   90.00000000
_symmetry_Int_Tables_number   1
_chemical_formula_structural   YTm2Fe2Co7P6
_chemical_formula_sum   'Y2 Tm4 Fe4 Co14 P12'
_cell_volume   469.74555185
_cell_formula_units_Z   2
loop_
 _symmetry_equiv_pos_site_id
 _symmetry_equiv_pos_as_xyz
  1  'x, y, z'
loop_
 _atom_site_type_symbol
 _atom_site_label
 _atom_site_symmetry_multiplicity
 _atom_site_fract_x
 _atom_site_fract_y
 _atom_site_fract_z
 _atom_site_occupancy
  Y  Y0  1  0.000000  0.500000  0.522868  1
  Y  Y1  1  0.500000  0.000000  0.477132  1
  Tm  Tm2  1  0.500000  0.819572  0.203876  1
  Tm  Tm3  1  0.500000  0.180428  0.203876  1
  Tm  Tm4  1  0.000000  0.680428  0.796124  1
  Tm  Tm5  1  0.000000  0.319572  0.796124  1
  Fe  Fe6  1  0.500000  0.500000  0.155711  1
  Fe  Fe7  1  0.000000  0.000000  0.844289  1
  Fe  Fe8  1  0.000000  0.500000  0.988488  1
  Fe  Fe9  1  0.500000  0.000000  0.011512  1
  Co  Co10  1  0.500000  0.500000  0.702704  1
  Co  Co11  1  0.000000  0.000000  0.297296  1
  Co  Co12  1  0.500000  0.331585  0.994245  1
  Co  Co13  1  0.500000  0.668415  0.994245  1
  Co  Co14  1  0.000000  0.168415  0.005755  1
  Co  Co15  1  0.000000  0.831585  0.005755  1
  Co  Co16  1  0.500000  0.296301  0.430088  1
  Co  Co17  1  0.500000  0.703699  0.430088  1
  Co  Co18  1  0.000000  0.203699  0.569912  1
  Co  Co19  1  0.000000  0.796301  0.569912  1
  Co  Co20  1  0.500000  0.878403  0.709829  1
  Co  Co21  1  0.500000  0.121597  0.709829  1
  Co  Co22  1  0.000000  0.621597  0.290171  1
  Co  Co23  1  0.000000  0.378403  0.290171  1
  P  P24  1  0.500000  0.500000  0.884224  1
  P  P25  1  0.000000  0.000000  0.115776  1
  P  P26  1  0.500000  0.500000  0.341730  1
  P  P27  1  0.000000  0.000000  0.658270  1
  P  P28  1  0.500000  0.310235  0.617776  1
  P  P29  1  0.500000  0.689765  0.617776  1
  P  P30  1  0.000000  0.189765  0.382224  1
  P  P31  1  0.000000  0.810235  0.382224  1
  P  P32  1  0.500000  0.846971  0.892985  1
  P  P33  1  0.500000  0.153029  0.892985  1
  P  P34  1  0.000000  0.653029  0.107015  1
  P  P35  1  0.000000  0.346971  0.107015  1
