# generated using pymatgen
data_Li2La3NdAs4
_symmetry_space_group_name_H-M   'P 1'
_cell_length_a   4.35742400
_cell_length_b   4.35742547
_cell_length_c   15.16940000
_cell_angle_alpha   90.00000000
_cell_angle_beta   90.00000000
_cell_angle_gamma   120.00000402
_symmetry_Int_Tables_number   1
_chemical_formula_structural   Li2La3NdAs4
_chemical_formula_sum   'Li2 La3 Nd1 As4'
_cell_volume   249.43581206
_cell_formula_units_Z   1
loop_
 _symmetry_equiv_pos_site_id
 _symmetry_equiv_pos_as_xyz
  1  'x, y, z'
loop_
 _atom_site_type_symbol
 _atom_site_label
 _atom_site_symmetry_multiplicity
 _atom_site_fract_x
 _atom_site_fract_y
 _atom_site_fract_z
 _atom_site_occupancy
  Li  Li0  1  0.000000  0.000000  0.247993  1
  Li  Li1  1  0.000000  0.000000  0.749975  1
  La  La2  1  0.333333  0.666667  0.387769  1
  La  La3  1  0.666667  0.333332  0.610808  1
  La  La4  1  0.666667  0.333332  0.890976  1
  Nd  Nd5  1  0.333333  0.666667  0.110839  1
  As  As6  1  0.000000  0.000000  0.003240  1
  As  As7  1  0.666667  0.333332  0.247895  1
  As  As8  1  0.000000  0.000000  0.499675  1
  As  As9  1  0.333333  0.666667  0.750830  1
