# generated using pymatgen
data_Hf2ThAu4
_symmetry_space_group_name_H-M   'P 1'
_cell_length_a   5.83829323
_cell_length_b   5.83829267
_cell_length_c   5.83829418
_cell_angle_alpha   102.93279704
_cell_angle_beta   102.93278705
_cell_angle_gamma   123.53073133
_symmetry_Int_Tables_number   1
_chemical_formula_structural   Hf2ThAu4
_chemical_formula_sum   'Hf2 Th1 Au4'
_cell_volume   146.14859297
_cell_formula_units_Z   1
loop_
 _symmetry_equiv_pos_site_id
 _symmetry_equiv_pos_as_xyz
  1  'x, y, z'
loop_
 _atom_site_type_symbol
 _atom_site_label
 _atom_site_symmetry_multiplicity
 _atom_site_fract_x
 _atom_site_fract_y
 _atom_site_fract_z
 _atom_site_occupancy
  Hf  Hf0  1  0.250000  0.750000  0.500000  1
  Hf  Hf1  1  0.750000  0.250000  0.500000  1
  Th  Th2  1  0.000000  0.000000  0.000000  1
  Au  Au3  1  0.303147  0.303147  0.606294  1
  Au  Au4  1  0.696853  0.696853  0.393706  1
  Au  Au5  1  0.696853  0.303147  0.000000  1
  Au  Au6  1  0.303147  0.696853  0.000000  1
