# generated using pymatgen
data_Er6Zn21SiAg2
_symmetry_space_group_name_H-M   'P 1'
_cell_length_a   9.07678060
_cell_length_b   9.06490539
_cell_length_c   9.06490600
_cell_angle_alpha   59.99999779
_cell_angle_beta   60.04326676
_cell_angle_gamma   60.04326311
_symmetry_Int_Tables_number   1
_chemical_formula_structural   Er6Zn21SiAg2
_chemical_formula_sum   'Er6 Zn21 Si1 Ag2'
_cell_volume   527.74862554
_cell_formula_units_Z   1
loop_
 _symmetry_equiv_pos_site_id
 _symmetry_equiv_pos_as_xyz
  1  'x, y, z'
loop_
 _atom_site_type_symbol
 _atom_site_label
 _atom_site_symmetry_multiplicity
 _atom_site_fract_x
 _atom_site_fract_y
 _atom_site_fract_z
 _atom_site_occupancy
  Er  Er0  1  0.715310  0.285219  0.285219  1
  Er  Er1  1  0.715310  0.285219  0.714253  1
  Er  Er2  1  0.715310  0.714253  0.285219  1
  Er  Er3  1  0.284237  0.715654  0.715654  1
  Er  Er4  1  0.284237  0.715654  0.284455  1
  Er  Er5  1  0.284237  0.284455  0.715654  1
  Zn  Zn6  1  0.125461  0.623476  0.125532  1
  Zn  Zn7  1  0.125461  0.125532  0.623476  1
  Zn  Zn8  1  0.125461  0.125532  0.125532  1
  Zn  Zn9  1  0.376525  0.874492  0.874492  1
  Zn  Zn10  1  0.873840  0.375664  0.875248  1
  Zn  Zn11  1  0.873840  0.875248  0.375664  1
  Zn  Zn12  1  0.873840  0.875248  0.875248  1
  Zn  Zn13  1  0.498177  0.999118  0.999118  1
  Zn  Zn14  1  0.498177  0.999118  0.503587  1
  Zn  Zn15  1  0.498177  0.503587  0.999118  1
  Zn  Zn16  1  0.999776  0.500170  0.500170  1
  Zn  Zn17  1  0.999776  0.500170  0.999883  1
  Zn  Zn18  1  0.999776  0.999883  0.500170  1
  Zn  Zn19  1  0.002028  0.332657  0.332657  1
  Zn  Zn20  1  0.331678  0.001516  0.333403  1
  Zn  Zn21  1  0.331678  0.333403  0.001516  1
  Zn  Zn22  1  0.331678  0.333403  0.333403  1
  Zn  Zn23  1  0.998155  0.667282  0.667282  1
  Zn  Zn24  1  0.667482  0.997644  0.667437  1
  Zn  Zn25  1  0.667482  0.667437  0.997644  1
  Zn  Zn26  1  0.667482  0.667437  0.667437  1
  Si  Si27  1  0.499204  0.500265  0.500265  1
  Ag  Ag28  1  0.627379  0.124207  0.124207  1
  Ag  Ag29  1  0.008826  0.997058  0.997058  1
