# generated using pymatgen
data_Rb10Sr2TaNbAs8
_symmetry_space_group_name_H-M   'P 1'
_cell_length_a   10.82263610
_cell_length_b   10.82126724
_cell_length_c   8.19615760
_cell_angle_alpha   88.13242617
_cell_angle_beta   88.11560335
_cell_angle_gamma   120.85246675
_symmetry_Int_Tables_number   1
_chemical_formula_structural   Rb10Sr2TaNbAs8
_chemical_formula_sum   'Rb10 Sr2 Ta1 Nb1 As8'
_cell_volume   822.24186819
_cell_formula_units_Z   1
loop_
 _symmetry_equiv_pos_site_id
 _symmetry_equiv_pos_as_xyz
  1  'x, y, z'
loop_
 _atom_site_type_symbol
 _atom_site_label
 _atom_site_symmetry_multiplicity
 _atom_site_fract_x
 _atom_site_fract_y
 _atom_site_fract_z
 _atom_site_occupancy
  Rb  Rb0  1  0.465788  0.526276  0.604542  1
  Rb  Rb1  1  0.059310  0.528188  0.608656  1
  Rb  Rb2  1  0.526359  0.465762  0.104525  1
  Rb  Rb3  1  0.528052  0.058946  0.108355  1
  Rb  Rb4  1  0.865341  0.141976  0.788462  1
  Rb  Rb5  1  0.292208  0.151905  0.829500  1
  Rb  Rb6  1  0.856212  0.717070  0.765363  1
  Rb  Rb7  1  0.141893  0.865452  0.288860  1
  Rb  Rb8  1  0.717441  0.856436  0.265694  1
  Rb  Rb9  1  0.151792  0.292011  0.329981  1
  Sr  Sr10  1  0.464374  0.937114  0.603984  1
  Sr  Sr11  1  0.936875  0.464269  0.103826  1
  Ta  Ta12  1  0.671056  0.328770  0.500985  1
  Nb  Nb13  1  0.328993  0.671366  0.001349  1
  As  As14  1  0.688570  0.339745  0.806376  1
  As  As15  1  0.340229  0.689125  0.307696  1
  As  As16  1  0.197292  0.791096  0.893115  1
  As  As17  1  0.580886  0.800089  0.869919  1
  As  As18  1  0.187150  0.408593  0.935122  1
  As  As19  1  0.790889  0.197907  0.392992  1
  As  As20  1  0.409511  0.187709  0.434868  1
  As  As21  1  0.799778  0.580197  0.370230  1
