# generated using pymatgen
data_Yb8DyHoIr4
_symmetry_space_group_name_H-M   'P 1'
_cell_length_a   6.54425979
_cell_length_b   7.30349041
_cell_length_c   8.50187600
_cell_angle_alpha   97.22129441
_cell_angle_beta   112.63575280
_cell_angle_gamma   89.99999959
_symmetry_Int_Tables_number   1
_chemical_formula_structural   Yb8DyHoIr4
_chemical_formula_sum   'Yb8 Dy1 Ho1 Ir4'
_cell_volume   371.55908113
_cell_formula_units_Z   1
loop_
 _symmetry_equiv_pos_site_id
 _symmetry_equiv_pos_as_xyz
  1  'x, y, z'
loop_
 _atom_site_type_symbol
 _atom_site_label
 _atom_site_symmetry_multiplicity
 _atom_site_fract_x
 _atom_site_fract_y
 _atom_site_fract_z
 _atom_site_occupancy
  Yb  Yb0  1  0.972726  0.921691  0.171344  1
  Yb  Yb1  1  0.801383  0.578309  0.828656  1
  Yb  Yb2  1  0.027192  0.078315  0.828665  1
  Yb  Yb3  1  0.198527  0.421685  0.171335  1
  Yb  Yb4  1  0.643465  0.819776  0.437515  1
  Yb  Yb5  1  0.205950  0.680224  0.562485  1
  Yb  Yb6  1  0.356422  0.180202  0.562464  1
  Yb  Yb7  1  0.793957  0.319798  0.437536  1
  Dy  Dy8  1  0.438105  0.750000  0.000000  1
  Ho  Ho9  1  0.562149  0.250000  0.000000  1
  Ir  Ir10  1  0.814423  0.574008  0.211326  1
  Ir  Ir11  1  0.603098  0.925992  0.788674  1
  Ir  Ir12  1  0.185637  0.425345  0.788671  1
  Ir  Ir13  1  0.396965  0.074655  0.211329  1
