# generated using pymatgen
data_Cu(S8F)3
_symmetry_space_group_name_H-M   'P 1'
_cell_length_a   14.98674141
_cell_length_b   14.98674228
_cell_length_c   14.98673993
_cell_angle_alpha   118.68160103
_cell_angle_beta   118.68159656
_cell_angle_gamma   118.68160780
_symmetry_Int_Tables_number   1
_chemical_formula_structural   Cu(S8F)3
_chemical_formula_sum   'Cu1 S24 F3'
_cell_volume   997.76232274
_cell_formula_units_Z   1
loop_
 _symmetry_equiv_pos_site_id
 _symmetry_equiv_pos_as_xyz
  1  'x, y, z'
loop_
 _atom_site_type_symbol
 _atom_site_label
 _atom_site_symmetry_multiplicity
 _atom_site_fract_x
 _atom_site_fract_y
 _atom_site_fract_z
 _atom_site_occupancy
  Cu  Cu0  1  0.931593  0.931593  0.931593  1
  S  S1  1  0.800827  0.520945  0.520945  1
  S  S2  1  0.520945  0.520945  0.800827  1
  S  S3  1  0.520945  0.800827  0.520945  1
  S  S4  1  0.248159  0.378384  0.636282  1
  S  S5  1  0.350610  0.951493  0.350610  1
  S  S6  1  0.350610  0.350610  0.951493  1
  S  S7  1  0.951493  0.350610  0.350610  1
  S  S8  1  0.128656  0.742239  0.258633  1
  S  S9  1  0.258633  0.128656  0.742239  1
  S  S10  1  0.742239  0.258633  0.128656  1
  S  S11  1  0.742239  0.128656  0.258633  1
  S  S12  1  0.258633  0.742239  0.128656  1
  S  S13  1  0.128656  0.258633  0.742239  1
  S  S14  1  0.346552  0.878613  0.530096  1
  S  S15  1  0.530096  0.346552  0.878613  1
  S  S16  1  0.878613  0.530096  0.346552  1
  S  S17  1  0.878613  0.346552  0.530096  1
  S  S18  1  0.530096  0.878613  0.346552  1
  S  S19  1  0.346552  0.530096  0.878613  1
  S  S20  1  0.248159  0.636282  0.378384  1
  S  S21  1  0.378384  0.248159  0.636282  1
  S  S22  1  0.636282  0.378384  0.248159  1
  S  S23  1  0.636282  0.248159  0.378384  1
  S  S24  1  0.378384  0.636282  0.248159  1
  F  F25  1  0.854896  0.974074  0.974074  1
  F  F26  1  0.974074  0.974074  0.854896  1
  F  F27  1  0.974074  0.854896  0.974074  1
