# generated using pymatgen
data_Dy2Er10InCo4Ru
_symmetry_space_group_name_H-M   'P 1'
_cell_length_a   8.21054697
_cell_length_b   8.21054708
_cell_length_c   8.20975905
_cell_angle_alpha   111.22395984
_cell_angle_beta   110.85077031
_cell_angle_gamma   106.38673542
_symmetry_Int_Tables_number   1
_chemical_formula_structural   Dy2Er10InCo4Ru
_chemical_formula_sum   'Dy2 Er10 In1 Co4 Ru1'
_cell_volume   425.09494023
_cell_formula_units_Z   1
loop_
 _symmetry_equiv_pos_site_id
 _symmetry_equiv_pos_as_xyz
  1  'x, y, z'
loop_
 _atom_site_type_symbol
 _atom_site_label
 _atom_site_symmetry_multiplicity
 _atom_site_fract_x
 _atom_site_fract_y
 _atom_site_fract_z
 _atom_site_occupancy
  Dy  Dy0  1  0.184020  0.283598  0.467617  1
  Dy  Dy1  1  0.815980  0.716402  0.532383  1
  Er  Er2  1  0.183991  0.716701  0.900692  1
  Er  Er3  1  0.816009  0.283299  0.099308  1
  Er  Er4  1  0.313885  0.619770  0.305346  1
  Er  Er5  1  0.686115  0.380230  0.694654  1
  Er  Er6  1  0.314424  0.008539  0.694654  1
  Er  Er7  1  0.685576  0.991461  0.305346  1
  Er  Er8  1  0.413154  0.219017  0.193497  1
  Er  Er9  1  0.586846  0.780983  0.806503  1
  Er  Er10  1  0.025520  0.219657  0.806503  1
  Er  Er11  1  0.974480  0.780343  0.193497  1
  In  In12  1  0.500000  0.500000  0.000000  1
  Co  Co13  1  0.112059  0.612059  0.500000  1
  Co  Co14  1  0.887941  0.387941  0.500000  1
  Co  Co15  1  0.375937  0.999814  0.375751  1
  Co  Co16  1  0.624063  0.000186  0.624249  1
  Ru  Ru17  1  0.000000  0.000000  0.000000  1
