# generated using pymatgen
data_Mn2Co5SiB2
_symmetry_space_group_name_H-M   'P 1'
_cell_length_a   8.46973100
_cell_length_b   8.46973100
_cell_length_c   2.79708800
_cell_angle_alpha   90.00000000
_cell_angle_beta   90.00000000
_cell_angle_gamma   90.00000000
_symmetry_Int_Tables_number   1
_chemical_formula_structural   Mn2Co5SiB2
_chemical_formula_sum   'Mn4 Co10 Si2 B4'
_cell_volume   200.65286476
_cell_formula_units_Z   2
loop_
 _symmetry_equiv_pos_site_id
 _symmetry_equiv_pos_as_xyz
  1  'x, y, z'
loop_
 _atom_site_type_symbol
 _atom_site_label
 _atom_site_symmetry_multiplicity
 _atom_site_fract_x
 _atom_site_fract_y
 _atom_site_fract_z
 _atom_site_occupancy
  Mn  Mn0  1  0.824548  0.324548  0.000000  1
  Mn  Mn1  1  0.324548  0.175452  0.000000  1
  Mn  Mn2  1  0.675452  0.824548  0.000000  1
  Mn  Mn3  1  0.175452  0.675452  0.000000  1
  Co  Co4  1  0.069053  0.212524  0.500000  1
  Co  Co5  1  0.212524  0.930947  0.500000  1
  Co  Co6  1  0.787476  0.069053  0.500000  1
  Co  Co7  1  0.930947  0.787476  0.500000  1
  Co  Co8  1  0.430947  0.712524  0.500000  1
  Co  Co9  1  0.569053  0.287476  0.500000  1
  Co  Co10  1  0.712524  0.569053  0.500000  1
  Co  Co11  1  0.287476  0.430947  0.500000  1
  Co  Co12  1  0.500000  0.000000  0.500000  1
  Co  Co13  1  0.000000  0.500000  0.500000  1
  Si  Si14  1  0.000000  0.000000  0.000000  1
  Si  Si15  1  0.500000  0.500000  0.000000  1
  B  B16  1  0.624940  0.124940  0.000000  1
  B  B17  1  0.124940  0.375060  0.000000  1
  B  B18  1  0.875060  0.624940  0.000000  1
  B  B19  1  0.375060  0.875060  0.000000  1
