# generated using pymatgen
data_TbPdF7
_symmetry_space_group_name_H-M   'P 1'
_cell_length_a   5.52113900
_cell_length_b   8.89167275
_cell_length_c   12.00432873
_cell_angle_alpha   62.23049222
_cell_angle_beta   90.00000000
_cell_angle_gamma   90.00000000
_symmetry_Int_Tables_number   1
_chemical_formula_structural   TbPdF7
_chemical_formula_sum   'Tb4 Pd4 F28'
_cell_volume   521.44607981
_cell_formula_units_Z   4
loop_
 _symmetry_equiv_pos_site_id
 _symmetry_equiv_pos_as_xyz
  1  'x, y, z'
loop_
 _atom_site_type_symbol
 _atom_site_label
 _atom_site_symmetry_multiplicity
 _atom_site_fract_x
 _atom_site_fract_y
 _atom_site_fract_z
 _atom_site_occupancy
  Tb  Tb0  1  0.262057  0.813685  0.263485  1
  Tb  Tb1  1  0.737943  0.186315  0.736515  1
  Tb  Tb2  1  0.762057  0.186315  0.236515  1
  Tb  Tb3  1  0.237943  0.813685  0.763485  1
  Pd  Pd4  1  0.758901  0.726841  0.042523  1
  Pd  Pd5  1  0.241099  0.273159  0.957477  1
  Pd  Pd6  1  0.258901  0.273159  0.457477  1
  Pd  Pd7  1  0.741099  0.726841  0.542523  1
  F  F8  1  0.933626  0.705879  0.414941  1
  F  F9  1  0.066374  0.294121  0.585059  1
  F  F10  1  0.433626  0.294121  0.085059  1
  F  F11  1  0.566374  0.705879  0.914941  1
  F  F12  1  0.465779  0.727186  0.132430  1
  F  F13  1  0.534221  0.272814  0.867570  1
  F  F14  1  0.965779  0.272814  0.367570  1
  F  F15  1  0.034221  0.727186  0.632430  1
  F  F16  1  0.948120  0.740997  0.174584  1
  F  F17  1  0.051880  0.259003  0.825416  1
  F  F18  1  0.448120  0.259003  0.325416  1
  F  F19  1  0.551880  0.740997  0.674584  1
  F  F20  1  0.768440  0.480117  0.140213  1
  F  F21  1  0.231560  0.519883  0.859787  1
  F  F22  1  0.268440  0.519883  0.359787  1
  F  F23  1  0.731560  0.480117  0.640213  1
  F  F24  1  0.942553  0.281576  0.041449  1
  F  F25  1  0.057447  0.718424  0.958551  1
  F  F26  1  0.442553  0.718424  0.458551  1
  F  F27  1  0.557447  0.281576  0.541449  1
  F  F28  1  0.740249  0.973339  0.450746  1
  F  F29  1  0.259751  0.026661  0.549254  1
  F  F30  1  0.240249  0.026661  0.049254  1
  F  F31  1  0.759751  0.973339  0.950746  1
  F  F32  1  0.592798  0.967598  0.230855  1
  F  F33  1  0.407202  0.032402  0.769145  1
  F  F34  1  0.092798  0.032402  0.269145  1
  F  F35  1  0.907202  0.967598  0.730855  1
