# generated using pymatgen
data_ErTm19Sn16
_symmetry_space_group_name_H-M   'P 1'
_cell_length_a   7.94635284
_cell_length_b   8.06629281
_cell_length_c   15.25562805
_cell_angle_alpha   90.00268803
_cell_angle_beta   89.94091874
_cell_angle_gamma   89.96380776
_symmetry_Int_Tables_number   1
_chemical_formula_structural   ErTm19Sn16
_chemical_formula_sum   'Er1 Tm19 Sn16'
_cell_volume   977.84856293
_cell_formula_units_Z   1
loop_
 _symmetry_equiv_pos_site_id
 _symmetry_equiv_pos_as_xyz
  1  'x, y, z'
loop_
 _atom_site_type_symbol
 _atom_site_label
 _atom_site_symmetry_multiplicity
 _atom_site_fract_x
 _atom_site_fract_y
 _atom_site_fract_z
 _atom_site_occupancy
  Er  Er0  1  0.021631  0.179561  0.903019  1
  Tm  Tm1  1  0.368247  0.836521  0.877386  1
  Tm  Tm2  1  0.868445  0.663501  0.622368  1
  Tm  Tm3  1  0.631511  0.163348  0.377474  1
  Tm  Tm4  1  0.131966  0.336821  0.122714  1
  Tm  Tm5  1  0.631985  0.163350  0.122631  1
  Tm  Tm6  1  0.131563  0.336621  0.377475  1
  Tm  Tm7  1  0.368535  0.836504  0.622449  1
  Tm  Tm8  1  0.868332  0.663386  0.877428  1
  Tm  Tm9  1  0.522291  0.320781  0.902832  1
  Tm  Tm10  1  0.022536  0.179443  0.597319  1
  Tm  Tm11  1  0.477605  0.679339  0.402825  1
  Tm  Tm12  1  0.977884  0.820411  0.097188  1
  Tm  Tm13  1  0.477815  0.679473  0.097153  1
  Tm  Tm14  1  0.977604  0.820652  0.402845  1
  Tm  Tm15  1  0.522429  0.320740  0.597009  1
  Tm  Tm16  1  0.198527  0.503563  0.749815  1
  Tm  Tm17  1  0.698272  0.996390  0.749768  1
  Tm  Tm18  1  0.801555  0.496508  0.250079  1
  Tm  Tm19  1  0.301607  0.003438  0.250070  1
  Sn  Sn20  1  0.292723  0.035236  0.042008  1
  Sn  Sn21  1  0.791791  0.464344  0.458413  1
  Sn  Sn22  1  0.708260  0.964591  0.541475  1
  Sn  Sn23  1  0.208332  0.536275  0.958616  1
  Sn  Sn24  1  0.706834  0.963424  0.958703  1
  Sn  Sn25  1  0.208186  0.535573  0.541461  1
  Sn  Sn26  1  0.291803  0.035584  0.458452  1
  Sn  Sn27  1  0.792029  0.464339  0.041553  1
  Sn  Sn28  1  0.564851  0.618947  0.749947  1
  Sn  Sn29  1  0.064847  0.880714  0.749938  1
  Sn  Sn30  1  0.435282  0.381051  0.250038  1
  Sn  Sn31  1  0.935292  0.119062  0.250080  1
  Sn  Sn32  1  0.331747  0.148785  0.749866  1
  Sn  Sn33  1  0.830817  0.351651  0.749580  1
  Sn  Sn34  1  0.668458  0.851115  0.249997  1
  Sn  Sn35  1  0.168407  0.648959  0.250030  1
