# generated using pymatgen
data_Y4Ga20(TcRu)3
_symmetry_space_group_name_H-M   'P 1'
_cell_length_a   9.01623162
_cell_length_b   9.01623162
_cell_length_c   6.40652200
_cell_angle_alpha   90.00000000
_cell_angle_beta   90.00000000
_cell_angle_gamma   90.04242422
_symmetry_Int_Tables_number   1
_chemical_formula_structural   Y4Ga20(TcRu)3
_chemical_formula_sum   'Y4 Ga20 Tc3 Ru3'
_cell_volume   520.80161504
_cell_formula_units_Z   1
loop_
 _symmetry_equiv_pos_site_id
 _symmetry_equiv_pos_as_xyz
  1  'x, y, z'
loop_
 _atom_site_type_symbol
 _atom_site_label
 _atom_site_symmetry_multiplicity
 _atom_site_fract_x
 _atom_site_fract_y
 _atom_site_fract_z
 _atom_site_occupancy
  Y  Y0  1  0.182445  0.681874  0.000000  1
  Y  Y1  1  0.818126  0.317555  0.000000  1
  Y  Y2  1  0.681884  0.818116  0.000000  1
  Y  Y3  1  0.317107  0.182893  0.000000  1
  Ga  Ga4  1  0.060938  0.206110  0.706348  1
  Ga  Ga5  1  0.939663  0.794364  0.706528  1
  Ga  Ga6  1  0.560522  0.294846  0.707072  1
  Ga  Ga7  1  0.439735  0.705193  0.706204  1
  Ga  Ga8  1  0.794807  0.060265  0.706204  1
  Ga  Ga9  1  0.205154  0.939478  0.707072  1
  Ga  Ga10  1  0.705636  0.560337  0.706528  1
  Ga  Ga11  1  0.293890  0.439062  0.706348  1
  Ga  Ga12  1  0.939663  0.794364  0.293472  1
  Ga  Ga13  1  0.060938  0.206110  0.293652  1
  Ga  Ga14  1  0.439735  0.705193  0.293796  1
  Ga  Ga15  1  0.560522  0.294846  0.292928  1
  Ga  Ga16  1  0.205154  0.939478  0.292928  1
  Ga  Ga17  1  0.794807  0.060265  0.293796  1
  Ga  Ga18  1  0.293890  0.439062  0.293652  1
  Ga  Ga19  1  0.705636  0.560337  0.293472  1
  Ga  Ga20  1  0.000349  0.499651  0.708125  1
  Ga  Ga21  1  0.499528  0.000472  0.708692  1
  Ga  Ga22  1  0.000349  0.499651  0.291875  1
  Ga  Ga23  1  0.499528  0.000472  0.291308  1
  Tc  Tc24  1  0.179931  0.679275  0.500000  1
  Tc  Tc25  1  0.820725  0.320069  0.500000  1
  Tc  Tc26  1  0.678766  0.821234  0.500000  1
  Ru  Ru27  1  0.321417  0.178583  0.500000  1
  Ru  Ru28  1  0.000308  0.001150  0.000000  1
  Ru  Ru29  1  0.498850  0.499692  0.000000  1
