# generated using pymatgen
data_Mg2Sn(H6Ir)2
_symmetry_space_group_name_H-M   'P 1'
_cell_length_a   4.70929800
_cell_length_b   4.70929912
_cell_length_c   7.93395100
_cell_angle_alpha   90.00000000
_cell_angle_beta   90.00000000
_cell_angle_gamma   119.99999210
_symmetry_Int_Tables_number   1
_chemical_formula_structural   Mg2Sn(H6Ir)2
_chemical_formula_sum   'Mg2 Sn1 H12 Ir2'
_cell_volume   152.38163532
_cell_formula_units_Z   1
loop_
 _symmetry_equiv_pos_site_id
 _symmetry_equiv_pos_as_xyz
  1  'x, y, z'
loop_
 _atom_site_type_symbol
 _atom_site_label
 _atom_site_symmetry_multiplicity
 _atom_site_fract_x
 _atom_site_fract_y
 _atom_site_fract_z
 _atom_site_occupancy
  Mg  Mg0  1  0.666667  0.333333  0.370890  1
  Mg  Mg1  1  0.333333  0.666667  0.629110  1
  Sn  Sn2  1  0.000000  0.000000  0.000000  1
  H  H3  1  0.163263  0.836737  0.384991  1
  H  H4  1  0.673473  0.836737  0.384991  1
  H  H5  1  0.163263  0.326527  0.384991  1
  H  H6  1  0.836737  0.163263  0.615009  1
  H  H7  1  0.326527  0.163263  0.615009  1
  H  H8  1  0.836737  0.673473  0.615009  1
  H  H9  1  0.499002  0.998005  0.853246  1
  H  H10  1  0.499002  0.500998  0.853246  1
  H  H11  1  0.001995  0.500998  0.853246  1
  H  H12  1  0.500998  0.001995  0.146754  1
  H  H13  1  0.500998  0.499002  0.146754  1
  H  H14  1  0.998005  0.499002  0.146754  1
  Ir  Ir15  1  0.666667  0.333333  0.730149  1
  Ir  Ir16  1  0.333333  0.666667  0.269851  1
