# generated using pymatgen
data_Th7Np(Si3Pd)4
_symmetry_space_group_name_H-M   'P 1'
_cell_length_a   8.23801800
_cell_length_b   8.23801725
_cell_length_c   8.48709700
_cell_angle_alpha   90.00000000
_cell_angle_beta   90.00000000
_cell_angle_gamma   120.00000301
_symmetry_Int_Tables_number   1
_chemical_formula_structural   Th7Np(Si3Pd)4
_chemical_formula_sum   'Th7 Np1 Si12 Pd4'
_cell_volume   498.81007633
_cell_formula_units_Z   1
loop_
 _symmetry_equiv_pos_site_id
 _symmetry_equiv_pos_as_xyz
  1  'x, y, z'
loop_
 _atom_site_type_symbol
 _atom_site_label
 _atom_site_symmetry_multiplicity
 _atom_site_fract_x
 _atom_site_fract_y
 _atom_site_fract_z
 _atom_site_occupancy
  Th  Th0  1  0.500372  0.000743  0.250000  1
  Th  Th1  1  0.499637  0.999276  0.750000  1
  Th  Th2  1  0.999257  0.499628  0.250000  1
  Th  Th3  1  0.000724  0.500363  0.750000  1
  Th  Th4  1  0.500372  0.499628  0.250000  1
  Th  Th5  1  0.499637  0.500363  0.750000  1
  Th  Th6  1  0.000000  0.000000  0.250000  1
  Np  Np7  1  0.000000  0.000000  0.750000  1
  Si  Si8  1  0.164780  0.329560  0.997673  1
  Si  Si9  1  0.835253  0.670506  0.996453  1
  Si  Si10  1  0.670440  0.835220  0.997673  1
  Si  Si11  1  0.835253  0.670506  0.503547  1
  Si  Si12  1  0.329494  0.164747  0.996453  1
  Si  Si13  1  0.164780  0.329560  0.502327  1
  Si  Si14  1  0.164780  0.835220  0.997673  1
  Si  Si15  1  0.329494  0.164747  0.503547  1
  Si  Si16  1  0.835253  0.164747  0.996453  1
  Si  Si17  1  0.670440  0.835220  0.502327  1
  Si  Si18  1  0.835253  0.164747  0.503547  1
  Si  Si19  1  0.164780  0.835220  0.502327  1
  Pd  Pd20  1  0.333333  0.666667  0.002215  1
  Pd  Pd21  1  0.666667  0.333333  0.000349  1
  Pd  Pd22  1  0.666667  0.333333  0.499651  1
  Pd  Pd23  1  0.333333  0.666667  0.497785  1
