# generated using pymatgen
data_DyTa2Nb3(B2Ru5)2
_symmetry_space_group_name_H-M   'P 1'
_cell_length_a   9.53314421
_cell_length_b   9.53314414
_cell_length_c   3.04978700
_cell_angle_alpha   90.00000000
_cell_angle_beta   90.00000000
_cell_angle_gamma   90.26939502
_symmetry_Int_Tables_number   1
_chemical_formula_structural   DyTa2Nb3(B2Ru5)2
_chemical_formula_sum   'Dy1 Ta2 Nb3 B4 Ru10'
_cell_volume   277.16413415
_cell_formula_units_Z   1
loop_
 _symmetry_equiv_pos_site_id
 _symmetry_equiv_pos_as_xyz
  1  'x, y, z'
loop_
 _atom_site_type_symbol
 _atom_site_label
 _atom_site_symmetry_multiplicity
 _atom_site_fract_x
 _atom_site_fract_y
 _atom_site_fract_z
 _atom_site_occupancy
  Dy  Dy0  1  0.824665  0.675335  0.000000  1
  Ta  Ta1  1  0.500683  0.500390  0.000000  1
  Ta  Ta2  1  0.999610  0.999317  0.000000  1
  Nb  Nb3  1  0.178165  0.321835  0.000000  1
  Nb  Nb4  1  0.324386  0.823574  0.000000  1
  Nb  Nb5  1  0.676426  0.175614  0.000000  1
  B  B6  1  0.618735  0.881265  0.000000  1
  B  B7  1  0.377385  0.122615  0.000000  1
  B  B8  1  0.123115  0.619945  0.000000  1
  B  B9  1  0.880055  0.376885  0.000000  1
  Ru  Ru10  1  0.559032  0.724128  0.500000  1
  Ru  Ru11  1  0.427258  0.282936  0.500000  1
  Ru  Ru12  1  0.081361  0.782949  0.500000  1
  Ru  Ru13  1  0.930543  0.216227  0.500000  1
  Ru  Ru14  1  0.283773  0.569457  0.500000  1
  Ru  Ru15  1  0.717051  0.418639  0.500000  1
  Ru  Ru16  1  0.217064  0.072742  0.500000  1
  Ru  Ru17  1  0.775872  0.940968  0.500000  1
  Ru  Ru18  1  0.496384  0.003616  0.500000  1
  Ru  Ru19  1  0.008435  0.491565  0.500000  1
