# generated using pymatgen
data_Pr7Te8
_symmetry_space_group_name_H-M   'P 1'
_cell_length_a   9.03053500
_cell_length_b   9.03053412
_cell_length_c   9.03053500
_cell_angle_alpha   119.99999956
_cell_angle_beta   90.00000000
_cell_angle_gamma   119.99999956
_symmetry_Int_Tables_number   1
_chemical_formula_structural   Pr7Te8
_chemical_formula_sum   'Pr7 Te8'
_cell_volume   520.74535675
_cell_formula_units_Z   1
loop_
 _symmetry_equiv_pos_site_id
 _symmetry_equiv_pos_as_xyz
  1  'x, y, z'
loop_
 _atom_site_type_symbol
 _atom_site_label
 _atom_site_symmetry_multiplicity
 _atom_site_fract_x
 _atom_site_fract_y
 _atom_site_fract_z
 _atom_site_occupancy
  Pr  Pr0  1  0.250067  0.000000  0.250067  1
  Pr  Pr1  1  0.250067  0.500133  0.250067  1
  Pr  Pr2  1  0.749933  0.000000  0.250068  1
  Pr  Pr3  1  0.250001  0.500001  0.750002  1
  Pr  Pr4  1  0.250068  0.000000  0.749933  1
  Pr  Pr5  1  0.749933  0.000000  0.749933  1
  Pr  Pr6  1  0.749933  0.499866  0.749933  1
  Te  Te7  1  0.000000  0.000000  0.000000  1
  Te  Te8  1  0.500000  0.000000  0.500000  1
  Te  Te9  1  0.995215  0.990432  0.495217  1
  Te  Te10  1  0.995215  0.500001  0.495217  1
  Te  Te11  1  0.504786  0.500001  0.495217  1
  Te  Te12  1  0.995217  0.500001  0.004785  1
  Te  Te13  1  0.504784  0.500001  0.004785  1
  Te  Te14  1  0.504784  0.009567  0.004785  1
