# generated using pymatgen
data_TbHoGa4
_symmetry_space_group_name_H-M   'P 1'
_cell_length_a   4.09891100
_cell_length_b   4.21602700
_cell_length_c   7.29278900
_cell_angle_alpha   90.00000000
_cell_angle_beta   90.00000000
_cell_angle_gamma   90.00000000
_symmetry_Int_Tables_number   1
_chemical_formula_structural   TbHoGa4
_chemical_formula_sum   'Tb1 Ho1 Ga4'
_cell_volume   126.02755781
_cell_formula_units_Z   1
loop_
 _symmetry_equiv_pos_site_id
 _symmetry_equiv_pos_as_xyz
  1  'x, y, z'
loop_
 _atom_site_type_symbol
 _atom_site_label
 _atom_site_symmetry_multiplicity
 _atom_site_fract_x
 _atom_site_fract_y
 _atom_site_fract_z
 _atom_site_occupancy
  Tb  Tb0  1  0.000000  0.499975  0.500000  1
  Ho  Ho1  1  0.000000  0.999976  0.000000  1
  Ga  Ga2  1  0.500000  0.999963  0.332600  1
  Ga  Ga3  1  0.500000  0.499962  0.833398  1
  Ga  Ga4  1  0.500000  0.499962  0.166602  1
  Ga  Ga5  1  0.500000  0.999963  0.667400  1
