# generated using pymatgen
data_LiLa(S2O7)2
_symmetry_space_group_name_H-M   'P 1'
_cell_length_a   6.24012490
_cell_length_b   5.81222694
_cell_length_c   10.36615200
_cell_angle_alpha   117.95837209
_cell_angle_beta   71.35663098
_cell_angle_gamma   105.78851860
_symmetry_Int_Tables_number   1
_chemical_formula_structural   LiLa(S2O7)2
_chemical_formula_sum   'Li1 La1 S4 O14'
_cell_volume   311.29138590
_cell_formula_units_Z   1
loop_
 _symmetry_equiv_pos_site_id
 _symmetry_equiv_pos_as_xyz
  1  'x, y, z'
loop_
 _atom_site_type_symbol
 _atom_site_label
 _atom_site_symmetry_multiplicity
 _atom_site_fract_x
 _atom_site_fract_y
 _atom_site_fract_z
 _atom_site_occupancy
  Li  Li0  1  0.500000  0.000000  0.000000  1
  La  La1  1  0.500000  0.500000  0.500000  1
  S  S2  1  0.916239  0.682308  0.735636  1
  S  S3  1  0.083761  0.317692  0.264364  1
  S  S4  1  0.572402  0.227745  0.737297  1
  S  S5  1  0.427598  0.772255  0.262703  1
  O  O6  1  0.839117  0.657853  0.609686  1
  O  O7  1  0.160883  0.342147  0.390314  1
  O  O8  1  0.444896  0.393804  0.726118  1
  O  O9  1  0.555104  0.606196  0.273882  1
  O  O10  1  0.164046  0.699356  0.704806  1
  O  O11  1  0.835954  0.300644  0.295194  1
  O  O12  1  0.815297  0.873009  0.879418  1
  O  O13  1  0.184703  0.126991  0.120582  1
  O  O14  1  0.497805  0.191573  0.873873  1
  O  O15  1  0.502195  0.808427  0.126127  1
  O  O16  1  0.836815  0.388187  0.739397  1
  O  O17  1  0.163185  0.611813  0.260603  1
  O  O18  1  0.607963  0.986502  0.599214  1
  O  O19  1  0.392037  0.013498  0.400786  1
