# generated using pymatgen
data_Y4Pd3PtF28
_symmetry_space_group_name_H-M   'P 1'
_cell_length_a   5.52523446
_cell_length_b   8.88220065
_cell_length_c   11.96384503
_cell_angle_alpha   62.39726497
_cell_angle_beta   89.98394450
_cell_angle_gamma   90.03136139
_symmetry_Int_Tables_number   1
_chemical_formula_structural   Y4Pd3PtF28
_chemical_formula_sum   'Y4 Pd3 Pt1 F28'
_cell_volume   520.31289255
_cell_formula_units_Z   1
loop_
 _symmetry_equiv_pos_site_id
 _symmetry_equiv_pos_as_xyz
  1  'x, y, z'
loop_
 _atom_site_type_symbol
 _atom_site_label
 _atom_site_symmetry_multiplicity
 _atom_site_fract_x
 _atom_site_fract_y
 _atom_site_fract_z
 _atom_site_occupancy
  Y  Y0  1  0.261620  0.813685  0.263184  1
  Y  Y1  1  0.737525  0.185364  0.736572  1
  Y  Y2  1  0.762632  0.186754  0.236022  1
  Y  Y3  1  0.237295  0.813644  0.765020  1
  Pd  Pd4  1  0.758928  0.726660  0.042912  1
  Pd  Pd5  1  0.240714  0.273062  0.957224  1
  Pd  Pd6  1  0.259699  0.273292  0.456904  1
  Pt  Pt7  1  0.740993  0.726892  0.542973  1
  F  F8  1  0.934624  0.703676  0.414277  1
  F  F9  1  0.067265  0.296017  0.584142  1
  F  F10  1  0.432928  0.296123  0.084232  1
  F  F11  1  0.566972  0.703677  0.915731  1
  F  F12  1  0.465625  0.726100  0.133144  1
  F  F13  1  0.533701  0.274006  0.866494  1
  F  F14  1  0.967196  0.275153  0.365739  1
  F  F15  1  0.036856  0.726491  0.634240  1
  F  F16  1  0.946533  0.742525  0.175339  1
  F  F17  1  0.052648  0.257153  0.824713  1
  F  F18  1  0.447273  0.257700  0.324153  1
  F  F19  1  0.551809  0.743435  0.676348  1
  F  F20  1  0.771318  0.479886  0.140956  1
  F  F21  1  0.228019  0.519846  0.859306  1
  F  F22  1  0.273853  0.520045  0.358265  1
  F  F23  1  0.729625  0.477895  0.641443  1
  F  F24  1  0.941416  0.280835  0.040976  1
  F  F25  1  0.058619  0.718811  0.959500  1
  F  F26  1  0.439039  0.719375  0.458395  1
  F  F27  1  0.558689  0.280439  0.541241  1
  F  F28  1  0.741794  0.975793  0.450226  1
  F  F29  1  0.257539  0.027061  0.549080  1
  F  F30  1  0.242313  0.026900  0.048593  1
  F  F31  1  0.757815  0.972825  0.951331  1
  F  F32  1  0.589012  0.969092  0.231656  1
  F  F33  1  0.409596  0.030926  0.769491  1
  F  F34  1  0.088956  0.030655  0.268704  1
  F  F35  1  0.909562  0.968206  0.731473  1
