# generated using pymatgen
data_Pr8Zn2CoSi12Ir
_symmetry_space_group_name_H-M   'P 1'
_cell_length_a   8.21216200
_cell_length_b   8.21216258
_cell_length_c   8.62786800
_cell_angle_alpha   90.00000000
_cell_angle_beta   90.00000000
_cell_angle_gamma   120.00000574
_symmetry_Int_Tables_number   1
_chemical_formula_structural   Pr8Zn2CoSi12Ir
_chemical_formula_sum   'Pr8 Zn2 Co1 Si12 Ir1'
_cell_volume   503.90555413
_cell_formula_units_Z   1
loop_
 _symmetry_equiv_pos_site_id
 _symmetry_equiv_pos_as_xyz
  1  'x, y, z'
loop_
 _atom_site_type_symbol
 _atom_site_label
 _atom_site_symmetry_multiplicity
 _atom_site_fract_x
 _atom_site_fract_y
 _atom_site_fract_z
 _atom_site_occupancy
  Pr  Pr0  1  0.504351  0.495649  0.751402  1
  Pr  Pr1  1  0.504609  0.495391  0.248741  1
  Pr  Pr2  1  0.991298  0.495649  0.751402  1
  Pr  Pr3  1  0.990780  0.495391  0.248741  1
  Pr  Pr4  1  0.504351  0.008702  0.751402  1
  Pr  Pr5  1  0.504609  0.009220  0.248741  1
  Pr  Pr6  1  0.000000  0.000000  0.750833  1
  Pr  Pr7  1  0.000000  0.000000  0.249057  1
  Zn  Zn8  1  0.333333  0.666667  0.001282  1
  Zn  Zn9  1  0.333333  0.666667  0.499208  1
  Co  Co10  1  0.666667  0.333333  0.998845  1
  Si  Si11  1  0.825203  0.174797  0.000115  1
  Si  Si12  1  0.162802  0.837198  0.999825  1
  Si  Si13  1  0.349593  0.174797  0.000115  1
  Si  Si14  1  0.163351  0.836649  0.499883  1
  Si  Si15  1  0.674398  0.837198  0.999825  1
  Si  Si16  1  0.831106  0.168894  0.500194  1
  Si  Si17  1  0.825203  0.650407  0.000115  1
  Si  Si18  1  0.673298  0.836649  0.499883  1
  Si  Si19  1  0.162802  0.325602  0.999825  1
  Si  Si20  1  0.337787  0.168894  0.500194  1
  Si  Si21  1  0.163351  0.326702  0.499883  1
  Si  Si22  1  0.831106  0.662213  0.500194  1
  Ir  Ir23  1  0.666667  0.333333  0.500298  1
