# generated using pymatgen
data_Nb2O2F11
_symmetry_space_group_name_H-M   'P 1'
_cell_length_a   5.52298886
_cell_length_b   6.45065630
_cell_length_c   8.13228705
_cell_angle_alpha   117.93123903
_cell_angle_beta   97.15889564
_cell_angle_gamma   90.55253098
_symmetry_Int_Tables_number   1
_chemical_formula_structural   Nb2O2F11
_chemical_formula_sum   'Nb2 O2 F11'
_cell_volume   253.21668520
_cell_formula_units_Z   1
loop_
 _symmetry_equiv_pos_site_id
 _symmetry_equiv_pos_as_xyz
  1  'x, y, z'
loop_
 _atom_site_type_symbol
 _atom_site_label
 _atom_site_symmetry_multiplicity
 _atom_site_fract_x
 _atom_site_fract_y
 _atom_site_fract_z
 _atom_site_occupancy
  Nb  Nb0  1  0.813282  0.845888  0.721421  1
  Nb  Nb1  1  0.186718  0.154112  0.278579  1
  O  O2  1  0.547396  0.586982  0.064000  1
  O  O3  1  0.452604  0.413018  0.936000  1
  F  F4  1  0.000000  0.000000  0.000000  1
  F  F5  1  0.100565  0.951817  0.665170  1
  F  F6  1  0.899435  0.048183  0.334830  1
  F  F7  1  0.948982  0.566448  0.698988  1
  F  F8  1  0.051018  0.433552  0.301012  1
  F  F9  1  0.635635  0.716810  0.478895  1
  F  F10  1  0.364365  0.283190  0.521105  1
  F  F11  1  0.547180  0.796601  0.832214  1
  F  F12  1  0.452820  0.203399  0.167786  1
  F  F13  1  0.716851  0.173031  0.803212  1
  F  F14  1  0.283149  0.826969  0.196788  1
