# generated using pymatgen
data_Ca2SmSi6Pd17Pt3
_symmetry_space_group_name_H-M   'P 1'
_cell_length_a   8.75158636
_cell_length_b   8.75158717
_cell_length_c   8.77104803
_cell_angle_alpha   59.75904530
_cell_angle_beta   59.75904180
_cell_angle_gamma   59.69258278
_symmetry_Int_Tables_number   1
_chemical_formula_structural   Ca2SmSi6Pd17Pt3
_chemical_formula_sum   'Ca2 Sm1 Si6 Pd17 Pt3'
_cell_volume   472.17929899
_cell_formula_units_Z   1
loop_
 _symmetry_equiv_pos_site_id
 _symmetry_equiv_pos_as_xyz
  1  'x, y, z'
loop_
 _atom_site_type_symbol
 _atom_site_label
 _atom_site_symmetry_multiplicity
 _atom_site_fract_x
 _atom_site_fract_y
 _atom_site_fract_z
 _atom_site_occupancy
  Ca  Ca0  1  0.749521  0.749521  0.750580  1
  Ca  Ca1  1  0.999917  0.999917  0.000198  1
  Sm  Sm2  1  0.250231  0.250231  0.250260  1
  Si  Si3  1  0.731326  0.268223  0.267460  1
  Si  Si4  1  0.269650  0.730773  0.731506  1
  Si  Si5  1  0.268223  0.731326  0.267460  1
  Si  Si6  1  0.730773  0.269650  0.731506  1
  Si  Si7  1  0.269028  0.269028  0.730660  1
  Si  Si8  1  0.732155  0.732155  0.268266  1
  Pd  Pd9  1  0.383042  0.847183  0.383189  1
  Pd  Pd10  1  0.616916  0.616916  0.152821  1
  Pd  Pd11  1  0.618357  0.152303  0.614816  1
  Pd  Pd12  1  0.847183  0.383042  0.383189  1
  Pd  Pd13  1  0.152303  0.618357  0.614816  1
  Pd  Pd14  1  0.343958  0.000833  0.001502  1
  Pd  Pd15  1  0.653421  0.000876  0.001689  1
  Pd  Pd16  1  0.000198  0.344169  0.655566  1
  Pd  Pd17  1  0.000185  0.654193  0.345237  1
  Pd  Pd18  1  0.000833  0.343958  0.001502  1
  Pd  Pd19  1  0.654193  0.000185  0.345237  1
  Pd  Pd20  1  0.000876  0.653421  0.001689  1
  Pd  Pd21  1  0.344169  0.000198  0.655566  1
  Pd  Pd22  1  0.000427  0.000427  0.345544  1
  Pd  Pd23  1  0.000391  0.000391  0.654475  1
  Pd  Pd24  1  0.654186  0.343582  0.001338  1
  Pd  Pd25  1  0.343582  0.654186  0.001338  1
  Pt  Pt26  1  0.385100  0.385100  0.385247  1
  Pt  Pt27  1  0.616074  0.616074  0.612259  1
  Pt  Pt28  1  0.383778  0.383778  0.845083  1
