# generated using pymatgen
data_Ac2Zn3Ag14
_symmetry_space_group_name_H-M   'P 1'
_cell_length_a   7.33357936
_cell_length_b   7.33357933
_cell_length_c   7.33357871
_cell_angle_alpha   82.70083766
_cell_angle_beta   82.70083606
_cell_angle_gamma   82.70083582
_symmetry_Int_Tables_number   1
_chemical_formula_structural   Ac2Zn3Ag14
_chemical_formula_sum   'Ac2 Zn3 Ag14'
_cell_volume   385.57012995
_cell_formula_units_Z   1
loop_
 _symmetry_equiv_pos_site_id
 _symmetry_equiv_pos_as_xyz
  1  'x, y, z'
loop_
 _atom_site_type_symbol
 _atom_site_label
 _atom_site_symmetry_multiplicity
 _atom_site_fract_x
 _atom_site_fract_y
 _atom_site_fract_z
 _atom_site_occupancy
  Ac  Ac0  1  0.654271  0.654271  0.654271  1
  Ac  Ac1  1  0.345729  0.345729  0.345729  1
  Zn  Zn2  1  0.000000  0.000000  0.500000  1
  Zn  Zn3  1  0.000000  0.500000  0.000000  1
  Zn  Zn4  1  0.500000  0.000000  0.000000  1
  Ag  Ag5  1  0.344509  0.344509  0.856592  1
  Ag  Ag6  1  0.856592  0.344509  0.344509  1
  Ag  Ag7  1  0.100554  0.100554  0.100554  1
  Ag  Ag8  1  0.899446  0.899446  0.899446  1
  Ag  Ag9  1  0.295259  0.704741  0.000000  1
  Ag  Ag10  1  0.704741  0.000000  0.295259  1
  Ag  Ag11  1  0.000000  0.295259  0.704741  1
  Ag  Ag12  1  0.704741  0.295259  0.000000  1
  Ag  Ag13  1  0.295259  0.000000  0.704741  1
  Ag  Ag14  1  0.000000  0.704741  0.295259  1
  Ag  Ag15  1  0.143408  0.655491  0.655491  1
  Ag  Ag16  1  0.655491  0.655491  0.143408  1
  Ag  Ag17  1  0.655491  0.143408  0.655491  1
  Ag  Ag18  1  0.344509  0.856592  0.344509  1
