# generated using pymatgen
data_Zr2Np5PaSb10
_symmetry_space_group_name_H-M   'P 1'
_cell_length_a   9.29013200
_cell_length_b   9.24991325
_cell_length_c   6.25270100
_cell_angle_alpha   90.00000000
_cell_angle_beta   90.00000000
_cell_angle_gamma   120.14393567
_symmetry_Int_Tables_number   1
_chemical_formula_structural   Zr2Np5PaSb10
_chemical_formula_sum   'Zr2 Np5 Pa1 Sb10'
_cell_volume   464.65018217
_cell_formula_units_Z   1
loop_
 _symmetry_equiv_pos_site_id
 _symmetry_equiv_pos_as_xyz
  1  'x, y, z'
loop_
 _atom_site_type_symbol
 _atom_site_label
 _atom_site_symmetry_multiplicity
 _atom_site_fract_x
 _atom_site_fract_y
 _atom_site_fract_z
 _atom_site_occupancy
  Zr  Zr0  1  0.998702  0.000000  0.000436  1
  Zr  Zr1  1  0.998702  0.000000  0.499564  1
  Np  Np2  1  0.384658  0.387997  0.250000  1
  Np  Np3  1  0.996659  0.612003  0.250000  1
  Np  Np4  1  0.002711  0.385790  0.750000  1
  Np  Np5  1  0.616921  0.614210  0.750000  1
  Np  Np6  1  0.614805  0.000000  0.250000  1
  Pa  Pa7  1  0.386422  0.000000  0.750000  1
  Sb  Sb8  1  0.666177  0.332217  0.500489  1
  Sb  Sb9  1  0.333959  0.667783  0.999511  1
  Sb  Sb10  1  0.727702  0.000000  0.750000  1
  Sb  Sb11  1  0.729320  0.729424  0.250000  1
  Sb  Sb12  1  0.333959  0.667783  0.500489  1
  Sb  Sb13  1  0.666177  0.332217  0.999511  1
  Sb  Sb14  1  0.271216  0.000000  0.250000  1
  Sb  Sb15  1  0.270558  0.269104  0.750000  1
  Sb  Sb16  1  0.001454  0.730896  0.750000  1
  Sb  Sb17  1  0.999895  0.270576  0.250000  1
