# generated using pymatgen
data_Hf2Zr3PaAl2Fe
_symmetry_space_group_name_H-M   'P 1'
_cell_length_a   7.91660924
_cell_length_b   7.82471947
_cell_length_c   3.40734100
_cell_angle_alpha   90.00000000
_cell_angle_beta   90.00000000
_cell_angle_gamma   119.61679536
_symmetry_Int_Tables_number   1
_chemical_formula_structural   Hf2Zr3PaAl2Fe
_chemical_formula_sum   'Hf2 Zr3 Pa1 Al2 Fe1'
_cell_volume   183.49248953
_cell_formula_units_Z   1
loop_
 _symmetry_equiv_pos_site_id
 _symmetry_equiv_pos_as_xyz
  1  'x, y, z'
loop_
 _atom_site_type_symbol
 _atom_site_label
 _atom_site_symmetry_multiplicity
 _atom_site_fract_x
 _atom_site_fract_y
 _atom_site_fract_z
 _atom_site_occupancy
  Hf  Hf0  1  0.751198  0.746471  0.500000  1
  Hf  Hf1  1  0.248802  0.995273  0.500000  1
  Zr  Zr2  1  0.602506  0.003225  0.000000  1
  Zr  Zr3  1  0.397494  0.400719  0.000000  1
  Zr  Zr4  1  0.000000  0.585009  0.000000  1
  Pa  Pa5  1  0.000000  0.237030  0.500000  1
  Al  Al6  1  0.343978  0.678975  0.500000  1
  Al  Al7  1  0.656022  0.334997  0.500000  1
  Fe  Fe8  1  0.000000  0.018302  0.000000  1
