# generated using pymatgen
data_Nd4YPb3S
_symmetry_space_group_name_H-M   'P 1'
_cell_length_a   9.40767900
_cell_length_b   9.40767975
_cell_length_c   6.92122100
_cell_angle_alpha   90.00000000
_cell_angle_beta   90.00000000
_cell_angle_gamma   120.00000793
_symmetry_Int_Tables_number   1
_chemical_formula_structural   Nd4YPb3S
_chemical_formula_sum   'Nd8 Y2 Pb6 S2'
_cell_volume   530.49137714
_cell_formula_units_Z   2
loop_
 _symmetry_equiv_pos_site_id
 _symmetry_equiv_pos_as_xyz
  1  'x, y, z'
loop_
 _atom_site_type_symbol
 _atom_site_label
 _atom_site_symmetry_multiplicity
 _atom_site_fract_x
 _atom_site_fract_y
 _atom_site_fract_z
 _atom_site_occupancy
  Nd  Nd0  1  0.756455  0.756455  0.748833  1
  Nd  Nd1  1  0.243545  0.000000  0.748833  1
  Nd  Nd2  1  0.000000  0.243545  0.748833  1
  Nd  Nd3  1  0.243545  0.243545  0.251167  1
  Nd  Nd4  1  0.756455  0.000000  0.251167  1
  Nd  Nd5  1  0.000000  0.756455  0.251167  1
  Nd  Nd6  1  0.666667  0.333333  0.000000  1
  Nd  Nd7  1  0.333333  0.666667  0.000000  1
  Y  Y8  1  0.333333  0.666667  0.500000  1
  Y  Y9  1  0.666667  0.333333  0.500000  1
  Pb  Pb10  1  0.398931  0.398931  0.746162  1
  Pb  Pb11  1  0.601069  0.000000  0.746162  1
  Pb  Pb12  1  0.000000  0.601069  0.746162  1
  Pb  Pb13  1  0.601069  0.601069  0.253838  1
  Pb  Pb14  1  0.398931  0.000000  0.253838  1
  Pb  Pb15  1  0.000000  0.398931  0.253838  1
  S  S16  1  0.000000  0.000000  0.000000  1
  S  S17  1  0.000000  0.000000  0.500000  1
