# generated using pymatgen
data_Y10Al2FeHg
_symmetry_space_group_name_H-M   'P 1'
_cell_length_a   9.58431619
_cell_length_b   9.58431578
_cell_length_c   9.65278500
_cell_angle_alpha   90.00000000
_cell_angle_beta   90.00000000
_cell_angle_gamma   120.19012111
_symmetry_Int_Tables_number   1
_chemical_formula_structural   Y10Al2FeHg
_chemical_formula_sum   'Y20 Al4 Fe2 Hg2'
_cell_volume   766.42613282
_cell_formula_units_Z   2
loop_
 _symmetry_equiv_pos_site_id
 _symmetry_equiv_pos_as_xyz
  1  'x, y, z'
loop_
 _atom_site_type_symbol
 _atom_site_label
 _atom_site_symmetry_multiplicity
 _atom_site_fract_x
 _atom_site_fract_y
 _atom_site_fract_z
 _atom_site_occupancy
  Y  Y0  1  0.998687  0.001313  0.506647  1
  Y  Y1  1  0.998687  0.001313  0.993353  1
  Y  Y2  1  0.542312  0.457688  0.250000  1
  Y  Y3  1  0.539481  0.080704  0.250000  1
  Y  Y4  1  0.919296  0.460519  0.250000  1
  Y  Y5  1  0.460301  0.539699  0.750000  1
  Y  Y6  1  0.460794  0.916173  0.750000  1
  Y  Y7  1  0.083827  0.539206  0.750000  1
  Y  Y8  1  0.208739  0.791261  0.438167  1
  Y  Y9  1  0.210610  0.420047  0.432634  1
  Y  Y10  1  0.579953  0.789390  0.432634  1
  Y  Y11  1  0.789141  0.210859  0.561033  1
  Y  Y12  1  0.791923  0.580553  0.564276  1
  Y  Y13  1  0.419447  0.208077  0.564276  1
  Y  Y14  1  0.789141  0.210859  0.938967  1
  Y  Y15  1  0.791923  0.580553  0.935724  1
  Y  Y16  1  0.419447  0.208077  0.935724  1
  Y  Y17  1  0.208739  0.791261  0.061833  1
  Y  Y18  1  0.210610  0.420047  0.067366  1
  Y  Y19  1  0.579953  0.789390  0.067366  1
  Al  Al20  1  0.889627  0.110373  0.250000  1
  Al  Al21  1  0.889085  0.781502  0.250000  1
  Al  Al22  1  0.218498  0.110915  0.250000  1
  Al  Al23  1  0.117483  0.882517  0.750000  1
  Fe  Fe24  1  0.331072  0.668928  0.250000  1
  Fe  Fe25  1  0.666303  0.333697  0.750000  1
  Hg  Hg26  1  0.120597  0.235677  0.750000  1
  Hg  Hg27  1  0.764323  0.879403  0.750000  1
