# generated using pymatgen
data_Yb4Co5Ge3O20
_symmetry_space_group_name_H-M   'P 1'
_cell_length_a   5.71346100
_cell_length_b   7.26745739
_cell_length_c   8.24604905
_cell_angle_alpha   90.21154568
_cell_angle_beta   90.00000000
_cell_angle_gamma   90.00000000
_symmetry_Int_Tables_number   1
_chemical_formula_structural   Yb4Co5Ge3O20
_chemical_formula_sum   'Yb4 Co5 Ge3 O20'
_cell_volume   342.39287185
_cell_formula_units_Z   1
loop_
 _symmetry_equiv_pos_site_id
 _symmetry_equiv_pos_as_xyz
  1  'x, y, z'
loop_
 _atom_site_type_symbol
 _atom_site_label
 _atom_site_symmetry_multiplicity
 _atom_site_fract_x
 _atom_site_fract_y
 _atom_site_fract_z
 _atom_site_occupancy
  Yb  Yb0  1  0.500000  0.365065  0.168888  1
  Yb  Yb1  1  0.500000  0.635836  0.830267  1
  Yb  Yb2  1  0.500000  0.865357  0.331049  1
  Yb  Yb3  1  0.500000  0.135620  0.669705  1
  Co  Co4  1  0.000000  0.605614  0.146902  1
  Co  Co5  1  0.251129  0.500852  0.497879  1
  Co  Co6  1  0.749620  0.000315  0.999930  1
  Co  Co7  1  0.748871  0.500852  0.497879  1
  Co  Co8  1  0.250380  0.000315  0.999930  1
  Ge  Ge9  1  0.000000  0.390320  0.850677  1
  Ge  Ge10  1  0.000000  0.109661  0.352376  1
  Ge  Ge11  1  0.000000  0.890344  0.647607  1
  O  O12  1  0.000000  0.848025  0.074401  1
  O  O13  1  0.000000  0.152924  0.925081  1
  O  O14  1  0.000000  0.346785  0.422457  1
  O  O15  1  0.000000  0.651815  0.574701  1
  O  O16  1  0.500000  0.346620  0.446928  1
  O  O17  1  0.500000  0.657256  0.552630  1
  O  O18  1  0.500000  0.845962  0.053012  1
  O  O19  1  0.500000  0.155321  0.946559  1
  O  O20  1  0.210850  0.500754  0.001676  1
  O  O21  1  0.786621  0.000042  0.500291  1
  O  O22  1  0.789150  0.500754  0.001676  1
  O  O23  1  0.213379  0.000042  0.500291  1
  O  O24  1  0.251387  0.105284  0.208388  1
  O  O25  1  0.250496  0.892194  0.791948  1
  O  O26  1  0.748340  0.604904  0.293458  1
  O  O27  1  0.748118  0.394393  0.709809  1
  O  O28  1  0.749504  0.892194  0.791948  1
  O  O29  1  0.748613  0.105284  0.208388  1
  O  O30  1  0.251882  0.394393  0.709809  1
  O  O31  1  0.251660  0.604904  0.293458  1
