# generated using pymatgen
data_TmPa(CoB4)2
_symmetry_space_group_name_H-M   'P 1'
_cell_length_a   3.37984300
_cell_length_b   5.89657915
_cell_length_c   11.43434108
_cell_angle_alpha   89.88168414
_cell_angle_beta   90.00000000
_cell_angle_gamma   90.00000000
_symmetry_Int_Tables_number   1
_chemical_formula_structural   TmPa(CoB4)2
_chemical_formula_sum   'Tm2 Pa2 Co4 B16'
_cell_volume   227.88034923
_cell_formula_units_Z   2
loop_
 _symmetry_equiv_pos_site_id
 _symmetry_equiv_pos_as_xyz
  1  'x, y, z'
loop_
 _atom_site_type_symbol
 _atom_site_label
 _atom_site_symmetry_multiplicity
 _atom_site_fract_x
 _atom_site_fract_y
 _atom_site_fract_z
 _atom_site_occupancy
  Tm  Tm0  1  0.500000  0.127895  0.647553  1
  Tm  Tm1  1  0.500000  0.872105  0.352447  1
  Pa  Pa2  1  0.500000  0.372301  0.152109  1
  Pa  Pa3  1  0.500000  0.627699  0.847891  1
  Co  Co4  1  0.500000  0.365464  0.410169  1
  Co  Co5  1  0.500000  0.634536  0.589831  1
  Co  Co6  1  0.500000  0.134335  0.909444  1
  Co  Co7  1  0.500000  0.865665  0.090556  1
  B  B8  1  0.000000  0.110820  0.046552  1
  B  B9  1  0.000000  0.889180  0.953448  1
  B  B10  1  0.000000  0.386115  0.545099  1
  B  B11  1  0.000000  0.613885  0.454901  1
  B  B12  1  0.000000  0.136806  0.467373  1
  B  B13  1  0.000000  0.863194  0.532627  1
  B  B14  1  0.000000  0.361329  0.965554  1
  B  B15  1  0.000000  0.638671  0.034446  1
  B  B16  1  0.000000  0.020386  0.192157  1
  B  B17  1  0.000000  0.979614  0.807843  1
  B  B18  1  0.000000  0.475387  0.688384  1
  B  B19  1  0.000000  0.524613  0.311616  1
  B  B20  1  0.000000  0.215369  0.316806  1
  B  B21  1  0.000000  0.784631  0.683194  1
  B  B22  1  0.000000  0.281802  0.813259  1
  B  B23  1  0.000000  0.718198  0.186741  1
