# generated using pymatgen
data_Tm6Lu6Fe3Sn2
_symmetry_space_group_name_H-M   'P 1'
_cell_length_a   8.21904878
_cell_length_b   8.20646726
_cell_length_c   8.21904997
_cell_angle_alpha   108.58398861
_cell_angle_beta   108.71320892
_cell_angle_gamma   111.19329298
_symmetry_Int_Tables_number   1
_chemical_formula_structural   Tm6Lu6Fe3Sn2
_chemical_formula_sum   'Tm6 Lu6 Fe3 Sn2'
_cell_volume   426.13676461
_cell_formula_units_Z   1
loop_
 _symmetry_equiv_pos_site_id
 _symmetry_equiv_pos_as_xyz
  1  'x, y, z'
loop_
 _atom_site_type_symbol
 _atom_site_label
 _atom_site_symmetry_multiplicity
 _atom_site_fract_x
 _atom_site_fract_y
 _atom_site_fract_z
 _atom_site_occupancy
  Tm  Tm0  1  0.306856  0.307008  0.614599  1
  Tm  Tm1  1  0.693144  0.692992  0.385401  1
  Tm  Tm2  1  0.692409  0.307008  0.000152  1
  Tm  Tm3  1  0.307591  0.692992  0.999848  1
  Tm  Tm4  1  0.192383  0.427939  0.235556  1
  Tm  Tm5  1  0.807617  0.572061  0.764444  1
  Lu  Lu6  1  0.192334  0.957103  0.764770  1
  Lu  Lu7  1  0.956727  0.191749  0.764195  1
  Lu  Lu8  1  0.807666  0.042897  0.235230  1
  Lu  Lu9  1  0.043273  0.808251  0.235805  1
  Lu  Lu10  1  0.427553  0.191749  0.235022  1
  Lu  Lu11  1  0.572447  0.808251  0.764978  1
  Fe  Fe12  1  0.383629  0.383379  0.999750  1
  Fe  Fe13  1  0.616371  0.616621  0.000250  1
  Fe  Fe14  1  0.000000  0.000000  0.000000  1
  Sn  Sn15  1  0.000000  0.500000  0.500000  1
  Sn  Sn16  1  0.500000  0.000000  0.500000  1
