# generated using pymatgen
data_Eu3YMgRu
_symmetry_space_group_name_H-M   'P 1'
_cell_length_a   10.12736357
_cell_length_b   10.12736278
_cell_length_c   10.12736400
_cell_angle_alpha   59.99999602
_cell_angle_beta   59.99999859
_cell_angle_gamma   60.00000215
_symmetry_Int_Tables_number   1
_chemical_formula_structural   Eu3YMgRu
_chemical_formula_sum   'Eu12 Y4 Mg4 Ru4'
_cell_volume   734.47020082
_cell_formula_units_Z   4
loop_
 _symmetry_equiv_pos_site_id
 _symmetry_equiv_pos_as_xyz
  1  'x, y, z'
loop_
 _atom_site_type_symbol
 _atom_site_label
 _atom_site_symmetry_multiplicity
 _atom_site_fract_x
 _atom_site_fract_y
 _atom_site_fract_z
 _atom_site_occupancy
  Eu  Eu0  1  0.947734  0.552266  0.552266  1
  Eu  Eu1  1  0.552266  0.947734  0.947734  1
  Eu  Eu2  1  0.552266  0.947734  0.552266  1
  Eu  Eu3  1  0.947734  0.552266  0.947734  1
  Eu  Eu4  1  0.552266  0.552266  0.947734  1
  Eu  Eu5  1  0.947734  0.947734  0.552266  1
  Eu  Eu6  1  0.808707  0.191293  0.191293  1
  Eu  Eu7  1  0.191293  0.808707  0.808707  1
  Eu  Eu8  1  0.191293  0.808707  0.191293  1
  Eu  Eu9  1  0.808707  0.191293  0.808707  1
  Eu  Eu10  1  0.191293  0.191293  0.808707  1
  Eu  Eu11  1  0.808707  0.808707  0.191293  1
  Y  Y12  1  0.337699  0.337699  0.337699  1
  Y  Y13  1  0.337699  0.337699  0.986903  1
  Y  Y14  1  0.337699  0.986903  0.337699  1
  Y  Y15  1  0.986903  0.337699  0.337699  1
  Mg  Mg16  1  0.576712  0.576712  0.576712  1
  Mg  Mg17  1  0.576712  0.576712  0.269865  1
  Mg  Mg18  1  0.576712  0.269865  0.576712  1
  Mg  Mg19  1  0.269865  0.576712  0.576712  1
  Ru  Ru20  1  0.139711  0.139711  0.139711  1
  Ru  Ru21  1  0.139711  0.139711  0.580867  1
  Ru  Ru22  1  0.139711  0.580867  0.139711  1
  Ru  Ru23  1  0.580867  0.139711  0.139711  1
