# generated using pymatgen
data_Ba10ReWN10
_symmetry_space_group_name_H-M   'P 1'
_cell_length_a   8.16423983
_cell_length_b   8.16423968
_cell_length_c   9.64092601
_cell_angle_alpha   76.26903961
_cell_angle_beta   76.26904804
_cell_angle_gamma   97.08515090
_symmetry_Int_Tables_number   1
_chemical_formula_structural   Ba10ReWN10
_chemical_formula_sum   'Ba10 Re1 W1 N10'
_cell_volume   595.31356693
_cell_formula_units_Z   1
loop_
 _symmetry_equiv_pos_site_id
 _symmetry_equiv_pos_as_xyz
  1  'x, y, z'
loop_
 _atom_site_type_symbol
 _atom_site_label
 _atom_site_symmetry_multiplicity
 _atom_site_fract_x
 _atom_site_fract_y
 _atom_site_fract_z
 _atom_site_occupancy
  Ba  Ba0  1  0.387268  0.388912  0.386190  1
  Ba  Ba1  1  0.611088  0.612732  0.613810  1
  Ba  Ba2  1  0.668021  0.668545  0.009125  1
  Ba  Ba3  1  0.331455  0.331979  0.990875  1
  Ba  Ba4  1  0.921358  0.917620  0.209515  1
  Ba  Ba5  1  0.082380  0.078642  0.790485  1
  Ba  Ba6  1  0.562469  0.097703  0.747960  1
  Ba  Ba7  1  0.902297  0.437531  0.252040  1
  Ba  Ba8  1  0.433341  0.898548  0.252076  1
  Ba  Ba9  1  0.101452  0.566659  0.747924  1
  Re  Re10  1  0.756438  0.243562  0.000000  1
  W  W11  1  0.243771  0.756229  0.000000  1
  N  N12  1  0.653359  0.654078  0.306746  1
  N  N13  1  0.345922  0.346641  0.693254  1
  N  N14  1  0.713265  0.019615  0.990591  1
  N  N15  1  0.980385  0.286735  0.009409  1
  N  N16  1  0.286951  0.985861  0.010041  1
  N  N17  1  0.014139  0.713049  0.989959  1
  N  N18  1  0.396994  0.730204  0.829321  1
  N  N19  1  0.269796  0.603006  0.170678  1
  N  N20  1  0.607967  0.270120  0.166139  1
  N  N21  1  0.729880  0.392033  0.833860  1
