# generated using pymatgen
data_Ho8Si16Tc11W
_symmetry_space_group_name_H-M   'P 1'
_cell_length_a   6.78801711
_cell_length_b   6.78801751
_cell_length_c   12.70405706
_cell_angle_alpha   89.77424279
_cell_angle_beta   90.22575520
_cell_angle_gamma   89.98506643
_symmetry_Int_Tables_number   1
_chemical_formula_structural   Ho8Si16Tc11W
_chemical_formula_sum   'Ho8 Si16 Tc11 W1'
_cell_volume   585.35800068
_cell_formula_units_Z   1
loop_
 _symmetry_equiv_pos_site_id
 _symmetry_equiv_pos_as_xyz
  1  'x, y, z'
loop_
 _atom_site_type_symbol
 _atom_site_label
 _atom_site_symmetry_multiplicity
 _atom_site_fract_x
 _atom_site_fract_y
 _atom_site_fract_z
 _atom_site_occupancy
  Ho  Ho0  1  0.338536  0.994194  0.469311  1
  Ho  Ho1  1  0.502717  0.838358  0.719287  1
  Ho  Ho2  1  0.496059  0.159842  0.219790  1
  Ho  Ho3  1  0.838358  0.502717  0.280713  1
  Ho  Ho4  1  0.159842  0.496059  0.780210  1
  Ho  Ho5  1  0.662620  0.004365  0.969313  1
  Ho  Ho6  1  0.994194  0.338536  0.530689  1
  Ho  Ho7  1  0.004365  0.662620  0.030687  1
  Si  Si8  1  0.192499  0.116611  0.685934  1
  Si  Si9  1  0.382216  0.697167  0.935153  1
  Si  Si10  1  0.616266  0.305457  0.435936  1
  Si  Si11  1  0.697167  0.382216  0.064847  1
  Si  Si12  1  0.305457  0.616266  0.564064  1
  Si  Si13  1  0.808474  0.884725  0.187179  1
  Si  Si14  1  0.116611  0.192499  0.314066  1
  Si  Si15  1  0.884725  0.808474  0.812821  1
  Si  Si16  1  0.277555  0.974132  0.064482  1
  Si  Si17  1  0.522186  0.770888  0.313909  1
  Si  Si18  1  0.478573  0.226119  0.811544  1
  Si  Si19  1  0.770888  0.522186  0.686091  1
  Si  Si20  1  0.226119  0.478573  0.188456  1
  Si  Si21  1  0.720819  0.024091  0.563856  1
  Si  Si22  1  0.974132  0.277555  0.935518  1
  Si  Si23  1  0.024091  0.720819  0.436144  1
  Tc  Tc24  1  0.167919  0.833697  0.249645  1
  Tc  Tc25  1  0.833697  0.167919  0.750355  1
  Tc  Tc26  1  0.665247  0.665247  0.500000  1
  Tc  Tc27  1  0.185908  0.986347  0.870193  1
  Tc  Tc28  1  0.519602  0.681618  0.122155  1
  Tc  Tc29  1  0.477363  0.315199  0.618945  1
  Tc  Tc30  1  0.681618  0.519602  0.877845  1
  Tc  Tc31  1  0.315199  0.477363  0.381055  1
  Tc  Tc32  1  0.821839  0.016172  0.374201  1
  Tc  Tc33  1  0.986347  0.185908  0.129807  1
  Tc  Tc34  1  0.016172  0.821839  0.625799  1
  W  W35  1  0.334622  0.334622  0.000000  1
