# generated using pymatgen
data_Zr4Fe3TcOs4
_symmetry_space_group_name_H-M   'P 1'
_cell_length_a   5.18484415
_cell_length_b   5.00811976
_cell_length_c   8.56026800
_cell_angle_alpha   90.00000000
_cell_angle_beta   90.00000000
_cell_angle_gamma   119.49867614
_symmetry_Int_Tables_number   1
_chemical_formula_structural   Zr4Fe3TcOs4
_chemical_formula_sum   'Zr4 Fe3 Tc1 Os4'
_cell_volume   193.46402839
_cell_formula_units_Z   1
loop_
 _symmetry_equiv_pos_site_id
 _symmetry_equiv_pos_as_xyz
  1  'x, y, z'
loop_
 _atom_site_type_symbol
 _atom_site_label
 _atom_site_symmetry_multiplicity
 _atom_site_fract_x
 _atom_site_fract_y
 _atom_site_fract_z
 _atom_site_occupancy
  Zr  Zr0  1  0.329368  0.664720  0.438402  1
  Zr  Zr1  1  0.667397  0.337021  0.567185  1
  Zr  Zr2  1  0.667397  0.337021  0.932815  1
  Zr  Zr3  1  0.329368  0.664720  0.061598  1
  Fe  Fe4  1  0.835003  0.663954  0.250000  1
  Fe  Fe5  1  0.169764  0.828167  0.750000  1
  Fe  Fe6  1  0.168022  0.337423  0.750000  1
  Tc  Tc7  1  0.829251  0.169427  0.250000  1
  Os  Os8  1  0.002645  0.999233  0.503256  1
  Os  Os9  1  0.002645  0.999233  0.996744  1
  Os  Os10  1  0.347868  0.170937  0.250000  1
  Os  Os11  1  0.651270  0.828144  0.750000  1
