# generated using pymatgen
data_Dy5Ho5(Zn2Bi)2
_symmetry_space_group_name_H-M   'P 1'
_cell_length_a   8.61019365
_cell_length_b   8.61019505
_cell_length_c   8.61495309
_cell_angle_alpha   123.32508397
_cell_angle_beta   123.32537114
_cell_angle_gamma   84.30154575
_symmetry_Int_Tables_number   1
_chemical_formula_structural   Dy5Ho5(Zn2Bi)2
_chemical_formula_sum   'Dy5 Ho5 Zn4 Bi2'
_cell_volume   426.72735940
_cell_formula_units_Z   1
loop_
 _symmetry_equiv_pos_site_id
 _symmetry_equiv_pos_as_xyz
  1  'x, y, z'
loop_
 _atom_site_type_symbol
 _atom_site_label
 _atom_site_symmetry_multiplicity
 _atom_site_fract_x
 _atom_site_fract_y
 _atom_site_fract_z
 _atom_site_occupancy
  Dy  Dy0  1  0.010560  0.510563  0.805131  1
  Dy  Dy1  1  0.705098  0.205095  0.194536  1
  Dy  Dy2  1  0.510550  0.705319  0.500100  1
  Dy  Dy3  1  0.205322  0.010552  0.500105  1
  Dy  Dy4  1  0.989438  0.489436  0.195484  1
  Ho  Ho5  1  0.000335  0.999998  0.999879  1
  Ho  Ho6  1  0.499998  0.500336  0.999879  1
  Ho  Ho7  1  0.293647  0.793650  0.804450  1
  Ho  Ho8  1  0.489543  0.293588  0.500043  1
  Ho  Ho9  1  0.793587  0.989540  0.500037  1
  Zn  Zn10  1  0.639920  0.139920  0.779156  1
  Zn  Zn11  1  0.360727  0.860726  0.220591  1
  Zn  Zn12  1  0.140287  0.360672  0.500257  1
  Zn  Zn13  1  0.860672  0.640287  0.500257  1
  Bi  Bi14  1  0.750033  0.750286  0.000048  1
  Bi  Bi15  1  0.250286  0.250033  0.000047  1
