# generated using pymatgen
data_YbThSi7Rh12
_symmetry_space_group_name_H-M   'P 1'
_cell_length_a   9.78522800
_cell_length_b   9.78522661
_cell_length_c   3.87761600
_cell_angle_alpha   90.00000000
_cell_angle_beta   90.00000000
_cell_angle_gamma   119.99999794
_symmetry_Int_Tables_number   1
_chemical_formula_structural   YbThSi7Rh12
_chemical_formula_sum   'Yb1 Th1 Si7 Rh12'
_cell_volume   321.54167986
_cell_formula_units_Z   1
loop_
 _symmetry_equiv_pos_site_id
 _symmetry_equiv_pos_as_xyz
  1  'x, y, z'
loop_
 _atom_site_type_symbol
 _atom_site_label
 _atom_site_symmetry_multiplicity
 _atom_site_fract_x
 _atom_site_fract_y
 _atom_site_fract_z
 _atom_site_occupancy
  Yb  Yb0  1  0.666667  0.333333  0.749325  1
  Th  Th1  1  0.333333  0.666667  0.250681  1
  Si  Si2  1  0.000000  0.000000  0.503851  1
  Si  Si3  1  0.399695  0.110246  0.249312  1
  Si  Si4  1  0.710553  0.600305  0.249312  1
  Si  Si5  1  0.889754  0.289447  0.249312  1
  Si  Si6  1  0.606111  0.897229  0.751134  1
  Si  Si7  1  0.291116  0.393889  0.751134  1
  Si  Si8  1  0.102771  0.708884  0.751134  1
  Rh  Rh9  1  0.445314  0.380330  0.248105  1
  Rh  Rh10  1  0.935016  0.554686  0.248105  1
  Rh  Rh11  1  0.619670  0.064984  0.248105  1
  Rh  Rh12  1  0.555762  0.620437  0.751535  1
  Rh  Rh13  1  0.064676  0.444238  0.751535  1
  Rh  Rh14  1  0.379563  0.935324  0.751535  1
  Rh  Rh15  1  0.143185  0.881542  0.254142  1
  Rh  Rh16  1  0.738357  0.856815  0.254142  1
  Rh  Rh17  1  0.118458  0.261643  0.254142  1
  Rh  Rh18  1  0.860151  0.121643  0.744486  1
  Rh  Rh19  1  0.261491  0.139849  0.744486  1
  Rh  Rh20  1  0.878357  0.738509  0.744486  1
