# generated using pymatgen
data_Ta2BeSnRu4
_symmetry_space_group_name_H-M   'P 1'
_cell_length_a   4.42966900
_cell_length_b   6.24792000
_cell_length_c   13.20772500
_cell_angle_alpha   89.99998166
_cell_angle_beta   90.00094422
_cell_angle_gamma   90.00018341
_symmetry_Int_Tables_number   1
_chemical_formula_structural   Ta2BeSnRu4
_chemical_formula_sum   'Ta6 Be3 Sn3 Ru12'
_cell_volume   365.53987029
_cell_formula_units_Z   3
loop_
 _symmetry_equiv_pos_site_id
 _symmetry_equiv_pos_as_xyz
  1  'x, y, z'
loop_
 _atom_site_type_symbol
 _atom_site_label
 _atom_site_symmetry_multiplicity
 _atom_site_fract_x
 _atom_site_fract_y
 _atom_site_fract_z
 _atom_site_occupancy
  Ta  Ta0  1  0.000079  0.499987  0.985419  1
  Ta  Ta1  1  0.499968  0.000000  0.166645  1
  Ta  Ta2  1  0.999901  0.500049  0.347866  1
  Ta  Ta3  1  0.499958  0.000001  0.512652  1
  Ta  Ta4  1  0.999996  0.499999  0.666645  1
  Ta  Ta5  1  0.500057  0.999967  0.820688  1
  Be  Be6  1  0.499924  0.499842  0.505443  1
  Be  Be7  1  0.000212  0.000021  0.666644  1
  Be  Be8  1  0.500044  0.499934  0.827959  1
  Sn  Sn9  1  0.000099  0.000033  0.994005  1
  Sn  Sn10  1  0.499949  0.499949  0.166676  1
  Sn  Sn11  1  0.999903  0.000097  0.339314  1
  Ru  Ru12  1  0.500108  0.255969  0.994127  1
  Ru  Ru13  1  0.500067  0.744024  0.994132  1
  Ru  Ru14  1  0.999956  0.247534  0.166668  1
  Ru  Ru15  1  0.999956  0.752498  0.166667  1
  Ru  Ru16  1  0.499933  0.256050  0.339279  1
  Ru  Ru17  1  0.499890  0.744069  0.339251  1
  Ru  Ru18  1  0.999968  0.253257  0.506538  1
  Ru  Ru19  1  0.999948  0.746747  0.506519  1
  Ru  Ru20  1  0.500021  0.253691  0.666701  1
  Ru  Ru21  1  0.499983  0.746272  0.666675  1
  Ru  Ru22  1  0.000047  0.253192  0.826747  1
  Ru  Ru23  1  0.000039  0.746804  0.826741  1
