# generated using pymatgen
data_Li2CeBr6
_symmetry_space_group_name_H-M   'P 1'
_cell_length_a   6.95987800
_cell_length_b   6.95987873
_cell_length_c   26.92249600
_cell_angle_alpha   90.00000000
_cell_angle_beta   90.00000000
_cell_angle_gamma   119.99999652
_symmetry_Int_Tables_number   1
_chemical_formula_structural   Li2CeBr6
_chemical_formula_sum   'Li8 Ce4 Br24'
_cell_volume   1129.40385945
_cell_formula_units_Z   4
loop_
 _symmetry_equiv_pos_site_id
 _symmetry_equiv_pos_as_xyz
  1  'x, y, z'
loop_
 _atom_site_type_symbol
 _atom_site_label
 _atom_site_symmetry_multiplicity
 _atom_site_fract_x
 _atom_site_fract_y
 _atom_site_fract_z
 _atom_site_occupancy
  Li  Li0  1  0.000000  0.000000  0.250000  1
  Li  Li1  1  0.000000  0.000000  0.750000  1
  Li  Li2  1  0.333333  0.666667  0.001459  1
  Li  Li3  1  0.333333  0.666667  0.498541  1
  Li  Li4  1  0.333333  0.666667  0.250000  1
  Li  Li5  1  0.666667  0.333333  0.750000  1
  Li  Li6  1  0.666667  0.333333  0.998541  1
  Li  Li7  1  0.666667  0.333333  0.501459  1
  Ce  Ce8  1  0.000000  0.000000  0.000000  1
  Ce  Ce9  1  0.000000  0.000000  0.500000  1
  Ce  Ce10  1  0.333333  0.666667  0.750000  1
  Ce  Ce11  1  0.666667  0.333333  0.250000  1
  Br  Br12  1  0.332034  0.998475  0.307699  1
  Br  Br13  1  0.333559  0.001525  0.807699  1
  Br  Br14  1  0.998476  0.334057  0.057607  1
  Br  Br15  1  0.001524  0.335581  0.557607  1
  Br  Br16  1  0.001525  0.333559  0.307699  1
  Br  Br17  1  0.998475  0.332034  0.807699  1
  Br  Br18  1  0.332034  0.333559  0.192301  1
  Br  Br19  1  0.333559  0.332034  0.692301  1
  Br  Br20  1  0.335581  0.334057  0.442393  1
  Br  Br21  1  0.334057  0.335581  0.942393  1
  Br  Br22  1  0.665943  0.001524  0.442393  1
  Br  Br23  1  0.335581  0.001524  0.057607  1
  Br  Br24  1  0.334057  0.998476  0.557607  1
  Br  Br25  1  0.665943  0.664419  0.057607  1
  Br  Br26  1  0.664419  0.665943  0.557607  1
  Br  Br27  1  0.666441  0.667966  0.307699  1
  Br  Br28  1  0.667966  0.666441  0.807699  1
  Br  Br29  1  0.001525  0.667966  0.192301  1
  Br  Br30  1  0.998475  0.666441  0.692301  1
  Br  Br31  1  0.998476  0.664419  0.442393  1
  Br  Br32  1  0.001524  0.665943  0.942393  1
  Br  Br33  1  0.664419  0.998476  0.942393  1
  Br  Br34  1  0.666441  0.998475  0.192301  1
  Br  Br35  1  0.667966  0.001525  0.692301  1
