# generated using pymatgen
data_CuNi3(Sn5Ir4)2
_symmetry_space_group_name_H-M   'P 1'
_cell_length_a   6.90730866
_cell_length_b   6.88444780
_cell_length_c   9.91882739
_cell_angle_alpha   78.79727474
_cell_angle_beta   78.92891018
_cell_angle_gamma   62.31141609
_symmetry_Int_Tables_number   1
_chemical_formula_structural   CuNi3(Sn5Ir4)2
_chemical_formula_sum   'Cu1 Ni3 Sn10 Ir8'
_cell_volume   406.87855911
_cell_formula_units_Z   1
loop_
 _symmetry_equiv_pos_site_id
 _symmetry_equiv_pos_as_xyz
  1  'x, y, z'
loop_
 _atom_site_type_symbol
 _atom_site_label
 _atom_site_symmetry_multiplicity
 _atom_site_fract_x
 _atom_site_fract_y
 _atom_site_fract_z
 _atom_site_occupancy
  Cu  Cu0  1  0.999875  0.999258  0.999670  1
  Ni  Ni1  1  0.197380  0.197384  0.604121  1
  Ni  Ni2  1  0.163544  0.853840  0.755186  1
  Ni  Ni3  1  0.838380  0.152312  0.245429  1
  Sn  Sn4  1  0.761856  0.456105  0.037001  1
  Sn  Sn5  1  0.549424  0.231341  0.465513  1
  Sn  Sn6  1  0.237768  0.543185  0.962138  1
  Sn  Sn7  1  0.444198  0.768519  0.535323  1
  Sn  Sn8  1  0.369416  0.045980  0.848955  1
  Sn  Sn9  1  0.952461  0.636221  0.647529  1
  Sn  Sn10  1  0.629726  0.952817  0.148196  1
  Sn  Sn11  1  0.049789  0.362577  0.355854  1
  Sn  Sn12  1  0.801793  0.197725  0.741084  1
  Sn  Sn13  1  0.199125  0.801989  0.256478  1
  Ir  Ir14  1  0.373314  0.419214  0.698087  1
  Ir  Ir15  1  0.588378  0.613711  0.798308  1
  Ir  Ir16  1  0.623369  0.575854  0.300952  1
  Ir  Ir17  1  0.410770  0.382493  0.201164  1
  Ir  Ir18  1  0.190924  0.185130  0.099829  1
  Ir  Ir19  1  0.803067  0.804751  0.399434  1
  Ir  Ir20  1  0.809794  0.813355  0.898784  1
  Ir  Ir21  1  0.005650  0.006238  0.500966  1
