# generated using pymatgen
data_Ac4Sn5
_symmetry_space_group_name_H-M   'P 1'
_cell_length_a   6.60934819
_cell_length_b   6.60934656
_cell_length_c   11.39507369
_cell_angle_alpha   112.08954809
_cell_angle_beta   112.08954173
_cell_angle_gamma   42.99758738
_symmetry_Int_Tables_number   1
_chemical_formula_structural   Ac4Sn5
_chemical_formula_sum   'Ac4 Sn5'
_cell_volume   310.50447857
_cell_formula_units_Z   1
loop_
 _symmetry_equiv_pos_site_id
 _symmetry_equiv_pos_as_xyz
  1  'x, y, z'
loop_
 _atom_site_type_symbol
 _atom_site_label
 _atom_site_symmetry_multiplicity
 _atom_site_fract_x
 _atom_site_fract_y
 _atom_site_fract_z
 _atom_site_occupancy
  Ac  Ac0  1  0.400968  0.400968  0.118040  1
  Ac  Ac1  1  0.768469  0.768469  0.348574  1
  Ac  Ac2  1  0.231530  0.231530  0.651426  1
  Ac  Ac3  1  0.599032  0.599032  0.881960  1
  Sn  Sn4  1  0.122315  0.122315  0.108093  1
  Sn  Sn5  1  0.054107  0.054107  0.334996  1
  Sn  Sn6  1  0.500000  0.500000  0.500000  1
  Sn  Sn7  1  0.945893  0.945893  0.665005  1
  Sn  Sn8  1  0.877684  0.877684  0.891907  1
