# generated using pymatgen
data_Lu11ScTc4
_symmetry_space_group_name_H-M   'P 1'
_cell_length_a   6.08697094
_cell_length_b   7.32714811
_cell_length_c   8.89278100
_cell_angle_alpha   90.00000000
_cell_angle_beta   90.00000000
_cell_angle_gamma   89.50418219
_symmetry_Int_Tables_number   1
_chemical_formula_structural   Lu11ScTc4
_chemical_formula_sum   'Lu11 Sc1 Tc4'
_cell_volume   396.60440609
_cell_formula_units_Z   1
loop_
 _symmetry_equiv_pos_site_id
 _symmetry_equiv_pos_as_xyz
  1  'x, y, z'
loop_
 _atom_site_type_symbol
 _atom_site_label
 _atom_site_symmetry_multiplicity
 _atom_site_fract_x
 _atom_site_fract_y
 _atom_site_fract_z
 _atom_site_occupancy
  Lu  Lu0  1  0.127255  0.458619  0.750000  1
  Lu  Lu1  1  0.652193  0.323316  0.938960  1
  Lu  Lu2  1  0.373200  0.960140  0.750000  1
  Lu  Lu3  1  0.873051  0.540445  0.250000  1
  Lu  Lu4  1  0.152338  0.174782  0.437290  1
  Lu  Lu5  1  0.847212  0.824926  0.560671  1
  Lu  Lu6  1  0.152338  0.174782  0.062710  1
  Lu  Lu7  1  0.847212  0.824926  0.939329  1
  Lu  Lu8  1  0.652193  0.323316  0.561040  1
  Lu  Lu9  1  0.349363  0.676597  0.062838  1
  Lu  Lu10  1  0.349363  0.676597  0.437162  1
  Sc  Sc11  1  0.629917  0.045368  0.250000  1
  Tc  Tc12  1  0.544144  0.617443  0.750000  1
  Tc  Tc13  1  0.955180  0.116247  0.750000  1
  Tc  Tc14  1  0.036680  0.885034  0.250000  1
  Tc  Tc15  1  0.458364  0.377464  0.250000  1
