# generated using pymatgen
data_Hf7ZrSi6(WN)2
_symmetry_space_group_name_H-M   'P 1'
_cell_length_a   7.73962817
_cell_length_b   7.72923766
_cell_length_c   5.45622612
_cell_angle_alpha   89.98805481
_cell_angle_beta   90.02386572
_cell_angle_gamma   120.04447944
_symmetry_Int_Tables_number   1
_chemical_formula_structural   Hf7ZrSi6(WN)2
_chemical_formula_sum   'Hf7 Zr1 Si6 W2 N2'
_cell_volume   282.54321658
_cell_formula_units_Z   1
loop_
 _symmetry_equiv_pos_site_id
 _symmetry_equiv_pos_as_xyz
  1  'x, y, z'
loop_
 _atom_site_type_symbol
 _atom_site_label
 _atom_site_symmetry_multiplicity
 _atom_site_fract_x
 _atom_site_fract_y
 _atom_site_fract_z
 _atom_site_occupancy
  Hf  Hf0  1  0.764308  0.000000  0.751554  1
  Hf  Hf1  1  0.999964  0.234747  0.248115  1
  Hf  Hf2  1  0.999453  0.764923  0.752222  1
  Hf  Hf3  1  0.765217  0.765253  0.248115  1
  Hf  Hf4  1  0.234530  0.235077  0.752222  1
  Hf  Hf5  1  0.667269  0.333831  0.500192  1
  Hf  Hf6  1  0.333437  0.666169  0.500192  1
  Zr  Zr7  1  0.237799  0.000000  0.248745  1
  Si  Si8  1  0.591986  0.000000  0.226612  1
  Si  Si9  1  0.409464  0.000000  0.772958  1
  Si  Si10  1  0.999624  0.589740  0.226317  1
  Si  Si11  1  0.000020  0.409274  0.773432  1
  Si  Si12  1  0.409884  0.410260  0.226317  1
  Si  Si13  1  0.590745  0.590726  0.773432  1
  W  W14  1  0.333412  0.666135  0.999803  1
  W  W15  1  0.667278  0.333865  0.999803  1
  N  N16  1  0.997826  0.000000  0.998218  1
  N  N17  1  0.997784  0.000000  0.501752  1
