# generated using pymatgen
data_Rb8Hf3Zr3MnI20
_symmetry_space_group_name_H-M   'P 1'
_cell_length_a   12.91454401
_cell_length_b   12.91648625
_cell_length_c   12.91869415
_cell_angle_alpha   59.98439017
_cell_angle_beta   59.99931223
_cell_angle_gamma   60.01628834
_symmetry_Int_Tables_number   1
_chemical_formula_structural   Rb8Hf3Zr3MnI20
_chemical_formula_sum   'Rb8 Hf3 Zr3 Mn1 I20'
_cell_volume   1523.79653981
_cell_formula_units_Z   1
loop_
 _symmetry_equiv_pos_site_id
 _symmetry_equiv_pos_as_xyz
  1  'x, y, z'
loop_
 _atom_site_type_symbol
 _atom_site_label
 _atom_site_symmetry_multiplicity
 _atom_site_fract_x
 _atom_site_fract_y
 _atom_site_fract_z
 _atom_site_occupancy
  Rb  Rb0  1  0.361044  0.361107  0.361805  1
  Rb  Rb1  1  0.639134  0.638375  0.638380  1
  Rb  Rb2  1  0.361625  0.360866  0.915889  1
  Rb  Rb3  1  0.361805  0.916044  0.361044  1
  Rb  Rb4  1  0.638893  0.638956  0.083956  1
  Rb  Rb5  1  0.638380  0.084111  0.639134  1
  Rb  Rb6  1  0.915889  0.361620  0.361625  1
  Rb  Rb7  1  0.083956  0.638195  0.638893  1
  Hf  Hf8  1  0.866050  0.133950  0.134193  1
  Hf  Hf9  1  0.134193  0.865807  0.866050  1
  Hf  Hf10  1  0.133216  0.866784  0.133216  1
  Zr  Zr11  1  0.864841  0.135159  0.864841  1
  Zr  Zr12  1  0.134599  0.134365  0.865635  1
  Zr  Zr13  1  0.865635  0.865401  0.134599  1
  Mn  Mn14  1  0.999312  0.000688  0.999312  1
  I  I15  1  0.321344  0.997631  0.002369  1
  I  I16  1  0.677190  0.999833  0.000167  1
  I  I17  1  0.000167  0.322810  0.677190  1
  I  I18  1  0.002369  0.678656  0.321344  1
  I  I19  1  0.997831  0.321018  0.002247  1
  I  I20  1  0.678982  0.002169  0.321096  1
  I  I21  1  0.002247  0.678904  0.997831  1
  I  I22  1  0.321096  0.997753  0.678982  1
  I  I23  1  0.000124  0.999876  0.319467  1
  I  I24  1  0.002374  0.997626  0.679218  1
  I  I25  1  0.679218  0.320782  0.002374  1
  I  I26  1  0.319467  0.680533  0.000124  1
  I  I27  1  0.690087  0.309913  0.310442  1
  I  I28  1  0.310442  0.689558  0.690087  1
  I  I29  1  0.310150  0.689850  0.310150  1
  I  I30  1  0.687981  0.312019  0.687981  1
  I  I31  1  0.312236  0.311767  0.688233  1
  I  I32  1  0.688233  0.687764  0.312236  1
  I  I33  1  0.249945  0.250055  0.249945  1
  I  I34  1  0.749945  0.750055  0.749945  1
