# generated using pymatgen
data_Nd2U2Ga12Tc
_symmetry_space_group_name_H-M   'P 1'
_cell_length_a   7.54853463
_cell_length_b   7.53548646
_cell_length_c   7.53535566
_cell_angle_alpha   109.63712039
_cell_angle_beta   109.38796097
_cell_angle_gamma   109.39121922
_symmetry_Int_Tables_number   1
_chemical_formula_structural   Nd2U2Ga12Tc
_chemical_formula_sum   'Nd2 U2 Ga12 Tc1'
_cell_volume   329.94354679
_cell_formula_units_Z   1
loop_
 _symmetry_equiv_pos_site_id
 _symmetry_equiv_pos_as_xyz
  1  'x, y, z'
loop_
 _atom_site_type_symbol
 _atom_site_label
 _atom_site_symmetry_multiplicity
 _atom_site_fract_x
 _atom_site_fract_y
 _atom_site_fract_z
 _atom_site_occupancy
  Nd  Nd0  1  0.000000  0.500000  0.000000  1
  Nd  Nd1  1  0.000000  0.000000  0.500000  1
  U  U2  1  0.500000  0.000000  0.000000  1
  U  U3  1  0.500000  0.500000  0.500000  1
  Ga  Ga4  1  0.255406  0.506202  0.749283  1
  Ga  Ga5  1  0.000145  0.708482  0.708454  1
  Ga  Ga6  1  0.297577  0.290754  0.006656  1
  Ga  Ga7  1  0.499977  0.749990  0.249907  1
  Ga  Ga8  1  0.744646  0.250761  0.493816  1
  Ga  Ga9  1  0.744594  0.493798  0.250717  1
  Ga  Ga10  1  0.255354  0.749239  0.506184  1
  Ga  Ga11  1  0.702415  0.993332  0.709206  1
  Ga  Ga12  1  0.500023  0.250010  0.750093  1
  Ga  Ga13  1  0.999855  0.291518  0.291546  1
  Ga  Ga14  1  0.297585  0.006668  0.290794  1
  Ga  Ga15  1  0.702423  0.709246  0.993344  1
  Tc  Tc16  1  0.000000  0.000000  0.000000  1
