# generated using pymatgen
data_Zn2InSnRh4
_symmetry_space_group_name_H-M   'P 1'
_cell_length_a   7.69740608
_cell_length_b   7.69740611
_cell_length_c   7.69740658
_cell_angle_alpha   33.53410732
_cell_angle_beta   33.53410706
_cell_angle_gamma   33.53410753
_symmetry_Int_Tables_number   1
_chemical_formula_structural   Zn2InSnRh4
_chemical_formula_sum   'Zn2 In1 Sn1 Rh4'
_cell_volume   123.97076168
_cell_formula_units_Z   1
loop_
 _symmetry_equiv_pos_site_id
 _symmetry_equiv_pos_as_xyz
  1  'x, y, z'
loop_
 _atom_site_type_symbol
 _atom_site_label
 _atom_site_symmetry_multiplicity
 _atom_site_fract_x
 _atom_site_fract_y
 _atom_site_fract_z
 _atom_site_occupancy
  Zn  Zn0  1  0.252201  0.252201  0.252201  1
  Zn  Zn1  1  0.747799  0.747799  0.747799  1
  In  In2  1  0.000000  0.000000  0.000000  1
  Sn  Sn3  1  0.500000  0.500000  0.500000  1
  Rh  Rh4  1  0.623061  0.623061  0.623061  1
  Rh  Rh5  1  0.126901  0.126901  0.126901  1
  Rh  Rh6  1  0.873099  0.873099  0.873099  1
  Rh  Rh7  1  0.376939  0.376939  0.376939  1
