# generated using pymatgen
data_AcP12IrRu3
_symmetry_space_group_name_H-M   'P 1'
_cell_length_a   7.06731689
_cell_length_b   7.05657583
_cell_length_c   7.05657501
_cell_angle_alpha   109.44036557
_cell_angle_beta   109.50206868
_cell_angle_gamma   109.50205042
_symmetry_Int_Tables_number   1
_chemical_formula_structural   AcP12IrRu3
_chemical_formula_sum   'Ac1 P12 Ir1 Ru3'
_cell_volume   270.80408439
_cell_formula_units_Z   1
loop_
 _symmetry_equiv_pos_site_id
 _symmetry_equiv_pos_as_xyz
  1  'x, y, z'
loop_
 _atom_site_type_symbol
 _atom_site_label
 _atom_site_symmetry_multiplicity
 _atom_site_fract_x
 _atom_site_fract_y
 _atom_site_fract_z
 _atom_site_occupancy
  Ac  Ac0  1  0.000000  0.000000  0.000000  1
  P  P1  1  0.141056  0.785504  0.639650  1
  P  P2  1  0.144865  0.501735  0.357360  1
  P  P3  1  0.855135  0.498265  0.642640  1
  P  P4  1  0.356870  0.144375  0.501735  1
  P  P5  1  0.787507  0.642640  0.144375  1
  P  P6  1  0.858944  0.214496  0.360350  1
  P  P7  1  0.644447  0.145853  0.785504  1
  P  P8  1  0.498593  0.639650  0.854147  1
  P  P9  1  0.643130  0.855625  0.498265  1
  P  P10  1  0.501407  0.360350  0.145853  1
  P  P11  1  0.355553  0.854147  0.214496  1
  P  P12  1  0.212493  0.357360  0.855625  1
  Ir  Ir13  1  0.500000  0.000000  0.000000  1
  Ru  Ru14  1  0.500000  0.500000  0.500000  1
  Ru  Ru15  1  0.000000  0.500000  0.000000  1
  Ru  Ru16  1  0.000000  0.000000  0.500000  1
