# generated using pymatgen
data_HoTm3Al18(NiRh2)2
_symmetry_space_group_name_H-M   'P 1'
_cell_length_a   7.51584537
_cell_length_b   7.51589778
_cell_length_c   9.36383900
_cell_angle_alpha   90.00000000
_cell_angle_beta   90.00000000
_cell_angle_gamma   119.92026240
_symmetry_Int_Tables_number   1
_chemical_formula_structural   HoTm3Al18(NiRh2)2
_chemical_formula_sum   'Ho1 Tm3 Al18 Ni2 Rh4'
_cell_volume   458.44966678
_cell_formula_units_Z   1
loop_
 _symmetry_equiv_pos_site_id
 _symmetry_equiv_pos_as_xyz
  1  'x, y, z'
loop_
 _atom_site_type_symbol
 _atom_site_label
 _atom_site_symmetry_multiplicity
 _atom_site_fract_x
 _atom_site_fract_y
 _atom_site_fract_z
 _atom_site_occupancy
  Ho  Ho0  1  0.994735  0.667945  0.250000  1
  Tm  Tm1  1  0.005239  0.332107  0.750000  1
  Tm  Tm2  1  0.667914  0.994837  0.250000  1
  Tm  Tm3  1  0.332150  0.005216  0.750000  1
  Al  Al4  1  0.120567  0.120751  0.250000  1
  Al  Al5  1  0.879542  0.879593  0.750000  1
  Al  Al6  1  0.999243  0.331240  0.074751  1
  Al  Al7  1  0.000715  0.668497  0.924999  1
  Al  Al8  1  0.000715  0.668497  0.575001  1
  Al  Al9  1  0.331766  0.999492  0.425239  1
  Al  Al10  1  0.999243  0.331240  0.425249  1
  Al  Al11  1  0.668504  0.000736  0.574778  1
  Al  Al12  1  0.668504  0.000736  0.925222  1
  Al  Al13  1  0.331766  0.999492  0.074761  1
  Al  Al14  1  0.330168  0.330195  0.551872  1
  Al  Al15  1  0.669579  0.669782  0.448216  1
  Al  Al16  1  0.669579  0.669782  0.051784  1
  Al  Al17  1  0.330168  0.330195  0.948128  1
  Al  Al18  1  0.338406  0.547359  0.250000  1
  Al  Al19  1  0.661853  0.452587  0.750000  1
  Al  Al20  1  0.547123  0.338030  0.250000  1
  Al  Al21  1  0.452562  0.661841  0.750000  1
  Ni  Ni22  1  0.000019  0.000064  0.999879  1
  Ni  Ni23  1  0.000019  0.000064  0.500121  1
  Rh  Rh24  1  0.672185  0.327548  0.999782  1
  Rh  Rh25  1  0.327776  0.672313  0.999827  1
  Rh  Rh26  1  0.327776  0.672313  0.500173  1
  Rh  Rh27  1  0.672185  0.327548  0.500218  1
