# generated using pymatgen
data_CoAsF7
_symmetry_space_group_name_H-M   'P 1'
_cell_length_a   7.38302220
_cell_length_b   7.38302153
_cell_length_c   7.38302212
_cell_angle_alpha   123.53103197
_cell_angle_beta   121.80057941
_cell_angle_gamma   85.44863156
_symmetry_Int_Tables_number   1
_chemical_formula_structural   CoAsF7
_chemical_formula_sum   'Co2 As2 F14'
_cell_volume   272.08005831
_cell_formula_units_Z   2
loop_
 _symmetry_equiv_pos_site_id
 _symmetry_equiv_pos_as_xyz
  1  'x, y, z'
loop_
 _atom_site_type_symbol
 _atom_site_label
 _atom_site_symmetry_multiplicity
 _atom_site_fract_x
 _atom_site_fract_y
 _atom_site_fract_z
 _atom_site_occupancy
  Co  Co0  1  0.500000  0.000000  0.000000  1
  Co  Co1  1  0.000000  0.000000  0.500000  1
  As  As2  1  0.500000  0.000000  0.500000  1
  As  As3  1  0.000000  0.500000  0.500000  1
  F  F4  1  0.250000  0.100188  0.850188  1
  F  F5  1  0.750000  0.899812  0.149812  1
  F  F6  1  0.530419  0.274629  0.744210  1
  F  F7  1  0.969581  0.713790  0.744210  1
  F  F8  1  0.062947  0.351506  0.644677  1
  F  F9  1  0.437053  0.081731  0.288559  1
  F  F10  1  0.293172  0.648494  0.711441  1
  F  F11  1  0.206828  0.918269  0.355323  1
  F  F12  1  0.937053  0.648494  0.355323  1
  F  F13  1  0.562947  0.918269  0.711441  1
  F  F14  1  0.706828  0.351506  0.288559  1
  F  F15  1  0.793172  0.081731  0.644677  1
  F  F16  1  0.030419  0.286210  0.255790  1
  F  F17  1  0.469581  0.725371  0.255790  1
