# generated using pymatgen
data_Nd3TmTe4
_symmetry_space_group_name_H-M   'P 1'
_cell_length_a   4.31901500
_cell_length_b   4.31901637
_cell_length_c   15.16727300
_cell_angle_alpha   90.00000000
_cell_angle_beta   90.00000000
_cell_angle_gamma   119.99999718
_symmetry_Int_Tables_number   1
_chemical_formula_structural   Nd3TmTe4
_chemical_formula_sum   'Nd3 Tm1 Te4'
_cell_volume   245.02348359
_cell_formula_units_Z   1
loop_
 _symmetry_equiv_pos_site_id
 _symmetry_equiv_pos_as_xyz
  1  'x, y, z'
loop_
 _atom_site_type_symbol
 _atom_site_label
 _atom_site_symmetry_multiplicity
 _atom_site_fract_x
 _atom_site_fract_y
 _atom_site_fract_z
 _atom_site_occupancy
  Nd  Nd0  1  0.333333  0.666667  0.877471  1
  Nd  Nd1  1  0.666667  0.333333  0.118134  1
  Nd  Nd2  1  0.666667  0.333333  0.386977  1
  Tm  Tm3  1  0.333333  0.666667  0.617082  1
  Te  Te4  1  0.333333  0.666667  0.253086  1
  Te  Te5  1  0.666667  0.333333  0.738868  1
  Te  Te6  1  0.000000  0.000000  0.510460  1
  Te  Te7  1  0.000000  0.000000  0.997923  1
