# generated using pymatgen
data_Ti9NbGe6C
_symmetry_space_group_name_H-M   'P 1'
_cell_length_a   7.58158200
_cell_length_b   7.58158320
_cell_length_c   5.26302700
_cell_angle_alpha   90.00000000
_cell_angle_beta   90.00000000
_cell_angle_gamma   119.99999476
_symmetry_Int_Tables_number   1
_chemical_formula_structural   Ti9NbGe6C
_chemical_formula_sum   'Ti9 Nb1 Ge6 C1'
_cell_volume   261.99077194
_cell_formula_units_Z   1
loop_
 _symmetry_equiv_pos_site_id
 _symmetry_equiv_pos_as_xyz
  1  'x, y, z'
loop_
 _atom_site_type_symbol
 _atom_site_label
 _atom_site_symmetry_multiplicity
 _atom_site_fract_x
 _atom_site_fract_y
 _atom_site_fract_z
 _atom_site_occupancy
  Ti  Ti0  1  0.001056  0.763332  0.262541  1
  Ti  Ti1  1  0.236668  0.237724  0.262541  1
  Ti  Ti2  1  0.762276  0.998944  0.262541  1
  Ti  Ti3  1  0.001056  0.237724  0.737459  1
  Ti  Ti4  1  0.762276  0.763332  0.737459  1
  Ti  Ti5  1  0.236668  0.998944  0.737459  1
  Ti  Ti6  1  0.333333  0.666667  0.000000  1
  Ti  Ti7  1  0.666667  0.333333  0.000000  1
  Ti  Ti8  1  0.666667  0.333333  0.500000  1
  Nb  Nb9  1  0.333333  0.666667  0.500000  1
  Ge  Ge10  1  0.996981  0.395419  0.243322  1
  Ge  Ge11  1  0.604581  0.601562  0.243322  1
  Ge  Ge12  1  0.398438  0.003019  0.243322  1
  Ge  Ge13  1  0.996981  0.601562  0.756678  1
  Ge  Ge14  1  0.398438  0.395419  0.756678  1
  Ge  Ge15  1  0.604581  0.003019  0.756678  1
  C  C16  1  0.000000  0.000000  0.500000  1
