# generated using pymatgen
data_Tb8Cd2PdRu
_symmetry_space_group_name_H-M   'P 1'
_cell_length_a   9.71005576
_cell_length_b   9.71005635
_cell_length_c   9.75724100
_cell_angle_alpha   59.83911968
_cell_angle_beta   59.83911764
_cell_angle_gamma   59.78798748
_symmetry_Int_Tables_number   1
_chemical_formula_structural   Tb8Cd2PdRu
_chemical_formula_sum   'Tb16 Cd4 Pd2 Ru2'
_cell_volume   647.88485503
_cell_formula_units_Z   2
loop_
 _symmetry_equiv_pos_site_id
 _symmetry_equiv_pos_as_xyz
  1  'x, y, z'
loop_
 _atom_site_type_symbol
 _atom_site_label
 _atom_site_symmetry_multiplicity
 _atom_site_fract_x
 _atom_site_fract_y
 _atom_site_fract_z
 _atom_site_occupancy
  Tb  Tb0  1  0.349170  0.349170  0.354794  1
  Tb  Tb1  1  0.349170  0.349170  0.946867  1
  Tb  Tb2  1  0.345244  0.953412  0.350673  1
  Tb  Tb3  1  0.953412  0.345244  0.350673  1
  Tb  Tb4  1  0.816640  0.187777  0.190113  1
  Tb  Tb5  1  0.187777  0.816640  0.805471  1
  Tb  Tb6  1  0.187777  0.816640  0.190113  1
  Tb  Tb7  1  0.816640  0.187777  0.805471  1
  Tb  Tb8  1  0.187938  0.187938  0.812062  1
  Tb  Tb9  1  0.808727  0.808727  0.191273  1
  Tb  Tb10  1  0.936624  0.559392  0.567154  1
  Tb  Tb11  1  0.559392  0.936624  0.936830  1
  Tb  Tb12  1  0.559392  0.936624  0.567154  1
  Tb  Tb13  1  0.936624  0.559392  0.936830  1
  Tb  Tb14  1  0.564677  0.564677  0.935323  1
  Tb  Tb15  1  0.938093  0.938093  0.561907  1
  Cd  Cd16  1  0.580257  0.580257  0.581586  1
  Cd  Cd17  1  0.580257  0.580257  0.257898  1
  Cd  Cd18  1  0.581519  0.254841  0.581819  1
  Cd  Cd19  1  0.254841  0.581519  0.581819  1
  Pd  Pd20  1  0.145429  0.571534  0.141518  1
  Pd  Pd21  1  0.571534  0.145429  0.141518  1
  Ru  Ru22  1  0.144433  0.144433  0.137692  1
  Ru  Ru23  1  0.144433  0.144433  0.573441  1
