# generated using pymatgen
data_TmHf3(Si3Ni5)4
_symmetry_space_group_name_H-M   'P 1'
_cell_length_a   3.71886000
_cell_length_b   6.60459885
_cell_length_c   18.40084171
_cell_angle_alpha   90.08306601
_cell_angle_beta   90.00000000
_cell_angle_gamma   90.00000000
_symmetry_Int_Tables_number   1
_chemical_formula_structural   TmHf3(Si3Ni5)4
_chemical_formula_sum   'Tm1 Hf3 Si12 Ni20'
_cell_volume   451.95324249
_cell_formula_units_Z   1
loop_
 _symmetry_equiv_pos_site_id
 _symmetry_equiv_pos_as_xyz
  1  'x, y, z'
loop_
 _atom_site_type_symbol
 _atom_site_label
 _atom_site_symmetry_multiplicity
 _atom_site_fract_x
 _atom_site_fract_y
 _atom_site_fract_z
 _atom_site_occupancy
  Tm  Tm0  1  0.250000  0.877250  0.142995  1
  Hf  Hf1  1  0.250000  0.621408  0.643310  1
  Hf  Hf2  1  0.750000  0.379039  0.357762  1
  Hf  Hf3  1  0.750000  0.119693  0.855355  1
  Si  Si4  1  0.250000  0.853652  0.922763  1
  Si  Si5  1  0.750000  0.156980  0.075455  1
  Si  Si6  1  0.750000  0.351909  0.577843  1
  Si  Si7  1  0.250000  0.646481  0.424336  1
  Si  Si8  1  0.750000  0.622660  0.759626  1
  Si  Si9  1  0.250000  0.377030  0.241415  1
  Si  Si10  1  0.250000  0.405465  0.910470  1
  Si  Si11  1  0.750000  0.583859  0.083993  1
  Si  Si12  1  0.750000  0.905807  0.586370  1
  Si  Si13  1  0.250000  0.094878  0.415510  1
  Si  Si14  1  0.250000  0.122162  0.739068  1
  Si  Si15  1  0.750000  0.877074  0.262940  1
  Ni  Ni16  1  0.250000  0.133538  0.993508  1
  Ni  Ni17  1  0.750000  0.379041  0.981687  1
  Ni  Ni18  1  0.750000  0.121247  0.487195  1
  Ni  Ni19  1  0.250000  0.615645  0.011087  1
  Ni  Ni20  1  0.250000  0.359225  0.116641  1
  Ni  Ni21  1  0.750000  0.648014  0.883864  1
  Ni  Ni22  1  0.750000  0.854698  0.387094  1
  Ni  Ni23  1  0.250000  0.143466  0.615001  1
  Ni  Ni24  1  0.250000  0.071554  0.295820  1
  Ni  Ni25  1  0.750000  0.928697  0.706442  1
  Ni  Ni26  1  0.750000  0.568742  0.206687  1
  Ni  Ni27  1  0.250000  0.430062  0.790877  1
  Ni  Ni28  1  0.750000  0.629049  0.506604  1
  Ni  Ni29  1  0.250000  0.370462  0.496227  1
  Ni  Ni30  1  0.250000  0.820117  0.799155  1
  Ni  Ni31  1  0.750000  0.183396  0.201803  1
  Ni  Ni32  1  0.750000  0.318807  0.700164  1
  Ni  Ni33  1  0.250000  0.679498  0.301781  1
  Ni  Ni34  1  0.250000  0.879196  0.514377  1
  Ni  Ni35  1  0.750000  0.870204  0.004778  1
