# generated using pymatgen
data_Nb16Ir3Pt13
_symmetry_space_group_name_H-M   'P 1'
_cell_length_a   9.00208294
_cell_length_b   9.00208330
_cell_length_c   6.98550725
_cell_angle_alpha   76.01624414
_cell_angle_beta   76.01624364
_cell_angle_gamma   77.84783768
_symmetry_Int_Tables_number   1
_chemical_formula_structural   Nb16Ir3Pt13
_chemical_formula_sum   'Nb16 Ir3 Pt13'
_cell_volume   526.03084000
_cell_formula_units_Z   1
loop_
 _symmetry_equiv_pos_site_id
 _symmetry_equiv_pos_as_xyz
  1  'x, y, z'
loop_
 _atom_site_type_symbol
 _atom_site_label
 _atom_site_symmetry_multiplicity
 _atom_site_fract_x
 _atom_site_fract_y
 _atom_site_fract_z
 _atom_site_occupancy
  Nb  Nb0  1  0.999528  0.251798  0.247338  1
  Nb  Nb1  1  0.251798  0.999528  0.247338  1
  Nb  Nb2  1  0.751302  0.501749  0.243161  1
  Nb  Nb3  1  0.501749  0.751302  0.243161  1
  Nb  Nb4  1  0.875561  0.127894  0.998191  1
  Nb  Nb5  1  0.127894  0.875561  0.998191  1
  Nb  Nb6  1  0.628021  0.378573  0.997088  1
  Nb  Nb7  1  0.378573  0.628021  0.997088  1
  Nb  Nb8  1  0.123156  0.375128  0.503940  1
  Nb  Nb9  1  0.375128  0.123156  0.503940  1
  Nb  Nb10  1  0.873623  0.623784  0.505580  1
  Nb  Nb11  1  0.623784  0.873623  0.505580  1
  Nb  Nb12  1  0.746507  0.996781  0.752486  1
  Nb  Nb13  1  0.996781  0.746507  0.752486  1
  Nb  Nb14  1  0.499041  0.247594  0.752211  1
  Nb  Nb15  1  0.247594  0.499041  0.752211  1
  Ir  Ir16  1  0.687760  0.687760  0.874112  1
  Ir  Ir17  1  0.938798  0.436152  0.875053  1
  Ir  Ir18  1  0.436152  0.938798  0.875053  1
  Pt  Pt19  1  0.312829  0.312829  0.126596  1
  Pt  Pt20  1  0.061634  0.061634  0.624862  1
  Pt  Pt21  1  0.813329  0.813329  0.126455  1
  Pt  Pt22  1  0.562110  0.562110  0.622244  1
  Pt  Pt23  1  0.436926  0.436926  0.375645  1
  Pt  Pt24  1  0.187308  0.187308  0.875752  1
  Pt  Pt25  1  0.938154  0.938154  0.374189  1
  Pt  Pt26  1  0.063488  0.562632  0.126397  1
  Pt  Pt27  1  0.562632  0.063488  0.126397  1
  Pt  Pt28  1  0.812106  0.311776  0.623584  1
  Pt  Pt29  1  0.311776  0.812106  0.623584  1
  Pt  Pt30  1  0.187660  0.687300  0.375042  1
  Pt  Pt31  1  0.687300  0.187660  0.375042  1
