# generated using pymatgen
data_Dy2Ga2Co3Ni3B2
_symmetry_space_group_name_H-M   'P 1'
_cell_length_a   5.17687621
_cell_length_b   5.15152450
_cell_length_c   6.70292200
_cell_angle_alpha   89.99948584
_cell_angle_beta   89.99856384
_cell_angle_gamma   120.37989807
_symmetry_Int_Tables_number   1
_chemical_formula_structural   Dy2Ga2Co3Ni3B2
_chemical_formula_sum   'Dy2 Ga2 Co3 Ni3 B2'
_cell_volume   154.21373692
_cell_formula_units_Z   1
loop_
 _symmetry_equiv_pos_site_id
 _symmetry_equiv_pos_as_xyz
  1  'x, y, z'
loop_
 _atom_site_type_symbol
 _atom_site_label
 _atom_site_symmetry_multiplicity
 _atom_site_fract_x
 _atom_site_fract_y
 _atom_site_fract_z
 _atom_site_occupancy
  Dy  Dy0  1  0.999992  0.000017  0.991715  1
  Dy  Dy1  1  0.999978  0.999991  0.498617  1
  Ga  Ga2  1  0.332270  0.663417  0.000093  1
  Ga  Ga3  1  0.667709  0.336602  0.000092  1
  Co  Co4  1  0.499978  0.499995  0.297163  1
  Co  Co5  1  0.499976  0.499997  0.704676  1
  Co  Co6  1  0.999980  0.500000  0.704201  1
  Ni  Ni7  1  0.499983  0.999991  0.294703  1
  Ni  Ni8  1  0.999989  0.499994  0.296500  1
  Ni  Ni9  1  0.499984  0.000000  0.706460  1
  B  B10  1  0.333197  0.659020  0.502889  1
  B  B11  1  0.666764  0.340976  0.502891  1
