# generated using pymatgen
data_Na2Mn2(MoO4)3
_symmetry_space_group_name_H-M   'P 1'
_cell_length_a   7.20851462
_cell_length_b   8.97225075
_cell_length_c   10.65592891
_cell_angle_alpha   106.44765515
_cell_angle_beta   105.48069897
_cell_angle_gamma   103.47517391
_symmetry_Int_Tables_number   1
_chemical_formula_structural   Na2Mn2(MoO4)3
_chemical_formula_sum   'Na4 Mn4 Mo6 O24'
_cell_volume   600.45276223
_cell_formula_units_Z   2
loop_
 _symmetry_equiv_pos_site_id
 _symmetry_equiv_pos_as_xyz
  1  'x, y, z'
loop_
 _atom_site_type_symbol
 _atom_site_label
 _atom_site_symmetry_multiplicity
 _atom_site_fract_x
 _atom_site_fract_y
 _atom_site_fract_z
 _atom_site_occupancy
  Na  Na0  1  0.786724  0.790469  0.301108  1
  Na  Na1  1  0.215334  0.205448  0.701767  1
  Na  Na2  1  0.449869  0.993463  0.976561  1
  Na  Na3  1  0.951286  0.048508  0.063843  1
  Mn  Mn4  1  0.876493  0.455800  0.105356  1
  Mn  Mn5  1  0.126972  0.546048  0.895436  1
  Mn  Mn6  1  0.460824  0.294219  0.482361  1
  Mn  Mn7  1  0.545843  0.707234  0.520597  1
  Mo  Mo8  1  0.281749  0.835565  0.236900  1
  Mo  Mo9  1  0.720585  0.163993  0.765706  1
  Mo  Mo10  1  0.912689  0.236657  0.365723  1
  Mo  Mo11  1  0.100834  0.762588  0.633229  1
  Mo  Mo12  1  0.617933  0.596714  0.834231  1
  Mo  Mo13  1  0.379833  0.403221  0.168634  1
  O  O14  1  0.316629  0.048133  0.317910  1
  O  O15  1  0.677437  0.952432  0.678404  1
  O  O16  1  0.034838  0.720017  0.227695  1
  O  O17  1  0.967036  0.278757  0.774639  1
  O  O18  1  0.181854  0.476485  0.084706  1
  O  O19  1  0.824654  0.532029  0.920494  1
  O  O20  1  0.740573  0.291900  0.449242  1
  O  O21  1  0.254162  0.695630  0.536912  1
  O  O22  1  0.614689  0.493992  0.148591  1
  O  O23  1  0.385861  0.493937  0.851336  1
  O  O24  1  0.280541  0.798424  0.060225  1
  O  O25  1  0.729100  0.196454  0.945028  1
  O  O26  1  0.954757  0.346906  0.252653  1
  O  O27  1  0.067001  0.646276  0.742461  1
  O  O28  1  0.294459  0.186421  0.081295  1
  O  O29  1  0.676643  0.810829  0.920572  1
  O  O30  1  0.856795  0.747123  0.515185  1
  O  O31  1  0.153074  0.261271  0.492489  1
  O  O32  1  0.801218  0.025873  0.247807  1
  O  O33  1  0.238769  0.972191  0.749025  1
  O  O34  1  0.480810  0.780828  0.339117  1
  O  O35  1  0.527608  0.226748  0.666734  1
  O  O36  1  0.425387  0.447576  0.353405  1
  O  O37  1  0.580635  0.555242  0.650525  1
