# generated using pymatgen
data_Y2CrFe2Co9As7
_symmetry_space_group_name_H-M   'P 1'
_cell_length_a   3.75502300
_cell_length_b   9.36325973
_cell_length_c   9.35375490
_cell_angle_alpha   119.89540858
_cell_angle_beta   90.00000000
_cell_angle_gamma   90.00000000
_symmetry_Int_Tables_number   1
_chemical_formula_structural   Y2CrFe2Co9As7
_chemical_formula_sum   'Y2 Cr1 Fe2 Co9 As7'
_cell_volume   285.11038906
_cell_formula_units_Z   1
loop_
 _symmetry_equiv_pos_site_id
 _symmetry_equiv_pos_as_xyz
  1  'x, y, z'
loop_
 _atom_site_type_symbol
 _atom_site_label
 _atom_site_symmetry_multiplicity
 _atom_site_fract_x
 _atom_site_fract_y
 _atom_site_fract_z
 _atom_site_occupancy
  Y  Y0  1  0.000000  0.667241  0.337462  1
  Y  Y1  1  0.500000  0.332017  0.665221  1
  Cr  Cr2  1  0.500000  0.779719  0.897695  1
  Fe  Fe3  1  0.500000  0.121872  0.216360  1
  Fe  Fe4  1  0.500000  0.100068  0.881785  1
  Co  Co5  1  0.000000  0.567912  0.941812  1
  Co  Co6  1  0.000000  0.373306  0.431777  1
  Co  Co7  1  0.000000  0.058355  0.624858  1
  Co  Co8  1  0.000000  0.876361  0.155927  1
  Co  Co9  1  0.000000  0.279733  0.121580  1
  Co  Co10  1  0.000000  0.842917  0.723342  1
  Co  Co11  1  0.500000  0.949733  0.381420  1
  Co  Co12  1  0.500000  0.432167  0.049961  1
  Co  Co13  1  0.500000  0.619225  0.567438  1
  As  As14  1  0.000000  0.002632  0.002184  1
  As  As15  1  0.500000  0.707152  0.118277  1
  As  As16  1  0.500000  0.404561  0.291655  1
  As  As17  1  0.500000  0.889451  0.597218  1
  As  As18  1  0.000000  0.587669  0.702639  1
  As  As19  1  0.000000  0.114401  0.407928  1
  As  As20  1  0.000000  0.293507  0.883463  1
