# generated using pymatgen
data_Ba4ErNbO8
_symmetry_space_group_name_H-M   'P 1'
_cell_length_a   7.45797866
_cell_length_b   7.45797804
_cell_length_c   6.02678700
_cell_angle_alpha   90.00000000
_cell_angle_beta   90.00000000
_cell_angle_gamma   132.54326767
_symmetry_Int_Tables_number   1
_chemical_formula_structural   Ba4ErNbO8
_chemical_formula_sum   'Ba4 Er1 Nb1 O8'
_cell_volume   246.97796774
_cell_formula_units_Z   1
loop_
 _symmetry_equiv_pos_site_id
 _symmetry_equiv_pos_as_xyz
  1  'x, y, z'
loop_
 _atom_site_type_symbol
 _atom_site_label
 _atom_site_symmetry_multiplicity
 _atom_site_fract_x
 _atom_site_fract_y
 _atom_site_fract_z
 _atom_site_occupancy
  Ba  Ba0  1  0.646788  0.353212  0.000000  1
  Ba  Ba1  1  0.146375  0.853625  0.500000  1
  Ba  Ba2  1  0.853625  0.146375  0.500000  1
  Ba  Ba3  1  0.353212  0.646788  0.000000  1
  Er  Er4  1  0.000000  0.000000  0.000000  1
  Nb  Nb5  1  0.500000  0.500000  0.500000  1
  O  O6  1  0.739744  0.739744  0.264607  1
  O  O7  1  0.260256  0.260256  0.735393  1
  O  O8  1  0.260256  0.260256  0.264607  1
  O  O9  1  0.739744  0.739744  0.735393  1
  O  O10  1  0.835572  0.164428  0.000000  1
  O  O11  1  0.349059  0.650941  0.500000  1
  O  O12  1  0.650941  0.349059  0.500000  1
  O  O13  1  0.164428  0.835572  0.000000  1
