# generated using pymatgen
data_Ho2TmNb(Co4P3)2
_symmetry_space_group_name_H-M   'P 1'
_cell_length_a   3.70165700
_cell_length_b   10.60976300
_cell_length_c   12.29938500
_cell_angle_alpha   90.00000000
_cell_angle_beta   90.00000000
_cell_angle_gamma   90.00000000
_symmetry_Int_Tables_number   1
_chemical_formula_structural   Ho2TmNb(Co4P3)2
_chemical_formula_sum   'Ho4 Tm2 Nb2 Co16 P12'
_cell_volume   483.04239944
_cell_formula_units_Z   2
loop_
 _symmetry_equiv_pos_site_id
 _symmetry_equiv_pos_as_xyz
  1  'x, y, z'
loop_
 _atom_site_type_symbol
 _atom_site_label
 _atom_site_symmetry_multiplicity
 _atom_site_fract_x
 _atom_site_fract_y
 _atom_site_fract_z
 _atom_site_occupancy
  Ho  Ho0  1  0.000000  0.500000  0.526763  1
  Ho  Ho1  1  0.500000  0.000000  0.473209  1
  Ho  Ho2  1  0.000000  0.679874  0.794738  1
  Ho  Ho3  1  0.000000  0.320126  0.794738  1
  Tm  Tm4  1  0.500000  0.820741  0.205165  1
  Tm  Tm5  1  0.500000  0.179259  0.205165  1
  Nb  Nb6  1  0.500000  0.500000  0.157224  1
  Nb  Nb7  1  0.000000  0.000000  0.842986  1
  Co  Co8  1  0.000000  0.500000  0.986025  1
  Co  Co9  1  0.500000  0.000000  0.015019  1
  Co  Co10  1  0.500000  0.295094  0.432004  1
  Co  Co11  1  0.500000  0.704906  0.432004  1
  Co  Co12  1  0.000000  0.204507  0.567067  1
  Co  Co13  1  0.000000  0.795493  0.567067  1
  Co  Co14  1  0.500000  0.877207  0.704203  1
  Co  Co15  1  0.500000  0.122793  0.704203  1
  Co  Co16  1  0.000000  0.623463  0.295189  1
  Co  Co17  1  0.000000  0.376537  0.295189  1
  Co  Co18  1  0.500000  0.332124  0.991980  1
  Co  Co19  1  0.500000  0.667876  0.991980  1
  Co  Co20  1  0.000000  0.167375  0.009102  1
  Co  Co21  1  0.000000  0.832625  0.009102  1
  Co  Co22  1  0.500000  0.500000  0.701992  1
  Co  Co23  1  0.000000  0.000000  0.297400  1
  P  P24  1  0.500000  0.311224  0.615484  1
  P  P25  1  0.500000  0.688776  0.615484  1
  P  P26  1  0.000000  0.188285  0.383467  1
  P  P27  1  0.000000  0.811715  0.383467  1
  P  P28  1  0.500000  0.500000  0.881960  1
  P  P29  1  0.000000  0.000000  0.118964  1
  P  P30  1  0.500000  0.841255  0.893158  1
  P  P31  1  0.500000  0.158745  0.893158  1
  P  P32  1  0.000000  0.659535  0.107773  1
  P  P33  1  0.000000  0.340465  0.107773  1
  P  P34  1  0.500000  0.500000  0.356250  1
  P  P35  1  0.000000  0.000000  0.643551  1
