# generated using pymatgen
data_Li8Tm8GaPb7
_symmetry_space_group_name_H-M   'P 1'
_cell_length_a   9.42502624
_cell_length_b   9.42602687
_cell_length_c   7.24505300
_cell_angle_alpha   90.00283256
_cell_angle_beta   89.98710013
_cell_angle_gamma   120.00398362
_symmetry_Int_Tables_number   1
_chemical_formula_structural   Li8Tm8GaPb7
_chemical_formula_sum   'Li8 Tm8 Ga1 Pb7'
_cell_volume   557.39875324
_cell_formula_units_Z   1
loop_
 _symmetry_equiv_pos_site_id
 _symmetry_equiv_pos_as_xyz
  1  'x, y, z'
loop_
 _atom_site_type_symbol
 _atom_site_label
 _atom_site_symmetry_multiplicity
 _atom_site_fract_x
 _atom_site_fract_y
 _atom_site_fract_z
 _atom_site_occupancy
  Li  Li0  1  0.166923  0.332877  0.211413  1
  Li  Li1  1  0.166901  0.834030  0.211395  1
  Li  Li2  1  0.666095  0.833043  0.207814  1
  Li  Li3  1  0.665832  0.332905  0.322982  1
  Li  Li4  1  0.828973  0.670624  0.714626  1
  Li  Li5  1  0.333435  0.166742  0.710425  1
  Li  Li6  1  0.828977  0.158329  0.714566  1
  Li  Li7  1  0.342778  0.671386  0.821187  1
  Tm  Tm8  1  0.989318  0.994655  0.993742  1
  Tm  Tm9  1  0.515743  0.020527  0.003375  1
  Tm  Tm10  1  0.515748  0.495230  0.003380  1
  Tm  Tm11  1  0.975914  0.487922  0.005182  1
  Tm  Tm12  1  0.994125  0.997044  0.501763  1
  Tm  Tm13  1  0.492399  0.971273  0.512034  1
  Tm  Tm14  1  0.024318  0.512147  0.504845  1
  Tm  Tm15  1  0.492439  0.521184  0.512040  1
  Ga  Ga16  1  0.666373  0.833195  0.770554  1
  Pb  Pb17  1  0.334281  0.667149  0.239066  1
  Pb  Pb18  1  0.832868  0.666778  0.271543  1
  Pb  Pb19  1  0.333390  0.166790  0.270478  1
  Pb  Pb20  1  0.832836  0.166001  0.271525  1
  Pb  Pb21  1  0.667369  0.333695  0.740594  1
  Pb  Pb22  1  0.166483  0.333820  0.771759  1
  Pb  Pb23  1  0.166483  0.832652  0.771725  1
