# generated using pymatgen
data_HoTm2Mn8CoP6
_symmetry_space_group_name_H-M   'P 1'
_cell_length_a   3.61297500
_cell_length_b   10.83766400
_cell_length_c   12.59411100
_cell_angle_alpha   90.00000000
_cell_angle_beta   90.00000000
_cell_angle_gamma   90.00000000
_symmetry_Int_Tables_number   1
_chemical_formula_structural   HoTm2Mn8CoP6
_chemical_formula_sum   'Ho2 Tm4 Mn16 Co2 P12'
_cell_volume   493.13764362
_cell_formula_units_Z   2
loop_
 _symmetry_equiv_pos_site_id
 _symmetry_equiv_pos_as_xyz
  1  'x, y, z'
loop_
 _atom_site_type_symbol
 _atom_site_label
 _atom_site_symmetry_multiplicity
 _atom_site_fract_x
 _atom_site_fract_y
 _atom_site_fract_z
 _atom_site_occupancy
  Ho  Ho0  1  0.000000  0.500000  0.531851  1
  Ho  Ho1  1  0.500000  0.000000  0.468149  1
  Tm  Tm2  1  0.500000  0.823234  0.206678  1
  Tm  Tm3  1  0.500000  0.176766  0.206678  1
  Tm  Tm4  1  0.000000  0.676766  0.793322  1
  Tm  Tm5  1  0.000000  0.323234  0.793322  1
  Mn  Mn6  1  0.500000  0.500000  0.165774  1
  Mn  Mn7  1  0.000000  0.000000  0.834226  1
  Mn  Mn8  1  0.000000  0.500000  0.992376  1
  Mn  Mn9  1  0.500000  0.000000  0.007624  1
  Mn  Mn10  1  0.500000  0.332676  0.996705  1
  Mn  Mn11  1  0.500000  0.667324  0.996705  1
  Mn  Mn12  1  0.000000  0.167324  0.003295  1
  Mn  Mn13  1  0.000000  0.832676  0.003295  1
  Mn  Mn14  1  0.500000  0.297899  0.432235  1
  Mn  Mn15  1  0.500000  0.702101  0.432235  1
  Mn  Mn16  1  0.000000  0.202101  0.567765  1
  Mn  Mn17  1  0.000000  0.797899  0.567765  1
  Mn  Mn18  1  0.500000  0.880564  0.702775  1
  Mn  Mn19  1  0.500000  0.119436  0.702775  1
  Mn  Mn20  1  0.000000  0.619436  0.297225  1
  Mn  Mn21  1  0.000000  0.380564  0.297225  1
  Co  Co22  1  0.500000  0.500000  0.705992  1
  Co  Co23  1  0.000000  0.000000  0.294008  1
  P  P24  1  0.500000  0.500000  0.880026  1
  P  P25  1  0.000000  0.000000  0.119974  1
  P  P26  1  0.500000  0.500000  0.358857  1
  P  P27  1  0.000000  0.000000  0.641143  1
  P  P28  1  0.500000  0.318370  0.619532  1
  P  P29  1  0.500000  0.681630  0.619532  1
  P  P30  1  0.000000  0.181630  0.380468  1
  P  P31  1  0.000000  0.818370  0.380468  1
  P  P32  1  0.500000  0.844360  0.884419  1
  P  P33  1  0.500000  0.155640  0.884419  1
  P  P34  1  0.000000  0.655640  0.115581  1
  P  P35  1  0.000000  0.344360  0.115581  1
