# generated using pymatgen
data_TmLuNi2(SnH)2
_symmetry_space_group_name_H-M   'P 1'
_cell_length_a   4.18884800
_cell_length_b   7.00581535
_cell_length_c   8.22900241
_cell_angle_alpha   90.03621635
_cell_angle_beta   90.00000000
_cell_angle_gamma   90.00000000
_symmetry_Int_Tables_number   1
_chemical_formula_structural   TmLuNi2(SnH)2
_chemical_formula_sum   'Tm2 Lu2 Ni4 Sn4 H4'
_cell_volume   241.49068914
_cell_formula_units_Z   2
loop_
 _symmetry_equiv_pos_site_id
 _symmetry_equiv_pos_as_xyz
  1  'x, y, z'
loop_
 _atom_site_type_symbol
 _atom_site_label
 _atom_site_symmetry_multiplicity
 _atom_site_fract_x
 _atom_site_fract_y
 _atom_site_fract_z
 _atom_site_occupancy
  Tm  Tm0  1  0.750000  0.517313  0.814811  1
  Tm  Tm1  1  0.250000  0.482687  0.185189  1
  Lu  Lu2  1  0.250000  0.982374  0.315315  1
  Lu  Lu3  1  0.750000  0.017626  0.684685  1
  Ni  Ni4  1  0.750000  0.268920  0.390812  1
  Ni  Ni5  1  0.250000  0.731080  0.609188  1
  Ni  Ni6  1  0.250000  0.227835  0.888985  1
  Ni  Ni7  1  0.750000  0.772165  0.111015  1
  Sn  Sn8  1  0.750000  0.155664  0.071829  1
  Sn  Sn9  1  0.250000  0.844336  0.928171  1
  Sn  Sn10  1  0.250000  0.344489  0.571451  1
  Sn  Sn11  1  0.750000  0.655511  0.428549  1
  H  H12  1  0.250000  0.954876  0.576679  1
  H  H13  1  0.750000  0.045124  0.423321  1
  H  H14  1  0.750000  0.547676  0.077783  1
  H  H15  1  0.250000  0.452324  0.922217  1
