# generated using pymatgen
data_TbNd3Al2(ZnPd2)2
_symmetry_space_group_name_H-M   'P 1'
_cell_length_a   4.42977700
_cell_length_b   7.10042152
_cell_length_c   8.02169473
_cell_angle_alpha   90.67807759
_cell_angle_beta   90.00000000
_cell_angle_gamma   90.00000000
_symmetry_Int_Tables_number   1
_chemical_formula_structural   TbNd3Al2(ZnPd2)2
_chemical_formula_sum   'Tb1 Nd3 Al2 Zn2 Pd4'
_cell_volume   252.29097338
_cell_formula_units_Z   1
loop_
 _symmetry_equiv_pos_site_id
 _symmetry_equiv_pos_as_xyz
  1  'x, y, z'
loop_
 _atom_site_type_symbol
 _atom_site_label
 _atom_site_symmetry_multiplicity
 _atom_site_fract_x
 _atom_site_fract_y
 _atom_site_fract_z
 _atom_site_occupancy
  Tb  Tb0  1  0.750000  0.964959  0.315773  1
  Nd  Nd1  1  0.250000  0.531142  0.810791  1
  Nd  Nd2  1  0.750000  0.469944  0.192130  1
  Nd  Nd3  1  0.250000  0.034160  0.679775  1
  Al  Al4  1  0.250000  0.144289  0.063462  1
  Al  Al5  1  0.750000  0.855473  0.939632  1
  Zn  Zn6  1  0.250000  0.651546  0.431417  1
  Zn  Zn7  1  0.750000  0.348709  0.566487  1
  Pd  Pd8  1  0.750000  0.736881  0.617385  1
  Pd  Pd9  1  0.250000  0.260273  0.377557  1
  Pd  Pd10  1  0.750000  0.221114  0.895100  1
  Pd  Pd11  1  0.250000  0.781508  0.110493  1
