# generated using pymatgen
data_Co5Si7MoW11C2
_symmetry_space_group_name_H-M   'P 1'
_cell_length_a   7.76647666
_cell_length_b   7.75487212
_cell_length_c   7.75487214
_cell_angle_alpha   60.24474005
_cell_angle_beta   60.31872048
_cell_angle_gamma   60.31872064
_symmetry_Int_Tables_number   1
_chemical_formula_structural   Co5Si7MoW11C2
_chemical_formula_sum   'Co5 Si7 Mo1 W11 C2'
_cell_volume   332.45918478
_cell_formula_units_Z   1
loop_
 _symmetry_equiv_pos_site_id
 _symmetry_equiv_pos_as_xyz
  1  'x, y, z'
loop_
 _atom_site_type_symbol
 _atom_site_label
 _atom_site_symmetry_multiplicity
 _atom_site_fract_x
 _atom_site_fract_y
 _atom_site_fract_z
 _atom_site_occupancy
  Co  Co0  1  0.829363  0.828937  0.828937  1
  Co  Co1  1  0.615864  0.618671  0.143347  1
  Co  Co2  1  0.615864  0.143347  0.618671  1
  Co  Co3  1  0.143382  0.616091  0.616091  1
  Co  Co4  1  0.628463  0.627619  0.627619  1
  Si  Si5  1  0.415839  0.416084  0.755329  1
  Si  Si6  1  0.415839  0.755329  0.416084  1
  Si  Si7  1  0.755632  0.415078  0.415078  1
  Si  Si8  1  0.415850  0.413978  0.413978  1
  Si  Si9  1  0.836200  0.839153  0.503472  1
  Si  Si10  1  0.836200  0.503472  0.839153  1
  Si  Si11  1  0.505658  0.836354  0.836354  1
  Mo  Mo12  1  0.808681  0.189172  0.189172  1
  W  W13  1  0.053484  0.052962  0.449495  1
  W  W14  1  0.442109  0.057052  0.444416  1
  W  W15  1  0.055285  0.444631  0.444631  1
  W  W16  1  0.442109  0.444416  0.057052  1
  W  W17  1  0.053484  0.449495  0.052962  1
  W  W18  1  0.448292  0.053489  0.053489  1
  W  W19  1  0.190656  0.189717  0.807912  1
  W  W20  1  0.806639  0.187877  0.806455  1
  W  W21  1  0.189428  0.804943  0.804943  1
  W  W22  1  0.806639  0.806455  0.187877  1
  W  W23  1  0.190656  0.807912  0.189717  1
  C  C24  1  0.248677  0.250402  0.250402  1
  C  C25  1  0.999706  0.997363  0.997363  1
