# generated using pymatgen
data_LuPaNi2Sn
_symmetry_space_group_name_H-M   'P 1'
_cell_length_a   7.31524368
_cell_length_b   7.31524368
_cell_length_c   3.61090900
_cell_angle_alpha   90.00000000
_cell_angle_beta   90.00000000
_cell_angle_gamma   86.65807568
_symmetry_Int_Tables_number   1
_chemical_formula_structural   LuPaNi2Sn
_chemical_formula_sum   'Lu2 Pa2 Ni4 Sn2'
_cell_volume   192.90121456
_cell_formula_units_Z   2
loop_
 _symmetry_equiv_pos_site_id
 _symmetry_equiv_pos_as_xyz
  1  'x, y, z'
loop_
 _atom_site_type_symbol
 _atom_site_label
 _atom_site_symmetry_multiplicity
 _atom_site_fract_x
 _atom_site_fract_y
 _atom_site_fract_z
 _atom_site_occupancy
  Lu  Lu0  1  0.671420  0.171420  0.500000  1
  Lu  Lu1  1  0.328580  0.828580  0.500000  1
  Pa  Pa2  1  0.825341  0.674659  0.500000  1
  Pa  Pa3  1  0.174659  0.325341  0.500000  1
  Ni  Ni4  1  0.629388  0.870612  0.000000  1
  Ni  Ni5  1  0.120044  0.620044  0.000000  1
  Ni  Ni6  1  0.879956  0.379956  0.000000  1
  Ni  Ni7  1  0.370612  0.129388  0.000000  1
  Sn  Sn8  1  0.500000  0.500000  0.000000  1
  Sn  Sn9  1  0.000000  0.000000  0.000000  1
