# generated using pymatgen
data_Tb3CeAl4Ir3Pt
_symmetry_space_group_name_H-M   'P 1'
_cell_length_a   6.88712030
_cell_length_b   4.32177800
_cell_length_c   7.93442899
_cell_angle_alpha   90.00000000
_cell_angle_beta   89.92451117
_cell_angle_gamma   90.00000000
_symmetry_Int_Tables_number   1
_chemical_formula_structural   Tb3CeAl4Ir3Pt
_chemical_formula_sum   'Tb3 Ce1 Al4 Ir3 Pt1'
_cell_volume   236.16493986
_cell_formula_units_Z   1
loop_
 _symmetry_equiv_pos_site_id
 _symmetry_equiv_pos_as_xyz
  1  'x, y, z'
loop_
 _atom_site_type_symbol
 _atom_site_label
 _atom_site_symmetry_multiplicity
 _atom_site_fract_x
 _atom_site_fract_y
 _atom_site_fract_z
 _atom_site_occupancy
  Tb  Tb0  1  0.960903  0.250000  0.181638  1
  Tb  Tb1  1  0.467138  0.250000  0.318627  1
  Tb  Tb2  1  0.032596  0.750000  0.818452  1
  Ce  Ce3  1  0.534114  0.750000  0.677212  1
  Al  Al4  1  0.866981  0.250000  0.560396  1
  Al  Al5  1  0.360013  0.250000  0.938348  1
  Al  Al6  1  0.136429  0.750000  0.438997  1
  Al  Al7  1  0.641774  0.750000  0.063035  1
  Ir  Ir8  1  0.730634  0.250000  0.877789  1
  Ir  Ir9  1  0.238094  0.250000  0.621190  1
  Ir  Ir10  1  0.763938  0.750000  0.384176  1
  Pt  Pt11  1  0.267388  0.750000  0.120139  1
