# generated using pymatgen
data_Hf4Si4Pd3Pt
_symmetry_space_group_name_H-M   'P 1'
_cell_length_a   3.89065400
_cell_length_b   6.60836114
_cell_length_c   7.60653311
_cell_angle_alpha   89.84356142
_cell_angle_beta   90.00000000
_cell_angle_gamma   90.00000000
_symmetry_Int_Tables_number   1
_chemical_formula_structural   Hf4Si4Pd3Pt
_chemical_formula_sum   'Hf4 Si4 Pd3 Pt1'
_cell_volume   195.56967773
_cell_formula_units_Z   1
loop_
 _symmetry_equiv_pos_site_id
 _symmetry_equiv_pos_as_xyz
  1  'x, y, z'
loop_
 _atom_site_type_symbol
 _atom_site_label
 _atom_site_symmetry_multiplicity
 _atom_site_fract_x
 _atom_site_fract_y
 _atom_site_fract_z
 _atom_site_occupancy
  Hf  Hf0  1  0.750000  0.474280  0.321080  1
  Hf  Hf1  1  0.250000  0.027127  0.822389  1
  Hf  Hf2  1  0.750000  0.972753  0.177647  1
  Hf  Hf3  1  0.250000  0.526094  0.679215  1
  Si  Si4  1  0.250000  0.259559  0.123378  1
  Si  Si5  1  0.250000  0.759686  0.376568  1
  Si  Si6  1  0.750000  0.739155  0.875953  1
  Si  Si7  1  0.750000  0.240299  0.623140  1
  Pd  Pd8  1  0.250000  0.644746  0.063373  1
  Pd  Pd9  1  0.250000  0.144321  0.437156  1
  Pd  Pd10  1  0.750000  0.856707  0.563029  1
  Pt  Pt11  1  0.750000  0.355273  0.937071  1
