# generated using pymatgen
data_TiNb5(SiTc)6
_symmetry_space_group_name_H-M   'P 1'
_cell_length_a   7.58673036
_cell_length_b   7.58477735
_cell_length_c   7.58673019
_cell_angle_alpha   127.17277918
_cell_angle_beta   126.64468631
_cell_angle_gamma   78.40644847
_symmetry_Int_Tables_number   1
_chemical_formula_structural   TiNb5(SiTc)6
_chemical_formula_sum   'Ti1 Nb5 Si6 Tc6'
_cell_volume   270.26651493
_cell_formula_units_Z   1
loop_
 _symmetry_equiv_pos_site_id
 _symmetry_equiv_pos_as_xyz
  1  'x, y, z'
loop_
 _atom_site_type_symbol
 _atom_site_label
 _atom_site_symmetry_multiplicity
 _atom_site_fract_x
 _atom_site_fract_y
 _atom_site_fract_z
 _atom_site_occupancy
  Ti  Ti0  1  0.751485  0.600104  0.348619  1
  Nb  Nb1  1  0.448362  0.409514  0.461151  1
  Nb  Nb2  1  0.549645  0.997240  0.947597  1
  Nb  Nb3  1  0.042969  0.005382  0.462414  1
  Nb  Nb4  1  0.957311  0.408471  0.951160  1
  Nb  Nb5  1  0.248787  0.595023  0.846237  1
  Si  Si6  1  0.239802  0.008041  0.268240  1
  Si  Si7  1  0.765222  0.001698  0.736475  1
  Si  Si8  1  0.161001  0.669879  0.500755  1
  Si  Si9  1  0.826867  0.336370  0.495979  1
  Si  Si10  1  0.669122  0.669879  0.008877  1
  Si  Si11  1  0.340392  0.336370  0.009503  1
  Tc  Tc12  1  0.981785  0.258112  0.241136  1
  Tc  Tc13  1  0.516977  0.258112  0.776326  1
  Tc  Tc14  1  0.385603  0.748576  0.387027  1
  Tc  Tc15  1  0.599597  0.003326  0.349803  1
  Tc  Tc16  1  0.861550  0.748576  0.862974  1
  Tc  Tc17  1  0.153522  0.003326  0.903729  1
