# generated using pymatgen
data_Pr2HfNpF14
_symmetry_space_group_name_H-M   'P 1'
_cell_length_a   5.96274667
_cell_length_b   6.30037251
_cell_length_c   8.56510800
_cell_angle_alpha   102.37001438
_cell_angle_beta   90.24534626
_cell_angle_gamma   89.89826094
_symmetry_Int_Tables_number   1
_chemical_formula_structural   Pr2HfNpF14
_chemical_formula_sum   'Pr2 Hf1 Np1 F14'
_cell_volume   314.29686665
_cell_formula_units_Z   1
loop_
 _symmetry_equiv_pos_site_id
 _symmetry_equiv_pos_as_xyz
  1  'x, y, z'
loop_
 _atom_site_type_symbol
 _atom_site_label
 _atom_site_symmetry_multiplicity
 _atom_site_fract_x
 _atom_site_fract_y
 _atom_site_fract_z
 _atom_site_occupancy
  Pr  Pr0  1  0.697844  0.658538  0.689124  1
  Pr  Pr1  1  0.204052  0.338849  0.311981  1
  Hf  Hf2  1  0.204562  0.185810  0.777676  1
  Np  Np3  1  0.713665  0.798673  0.231120  1
  F  F4  1  0.891516  0.479033  0.466250  1
  F  F5  1  0.395983  0.559548  0.518475  1
  F  F6  1  0.436868  0.952601  0.770045  1
  F  F7  1  0.908829  0.088136  0.230792  1
  F  F8  1  0.974227  0.947825  0.761648  1
  F  F9  1  0.422860  0.014171  0.242030  1
  F  F10  1  0.973223  0.421246  0.782675  1
  F  F11  1  0.519035  0.500567  0.203520  1
  F  F12  1  0.702599  0.756530  0.974012  1
  F  F13  1  0.194739  0.236801  0.015757  1
  F  F14  1  0.712100  0.887169  0.489824  1
  F  F15  1  0.202904  0.148926  0.537837  1
  F  F16  1  0.461158  0.396295  0.787538  1
  F  F17  1  0.036554  0.629283  0.209700  1
