# generated using pymatgen
data_Dy17Tm3Si15Pt
_symmetry_space_group_name_H-M   'P 1'
_cell_length_a   7.42686089
_cell_length_b   7.67006241
_cell_length_c   14.59603467
_cell_angle_alpha   89.76241028
_cell_angle_beta   89.67267006
_cell_angle_gamma   90.21078260
_symmetry_Int_Tables_number   1
_chemical_formula_structural   Dy17Tm3Si15Pt
_chemical_formula_sum   'Dy17 Tm3 Si15 Pt1'
_cell_volume   831.42920399
_cell_formula_units_Z   1
loop_
 _symmetry_equiv_pos_site_id
 _symmetry_equiv_pos_as_xyz
  1  'x, y, z'
loop_
 _atom_site_type_symbol
 _atom_site_label
 _atom_site_symmetry_multiplicity
 _atom_site_fract_x
 _atom_site_fract_y
 _atom_site_fract_z
 _atom_site_occupancy
  Dy  Dy0  1  0.353615  0.010399  0.751749  1
  Dy  Dy1  1  0.973794  0.816551  0.098987  1
  Dy  Dy2  1  0.471624  0.682822  0.401014  1
  Dy  Dy3  1  0.529423  0.322201  0.900606  1
  Dy  Dy4  1  0.029896  0.184052  0.599082  1
  Dy  Dy5  1  0.028958  0.183894  0.900823  1
  Dy  Dy6  1  0.529908  0.317531  0.598307  1
  Dy  Dy7  1  0.472986  0.682796  0.101346  1
  Dy  Dy8  1  0.968962  0.816802  0.400189  1
  Dy  Dy9  1  0.682462  0.815233  0.880878  1
  Dy  Dy10  1  0.179636  0.681224  0.621624  1
  Dy  Dy11  1  0.817416  0.332124  0.120041  1
  Dy  Dy12  1  0.315174  0.177223  0.375970  1
  Dy  Dy13  1  0.319963  0.178600  0.124042  1
  Dy  Dy14  1  0.818434  0.320532  0.377055  1
  Dy  Dy15  1  0.178356  0.673920  0.877995  1
  Dy  Dy16  1  0.683177  0.820436  0.622451  1
  Tm  Tm17  1  0.647546  0.992703  0.249432  1
  Tm  Tm18  1  0.148480  0.510797  0.248747  1
  Tm  Tm19  1  0.847568  0.487469  0.755123  1
  Si  Si20  1  0.766329  0.631288  0.252289  1
  Si  Si21  1  0.266165  0.870816  0.250987  1
  Si  Si22  1  0.735074  0.125051  0.748790  1
  Si  Si23  1  0.233543  0.373764  0.746208  1
  Si  Si24  1  0.017185  0.104595  0.248913  1
  Si  Si25  1  0.521134  0.397372  0.251726  1
  Si  Si26  1  0.474092  0.605298  0.746538  1
  Si  Si27  1  0.978716  0.896433  0.748358  1
  Si  Si28  1  0.354764  0.972290  0.539815  1
  Si  Si29  1  0.646484  0.026705  0.043184  1
  Si  Si30  1  0.147216  0.470425  0.459753  1
  Si  Si31  1  0.156046  0.473515  0.043007  1
  Si  Si32  1  0.643662  0.028247  0.458674  1
  Si  Si33  1  0.353867  0.968751  0.962143  1
  Si  Si34  1  0.854281  0.528556  0.539630  1
  Pt  Pt35  1  0.854065  0.519589  0.954527  1
