# generated using pymatgen
data_Er3LuRe3Os5
_symmetry_space_group_name_H-M   'P 1'
_cell_length_a   5.28545422
_cell_length_b   5.31112165
_cell_length_c   8.95060004
_cell_angle_alpha   89.99999977
_cell_angle_beta   90.00900815
_cell_angle_gamma   120.16076674
_symmetry_Int_Tables_number   1
_chemical_formula_structural   Er3LuRe3Os5
_chemical_formula_sum   'Er3 Lu1 Re3 Os5'
_cell_volume   217.24285649
_cell_formula_units_Z   1
loop_
 _symmetry_equiv_pos_site_id
 _symmetry_equiv_pos_as_xyz
  1  'x, y, z'
loop_
 _atom_site_type_symbol
 _atom_site_label
 _atom_site_symmetry_multiplicity
 _atom_site_fract_x
 _atom_site_fract_y
 _atom_site_fract_z
 _atom_site_occupancy
  Er  Er0  1  0.339285  0.669643  0.434022  1
  Er  Er1  1  0.668024  0.334012  0.562620  1
  Er  Er2  1  0.668188  0.334094  0.937873  1
  Lu  Lu3  1  0.339396  0.669698  0.065722  1
  Re  Re4  1  0.161001  0.336387  0.750701  1
  Re  Re5  1  0.161001  0.824615  0.750701  1
  Re  Re6  1  0.335670  0.167835  0.249238  1
  Os  Os7  1  0.822092  0.652493  0.248868  1
  Os  Os8  1  0.643793  0.821897  0.750929  1
  Os  Os9  1  0.019562  0.009782  0.000705  1
  Os  Os10  1  0.822092  0.169598  0.248868  1
  Os  Os11  1  0.019893  0.009947  0.499754  1
