# generated using pymatgen
data_Ti3Nb7(Ge3B)2
_symmetry_space_group_name_H-M   'P 1'
_cell_length_a   7.75524200
_cell_length_b   7.75524236
_cell_length_c   5.27457400
_cell_angle_alpha   90.00000000
_cell_angle_beta   90.00000000
_cell_angle_gamma   119.99999847
_symmetry_Int_Tables_number   1
_chemical_formula_structural   Ti3Nb7(Ge3B)2
_chemical_formula_sum   'Ti3 Nb7 Ge6 B2'
_cell_volume   274.73168957
_cell_formula_units_Z   1
loop_
 _symmetry_equiv_pos_site_id
 _symmetry_equiv_pos_as_xyz
  1  'x, y, z'
loop_
 _atom_site_type_symbol
 _atom_site_label
 _atom_site_symmetry_multiplicity
 _atom_site_fract_x
 _atom_site_fract_y
 _atom_site_fract_z
 _atom_site_occupancy
  Ti  Ti0  1  0.666667  0.333333  0.500000  1
  Ti  Ti1  1  0.333333  0.666667  0.500000  1
  Ti  Ti2  1  0.333333  0.666667  0.000000  1
  Nb  Nb3  1  0.666667  0.333333  0.000000  1
  Nb  Nb4  1  0.755617  0.755667  0.250363  1
  Nb  Nb5  1  0.244333  0.999950  0.250363  1
  Nb  Nb6  1  0.000050  0.244383  0.250363  1
  Nb  Nb7  1  0.244333  0.244383  0.749637  1
  Nb  Nb8  1  0.755617  0.999950  0.749637  1
  Nb  Nb9  1  0.000050  0.755667  0.749637  1
  Ge  Ge10  1  0.401323  0.404101  0.252307  1
  Ge  Ge11  1  0.595899  0.997223  0.252307  1
  Ge  Ge12  1  0.002777  0.598677  0.252307  1
  Ge  Ge13  1  0.595899  0.598677  0.747693  1
  Ge  Ge14  1  0.401323  0.997223  0.747693  1
  Ge  Ge15  1  0.002777  0.404101  0.747693  1
  B  B16  1  0.000000  0.000000  0.500000  1
  B  B17  1  0.000000  0.000000  0.000000  1
