# generated using pymatgen
data_AcEu4Te5
_symmetry_space_group_name_H-M   'P 1'
_cell_length_a   8.03638050
_cell_length_b   8.03638137
_cell_length_c   11.31912700
_cell_angle_alpha   61.72051393
_cell_angle_beta   61.72051870
_cell_angle_gamma   33.47937767
_symmetry_Int_Tables_number   1
_chemical_formula_structural   AcEu4Te5
_chemical_formula_sum   'Ac1 Eu4 Te5'
_cell_volume   350.45153472
_cell_formula_units_Z   1
loop_
 _symmetry_equiv_pos_site_id
 _symmetry_equiv_pos_as_xyz
  1  'x, y, z'
loop_
 _atom_site_type_symbol
 _atom_site_label
 _atom_site_symmetry_multiplicity
 _atom_site_fract_x
 _atom_site_fract_y
 _atom_site_fract_z
 _atom_site_occupancy
  Ac  Ac0  1  0.000000  0.000000  0.000000  1
  Eu  Eu1  1  0.600257  0.600257  0.598517  1
  Eu  Eu2  1  0.198773  0.198773  0.201011  1
  Eu  Eu3  1  0.801227  0.801227  0.798989  1
  Eu  Eu4  1  0.399743  0.399743  0.401483  1
  Te  Te5  1  0.202357  0.202357  0.697013  1
  Te  Te6  1  0.797643  0.797643  0.302987  1
  Te  Te7  1  0.397462  0.397462  0.897806  1
  Te  Te8  1  0.000000  0.000000  0.500000  1
  Te  Te9  1  0.602538  0.602538  0.102194  1
