# generated using pymatgen
data_Nd2(PPt2)3
_symmetry_space_group_name_H-M   'P 1'
_cell_length_a   23.19748663
_cell_length_b   4.15943128
_cell_length_c   4.15941436
_cell_angle_alpha   89.95316667
_cell_angle_beta   95.15757859
_cell_angle_gamma   95.15761585
_symmetry_Int_Tables_number   1
_chemical_formula_structural   Nd2(PPt2)3
_chemical_formula_sum   'Nd4 P6 Pt12'
_cell_volume   398.08108926
_cell_formula_units_Z   2
loop_
 _symmetry_equiv_pos_site_id
 _symmetry_equiv_pos_as_xyz
  1  'x, y, z'
loop_
 _atom_site_type_symbol
 _atom_site_label
 _atom_site_symmetry_multiplicity
 _atom_site_fract_x
 _atom_site_fract_y
 _atom_site_fract_z
 _atom_site_occupancy
  Nd  Nd0  1  0.848825  0.924707  0.174323  1
  Nd  Nd1  1  0.348830  0.674325  0.424710  1
  Nd  Nd2  1  0.651177  0.325677  0.575294  1
  Nd  Nd3  1  0.151170  0.075291  0.825675  1
  P  P4  1  0.598623  0.799315  0.049417  1
  P  P5  1  0.750000  0.375015  0.124984  1
  P  P6  1  0.098627  0.549417  0.299319  1
  P  P7  1  0.901376  0.450581  0.700684  1
  P  P8  1  0.249999  0.624981  0.875017  1
  P  P9  1  0.401373  0.200682  0.950581  1
  Pt  Pt10  1  0.544553  0.272178  0.022263  1
  Pt  Pt11  1  0.701705  0.850719  0.101016  1
  Pt  Pt12  1  0.955447  0.477737  0.227822  1
  Pt  Pt13  1  0.048462  0.024285  0.274337  1
  Pt  Pt14  1  0.201701  0.601018  0.350715  1
  Pt  Pt15  1  0.451539  0.225663  0.475716  1
  Pt  Pt16  1  0.548462  0.774336  0.524286  1
  Pt  Pt17  1  0.798293  0.398983  0.649279  1
  Pt  Pt18  1  0.951540  0.975714  0.725664  1
  Pt  Pt19  1  0.044549  0.522260  0.772179  1
  Pt  Pt20  1  0.298297  0.149285  0.898980  1
  Pt  Pt21  1  0.455450  0.727821  0.977738  1
