# generated using pymatgen
data_Ho3UIn2IrRu2
_symmetry_space_group_name_H-M   'P 1'
_cell_length_a   7.67385952
_cell_length_b   7.44224505
_cell_length_c   3.98457100
_cell_angle_alpha   90.00000000
_cell_angle_beta   90.00000000
_cell_angle_gamma   120.40315761
_symmetry_Int_Tables_number   1
_chemical_formula_structural   Ho3UIn2IrRu2
_chemical_formula_sum   'Ho3 U1 In2 Ir1 Ru2'
_cell_volume   196.26882549
_cell_formula_units_Z   1
loop_
 _symmetry_equiv_pos_site_id
 _symmetry_equiv_pos_as_xyz
  1  'x, y, z'
loop_
 _atom_site_type_symbol
 _atom_site_label
 _atom_site_symmetry_multiplicity
 _atom_site_fract_x
 _atom_site_fract_y
 _atom_site_fract_z
 _atom_site_occupancy
  Ho  Ho0  1  0.557293  0.598481  0.000000  1
  Ho  Ho1  1  0.424804  0.013129  0.000000  1
  Ho  Ho2  1  0.014147  0.381962  0.000000  1
  U  U3  1  0.977729  0.725256  0.500000  1
  In  In4  1  0.263928  0.246425  0.500000  1
  In  In5  1  0.744899  0.003674  0.500000  1
  Ir  Ir6  1  0.310033  0.675407  0.500000  1
  Ru  Ru7  1  0.998487  0.966230  0.000000  1
  Ru  Ru8  1  0.708681  0.389435  0.500000  1
