# generated using pymatgen
data_Ba3MnN4
_symmetry_space_group_name_H-M   'P 1'
_cell_length_a   10.25663000
_cell_length_b   10.69122100
_cell_length_c   12.08012100
_cell_angle_alpha   90.00000000
_cell_angle_beta   90.00000000
_cell_angle_gamma   90.00000000
_symmetry_Int_Tables_number   1
_chemical_formula_structural   Ba3MnN4
_chemical_formula_sum   'Ba24 Mn8 N32'
_cell_volume   1324.65651675
_cell_formula_units_Z   8
loop_
 _symmetry_equiv_pos_site_id
 _symmetry_equiv_pos_as_xyz
  1  'x, y, z'
loop_
 _atom_site_type_symbol
 _atom_site_label
 _atom_site_symmetry_multiplicity
 _atom_site_fract_x
 _atom_site_fract_y
 _atom_site_fract_z
 _atom_site_occupancy
  Ba  Ba0  1  0.531388  0.373707  0.392039  1
  Ba  Ba1  1  0.204687  0.724554  0.380333  1
  Ba  Ba2  1  0.795313  0.775446  0.880333  1
  Ba  Ba3  1  0.295313  0.224554  0.619667  1
  Ba  Ba4  1  0.295313  0.724554  0.880333  1
  Ba  Ba5  1  0.795313  0.275446  0.619667  1
  Ba  Ba6  1  0.204687  0.224554  0.119667  1
  Ba  Ba7  1  0.704687  0.775446  0.380333  1
  Ba  Ba8  1  0.704687  0.275446  0.119667  1
  Ba  Ba9  1  0.031388  0.626293  0.107961  1
  Ba  Ba10  1  0.968612  0.873707  0.607961  1
  Ba  Ba11  1  0.468612  0.126293  0.892039  1
  Ba  Ba12  1  0.468612  0.626293  0.607961  1
  Ba  Ba13  1  0.968612  0.373707  0.892039  1
  Ba  Ba14  1  0.031388  0.126293  0.392039  1
  Ba  Ba15  1  0.531388  0.873707  0.107961  1
  Ba  Ba16  1  0.881012  0.470554  0.360481  1
  Ba  Ba17  1  0.381012  0.529446  0.139519  1
  Ba  Ba18  1  0.618988  0.970554  0.639519  1
  Ba  Ba19  1  0.118988  0.029446  0.860481  1
  Ba  Ba20  1  0.118988  0.529446  0.639519  1
  Ba  Ba21  1  0.618988  0.470554  0.860481  1
  Ba  Ba22  1  0.381012  0.029446  0.360481  1
  Ba  Ba23  1  0.881012  0.970554  0.139519  1
  Mn  Mn24  1  0.701838  0.093345  0.386076  1
  Mn  Mn25  1  0.201838  0.906655  0.113924  1
  Mn  Mn26  1  0.798162  0.593345  0.613924  1
  Mn  Mn27  1  0.298162  0.406655  0.886076  1
  Mn  Mn28  1  0.298162  0.906655  0.613924  1
  Mn  Mn29  1  0.798162  0.093345  0.886076  1
  Mn  Mn30  1  0.201838  0.406655  0.386076  1
  Mn  Mn31  1  0.701838  0.593345  0.113924  1
  N  N32  1  0.786291  0.218484  0.327532  1
  N  N33  1  0.286291  0.781516  0.172468  1
  N  N34  1  0.713709  0.718484  0.672468  1
  N  N35  1  0.213709  0.281516  0.827532  1
  N  N36  1  0.213709  0.781516  0.672468  1
  N  N37  1  0.713709  0.218484  0.827532  1
  N  N38  1  0.286291  0.281516  0.327532  1
  N  N39  1  0.786291  0.718484  0.172468  1
  N  N40  1  0.808942  0.497976  0.037771  1
  N  N41  1  0.308942  0.502024  0.462229  1
  N  N42  1  0.691058  0.997976  0.962229  1
  N  N43  1  0.191058  0.002024  0.537771  1
  N  N44  1  0.191058  0.502024  0.962229  1
  N  N45  1  0.691058  0.497976  0.537771  1
  N  N46  1  0.308942  0.002024  0.037771  1
  N  N47  1  0.628470  0.001522  0.284998  1
  N  N48  1  0.581782  0.148896  0.477104  1
  N  N49  1  0.081782  0.851104  0.022896  1
  N  N50  1  0.918218  0.648896  0.522896  1
  N  N51  1  0.418218  0.351104  0.977104  1
  N  N52  1  0.418218  0.851104  0.522896  1
  N  N53  1  0.918218  0.148896  0.977104  1
  N  N54  1  0.081782  0.351104  0.477104  1
  N  N55  1  0.581782  0.648896  0.022896  1
  N  N56  1  0.628470  0.501522  0.215002  1
  N  N57  1  0.128470  0.498478  0.284998  1
  N  N58  1  0.871530  0.001522  0.784998  1
  N  N59  1  0.371530  0.998478  0.715002  1
  N  N60  1  0.371530  0.498478  0.784998  1
  N  N61  1  0.871530  0.501522  0.715002  1
  N  N62  1  0.128470  0.998478  0.215002  1
  N  N63  1  0.808942  0.997976  0.462229  1
