# generated using pymatgen
data_Nd3Eu(SeO)4
_symmetry_space_group_name_H-M   'P 1'
_cell_length_a   7.51205540
_cell_length_b   7.51205618
_cell_length_c   5.93861717
_cell_angle_alpha   89.98920391
_cell_angle_beta   89.98920883
_cell_angle_gamma   133.22008379
_symmetry_Int_Tables_number   1
_chemical_formula_structural   Nd3Eu(SeO)4
_chemical_formula_sum   'Nd3 Eu1 Se4 O4'
_cell_volume   244.21296819
_cell_formula_units_Z   1
loop_
 _symmetry_equiv_pos_site_id
 _symmetry_equiv_pos_as_xyz
  1  'x, y, z'
loop_
 _atom_site_type_symbol
 _atom_site_label
 _atom_site_symmetry_multiplicity
 _atom_site_fract_x
 _atom_site_fract_y
 _atom_site_fract_z
 _atom_site_occupancy
  Nd  Nd0  1  0.171023  0.828977  0.500000  1
  Nd  Nd1  1  0.829150  0.170850  0.500000  1
  Nd  Nd2  1  0.670856  0.329144  0.000000  1
  Eu  Eu3  1  0.332141  0.667859  0.000000  1
  Se  Se4  1  0.859803  0.859254  0.852649  1
  Se  Se5  1  0.357605  0.357458  0.645380  1
  Se  Se6  1  0.140746  0.140197  0.147351  1
  Se  Se7  1  0.642542  0.642395  0.354620  1
  O  O8  1  0.497301  0.998853  0.748388  1
  O  O9  1  0.001147  0.502699  0.251612  1
  O  O10  1  0.505636  0.007950  0.252742  1
  O  O11  1  0.992050  0.494364  0.747258  1
