# generated using pymatgen
data_Er4B12MoIr
_symmetry_space_group_name_H-M   'P 1'
_cell_length_a   3.63890100
_cell_length_b   9.15462637
_cell_length_c   11.55611321
_cell_angle_alpha   90.32078251
_cell_angle_beta   90.00000000
_cell_angle_gamma   90.00000000
_symmetry_Int_Tables_number   1
_chemical_formula_structural   Er4B12MoIr
_chemical_formula_sum   'Er8 B24 Mo2 Ir2'
_cell_volume   384.96021286
_cell_formula_units_Z   2
loop_
 _symmetry_equiv_pos_site_id
 _symmetry_equiv_pos_as_xyz
  1  'x, y, z'
loop_
 _atom_site_type_symbol
 _atom_site_label
 _atom_site_symmetry_multiplicity
 _atom_site_fract_x
 _atom_site_fract_y
 _atom_site_fract_z
 _atom_site_occupancy
  Er  Er0  1  0.000000  0.317634  0.410926  1
  Er  Er1  1  0.000000  0.682366  0.589074  1
  Er  Er2  1  0.000000  0.825319  0.083369  1
  Er  Er3  1  0.000000  0.174681  0.916631  1
  Er  Er4  1  0.000000  0.945607  0.372557  1
  Er  Er5  1  0.000000  0.054393  0.627443  1
  Er  Er6  1  0.000000  0.442865  0.125854  1
  Er  Er7  1  0.000000  0.557135  0.874146  1
  B  B8  1  0.500000  0.553878  0.434386  1
  B  B9  1  0.500000  0.446122  0.565614  1
  B  B10  1  0.500000  0.051412  0.066019  1
  B  B11  1  0.500000  0.948588  0.933981  1
  B  B12  1  0.500000  0.749350  0.421094  1
  B  B13  1  0.500000  0.250650  0.578906  1
  B  B14  1  0.500000  0.249753  0.079080  1
  B  B15  1  0.500000  0.750247  0.920920  1
  B  B16  1  0.500000  0.791035  0.266565  1
  B  B17  1  0.500000  0.208965  0.733435  1
  B  B18  1  0.500000  0.295597  0.236134  1
  B  B19  1  0.500000  0.704403  0.763866  1
  B  B20  1  0.500000  0.631416  0.184794  1
  B  B21  1  0.500000  0.368584  0.815206  1
  B  B22  1  0.500000  0.132843  0.317344  1
  B  B23  1  0.500000  0.867157  0.682656  1
  B  B24  1  0.500000  0.979347  0.213970  1
  B  B25  1  0.500000  0.020653  0.786030  1
  B  B26  1  0.500000  0.482560  0.287960  1
  B  B27  1  0.500000  0.517440  0.712040  1
  B  B28  1  0.500000  0.606198  0.030367  1
  B  B29  1  0.500000  0.393802  0.969633  1
  B  B30  1  0.500000  0.107995  0.471423  1
  B  B31  1  0.500000  0.892005  0.528577  1
  Mo  Mo32  1  0.000000  0.139016  0.180734  1
  Mo  Mo33  1  0.000000  0.860984  0.819266  1
  Ir  Ir34  1  0.000000  0.637298  0.322450  1
  Ir  Ir35  1  0.000000  0.362702  0.677550  1
