# generated using pymatgen
data_Na2Ca(La2Au5)2
_symmetry_space_group_name_H-M   'P 1'
_cell_length_a   8.83099700
_cell_length_b   8.83099761
_cell_length_c   10.69340900
_cell_angle_alpha   90.00000000
_cell_angle_beta   90.00000000
_cell_angle_gamma   106.01088838
_symmetry_Int_Tables_number   1
_chemical_formula_structural   Na2Ca(La2Au5)2
_chemical_formula_sum   'Na4 Ca2 La8 Au20'
_cell_volume   801.59249966
_cell_formula_units_Z   2
loop_
 _symmetry_equiv_pos_site_id
 _symmetry_equiv_pos_as_xyz
  1  'x, y, z'
loop_
 _atom_site_type_symbol
 _atom_site_label
 _atom_site_symmetry_multiplicity
 _atom_site_fract_x
 _atom_site_fract_y
 _atom_site_fract_z
 _atom_site_occupancy
  Na  Na0  1  0.513393  0.013393  0.250000  1
  Na  Na1  1  0.986607  0.486607  0.750000  1
  Na  Na2  1  0.013393  0.513393  0.250000  1
  Na  Na3  1  0.486607  0.986607  0.750000  1
  Ca  Ca4  1  0.000000  0.000000  0.000000  1
  Ca  Ca5  1  0.500000  0.500000  0.500000  1
  La  La6  1  0.702195  0.297805  0.000000  1
  La  La7  1  0.202195  0.797805  0.500000  1
  La  La8  1  0.801635  0.801635  0.298245  1
  La  La9  1  0.301635  0.301635  0.201755  1
  La  La10  1  0.797805  0.202195  0.500000  1
  La  La11  1  0.297805  0.702195  0.000000  1
  La  La12  1  0.698365  0.698365  0.798245  1
  La  La13  1  0.198365  0.198365  0.701755  1
  Au  Au14  1  0.148219  0.429273  0.487528  1
  Au  Au15  1  0.902759  0.902759  0.594150  1
  Au  Au16  1  0.570727  0.851781  0.512472  1
  Au  Au17  1  0.880585  0.161958  0.211296  1
  Au  Au18  1  0.380585  0.661958  0.288704  1
  Au  Au19  1  0.661958  0.380585  0.288704  1
  Au  Au20  1  0.402759  0.402759  0.905850  1
  Au  Au21  1  0.929273  0.648219  0.012472  1
  Au  Au22  1  0.338042  0.619415  0.711296  1
  Au  Au23  1  0.351781  0.070727  0.987528  1
  Au  Au24  1  0.597241  0.597241  0.094150  1
  Au  Au25  1  0.648219  0.929273  0.012472  1
  Au  Au26  1  0.097241  0.097241  0.405850  1
  Au  Au27  1  0.619415  0.338042  0.711296  1
  Au  Au28  1  0.119415  0.838042  0.788704  1
  Au  Au29  1  0.070727  0.351781  0.987528  1
  Au  Au30  1  0.851781  0.570727  0.512472  1
  Au  Au31  1  0.161958  0.880585  0.211296  1
  Au  Au32  1  0.429273  0.148219  0.487528  1
  Au  Au33  1  0.838042  0.119415  0.788704  1
