# generated using pymatgen
data_YbY(CuO2)4
_symmetry_space_group_name_H-M   'P 1'
_cell_length_a   6.24289546
_cell_length_b   6.24289461
_cell_length_c   6.24289495
_cell_angle_alpha   125.79167393
_cell_angle_beta   125.79166006
_cell_angle_gamma   80.23082176
_symmetry_Int_Tables_number   1
_chemical_formula_structural   YbY(CuO2)4
_chemical_formula_sum   'Yb1 Y1 Cu4 O8'
_cell_volume   154.49780606
_cell_formula_units_Z   1
loop_
 _symmetry_equiv_pos_site_id
 _symmetry_equiv_pos_as_xyz
  1  'x, y, z'
loop_
 _atom_site_type_symbol
 _atom_site_label
 _atom_site_symmetry_multiplicity
 _atom_site_fract_x
 _atom_site_fract_y
 _atom_site_fract_z
 _atom_site_occupancy
  Yb  Yb0  1  0.000000  0.000000  0.000000  1
  Y  Y1  1  0.750000  0.250000  0.500000  1
  Cu  Cu2  1  0.875713  0.628096  0.254988  1
  Cu  Cu3  1  0.373108  0.620724  0.745012  1
  Cu  Cu4  1  0.379276  0.124287  0.752384  1
  Cu  Cu5  1  0.371904  0.626892  0.247616  1
  O  O6  1  0.350555  0.983368  0.934218  1
  O  O7  1  0.049150  0.416337  0.065782  1
  O  O8  1  0.694008  0.839433  0.430035  1
  O  O9  1  0.409398  0.263973  0.569965  1
  O  O10  1  0.160567  0.590602  0.854576  1
  O  O11  1  0.736027  0.305992  0.145424  1
  O  O12  1  0.583663  0.649445  0.632813  1
  O  O13  1  0.016632  0.950850  0.367187  1
