# generated using pymatgen
data_SmGdDy4C3Cl5
_symmetry_space_group_name_H-M   'P 1'
_cell_length_a   3.68402788
_cell_length_b   8.36151202
_cell_length_c   10.44949503
_cell_angle_alpha   85.53330983
_cell_angle_beta   79.80739423
_cell_angle_gamma   77.28541822
_symmetry_Int_Tables_number   1
_chemical_formula_structural   SmGdDy4C3Cl5
_chemical_formula_sum   'Sm1 Gd1 Dy4 C3 Cl5'
_cell_volume   308.78407971
_cell_formula_units_Z   1
loop_
 _symmetry_equiv_pos_site_id
 _symmetry_equiv_pos_as_xyz
  1  'x, y, z'
loop_
 _atom_site_type_symbol
 _atom_site_label
 _atom_site_symmetry_multiplicity
 _atom_site_fract_x
 _atom_site_fract_y
 _atom_site_fract_z
 _atom_site_occupancy
  Sm  Sm0  1  0.574353  0.073275  0.780269  1
  Gd  Gd1  1  0.430149  0.923808  0.220067  1
  Dy  Dy2  1  0.960449  0.428765  0.653749  1
  Dy  Dy3  1  0.683550  0.180106  0.455822  1
  Dy  Dy4  1  0.045306  0.568735  0.344354  1
  Dy  Dy5  1  0.321870  0.818576  0.541580  1
  C  C6  1  0.129195  0.123432  0.621455  1
  C  C7  1  0.876764  0.874908  0.374766  1
  C  C8  1  0.502448  0.499051  0.498908  1
  Cl  Cl9  1  0.757829  0.741687  0.747672  1
  Cl  Cl10  1  0.378690  0.386172  0.860865  1
  Cl  Cl11  1  0.248850  0.254219  0.249607  1
  Cl  Cl12  1  0.625665  0.613928  0.138323  1
  Cl  Cl13  1  0.002101  0.996930  0.001879  1
