# generated using pymatgen
data_Tm12Fe4NiBi
_symmetry_space_group_name_H-M   'P 1'
_cell_length_a   8.20359834
_cell_length_b   8.20359726
_cell_length_c   8.20359745
_cell_angle_alpha   111.24593338
_cell_angle_beta   110.91892099
_cell_angle_gamma   106.29491944
_symmetry_Int_Tables_number   1
_chemical_formula_structural   Tm12Fe4NiBi
_chemical_formula_sum   'Tm12 Fe4 Ni1 Bi1'
_cell_volume   424.02586216
_cell_formula_units_Z   1
loop_
 _symmetry_equiv_pos_site_id
 _symmetry_equiv_pos_as_xyz
  1  'x, y, z'
loop_
 _atom_site_type_symbol
 _atom_site_label
 _atom_site_symmetry_multiplicity
 _atom_site_fract_x
 _atom_site_fract_y
 _atom_site_fract_z
 _atom_site_occupancy
  Tm  Tm0  1  0.285819  0.185364  0.471182  1
  Tm  Tm1  1  0.714181  0.814636  0.528818  1
  Tm  Tm2  1  0.285819  0.814636  0.100454  1
  Tm  Tm3  1  0.714181  0.185364  0.899546  1
  Tm  Tm4  1  0.616779  0.310939  0.305840  1
  Tm  Tm5  1  0.383221  0.689061  0.694160  1
  Tm  Tm6  1  0.005100  0.310939  0.694160  1
  Tm  Tm7  1  0.994900  0.689061  0.305840  1
  Tm  Tm8  1  0.210407  0.410521  0.200116  1
  Tm  Tm9  1  0.789593  0.589479  0.799884  1
  Tm  Tm10  1  0.210407  0.010291  0.799884  1
  Tm  Tm11  1  0.789593  0.989709  0.200116  1
  Fe  Fe12  1  0.000000  0.383477  0.383477  1
  Fe  Fe13  1  0.000000  0.616523  0.616523  1
  Fe  Fe14  1  0.392237  0.892237  0.500000  1
  Fe  Fe15  1  0.607763  0.107763  0.500000  1
  Ni  Ni16  1  0.000000  0.000000  0.000000  1
  Bi  Bi17  1  0.500000  0.500000  0.000000  1
