# generated using pymatgen
data_Tb4HoCo11(P3Ru2)4
_symmetry_space_group_name_H-M   'P 1'
_cell_length_a   12.24641477
_cell_length_b   12.27088034
_cell_length_c   3.74978700
_cell_angle_alpha   90.00000000
_cell_angle_beta   90.00000000
_cell_angle_gamma   119.93012257
_symmetry_Int_Tables_number   1
_chemical_formula_structural   Tb4HoCo11(P3Ru2)4
_chemical_formula_sum   'Tb4 Ho1 Co11 P12 Ru8'
_cell_volume   488.34560774
_cell_formula_units_Z   1
loop_
 _symmetry_equiv_pos_site_id
 _symmetry_equiv_pos_as_xyz
  1  'x, y, z'
loop_
 _atom_site_type_symbol
 _atom_site_label
 _atom_site_symmetry_multiplicity
 _atom_site_fract_x
 _atom_site_fract_y
 _atom_site_fract_z
 _atom_site_occupancy
  Tb  Tb0  1  0.667150  0.333293  0.000000  1
  Tb  Tb1  1  0.818769  0.818143  0.500000  1
  Tb  Tb2  1  0.180810  0.000612  0.500000  1
  Tb  Tb3  1  0.999665  0.181517  0.500000  1
  Ho  Ho4  1  0.328839  0.663084  0.000000  1
  Co  Co5  1  0.128911  0.482227  0.500000  1
  Co  Co6  1  0.802680  0.172238  0.000000  1
  Co  Co7  1  0.829753  0.629252  0.000000  1
  Co  Co8  1  0.368656  0.198396  0.000000  1
  Co  Co9  1  0.172762  0.802139  0.000000  1
  Co  Co10  1  0.629558  0.827182  0.000000  1
  Co  Co11  1  0.195205  0.373326  0.000000  1
  Co  Co12  1  0.279744  0.282798  0.500000  1
  Co  Co13  1  0.718118  0.999421  0.500000  1
  Co  Co14  1  0.001476  0.717765  0.500000  1
  Co  Co15  1  0.000084  0.999488  0.000000  1
  P  P16  1  0.686594  0.161766  0.500000  1
  P  P17  1  0.841093  0.524344  0.500000  1
  P  P18  1  0.474841  0.316341  0.500000  1
  P  P19  1  0.160350  0.680514  0.500000  1
  P  P20  1  0.523032  0.838872  0.500000  1
  P  P21  1  0.309451  0.476189  0.500000  1
  P  P22  1  0.177744  0.179922  0.000000  1
  P  P23  1  0.820995  0.999371  0.000000  1
  P  P24  1  0.000602  0.820720  0.000000  1
  P  P25  1  0.636142  0.636909  0.000000  1
  P  P26  1  0.362367  0.999852  0.000000  1
  P  P27  1  0.004254  0.363868  0.000000  1
  Ru  Ru28  1  0.877954  0.354844  0.500000  1
  Ru  Ru29  1  0.647909  0.519879  0.500000  1
  Ru  Ru30  1  0.481056  0.128957  0.500000  1
  Ru  Ru31  1  0.351713  0.869780  0.500000  1
  Ru  Ru32  1  0.514878  0.646010  0.500000  1
  Ru  Ru33  1  0.444284  0.445263  0.000000  1
  Ru  Ru34  1  0.554757  0.000003  0.000000  1
  Ru  Ru35  1  0.007806  0.555716  0.000000  1
