# generated using pymatgen
data_GaFe3(Mo3N)2
_symmetry_space_group_name_H-M   'P 1'
_cell_length_a   6.74880300
_cell_length_b   6.71621173
_cell_length_c   6.72795963
_cell_angle_alpha   89.77063756
_cell_angle_beta   90.00000000
_cell_angle_gamma   90.00000000
_symmetry_Int_Tables_number   1
_chemical_formula_structural   GaFe3(Mo3N)2
_chemical_formula_sum   'Ga2 Fe6 Mo12 N4'
_cell_volume   304.95167787
_cell_formula_units_Z   2
loop_
 _symmetry_equiv_pos_site_id
 _symmetry_equiv_pos_as_xyz
  1  'x, y, z'
loop_
 _atom_site_type_symbol
 _atom_site_label
 _atom_site_symmetry_multiplicity
 _atom_site_fract_x
 _atom_site_fract_y
 _atom_site_fract_z
 _atom_site_occupancy
  Ga  Ga0  1  0.680494  0.179038  0.931519  1
  Ga  Ga1  1  0.180494  0.820962  0.068481  1
  Fe  Fe2  1  0.815304  0.680042  0.567405  1
  Fe  Fe3  1  0.315304  0.319958  0.432595  1
  Fe  Fe4  1  0.068716  0.565845  0.325070  1
  Fe  Fe5  1  0.426807  0.078334  0.190788  1
  Fe  Fe6  1  0.568716  0.434155  0.674930  1
  Fe  Fe7  1  0.926807  0.921666  0.809212  1
  Mo  Mo8  1  0.620522  0.048290  0.542638  1
  Mo  Mo9  1  0.120522  0.951710  0.457362  1
  Mo  Mo10  1  0.876317  0.549081  0.948853  1
  Mo  Mo11  1  0.376317  0.450919  0.051147  1
  Mo  Mo12  1  0.205912  0.620212  0.694772  1
  Mo  Mo13  1  0.299338  0.126930  0.790601  1
  Mo  Mo14  1  0.799338  0.873070  0.209399  1
  Mo  Mo15  1  0.705912  0.379788  0.305228  1
  Mo  Mo16  1  0.049751  0.206951  0.129517  1
  Mo  Mo17  1  0.953967  0.297410  0.627403  1
  Mo  Mo18  1  0.549751  0.793049  0.870483  1
  Mo  Mo19  1  0.453967  0.702590  0.372597  1
  N  N20  1  0.374566  0.873095  0.622356  1
  N  N21  1  0.874566  0.126905  0.377644  1
  N  N22  1  0.128304  0.375274  0.876489  1
  N  N23  1  0.628304  0.624726  0.123511  1
