# generated using pymatgen
data_Tm7Sn23Ru5Rh
_symmetry_space_group_name_H-M   'P 1'
_cell_length_a   9.84649991
_cell_length_b   9.84649871
_cell_length_c   10.07917700
_cell_angle_alpha   89.97536278
_cell_angle_beta   90.02463722
_cell_angle_gamma   120.02550901
_symmetry_Int_Tables_number   1
_chemical_formula_structural   Tm7Sn23Ru5Rh
_chemical_formula_sum   'Tm7 Sn23 Ru5 Rh1'
_cell_volume   846.07267387
_cell_formula_units_Z   1
loop_
 _symmetry_equiv_pos_site_id
 _symmetry_equiv_pos_as_xyz
  1  'x, y, z'
loop_
 _atom_site_type_symbol
 _atom_site_label
 _atom_site_symmetry_multiplicity
 _atom_site_fract_x
 _atom_site_fract_y
 _atom_site_fract_z
 _atom_site_occupancy
  Tm  Tm0  1  0.004314  0.995686  0.995070  1
  Tm  Tm1  1  0.514881  0.485119  0.696864  1
  Tm  Tm2  1  0.514903  0.030401  0.696292  1
  Tm  Tm3  1  0.969599  0.485097  0.696292  1
  Tm  Tm4  1  0.031859  0.517494  0.304883  1
  Tm  Tm5  1  0.482506  0.968141  0.304883  1
  Tm  Tm6  1  0.483900  0.516100  0.303861  1
  Sn  Sn7  1  0.665160  0.334840  0.180327  1
  Sn  Sn8  1  0.666577  0.333423  0.872021  1
  Sn  Sn9  1  0.333178  0.666822  0.128199  1
  Sn  Sn10  1  0.349120  0.349071  0.999991  1
  Sn  Sn11  1  0.999178  0.649123  0.000145  1
  Sn  Sn12  1  0.649582  0.998010  0.000178  1
  Sn  Sn13  1  0.650929  0.650880  0.999991  1
  Sn  Sn14  1  0.333189  0.666811  0.820596  1
  Sn  Sn15  1  0.439948  0.220413  0.461942  1
  Sn  Sn16  1  0.220068  0.779932  0.539409  1
  Sn  Sn17  1  0.219372  0.439633  0.538378  1
  Sn  Sn18  1  0.560367  0.780628  0.538378  1
  Sn  Sn19  1  0.118760  0.881240  0.272752  1
  Sn  Sn20  1  0.779587  0.560052  0.461942  1
  Sn  Sn21  1  0.780221  0.219779  0.462163  1
  Sn  Sn22  1  0.350877  0.000822  0.000145  1
  Sn  Sn23  1  0.117714  0.235950  0.274100  1
  Sn  Sn24  1  0.764050  0.882286  0.274100  1
  Sn  Sn25  1  0.236545  0.118395  0.725000  1
  Sn  Sn26  1  0.881605  0.763455  0.725000  1
  Sn  Sn27  1  0.881647  0.118353  0.727005  1
  Sn  Sn28  1  0.000087  0.999913  0.499208  1
  Sn  Sn29  1  0.001990  0.350418  0.000178  1
  Ru  Ru30  1  0.169384  0.830616  0.799816  1
  Ru  Ru31  1  0.169837  0.339660  0.798256  1
  Ru  Ru32  1  0.660340  0.830163  0.798256  1
  Ru  Ru33  1  0.339972  0.169740  0.201612  1
  Ru  Ru34  1  0.830260  0.660028  0.201612  1
  Rh  Rh35  1  0.828496  0.171504  0.201152  1
