# generated using pymatgen
data_TiPd5Pt3
_symmetry_space_group_name_H-M   'P 1'
_cell_length_a   6.24664429
_cell_length_b   6.24664461
_cell_length_c   6.24703543
_cell_angle_alpha   95.68375782
_cell_angle_beta   95.68375813
_cell_angle_gamma   143.31308236
_symmetry_Int_Tables_number   1
_chemical_formula_structural   TiPd5Pt3
_chemical_formula_sum   'Ti1 Pd5 Pt3'
_cell_volume   138.23504897
_cell_formula_units_Z   1
loop_
 _symmetry_equiv_pos_site_id
 _symmetry_equiv_pos_as_xyz
  1  'x, y, z'
loop_
 _atom_site_type_symbol
 _atom_site_label
 _atom_site_symmetry_multiplicity
 _atom_site_fract_x
 _atom_site_fract_y
 _atom_site_fract_z
 _atom_site_occupancy
  Ti  Ti0  1  0.005604  0.005604  0.011209  1
  Pd  Pd1  1  0.335042  0.662481  0.997523  1
  Pd  Pd2  1  0.662481  0.335042  0.997523  1
  Pd  Pd3  1  0.337519  0.337519  0.675037  1
  Pd  Pd4  1  0.671014  0.998880  0.669894  1
  Pd  Pd5  1  0.998880  0.671014  0.669894  1
  Pt  Pt6  1  0.999612  0.328412  0.328024  1
  Pt  Pt7  1  0.328412  0.999612  0.328024  1
  Pt  Pt8  1  0.661436  0.661436  0.322872  1
