# generated using pymatgen
data_CaCePt2F14
_symmetry_space_group_name_H-M   'P 1'
_cell_length_a   5.62155741
_cell_length_b   9.17574500
_cell_length_c   12.28222900
_cell_angle_alpha   62.18910657
_cell_angle_beta   90.07176298
_cell_angle_gamma   89.77980776
_symmetry_Int_Tables_number   1
_chemical_formula_structural   CaCePt2F14
_chemical_formula_sum   'Ca2 Ce2 Pt4 F28'
_cell_volume   560.35524939
_cell_formula_units_Z   2
loop_
 _symmetry_equiv_pos_site_id
 _symmetry_equiv_pos_as_xyz
  1  'x, y, z'
loop_
 _atom_site_type_symbol
 _atom_site_label
 _atom_site_symmetry_multiplicity
 _atom_site_fract_x
 _atom_site_fract_y
 _atom_site_fract_z
 _atom_site_occupancy
  Ca  Ca0  1  0.759776  0.192720  0.236343  1
  Ca  Ca1  1  0.240224  0.807280  0.763657  1
  Ce  Ce2  1  0.263956  0.812457  0.264220  1
  Ce  Ce3  1  0.736044  0.187543  0.735780  1
  Pt  Pt4  1  0.761548  0.728406  0.042425  1
  Pt  Pt5  1  0.238452  0.271594  0.957575  1
  Pt  Pt6  1  0.257868  0.274384  0.456737  1
  Pt  Pt7  1  0.742132  0.725616  0.543263  1
  F  F8  1  0.936287  0.705532  0.415670  1
  F  F9  1  0.063713  0.294468  0.584330  1
  F  F10  1  0.428005  0.291424  0.082485  1
  F  F11  1  0.571995  0.708576  0.917515  1
  F  F12  1  0.470756  0.731206  0.134311  1
  F  F13  1  0.529244  0.268794  0.865689  1
  F  F14  1  0.970513  0.274737  0.368011  1
  F  F15  1  0.029487  0.725263  0.631989  1
  F  F16  1  0.951619  0.747581  0.172624  1
  F  F17  1  0.048381  0.252419  0.827376  1
  F  F18  1  0.443701  0.259149  0.328028  1
  F  F19  1  0.556299  0.740851  0.671972  1
  F  F20  1  0.769852  0.488954  0.139855  1
  F  F21  1  0.230148  0.511046  0.860145  1
  F  F22  1  0.271821  0.520296  0.361201  1
  F  F23  1  0.728179  0.479704  0.638799  1
  F  F24  1  0.948741  0.278360  0.042196  1
  F  F25  1  0.051259  0.721640  0.957804  1
  F  F26  1  0.443626  0.720653  0.457325  1
  F  F27  1  0.556374  0.279347  0.542675  1
  F  F28  1  0.746196  0.964996  0.451546  1
  F  F29  1  0.253804  0.035004  0.548454  1
  F  F30  1  0.239157  0.027361  0.051968  1
  F  F31  1  0.760843  0.972639  0.948032  1
  F  F32  1  0.579165  0.955266  0.233672  1
  F  F33  1  0.420835  0.044734  0.766328  1
  F  F34  1  0.096979  0.015731  0.269630  1
  F  F35  1  0.903021  0.984269  0.730370  1
