# generated using pymatgen
data_Tb5YIr13Rh5
_symmetry_space_group_name_H-M   'P 1'
_cell_length_a   5.31465700
_cell_length_b   5.31465764
_cell_length_c   17.50378900
_cell_angle_alpha   90.00000000
_cell_angle_beta   90.00000000
_cell_angle_gamma   119.99998980
_symmetry_Int_Tables_number   1
_chemical_formula_structural   Tb5YIr13Rh5
_chemical_formula_sum   'Tb5 Y1 Ir13 Rh5'
_cell_volume   428.16708681
_cell_formula_units_Z   1
loop_
 _symmetry_equiv_pos_site_id
 _symmetry_equiv_pos_as_xyz
  1  'x, y, z'
loop_
 _atom_site_type_symbol
 _atom_site_label
 _atom_site_symmetry_multiplicity
 _atom_site_fract_x
 _atom_site_fract_y
 _atom_site_fract_z
 _atom_site_occupancy
  Tb  Tb0  1  0.333333  0.666667  0.958723  1
  Tb  Tb1  1  0.666667  0.333333  0.041824  1
  Tb  Tb2  1  0.666667  0.333333  0.458907  1
  Tb  Tb3  1  0.333333  0.666667  0.540585  1
  Tb  Tb4  1  0.333333  0.666667  0.749680  1
  Y  Y5  1  0.666667  0.333333  0.250138  1
  Ir  Ir6  1  0.167759  0.832241  0.374494  1
  Ir  Ir7  1  0.167759  0.335518  0.374494  1
  Ir  Ir8  1  0.664482  0.832241  0.374494  1
  Ir  Ir9  1  0.832229  0.167771  0.625349  1
  Ir  Ir10  1  0.832229  0.664458  0.625349  1
  Ir  Ir11  1  0.335542  0.167771  0.625349  1
  Ir  Ir12  1  0.832482  0.167518  0.873787  1
  Ir  Ir13  1  0.832482  0.664965  0.873787  1
  Ir  Ir14  1  0.335035  0.167518  0.873787  1
  Ir  Ir15  1  0.167482  0.832518  0.126372  1
  Ir  Ir16  1  0.167482  0.334963  0.126372  1
  Ir  Ir17  1  0.665037  0.832518  0.126372  1
  Ir  Ir18  1  0.000000  0.000000  0.499869  1
  Rh  Rh19  1  0.333333  0.666667  0.249801  1
  Rh  Rh20  1  0.666667  0.333333  0.750351  1
  Rh  Rh21  1  0.000000  0.000000  0.250223  1
  Rh  Rh22  1  0.000000  0.000000  0.749917  1
  Rh  Rh23  1  0.000000  0.000000  0.999976  1
