# generated using pymatgen
data_Y6Ga(P3Rh5)4
_symmetry_space_group_name_H-M   'P 1'
_cell_length_a   13.45288100
_cell_length_b   13.45287928
_cell_length_c   3.90648100
_cell_angle_alpha   90.00000000
_cell_angle_beta   90.00000000
_cell_angle_gamma   120.00000178
_symmetry_Int_Tables_number   1
_chemical_formula_structural   Y6Ga(P3Rh5)4
_chemical_formula_sum   'Y6 Ga1 P12 Rh20'
_cell_volume   612.27550594
_cell_formula_units_Z   1
loop_
 _symmetry_equiv_pos_site_id
 _symmetry_equiv_pos_as_xyz
  1  'x, y, z'
loop_
 _atom_site_type_symbol
 _atom_site_label
 _atom_site_symmetry_multiplicity
 _atom_site_fract_x
 _atom_site_fract_y
 _atom_site_fract_z
 _atom_site_occupancy
  Y  Y0  1  0.530119  0.717096  0.249569  1
  Y  Y1  1  0.282904  0.813023  0.249569  1
  Y  Y2  1  0.186977  0.469881  0.249569  1
  Y  Y3  1  0.469881  0.282904  0.750431  1
  Y  Y4  1  0.717096  0.186977  0.750431  1
  Y  Y5  1  0.813023  0.530119  0.750431  1
  Ga  Ga6  1  0.000000  0.000000  0.000000  1
  P  P7  1  0.526300  0.138302  0.250382  1
  P  P8  1  0.861698  0.388000  0.250382  1
  P  P9  1  0.612000  0.473700  0.250382  1
  P  P10  1  0.947415  0.718507  0.248966  1
  P  P11  1  0.281493  0.228909  0.248966  1
  P  P12  1  0.771091  0.052585  0.248966  1
  P  P13  1  0.388000  0.526300  0.749618  1
  P  P14  1  0.473700  0.861698  0.749618  1
  P  P15  1  0.138302  0.612000  0.749618  1
  P  P16  1  0.718507  0.771091  0.751034  1
  P  P17  1  0.228909  0.947415  0.751034  1
  P  P18  1  0.052585  0.281493  0.751034  1
  Rh  Rh19  1  0.333333  0.666667  0.752000  1
  Rh  Rh20  1  0.920237  0.252175  0.248339  1
  Rh  Rh21  1  0.747825  0.668062  0.248339  1
  Rh  Rh22  1  0.331938  0.079763  0.248339  1
  Rh  Rh23  1  0.440751  0.024570  0.749845  1
  Rh  Rh24  1  0.975430  0.416182  0.749845  1
  Rh  Rh25  1  0.583818  0.559249  0.749845  1
  Rh  Rh26  1  0.666667  0.333333  0.248000  1
  Rh  Rh27  1  0.096108  0.200395  0.254940  1
  Rh  Rh28  1  0.799605  0.895713  0.254940  1
  Rh  Rh29  1  0.104287  0.903892  0.254940  1
  Rh  Rh30  1  0.024570  0.583818  0.250155  1
  Rh  Rh31  1  0.416182  0.440751  0.250155  1
  Rh  Rh32  1  0.559249  0.975430  0.250155  1
  Rh  Rh33  1  0.668062  0.920237  0.751661  1
  Rh  Rh34  1  0.079763  0.747825  0.751661  1
  Rh  Rh35  1  0.252175  0.331938  0.751661  1
  Rh  Rh36  1  0.903892  0.799605  0.745060  1
  Rh  Rh37  1  0.200395  0.104287  0.745060  1
  Rh  Rh38  1  0.895713  0.096108  0.745060  1
