# generated using pymatgen
data_LiHo5CoP12Ru17
_symmetry_space_group_name_H-M   'P 1'
_cell_length_a   12.55375631
_cell_length_b   12.55375571
_cell_length_c   3.96564400
_cell_angle_alpha   90.00000000
_cell_angle_beta   90.00000000
_cell_angle_gamma   121.10087269
_symmetry_Int_Tables_number   1
_chemical_formula_structural   LiHo5CoP12Ru17
_chemical_formula_sum   'Li1 Ho5 Co1 P12 Ru17'
_cell_volume   535.13868961
_cell_formula_units_Z   1
loop_
 _symmetry_equiv_pos_site_id
 _symmetry_equiv_pos_as_xyz
  1  'x, y, z'
loop_
 _atom_site_type_symbol
 _atom_site_label
 _atom_site_symmetry_multiplicity
 _atom_site_fract_x
 _atom_site_fract_y
 _atom_site_fract_z
 _atom_site_occupancy
  Li  Li0  1  0.437761  0.437761  0.000000  1
  Ho  Ho1  1  0.670902  0.331201  0.000000  1
  Ho  Ho2  1  0.331201  0.670902  0.000000  1
  Ho  Ho3  1  0.818739  0.818739  0.500000  1
  Ho  Ho4  1  0.182120  0.000290  0.500000  1
  Ho  Ho5  1  0.000290  0.182120  0.500000  1
  Co  Co6  1  0.002531  0.002531  0.000000  1
  P  P7  1  0.692911  0.165570  0.500000  1
  P  P8  1  0.828010  0.520128  0.500000  1
  P  P9  1  0.479195  0.301106  0.500000  1
  P  P10  1  0.165570  0.692911  0.500000  1
  P  P11  1  0.520128  0.828010  0.500000  1
  P  P12  1  0.301106  0.479195  0.500000  1
  P  P13  1  0.183166  0.183166  0.000000  1
  P  P14  1  0.824086  0.999420  0.000000  1
  P  P15  1  0.999420  0.824086  0.000000  1
  P  P16  1  0.633275  0.633275  0.000000  1
  P  P17  1  0.375069  0.001923  0.000000  1
  P  P18  1  0.001923  0.375069  0.000000  1
  Ru  Ru19  1  0.870709  0.363526  0.500000  1
  Ru  Ru20  1  0.633040  0.509082  0.500000  1
  Ru  Ru21  1  0.490724  0.122644  0.500000  1
  Ru  Ru22  1  0.363526  0.870709  0.500000  1
  Ru  Ru23  1  0.509082  0.633040  0.500000  1
  Ru  Ru24  1  0.122644  0.490724  0.500000  1
  Ru  Ru25  1  0.556797  0.999944  0.000000  1
  Ru  Ru26  1  0.999944  0.556797  0.000000  1
  Ru  Ru27  1  0.813477  0.183817  0.000000  1
  Ru  Ru28  1  0.814413  0.622110  0.000000  1
  Ru  Ru29  1  0.379014  0.193344  0.000000  1
  Ru  Ru30  1  0.183817  0.813477  0.000000  1
  Ru  Ru31  1  0.622110  0.814413  0.000000  1
  Ru  Ru32  1  0.193344  0.379014  0.000000  1
  Ru  Ru33  1  0.282390  0.282390  0.500000  1
  Ru  Ru34  1  0.720084  0.997484  0.500000  1
  Ru  Ru35  1  0.997484  0.720084  0.500000  1
