# generated using pymatgen
data_LuCl4
_symmetry_space_group_name_H-M   'P 1'
_cell_length_a   6.77795545
_cell_length_b   6.77795578
_cell_length_c   9.55873125
_cell_angle_alpha   94.41121885
_cell_angle_beta   94.41121647
_cell_angle_gamma   119.89098837
_symmetry_Int_Tables_number   1
_chemical_formula_structural   LuCl4
_chemical_formula_sum   'Lu2 Cl8'
_cell_volume   376.20231470
_cell_formula_units_Z   2
loop_
 _symmetry_equiv_pos_site_id
 _symmetry_equiv_pos_as_xyz
  1  'x, y, z'
loop_
 _atom_site_type_symbol
 _atom_site_label
 _atom_site_symmetry_multiplicity
 _atom_site_fract_x
 _atom_site_fract_y
 _atom_site_fract_z
 _atom_site_occupancy
  Lu  Lu0  1  0.832588  0.167411  0.000000  1
  Lu  Lu1  1  0.167411  0.832588  0.000000  1
  Cl  Cl2  1  0.907332  0.907332  0.156344  1
  Cl  Cl3  1  0.533320  0.160384  0.156643  1
  Cl  Cl4  1  0.160384  0.533320  0.156643  1
  Cl  Cl5  1  0.634921  0.634921  0.471417  1
  Cl  Cl6  1  0.365080  0.365080  0.528583  1
  Cl  Cl7  1  0.839616  0.466680  0.843357  1
  Cl  Cl8  1  0.466680  0.839616  0.843357  1
  Cl  Cl9  1  0.092668  0.092668  0.843656  1
