# generated using pymatgen
data_NaHgBO3
_symmetry_space_group_name_H-M   'P 1'
_cell_length_a   9.22038000
_cell_length_b   5.41622403
_cell_length_c   6.50495819
_cell_angle_alpha   88.66413667
_cell_angle_beta   90.00000000
_cell_angle_gamma   90.00000000
_symmetry_Int_Tables_number   1
_chemical_formula_structural   NaHgBO3
_chemical_formula_sum   'Na4 Hg4 B4 O12'
_cell_volume   324.76700251
_cell_formula_units_Z   4
loop_
 _symmetry_equiv_pos_site_id
 _symmetry_equiv_pos_as_xyz
  1  'x, y, z'
loop_
 _atom_site_type_symbol
 _atom_site_label
 _atom_site_symmetry_multiplicity
 _atom_site_fract_x
 _atom_site_fract_y
 _atom_site_fract_z
 _atom_site_occupancy
  Na  Na0  1  0.751724  0.705431  0.014036  1
  Na  Na1  1  0.251724  0.294569  0.485964  1
  Na  Na2  1  0.248276  0.294569  0.985964  1
  Na  Na3  1  0.748276  0.705431  0.514036  1
  Hg  Hg4  1  0.589989  0.231604  0.763446  1
  Hg  Hg5  1  0.089989  0.768396  0.736554  1
  Hg  Hg6  1  0.410011  0.768396  0.236554  1
  Hg  Hg7  1  0.910011  0.231604  0.263446  1
  B  B8  1  0.080006  0.790165  0.245345  1
  B  B9  1  0.419994  0.790165  0.745345  1
  B  B10  1  0.580006  0.209835  0.254655  1
  B  B11  1  0.919994  0.209835  0.754655  1
  O  O12  1  0.055457  0.303068  0.733983  1
  O  O13  1  0.391502  0.047452  0.744155  1
  O  O14  1  0.944543  0.696932  0.266017  1
  O  O15  1  0.801192  0.369235  0.776232  1
  O  O16  1  0.301192  0.630765  0.723768  1
  O  O17  1  0.698808  0.369235  0.276232  1
  O  O18  1  0.198808  0.630765  0.223768  1
  O  O19  1  0.444543  0.303068  0.233983  1
  O  O20  1  0.608498  0.952548  0.255845  1
  O  O21  1  0.891502  0.952548  0.755845  1
  O  O22  1  0.108498  0.047452  0.244155  1
  O  O23  1  0.555457  0.696932  0.766017  1
