# generated using pymatgen
data_Ti3Nb(PRh)4
_symmetry_space_group_name_H-M   'P 1'
_cell_length_a   3.70905000
_cell_length_b   6.31014915
_cell_length_c   7.23082320
_cell_angle_alpha   90.24261750
_cell_angle_beta   90.00000000
_cell_angle_gamma   90.00000000
_symmetry_Int_Tables_number   1
_chemical_formula_structural   Ti3Nb(PRh)4
_chemical_formula_sum   'Ti3 Nb1 P4 Rh4'
_cell_volume   169.23343187
_cell_formula_units_Z   1
loop_
 _symmetry_equiv_pos_site_id
 _symmetry_equiv_pos_as_xyz
  1  'x, y, z'
loop_
 _atom_site_type_symbol
 _atom_site_label
 _atom_site_symmetry_multiplicity
 _atom_site_fract_x
 _atom_site_fract_y
 _atom_site_fract_z
 _atom_site_occupancy
  Ti  Ti0  1  0.250000  0.028802  0.825956  1
  Ti  Ti1  1  0.250000  0.528181  0.674326  1
  Ti  Ti2  1  0.750000  0.970475  0.174951  1
  Nb  Nb3  1  0.750000  0.471176  0.327414  1
  P  P4  1  0.250000  0.759357  0.374253  1
  P  P5  1  0.250000  0.253924  0.124059  1
  P  P6  1  0.750000  0.243714  0.625161  1
  P  P7  1  0.750000  0.746598  0.875765  1
  Rh  Rh8  1  0.250000  0.141448  0.437393  1
  Rh  Rh9  1  0.250000  0.649655  0.059237  1
  Rh  Rh10  1  0.750000  0.852940  0.565824  1
  Rh  Rh11  1  0.750000  0.353729  0.935660  1
