# generated using pymatgen
data_Yb3MnN3
_symmetry_space_group_name_H-M   'P 1'
_cell_length_a   6.50084930
_cell_length_b   6.50084871
_cell_length_c   4.98808100
_cell_angle_alpha   90.00000000
_cell_angle_beta   90.00000000
_cell_angle_gamma   101.31033361
_symmetry_Int_Tables_number   1
_chemical_formula_structural   Yb3MnN3
_chemical_formula_sum   'Yb6 Mn2 N6'
_cell_volume   206.70756779
_cell_formula_units_Z   2
loop_
 _symmetry_equiv_pos_site_id
 _symmetry_equiv_pos_as_xyz
  1  'x, y, z'
loop_
 _atom_site_type_symbol
 _atom_site_label
 _atom_site_symmetry_multiplicity
 _atom_site_fract_x
 _atom_site_fract_y
 _atom_site_fract_z
 _atom_site_occupancy
  Yb  Yb0  1  0.671356  0.906001  0.750000  1
  Yb  Yb1  1  0.391399  0.608601  0.250000  1
  Yb  Yb2  1  0.906001  0.671356  0.250000  1
  Yb  Yb3  1  0.608601  0.391399  0.750000  1
  Yb  Yb4  1  0.328644  0.093999  0.250000  1
  Yb  Yb5  1  0.093999  0.328644  0.750000  1
  Mn  Mn6  1  0.801534  0.198466  0.250000  1
  Mn  Mn7  1  0.198466  0.801534  0.750000  1
  N  N8  1  0.677985  0.928895  0.250000  1
  N  N9  1  0.376179  0.623821  0.750000  1
  N  N10  1  0.623821  0.376179  0.250000  1
  N  N11  1  0.928895  0.677985  0.750000  1
  N  N12  1  0.322015  0.071105  0.750000  1
  N  N13  1  0.071105  0.322015  0.250000  1
