# generated using pymatgen
data_Hf10CuBiPb6
_symmetry_space_group_name_H-M   'P 1'
_cell_length_a   8.80380266
_cell_length_b   8.80380285
_cell_length_c   5.99080701
_cell_angle_alpha   89.99811500
_cell_angle_beta   89.99801130
_cell_angle_gamma   119.99991348
_symmetry_Int_Tables_number   1
_chemical_formula_structural   Hf10CuBiPb6
_chemical_formula_sum   'Hf10 Cu1 Bi1 Pb6'
_cell_volume   402.12117843
_cell_formula_units_Z   1
loop_
 _symmetry_equiv_pos_site_id
 _symmetry_equiv_pos_as_xyz
  1  'x, y, z'
loop_
 _atom_site_type_symbol
 _atom_site_label
 _atom_site_symmetry_multiplicity
 _atom_site_fract_x
 _atom_site_fract_y
 _atom_site_fract_z
 _atom_site_occupancy
  Hf  Hf0  1  0.666791  0.333351  0.499792  1
  Hf  Hf1  1  0.333350  0.666789  0.499792  1
  Hf  Hf2  1  0.333535  0.666890  0.000085  1
  Hf  Hf3  1  0.666890  0.333537  0.000086  1
  Hf  Hf4  1  0.727282  0.727282  0.224354  1
  Hf  Hf5  1  0.272615  0.000377  0.224659  1
  Hf  Hf6  1  0.000380  0.272618  0.224671  1
  Hf  Hf7  1  0.271467  0.271465  0.775549  1
  Hf  Hf8  1  0.728055  0.999861  0.775574  1
  Hf  Hf9  1  0.999862  0.728056  0.775582  1
  Cu  Cu10  1  0.999979  0.999983  0.000685  1
  Bi  Bi11  1  0.999695  0.999692  0.499442  1
  Pb  Pb12  1  0.385767  0.385773  0.258060  1
  Pb  Pb13  1  0.614287  0.000422  0.258431  1
  Pb  Pb14  1  0.000423  0.614287  0.258437  1
  Pb  Pb15  1  0.613161  0.613162  0.740996  1
  Pb  Pb16  1  0.386394  0.000057  0.741896  1
  Pb  Pb17  1  0.000064  0.386396  0.741909  1
