# generated using pymatgen
data_GdMg3P7N12
_symmetry_space_group_name_H-M   'P 1'
_cell_length_a   7.33574164
_cell_length_b   7.33574198
_cell_length_c   7.33574188
_cell_angle_alpha   109.49934456
_cell_angle_beta   109.49934834
_cell_angle_gamma   109.49932273
_symmetry_Int_Tables_number   1
_chemical_formula_structural   GdMg3P7N12
_chemical_formula_sum   'Gd1 Mg3 P7 N12'
_cell_volume   303.56890489
_cell_formula_units_Z   1
loop_
 _symmetry_equiv_pos_site_id
 _symmetry_equiv_pos_as_xyz
  1  'x, y, z'
loop_
 _atom_site_type_symbol
 _atom_site_label
 _atom_site_symmetry_multiplicity
 _atom_site_fract_x
 _atom_site_fract_y
 _atom_site_fract_z
 _atom_site_occupancy
  Gd  Gd0  1  0.326730  0.326730  0.326730  1
  Mg  Mg1  1  0.002288  0.653330  0.002288  1
  Mg  Mg2  1  0.653330  0.002288  0.002288  1
  Mg  Mg3  1  0.002288  0.002288  0.653330  1
  P  P4  1  0.505362  0.251661  0.756976  1
  P  P5  1  0.505362  0.756976  0.251661  1
  P  P6  1  0.756976  0.251661  0.505362  1
  P  P7  1  0.251661  0.505362  0.756976  1
  P  P8  1  0.756976  0.505362  0.251661  1
  P  P9  1  0.251661  0.756976  0.505362  1
  P  P10  1  0.963741  0.963741  0.963741  1
  N  N11  1  0.002784  0.727678  0.431455  1
  N  N12  1  0.283552  0.706296  0.283552  1
  N  N13  1  0.279830  0.573280  0.573280  1
  N  N14  1  0.573280  0.573280  0.279830  1
  N  N15  1  0.573280  0.279830  0.573280  1
  N  N16  1  0.727678  0.002784  0.431455  1
  N  N17  1  0.431455  0.002784  0.727678  1
  N  N18  1  0.727678  0.431455  0.002784  1
  N  N19  1  0.283552  0.283552  0.706296  1
  N  N20  1  0.706296  0.283552  0.283552  1
  N  N21  1  0.002784  0.431455  0.727678  1
  N  N22  1  0.431455  0.727678  0.002784  1
