# generated using pymatgen
data_Dy3ThCdRu
_symmetry_space_group_name_H-M   'P 1'
_cell_length_a   9.70145073
_cell_length_b   9.70145119
_cell_length_c   9.70145200
_cell_angle_alpha   60.00000407
_cell_angle_beta   60.00000250
_cell_angle_gamma   60.00000127
_symmetry_Int_Tables_number   1
_chemical_formula_structural   Dy3ThCdRu
_chemical_formula_sum   'Dy12 Th4 Cd4 Ru4'
_cell_volume   645.64702299
_cell_formula_units_Z   4
loop_
 _symmetry_equiv_pos_site_id
 _symmetry_equiv_pos_as_xyz
  1  'x, y, z'
loop_
 _atom_site_type_symbol
 _atom_site_label
 _atom_site_symmetry_multiplicity
 _atom_site_fract_x
 _atom_site_fract_y
 _atom_site_fract_z
 _atom_site_occupancy
  Dy  Dy0  1  0.812014  0.187986  0.187986  1
  Dy  Dy1  1  0.187986  0.812014  0.812014  1
  Dy  Dy2  1  0.187986  0.812014  0.187986  1
  Dy  Dy3  1  0.812014  0.187986  0.812014  1
  Dy  Dy4  1  0.187986  0.187986  0.812014  1
  Dy  Dy5  1  0.812014  0.812014  0.187986  1
  Dy  Dy6  1  0.936097  0.563903  0.563903  1
  Dy  Dy7  1  0.563903  0.936097  0.936097  1
  Dy  Dy8  1  0.563903  0.936097  0.563903  1
  Dy  Dy9  1  0.936097  0.563903  0.936097  1
  Dy  Dy10  1  0.563903  0.563903  0.936097  1
  Dy  Dy11  1  0.936097  0.936097  0.563903  1
  Th  Th12  1  0.347389  0.347389  0.347389  1
  Th  Th13  1  0.347389  0.347389  0.957831  1
  Th  Th14  1  0.347389  0.957831  0.347389  1
  Th  Th15  1  0.957831  0.347389  0.347389  1
  Cd  Cd16  1  0.581295  0.581295  0.581295  1
  Cd  Cd17  1  0.581295  0.581295  0.256114  1
  Cd  Cd18  1  0.581295  0.256114  0.581295  1
  Cd  Cd19  1  0.256114  0.581295  0.581295  1
  Ru  Ru20  1  0.143508  0.143508  0.143508  1
  Ru  Ru21  1  0.143508  0.143508  0.569477  1
  Ru  Ru22  1  0.143508  0.569477  0.143508  1
  Ru  Ru23  1  0.569477  0.143508  0.143508  1
