# generated using pymatgen
data_Th4Al24PdPt8
_symmetry_space_group_name_H-M   'P 1'
_cell_length_a   7.63516196
_cell_length_b   7.65283298
_cell_length_c   13.24212774
_cell_angle_alpha   84.47275541
_cell_angle_beta   78.90825246
_cell_angle_gamma   59.89055240
_symmetry_Int_Tables_number   1
_chemical_formula_structural   Th4Al24PdPt8
_chemical_formula_sum   'Th4 Al24 Pd1 Pt8'
_cell_volume   656.84012814
_cell_formula_units_Z   1
loop_
 _symmetry_equiv_pos_site_id
 _symmetry_equiv_pos_as_xyz
  1  'x, y, z'
loop_
 _atom_site_type_symbol
 _atom_site_label
 _atom_site_symmetry_multiplicity
 _atom_site_fract_x
 _atom_site_fract_y
 _atom_site_fract_z
 _atom_site_occupancy
  Th  Th0  1  0.394645  0.167511  0.806864  1
  Th  Th1  1  0.605355  0.832489  0.193136  1
  Th  Th2  1  0.734147  0.498562  0.806688  1
  Th  Th3  1  0.265853  0.501438  0.193312  1
  Al  Al4  1  0.687872  0.833570  0.945516  1
  Al  Al5  1  0.312128  0.166430  0.054484  1
  Al  Al6  1  0.146251  0.833202  0.560246  1
  Al  Al7  1  0.853749  0.166798  0.439754  1
  Al  Al8  1  0.481252  0.166957  0.557255  1
  Al  Al9  1  0.518748  0.833043  0.442745  1
  Al  Al10  1  0.211407  0.165164  0.336565  1
  Al  Al11  1  0.788593  0.834836  0.663435  1
  Al  Al12  1  0.435675  0.510465  0.663752  1
  Al  Al13  1  0.564325  0.489535  0.336248  1
  Al  Al14  1  0.111977  0.155917  0.662418  1
  Al  Al15  1  0.888023  0.844083  0.337582  1
  Al  Al16  1  0.348396  0.503403  0.945305  1
  Al  Al17  1  0.651604  0.496597  0.054695  1
  Al  Al18  1  0.015093  0.164660  0.955108  1
  Al  Al19  1  0.984907  0.835340  0.044892  1
  Al  Al20  1  0.185960  0.499406  0.442731  1
  Al  Al21  1  0.814040  0.500594  0.557269  1
  Al  Al22  1  0.738104  0.163875  0.183598  1
  Al  Al23  1  0.261896  0.836125  0.816402  1
  Al  Al24  1  0.061363  0.633895  0.815105  1
  Al  Al25  1  0.938637  0.366105  0.184895  1
  Al  Al26  1  0.859271  0.037697  0.815751  1
  Al  Al27  1  0.140729  0.962303  0.184250  1
  Pd  Pd28  1  0.000000  0.500000  0.000000  1
  Pt  Pt29  1  0.120217  0.491234  0.638629  1
  Pt  Pt30  1  0.879783  0.508766  0.361371  1
  Pt  Pt31  1  0.656046  0.172250  0.999779  1
  Pt  Pt32  1  0.343954  0.827750  0.000221  1
  Pt  Pt33  1  0.536752  0.166879  0.361117  1
  Pt  Pt34  1  0.463248  0.833121  0.638883  1
  Pt  Pt35  1  0.777756  0.176009  0.637477  1
  Pt  Pt36  1  0.222244  0.823991  0.362523  1
