# generated using pymatgen
data_KLi2AsS4
_symmetry_space_group_name_H-M   'P 1'
_cell_length_a   6.30558571
_cell_length_b   6.61572460
_cell_length_c   6.29134212
_cell_angle_alpha   58.46778936
_cell_angle_beta   63.30207344
_cell_angle_gamma   58.24958341
_symmetry_Int_Tables_number   1
_chemical_formula_structural   KLi2AsS4
_chemical_formula_sum   'K1 Li2 As1 S4'
_cell_volume   184.65289005
_cell_formula_units_Z   1
loop_
 _symmetry_equiv_pos_site_id
 _symmetry_equiv_pos_as_xyz
  1  'x, y, z'
loop_
 _atom_site_type_symbol
 _atom_site_label
 _atom_site_symmetry_multiplicity
 _atom_site_fract_x
 _atom_site_fract_y
 _atom_site_fract_z
 _atom_site_occupancy
  K  K0  1  0.064041  0.438646  0.313186  1
  Li  Li1  1  0.808918  0.192578  0.060147  1
  Li  Li2  1  0.308404  0.692979  0.559652  1
  As  As3  1  0.565018  0.936777  0.815642  1
  S  S4  1  0.605755  0.278604  0.474232  1
  S  S5  1  0.222744  0.897192  0.855487  1
  S  S6  1  0.907637  0.593562  0.775012  1
  S  S7  1  0.524573  0.976751  0.159141  1
