# generated using pymatgen
data_VCrCl9
_symmetry_space_group_name_H-M   'P 1'
_cell_length_a   11.02061570
_cell_length_b   11.02061562
_cell_length_c   6.89804800
_cell_angle_alpha   90.00000000
_cell_angle_beta   90.00000000
_cell_angle_gamma   107.42891590
_symmetry_Int_Tables_number   1
_chemical_formula_structural   VCrCl9
_chemical_formula_sum   'V2 Cr2 Cl18'
_cell_volume   799.33153213
_cell_formula_units_Z   2
loop_
 _symmetry_equiv_pos_site_id
 _symmetry_equiv_pos_as_xyz
  1  'x, y, z'
loop_
 _atom_site_type_symbol
 _atom_site_label
 _atom_site_symmetry_multiplicity
 _atom_site_fract_x
 _atom_site_fract_y
 _atom_site_fract_z
 _atom_site_occupancy
  V  V0  1  0.750000  0.250000  0.611339  1
  V  V1  1  0.250000  0.750000  0.388661  1
  Cr  Cr2  1  0.750000  0.750000  0.000000  1
  Cr  Cr3  1  0.250000  0.250000  0.000000  1
  Cl  Cl4  1  0.225534  0.088049  0.822413  1
  Cl  Cl5  1  0.411951  0.274466  0.177587  1
  Cl  Cl6  1  0.896742  0.396742  0.761323  1
  Cl  Cl7  1  0.103258  0.603258  0.238677  1
  Cl  Cl8  1  0.396742  0.896742  0.238677  1
  Cl  Cl9  1  0.603258  0.103258  0.761323  1
  Cl  Cl10  1  0.750000  0.250000  0.297318  1
  Cl  Cl11  1  0.250000  0.750000  0.702682  1
  Cl  Cl12  1  0.124872  0.875128  0.382309  1
  Cl  Cl13  1  0.624872  0.375128  0.617691  1
  Cl  Cl14  1  0.375128  0.624872  0.382309  1
  Cl  Cl15  1  0.875128  0.124872  0.617691  1
  Cl  Cl16  1  0.274466  0.411951  0.822413  1
  Cl  Cl17  1  0.088049  0.225534  0.177587  1
  Cl  Cl18  1  0.774466  0.911951  0.177587  1
  Cl  Cl19  1  0.588049  0.725534  0.822413  1
  Cl  Cl20  1  0.911951  0.774466  0.822413  1
  Cl  Cl21  1  0.725534  0.588049  0.177587  1
