# generated using pymatgen
data_Nb4Ga(TeSe)4
_symmetry_space_group_name_H-M   'P 1'
_cell_length_a   7.82191876
_cell_length_b   7.82191900
_cell_length_c   7.82191900
_cell_angle_alpha   59.99999578
_cell_angle_beta   59.99999478
_cell_angle_gamma   59.99999996
_symmetry_Int_Tables_number   1
_chemical_formula_structural   Nb4Ga(TeSe)4
_chemical_formula_sum   'Nb4 Ga1 Te4 Se4'
_cell_volume   338.39575078
_cell_formula_units_Z   1
loop_
 _symmetry_equiv_pos_site_id
 _symmetry_equiv_pos_as_xyz
  1  'x, y, z'
loop_
 _atom_site_type_symbol
 _atom_site_label
 _atom_site_symmetry_multiplicity
 _atom_site_fract_x
 _atom_site_fract_y
 _atom_site_fract_z
 _atom_site_occupancy
  Nb  Nb0  1  0.597951  0.597951  0.206148  1
  Nb  Nb1  1  0.597951  0.206148  0.597951  1
  Nb  Nb2  1  0.206148  0.597951  0.597951  1
  Nb  Nb3  1  0.597951  0.597951  0.597951  1
  Ga  Ga4  1  0.000000  0.000000  0.000000  1
  Te  Te5  1  0.863214  0.863214  0.410357  1
  Te  Te6  1  0.863214  0.410357  0.863214  1
  Te  Te7  1  0.410357  0.863214  0.863214  1
  Te  Te8  1  0.863214  0.863214  0.863214  1
  Se  Se9  1  0.370256  0.370256  0.889234  1
  Se  Se10  1  0.370256  0.889234  0.370256  1
  Se  Se11  1  0.889234  0.370256  0.370256  1
  Se  Se12  1  0.370256  0.370256  0.370256  1
