# generated using pymatgen
data_Sr4Pu3NiO16
_symmetry_space_group_name_H-M   'P 1'
_cell_length_a   5.32158995
_cell_length_b   7.77012716
_cell_length_c   7.85477600
_cell_angle_alpha   91.14381965
_cell_angle_beta   90.28739581
_cell_angle_gamma   89.42405513
_symmetry_Int_Tables_number   1
_chemical_formula_structural   Sr4Pu3NiO16
_chemical_formula_sum   'Sr4 Pu3 Ni1 O16'
_cell_volume   324.70562412
_cell_formula_units_Z   1
loop_
 _symmetry_equiv_pos_site_id
 _symmetry_equiv_pos_as_xyz
  1  'x, y, z'
loop_
 _atom_site_type_symbol
 _atom_site_label
 _atom_site_symmetry_multiplicity
 _atom_site_fract_x
 _atom_site_fract_y
 _atom_site_fract_z
 _atom_site_occupancy
  Sr  Sr0  1  0.470926  0.181015  0.227327  1
  Sr  Sr1  1  0.472224  0.292974  0.761597  1
  Sr  Sr2  1  0.527776  0.707026  0.238403  1
  Sr  Sr3  1  0.529074  0.818985  0.772673  1
  Pu  Pu4  1  0.000000  0.500000  0.000000  1
  Pu  Pu5  1  0.000000  0.500000  0.500000  1
  Pu  Pu6  1  0.000000  0.000000  0.500000  1
  Ni  Ni7  1  0.000000  0.000000  0.000000  1
  O  O8  1  0.107922  0.976763  0.736842  1
  O  O9  1  0.143466  0.531432  0.257812  1
  O  O10  1  0.856534  0.468568  0.742188  1
  O  O11  1  0.892078  0.023237  0.263158  1
  O  O12  1  0.175413  0.258838  0.500836  1
  O  O13  1  0.864453  0.737510  0.005651  1
  O  O14  1  0.824587  0.741162  0.499164  1
  O  O15  1  0.135547  0.262490  0.994349  1
  O  O16  1  0.343054  0.924478  0.058101  1
  O  O17  1  0.311884  0.576997  0.924335  1
  O  O18  1  0.700599  0.412870  0.415536  1
  O  O19  1  0.686677  0.081329  0.574421  1
  O  O20  1  0.656946  0.075522  0.941899  1
  O  O21  1  0.688116  0.423003  0.075665  1
  O  O22  1  0.299401  0.587130  0.584464  1
  O  O23  1  0.313323  0.918671  0.425579  1
