# generated using pymatgen
data_Rb4PaS5
_symmetry_space_group_name_H-M   'P 1'
_cell_length_a   7.97375206
_cell_length_b   11.84647289
_cell_length_c   8.03391600
_cell_angle_alpha   101.60379123
_cell_angle_beta   102.88625182
_cell_angle_gamma   109.64466050
_symmetry_Int_Tables_number   1
_chemical_formula_structural   Rb4PaS5
_chemical_formula_sum   'Rb8 Pa2 S10'
_cell_volume   664.46185393
_cell_formula_units_Z   2
loop_
 _symmetry_equiv_pos_site_id
 _symmetry_equiv_pos_as_xyz
  1  'x, y, z'
loop_
 _atom_site_type_symbol
 _atom_site_label
 _atom_site_symmetry_multiplicity
 _atom_site_fract_x
 _atom_site_fract_y
 _atom_site_fract_z
 _atom_site_occupancy
  Rb  Rb0  1  0.000000  0.500000  0.000000  1
  Rb  Rb1  1  0.427073  0.905858  0.208214  1
  Rb  Rb2  1  0.597597  0.596809  0.294704  1
  Rb  Rb3  1  0.800474  0.302081  0.418172  1
  Rb  Rb4  1  0.000000  0.000000  0.499999  1
  Rb  Rb5  1  0.199527  0.697919  0.581828  1
  Rb  Rb6  1  0.402403  0.403191  0.705297  1
  Rb  Rb7  1  0.572926  0.094141  0.791787  1
  Pa  Pa8  1  0.185889  0.192360  0.099205  1
  Pa  Pa9  1  0.814111  0.807640  0.900794  1
  S  S10  1  0.511516  0.308828  0.061290  1
  S  S11  1  0.848171  0.035636  0.107384  1
  S  S12  1  0.978671  0.761826  0.186280  1
  S  S13  1  0.177817  0.394089  0.301311  1
  S  S14  1  0.364396  0.157610  0.388857  1
  S  S15  1  0.635604  0.842390  0.611143  1
  S  S16  1  0.822183  0.605911  0.698688  1
  S  S17  1  0.021329  0.238174  0.813720  1
  S  S18  1  0.151830  0.964364  0.892616  1
  S  S19  1  0.488485  0.691172  0.938710  1
