# generated using pymatgen
data_Cs5Rb(NbS4)2
_symmetry_space_group_name_H-M   'P 1'
_cell_length_a   9.94490100
_cell_length_b   10.14508838
_cell_length_c   11.55951600
_cell_angle_alpha   91.49976580
_cell_angle_beta   90.00000000
_cell_angle_gamma   90.00000000
_symmetry_Int_Tables_number   1
_chemical_formula_structural   Cs5Rb(NbS4)2
_chemical_formula_sum   'Cs10 Rb2 Nb4 S16'
_cell_volume   1165.86200384
_cell_formula_units_Z   2
loop_
 _symmetry_equiv_pos_site_id
 _symmetry_equiv_pos_as_xyz
  1  'x, y, z'
loop_
 _atom_site_type_symbol
 _atom_site_label
 _atom_site_symmetry_multiplicity
 _atom_site_fract_x
 _atom_site_fract_y
 _atom_site_fract_z
 _atom_site_occupancy
  Cs  Cs0  1  0.356169  0.584300  0.740211  1
  Cs  Cs1  1  0.141404  0.079034  0.241671  1
  Cs  Cs2  1  0.641404  0.420966  0.258329  1
  Cs  Cs3  1  0.856169  0.915700  0.759789  1
  Cs  Cs4  1  0.950197  0.711491  0.462096  1
  Cs  Cs5  1  0.450197  0.788509  0.037904  1
  Cs  Cs6  1  0.551822  0.214776  0.541662  1
  Cs  Cs7  1  0.051822  0.285224  0.958338  1
  Cs  Cs8  1  0.055130  0.291305  0.540526  1
  Cs  Cs9  1  0.555130  0.208695  0.959474  1
  Rb  Rb10  1  0.439841  0.795189  0.449599  1
  Rb  Rb11  1  0.939841  0.704811  0.050401  1
  Nb  Nb12  1  0.218480  0.520300  0.250352  1
  Nb  Nb13  1  0.718480  0.979700  0.249648  1
  Nb  Nb14  1  0.282748  0.015055  0.744543  1
  Nb  Nb15  1  0.782748  0.484945  0.755457  1
  S  S16  1  0.328330  0.472376  0.419201  1
  S  S17  1  0.669452  0.544176  0.921242  1
  S  S18  1  0.828330  0.027624  0.080799  1
  S  S19  1  0.169452  0.955824  0.578758  1
  S  S20  1  0.994785  0.575063  0.761537  1
  S  S21  1  0.494785  0.924937  0.738463  1
  S  S22  1  0.507583  0.072884  0.252981  1
  S  S23  1  0.007583  0.427116  0.247019  1
  S  S24  1  0.800333  0.259023  0.747838  1
  S  S25  1  0.300333  0.240977  0.752162  1
  S  S26  1  0.695951  0.755082  0.257891  1
  S  S27  1  0.195951  0.744918  0.242109  1
  S  S28  1  0.672051  0.551933  0.592997  1
  S  S29  1  0.172051  0.948067  0.907003  1
  S  S30  1  0.835725  0.053077  0.408533  1
  S  S31  1  0.335725  0.446923  0.091467  1
