# generated using pymatgen
data_Yb2Ga5Rh3
_symmetry_space_group_name_H-M   'P 1'
_cell_length_a   8.57912641
_cell_length_b   8.57912691
_cell_length_c   5.64116500
_cell_angle_alpha   70.80487740
_cell_angle_beta   70.80486916
_cell_angle_gamma   97.65252600
_symmetry_Int_Tables_number   1
_chemical_formula_structural   Yb2Ga5Rh3
_chemical_formula_sum   'Yb4 Ga10 Rh6'
_cell_volume   356.50854791
_cell_formula_units_Z   2
loop_
 _symmetry_equiv_pos_site_id
 _symmetry_equiv_pos_as_xyz
  1  'x, y, z'
loop_
 _atom_site_type_symbol
 _atom_site_label
 _atom_site_symmetry_multiplicity
 _atom_site_fract_x
 _atom_site_fract_y
 _atom_site_fract_z
 _atom_site_occupancy
  Yb  Yb0  1  0.869454  0.575846  0.777324  1
  Yb  Yb1  1  0.424154  0.130546  0.722676  1
  Yb  Yb2  1  0.130546  0.424154  0.222676  1
  Yb  Yb3  1  0.575846  0.869454  0.277324  1
  Ga  Ga4  1  0.103219  0.267417  0.813891  1
  Ga  Ga5  1  0.732583  0.896781  0.686109  1
  Ga  Ga6  1  0.896781  0.732583  0.186109  1
  Ga  Ga7  1  0.267417  0.103219  0.313891  1
  Ga  Ga8  1  0.198966  0.801034  0.750000  1
  Ga  Ga9  1  0.801034  0.198966  0.250000  1
  Ga  Ga10  1  0.499940  0.500060  0.750000  1
  Ga  Ga11  1  0.500060  0.499940  0.250000  1
  Ga  Ga12  1  0.800685  0.199315  0.750000  1
  Ga  Ga13  1  0.199315  0.800685  0.250000  1
  Rh  Rh14  1  0.268762  0.570555  0.581097  1
  Rh  Rh15  1  0.429445  0.731238  0.918903  1
  Rh  Rh16  1  0.731238  0.429445  0.418903  1
  Rh  Rh17  1  0.570555  0.268762  0.081097  1
  Rh  Rh18  1  0.000136  0.999864  0.750000  1
  Rh  Rh19  1  0.999864  0.000136  0.250000  1
