# generated using pymatgen
data_Th7TiPbSe17
_symmetry_space_group_name_H-M   'P 1'
_cell_length_a   8.43595458
_cell_length_b   8.45455669
_cell_length_c   11.21875900
_cell_angle_alpha   80.74974000
_cell_angle_beta   80.43750876
_cell_angle_gamma   65.39135230
_symmetry_Int_Tables_number   1
_chemical_formula_structural   Th7TiPbSe17
_chemical_formula_sum   'Th7 Ti1 Pb1 Se17'
_cell_volume   713.61261739
_cell_formula_units_Z   1
loop_
 _symmetry_equiv_pos_site_id
 _symmetry_equiv_pos_as_xyz
  1  'x, y, z'
loop_
 _atom_site_type_symbol
 _atom_site_label
 _atom_site_symmetry_multiplicity
 _atom_site_fract_x
 _atom_site_fract_y
 _atom_site_fract_z
 _atom_site_occupancy
  Th  Th0  1  0.300860  0.818580  0.297043  1
  Th  Th1  1  0.184697  0.694627  0.702355  1
  Th  Th2  1  0.700357  0.184883  0.701064  1
  Th  Th3  1  0.205434  0.201019  0.541123  1
  Th  Th4  1  0.796434  0.791443  0.459019  1
  Th  Th5  1  0.680367  0.681546  0.982045  1
  Th  Th6  1  0.317046  0.321133  0.020344  1
  Ti  Ti7  1  0.000667  0.005193  0.006100  1
  Pb  Pb8  1  0.801315  0.320165  0.287926  1
  Se  Se9  1  0.827589  0.429961  0.544447  1
  Se  Se10  1  0.433619  0.816094  0.534669  1
  Se  Se11  1  0.180530  0.563745  0.465505  1
  Se  Se12  1  0.571172  0.166416  0.476006  1
  Se  Se13  1  0.943818  0.322062  0.015842  1
  Se  Se14  1  0.320582  0.945531  0.023411  1
  Se  Se15  1  0.054335  0.679829  0.972563  1
  Se  Se16  1  0.679554  0.059197  0.972782  1
  Se  Se17  1  0.229945  0.197827  0.275518  1
  Se  Se18  1  0.788313  0.789258  0.726079  1
  Se  Se19  1  0.062766  0.051965  0.776599  1
  Se  Se20  1  0.944343  0.934255  0.224248  1
  Se  Se21  1  0.303203  0.301838  0.755401  1
  Se  Se22  1  0.685526  0.719054  0.241153  1
  Se  Se23  1  0.518419  0.519871  0.833080  1
  Se  Se24  1  0.462248  0.498760  0.157845  1
  Se  Se25  1  0.006862  0.985747  0.507833  1
