# generated using pymatgen
data_Tb3Ho5(GeI6)2
_symmetry_space_group_name_H-M   'P 1'
_cell_length_a   4.21680400
_cell_length_b   14.03222513
_cell_length_c   14.78753737
_cell_angle_alpha   90.07457485
_cell_angle_beta   90.00000000
_cell_angle_gamma   90.00000000
_symmetry_Int_Tables_number   1
_chemical_formula_structural   Tb3Ho5(GeI6)2
_chemical_formula_sum   'Tb3 Ho5 Ge2 I12'
_cell_volume   874.99474834
_cell_formula_units_Z   1
loop_
 _symmetry_equiv_pos_site_id
 _symmetry_equiv_pos_as_xyz
  1  'x, y, z'
loop_
 _atom_site_type_symbol
 _atom_site_label
 _atom_site_symmetry_multiplicity
 _atom_site_fract_x
 _atom_site_fract_y
 _atom_site_fract_z
 _atom_site_occupancy
  Tb  Tb0  1  0.000000  0.888127  0.424928  1
  Tb  Tb1  1  0.000000  0.612514  0.924421  1
  Tb  Tb2  1  0.000000  0.387452  0.075437  1
  Ho  Ho3  1  0.500000  0.114275  0.347797  1
  Ho  Ho4  1  0.500000  0.886044  0.652409  1
  Ho  Ho5  1  0.500000  0.614308  0.152550  1
  Ho  Ho6  1  0.500000  0.385501  0.847288  1
  Ho  Ho7  1  0.000000  0.111732  0.574898  1
  Ge  Ge8  1  0.500000  0.000947  0.500619  1
  Ge  Ge9  1  0.500000  0.499913  0.999827  1
  I  I10  1  0.500000  0.243749  0.162544  1
  I  I11  1  0.500000  0.756554  0.837630  1
  I  I12  1  0.500000  0.744092  0.337899  1
  I  I13  1  0.500000  0.254182  0.661468  1
  I  I14  1  0.000000  0.257706  0.414192  1
  I  I15  1  0.000000  0.742055  0.587203  1
  I  I16  1  0.000000  0.758224  0.087381  1
  I  I17  1  0.000000  0.241661  0.912513  1
  I  I18  1  0.000000  0.000647  0.240523  1
  I  I19  1  0.000000  0.000667  0.758716  1
  I  I20  1  0.000000  0.500716  0.259774  1
  I  I21  1  0.000000  0.498932  0.739985  1
