# generated using pymatgen
data_DyEr2U(VB4)4
_symmetry_space_group_name_H-M   'P 1'
_cell_length_a   3.46252000
_cell_length_b   5.96971499
_cell_length_c   11.56439433
_cell_angle_alpha   89.89252526
_cell_angle_beta   90.00000000
_cell_angle_gamma   90.00000000
_symmetry_Int_Tables_number   1
_chemical_formula_structural   DyEr2U(VB4)4
_chemical_formula_sum   'Dy1 Er2 U1 V4 B16'
_cell_volume   239.03858874
_cell_formula_units_Z   1
loop_
 _symmetry_equiv_pos_site_id
 _symmetry_equiv_pos_as_xyz
  1  'x, y, z'
loop_
 _atom_site_type_symbol
 _atom_site_label
 _atom_site_symmetry_multiplicity
 _atom_site_fract_x
 _atom_site_fract_y
 _atom_site_fract_z
 _atom_site_occupancy
  Dy  Dy0  1  0.500000  0.874517  0.152088  1
  Er  Er1  1  0.500000  0.622775  0.649342  1
  Er  Er2  1  0.500000  0.375009  0.349545  1
  U  U3  1  0.500000  0.126580  0.848539  1
  V  V4  1  0.500000  0.125917  0.585468  1
  V  V5  1  0.500000  0.872180  0.418005  1
  V  V6  1  0.500000  0.628223  0.915077  1
  V  V7  1  0.500000  0.371615  0.081009  1
  B  B8  1  0.000000  0.284075  0.686805  1
  B  B9  1  0.000000  0.713281  0.314484  1
  B  B10  1  0.000000  0.788317  0.814633  1
  B  B11  1  0.000000  0.216905  0.186629  1
  B  B12  1  0.000000  0.364846  0.532797  1
  B  B13  1  0.000000  0.634375  0.467608  1
  B  B14  1  0.000000  0.866876  0.965882  1
  B  B15  1  0.000000  0.136656  0.031315  1
  B  B16  1  0.000000  0.024636  0.308159  1
  B  B17  1  0.000000  0.977277  0.692861  1
  B  B18  1  0.000000  0.522518  0.192949  1
  B  B19  1  0.000000  0.473284  0.807981  1
  B  B20  1  0.000000  0.115043  0.452931  1
  B  B21  1  0.000000  0.885126  0.547118  1
  B  B22  1  0.000000  0.614153  0.046728  1
  B  B23  1  0.000000  0.385817  0.952050  1
