# generated using pymatgen
data_Ti4Al2B4Ir7Ru3
_symmetry_space_group_name_H-M   'P 1'
_cell_length_a   9.34187753
_cell_length_b   2.94870600
_cell_length_c   9.31498052
_cell_angle_alpha   90.00000000
_cell_angle_beta   90.03847383
_cell_angle_gamma   90.00000000
_symmetry_Int_Tables_number   1
_chemical_formula_structural   Ti4Al2B4Ir7Ru3
_chemical_formula_sum   'Ti4 Al2 B4 Ir7 Ru3'
_cell_volume   256.59459036
_cell_formula_units_Z   1
loop_
 _symmetry_equiv_pos_site_id
 _symmetry_equiv_pos_as_xyz
  1  'x, y, z'
loop_
 _atom_site_type_symbol
 _atom_site_label
 _atom_site_symmetry_multiplicity
 _atom_site_fract_x
 _atom_site_fract_y
 _atom_site_fract_z
 _atom_site_occupancy
  Ti  Ti0  1  0.327493  0.000000  0.173634  1
  Ti  Ti1  1  0.825630  0.000000  0.320759  1
  Ti  Ti2  1  0.173162  0.000000  0.673333  1
  Ti  Ti3  1  0.676510  0.000000  0.832555  1
  Al  Al4  1  0.995882  0.000000  0.001075  1
  Al  Al5  1  0.500700  0.000000  0.499870  1
  B  B6  1  0.627977  0.000000  0.121567  1
  B  B7  1  0.123287  0.000000  0.376302  1
  B  B8  1  0.877079  0.000000  0.622844  1
  B  B9  1  0.376222  0.000000  0.878164  1
  Ir  Ir10  1  0.073856  0.500002  0.212750  1
  Ir  Ir11  1  0.570532  0.500002  0.286256  1
  Ir  Ir12  1  0.286442  0.500002  0.429172  1
  Ir  Ir13  1  0.713398  0.500002  0.573027  1
  Ir  Ir14  1  0.427962  0.500002  0.713912  1
  Ir  Ir15  1  0.929057  0.500002  0.785672  1
  Ir  Ir16  1  0.211913  0.500002  0.927990  1
  Ru  Ru17  1  0.498641  0.500002  0.000879  1
  Ru  Ru18  1  0.785267  0.500002  0.072090  1
  Ru  Ru19  1  0.998990  0.500002  0.498147  1
