# generated using pymatgen
data_Tb4PBr6
_symmetry_space_group_name_H-M   'P 1'
_cell_length_a   4.02463200
_cell_length_b   13.17388600
_cell_length_c   13.89865400
_cell_angle_alpha   90.00000000
_cell_angle_beta   90.00000000
_cell_angle_gamma   90.00000000
_symmetry_Int_Tables_number   1
_chemical_formula_structural   Tb4PBr6
_chemical_formula_sum   'Tb8 P2 Br12'
_cell_volume   736.90723495
_cell_formula_units_Z   2
loop_
 _symmetry_equiv_pos_site_id
 _symmetry_equiv_pos_as_xyz
  1  'x, y, z'
loop_
 _atom_site_type_symbol
 _atom_site_label
 _atom_site_symmetry_multiplicity
 _atom_site_fract_x
 _atom_site_fract_y
 _atom_site_fract_z
 _atom_site_occupancy
  Tb  Tb0  1  0.500000  0.117292  0.342720  1
  Tb  Tb1  1  0.500000  0.882708  0.657280  1
  Tb  Tb2  1  0.500000  0.617292  0.157280  1
  Tb  Tb3  1  0.500000  0.382708  0.842720  1
  Tb  Tb4  1  0.000000  0.115192  0.576427  1
  Tb  Tb5  1  0.000000  0.884808  0.423573  1
  Tb  Tb6  1  0.000000  0.615192  0.923573  1
  Tb  Tb7  1  0.000000  0.384808  0.076427  1
  P  P8  1  0.500000  0.000000  0.500000  1
  P  P9  1  0.500000  0.500000  0.000000  1
  Br  Br10  1  0.500000  0.243052  0.162553  1
  Br  Br11  1  0.500000  0.756948  0.837447  1
  Br  Br12  1  0.500000  0.743052  0.337447  1
  Br  Br13  1  0.500000  0.256948  0.662553  1
  Br  Br14  1  0.000000  0.256693  0.412021  1
  Br  Br15  1  0.000000  0.743307  0.587979  1
  Br  Br16  1  0.000000  0.756693  0.087979  1
  Br  Br17  1  0.000000  0.243307  0.912021  1
  Br  Br18  1  0.000000  0.000567  0.242170  1
  Br  Br19  1  0.000000  0.999433  0.757830  1
  Br  Br20  1  0.000000  0.500567  0.257830  1
  Br  Br21  1  0.000000  0.499433  0.742170  1
