# generated using pymatgen
data_Rb4Th6MnBr18
_symmetry_space_group_name_H-M   'P 1'
_cell_length_a   11.34676895
_cell_length_b   11.37364161
_cell_length_c   11.56261144
_cell_angle_alpha   117.86361446
_cell_angle_beta   100.08600787
_cell_angle_gamma   104.78777310
_symmetry_Int_Tables_number   1
_chemical_formula_structural   Rb4Th6MnBr18
_chemical_formula_sum   'Rb4 Th6 Mn1 Br18'
_cell_volume   1197.45706805
_cell_formula_units_Z   1
loop_
 _symmetry_equiv_pos_site_id
 _symmetry_equiv_pos_as_xyz
  1  'x, y, z'
loop_
 _atom_site_type_symbol
 _atom_site_label
 _atom_site_symmetry_multiplicity
 _atom_site_fract_x
 _atom_site_fract_y
 _atom_site_fract_z
 _atom_site_occupancy
  Rb  Rb0  1  0.649099  0.536060  0.223471  1
  Rb  Rb1  1  0.350901  0.463940  0.776529  1
  Rb  Rb2  1  0.687415  0.231493  0.567663  1
  Rb  Rb3  1  0.312585  0.768507  0.432337  1
  Th  Th4  1  0.163682  0.061128  0.250601  1
  Th  Th5  1  0.836318  0.938872  0.749399  1
  Th  Th6  1  0.849989  0.137149  0.143701  1
  Th  Th7  1  0.150011  0.862851  0.856299  1
  Th  Th8  1  0.149455  0.245555  0.045062  1
  Th  Th9  1  0.850545  0.754445  0.954938  1
  Mn  Mn10  1  0.000000  0.000000  0.000000  1
  Br  Br11  1  0.012410  0.422779  0.203495  1
  Br  Br12  1  0.987590  0.577221  0.796505  1
  Br  Br13  1  0.338160  0.344026  0.319121  1
  Br  Br14  1  0.661840  0.655974  0.680879  1
  Br  Br15  1  0.335988  0.526855  0.104064  1
  Br  Br16  1  0.664012  0.473145  0.895936  1
  Br  Br17  1  0.004343  0.788450  0.216428  1
  Br  Br18  1  0.995657  0.211550  0.783572  1
  Br  Br19  1  0.700378  0.288994  0.301562  1
  Br  Br20  1  0.299622  0.711006  0.698438  1
  Br  Br21  1  0.324683  0.132173  0.899525  1
  Br  Br22  1  0.675317  0.867827  0.100475  1
  Br  Br23  1  0.016727  0.209292  0.418189  1
  Br  Br24  1  0.983273  0.790708  0.581811  1
  Br  Br25  1  0.326695  0.917887  0.112796  1
  Br  Br26  1  0.673305  0.082113  0.887204  1
  Br  Br27  1  0.350710  0.124630  0.514336  1
  Br  Br28  1  0.649290  0.875370  0.485664  1
