# generated using pymatgen
data_NaSb(OF)2
_symmetry_space_group_name_H-M   'P 1'
_cell_length_a   5.25058448
_cell_length_b   5.25058437
_cell_length_c   6.07665900
_cell_angle_alpha   90.00000000
_cell_angle_beta   90.00000000
_cell_angle_gamma   90.05406767
_symmetry_Int_Tables_number   1
_chemical_formula_structural   NaSb(OF)2
_chemical_formula_sum   'Na2 Sb2 O4 F4'
_cell_volume   167.52513064
_cell_formula_units_Z   2
loop_
 _symmetry_equiv_pos_site_id
 _symmetry_equiv_pos_as_xyz
  1  'x, y, z'
loop_
 _atom_site_type_symbol
 _atom_site_label
 _atom_site_symmetry_multiplicity
 _atom_site_fract_x
 _atom_site_fract_y
 _atom_site_fract_z
 _atom_site_occupancy
  Na  Na0  1  0.000000  0.000000  0.000000  1
  Na  Na1  1  0.000000  0.000000  0.500000  1
  Sb  Sb2  1  0.499805  0.500196  0.250000  1
  Sb  Sb3  1  0.500196  0.499805  0.750000  1
  O  O4  1  0.323704  0.676297  0.999715  1
  O  O5  1  0.323704  0.676297  0.500286  1
  O  O6  1  0.676297  0.323704  0.499715  1
  O  O7  1  0.676297  0.323704  0.000286  1
  F  F8  1  0.231527  0.230239  0.250000  1
  F  F9  1  0.769762  0.768473  0.250000  1
  F  F10  1  0.230239  0.231527  0.750000  1
  F  F11  1  0.768473  0.769762  0.750000  1
