# generated using pymatgen
data_Ac2Mg(Ga3Cu4)3
_symmetry_space_group_name_H-M   'P 1'
_cell_length_a   10.58813485
_cell_length_b   8.33271449
_cell_length_c   8.08502100
_cell_angle_alpha   80.25697017
_cell_angle_beta   50.87289444
_cell_angle_gamma   48.82248665
_symmetry_Int_Tables_number   1
_chemical_formula_structural   Ac2Mg(Ga3Cu4)3
_chemical_formula_sum   'Ac2 Mg1 Ga9 Cu12'
_cell_volume   377.64770088
_cell_formula_units_Z   1
loop_
 _symmetry_equiv_pos_site_id
 _symmetry_equiv_pos_as_xyz
  1  'x, y, z'
loop_
 _atom_site_type_symbol
 _atom_site_label
 _atom_site_symmetry_multiplicity
 _atom_site_fract_x
 _atom_site_fract_y
 _atom_site_fract_z
 _atom_site_occupancy
  Ac  Ac0  1  0.000120  0.000134  0.000480  1
  Ac  Ac1  1  0.249183  0.250370  0.250339  1
  Mg  Mg2  1  0.499721  0.500043  0.500312  1
  Ga  Ga3  1  0.751555  0.748533  0.748281  1
  Ga  Ga4  1  0.764207  0.065376  0.822426  1
  Ga  Ga5  1  0.821639  0.347933  0.764637  1
  Ga  Ga6  1  0.066175  0.764738  0.346811  1
  Ga  Ga7  1  0.347149  0.822078  0.066796  1
  Ga  Ga8  1  0.486302  0.184096  0.427045  1
  Ga  Ga9  1  0.426946  0.902985  0.487609  1
  Ga  Ga10  1  0.183162  0.486319  0.903039  1
  Ga  Ga11  1  0.902743  0.428358  0.182804  1
  Cu  Cu12  1  0.624872  0.123475  0.627192  1
  Cu  Cu13  1  0.627631  0.624670  0.624908  1
  Cu  Cu14  1  0.122681  0.624868  0.624535  1
  Cu  Cu15  1  0.624691  0.627478  0.123219  1
  Cu  Cu16  1  0.482323  0.438290  0.186552  1
  Cu  Cu17  1  0.186907  0.893080  0.482779  1
  Cu  Cu18  1  0.438546  0.482132  0.892203  1
  Cu  Cu19  1  0.893630  0.185518  0.438192  1
  Cu  Cu20  1  0.766669  0.811629  0.061765  1
  Cu  Cu21  1  0.062309  0.358725  0.765684  1
  Cu  Cu22  1  0.811765  0.766586  0.360133  1
  Cu  Cu23  1  0.359071  0.062583  0.812259  1
