# generated using pymatgen
data_Al2V13As
_symmetry_space_group_name_H-M   'P 1'
_cell_length_a   4.81711200
_cell_length_b   4.75677300
_cell_length_c   9.54065400
_cell_angle_alpha   90.00000000
_cell_angle_beta   90.00000000
_cell_angle_gamma   90.00000000
_symmetry_Int_Tables_number   1
_chemical_formula_structural   Al2V13As
_chemical_formula_sum   'Al2 V13 As1'
_cell_volume   218.61367087
_cell_formula_units_Z   1
loop_
 _symmetry_equiv_pos_site_id
 _symmetry_equiv_pos_as_xyz
  1  'x, y, z'
loop_
 _atom_site_type_symbol
 _atom_site_label
 _atom_site_symmetry_multiplicity
 _atom_site_fract_x
 _atom_site_fract_y
 _atom_site_fract_z
 _atom_site_occupancy
  Al  Al0  1  0.000000  0.000000  0.248949  1
  Al  Al1  1  0.000000  0.000000  0.751051  1
  V  V2  1  0.500000  0.500000  0.500000  1
  V  V3  1  0.500000  0.000000  0.622931  1
  V  V4  1  0.500000  0.000000  0.126293  1
  V  V5  1  0.744530  0.500000  0.251779  1
  V  V6  1  0.744530  0.500000  0.748221  1
  V  V7  1  0.000000  0.743330  0.500000  1
  V  V8  1  0.000000  0.744277  0.000000  1
  V  V9  1  0.500000  0.000000  0.377069  1
  V  V10  1  0.500000  0.000000  0.873707  1
  V  V11  1  0.255470  0.500000  0.251779  1
  V  V12  1  0.255470  0.500000  0.748221  1
  V  V13  1  0.000000  0.256670  0.500000  1
  V  V14  1  0.000000  0.255723  0.000000  1
  As  As15  1  0.500000  0.500000  0.000000  1
