# generated using pymatgen
data_PrY3Sc2(AlPt2)2
_symmetry_space_group_name_H-M   'P 1'
_cell_length_a   4.46508800
_cell_length_b   7.26458150
_cell_length_c   8.04320781
_cell_angle_alpha   90.19559718
_cell_angle_beta   90.00000000
_cell_angle_gamma   90.00000000
_symmetry_Int_Tables_number   1
_chemical_formula_structural   PrY3Sc2(AlPt2)2
_chemical_formula_sum   'Pr1 Y3 Sc2 Al2 Pt4'
_cell_volume   260.89597670
_cell_formula_units_Z   1
loop_
 _symmetry_equiv_pos_site_id
 _symmetry_equiv_pos_as_xyz
  1  'x, y, z'
loop_
 _atom_site_type_symbol
 _atom_site_label
 _atom_site_symmetry_multiplicity
 _atom_site_fract_x
 _atom_site_fract_y
 _atom_site_fract_z
 _atom_site_occupancy
  Pr  Pr0  1  0.750000  0.477948  0.171334  1
  Y  Y1  1  0.250000  0.555293  0.819689  1
  Y  Y2  1  0.250000  0.020840  0.671815  1
  Y  Y3  1  0.750000  0.948474  0.324518  1
  Sc  Sc4  1  0.250000  0.125140  0.063790  1
  Sc  Sc5  1  0.750000  0.372636  0.566680  1
  Al  Al6  1  0.250000  0.644434  0.438245  1
  Al  Al7  1  0.750000  0.859153  0.934208  1
  Pt  Pt8  1  0.250000  0.767848  0.121150  1
  Pt  Pt9  1  0.250000  0.273421  0.387259  1
  Pt  Pt10  1  0.750000  0.737115  0.622579  1
  Pt  Pt11  1  0.750000  0.217698  0.878736  1
