# generated using pymatgen
data_ErTm15In4Ir3Os
_symmetry_space_group_name_H-M   'P 1'
_cell_length_a   9.57016733
_cell_length_b   9.57000294
_cell_length_c   9.57016857
_cell_angle_alpha   59.68947524
_cell_angle_beta   59.67847089
_cell_angle_gamma   59.68947109
_symmetry_Int_Tables_number   1
_chemical_formula_structural   ErTm15In4Ir3Os
_chemical_formula_sum   'Er1 Tm15 In4 Ir3 Os1'
_cell_volume   615.35436197
_cell_formula_units_Z   1
loop_
 _symmetry_equiv_pos_site_id
 _symmetry_equiv_pos_as_xyz
  1  'x, y, z'
loop_
 _atom_site_type_symbol
 _atom_site_label
 _atom_site_symmetry_multiplicity
 _atom_site_fract_x
 _atom_site_fract_y
 _atom_site_fract_z
 _atom_site_occupancy
  Er  Er0  1  0.057473  0.444447  0.057473  1
  Tm  Tm1  1  0.057351  0.057077  0.444704  1
  Tm  Tm2  1  0.650810  0.045404  0.650810  1
  Tm  Tm3  1  0.192422  0.809021  0.192422  1
  Tm  Tm4  1  0.439857  0.060425  0.439857  1
  Tm  Tm5  1  0.192466  0.192404  0.808930  1
  Tm  Tm6  1  0.651001  0.651119  0.651001  1
  Tm  Tm7  1  0.045389  0.650871  0.650691  1
  Tm  Tm8  1  0.444704  0.057077  0.057351  1
  Tm  Tm9  1  0.650691  0.650871  0.045389  1
  Tm  Tm10  1  0.191916  0.808734  0.808344  1
  Tm  Tm11  1  0.808544  0.191813  0.808544  1
  Tm  Tm12  1  0.808930  0.192404  0.192466  1
  Tm  Tm13  1  0.808344  0.808734  0.191916  1
  Tm  Tm14  1  0.060384  0.439847  0.440198  1
  Tm  Tm15  1  0.440198  0.439847  0.060384  1
  In  In16  1  0.750278  0.416666  0.417076  1
  In  In17  1  0.417076  0.416666  0.750278  1
  In  In18  1  0.416716  0.750553  0.416716  1
  In  In19  1  0.416757  0.416902  0.416757  1
  Ir  Ir20  1  0.421256  0.858847  0.858796  1
  Ir  Ir21  1  0.858796  0.858847  0.421256  1
  Ir  Ir22  1  0.858684  0.421209  0.858684  1
  Os  Os23  1  0.859958  0.860219  0.859958  1
