# generated using pymatgen
data_Tb5P12Ir4Ru15
_symmetry_space_group_name_H-M   'P 1'
_cell_length_a   12.57511800
_cell_length_b   12.57511881
_cell_length_c   3.98128200
_cell_angle_alpha   90.00000000
_cell_angle_beta   90.00000000
_cell_angle_gamma   120.00000313
_symmetry_Int_Tables_number   1
_chemical_formula_structural   Tb5P12Ir4Ru15
_chemical_formula_sum   'Tb5 P12 Ir4 Ru15'
_cell_volume   545.22746456
_cell_formula_units_Z   1
loop_
 _symmetry_equiv_pos_site_id
 _symmetry_equiv_pos_as_xyz
  1  'x, y, z'
loop_
 _atom_site_type_symbol
 _atom_site_label
 _atom_site_symmetry_multiplicity
 _atom_site_fract_x
 _atom_site_fract_y
 _atom_site_fract_z
 _atom_site_occupancy
  Tb  Tb0  1  0.333333  0.666667  0.000000  1
  Tb  Tb1  1  0.666667  0.333333  0.000000  1
  Tb  Tb2  1  0.813181  0.999444  0.500000  1
  Tb  Tb3  1  0.000556  0.813735  0.500000  1
  Tb  Tb4  1  0.186265  0.186819  0.500000  1
  P  P5  1  0.182839  0.997316  0.000000  1
  P  P6  1  0.002684  0.185523  0.000000  1
  P  P7  1  0.814477  0.817161  0.000000  1
  P  P8  1  0.171738  0.478274  0.500000  1
  P  P9  1  0.521726  0.693464  0.500000  1
  P  P10  1  0.306536  0.828262  0.500000  1
  P  P11  1  0.688055  0.519199  0.500000  1
  P  P12  1  0.831143  0.311945  0.500000  1
  P  P13  1  0.480801  0.168857  0.500000  1
  P  P14  1  0.625497  0.996009  0.000000  1
  P  P15  1  0.003991  0.629487  0.000000  1
  P  P16  1  0.370513  0.374503  0.000000  1
  Ir  Ir17  1  0.811788  0.626517  0.000000  1
  Ir  Ir18  1  0.814729  0.188212  0.000000  1
  Ir  Ir19  1  0.373483  0.185271  0.000000  1
  Ir  Ir20  1  0.000000  0.000000  0.000000  1
  Ru  Ru21  1  0.449073  0.005917  0.000000  1
  Ru  Ru22  1  0.994083  0.443156  0.000000  1
  Ru  Ru23  1  0.556844  0.550927  0.000000  1
  Ru  Ru24  1  0.366317  0.490562  0.500000  1
  Ru  Ru25  1  0.509438  0.875756  0.500000  1
  Ru  Ru26  1  0.124244  0.633683  0.500000  1
  Ru  Ru27  1  0.870690  0.509650  0.500000  1
  Ru  Ru28  1  0.638959  0.129310  0.500000  1
  Ru  Ru29  1  0.490350  0.361041  0.500000  1
  Ru  Ru30  1  0.182683  0.378260  0.000000  1
  Ru  Ru31  1  0.621740  0.804425  0.000000  1
  Ru  Ru32  1  0.195575  0.817317  0.000000  1
  Ru  Ru33  1  0.284249  0.001683  0.500000  1
  Ru  Ru34  1  0.998317  0.282566  0.500000  1
  Ru  Ru35  1  0.717434  0.715751  0.500000  1
