# generated using pymatgen
data_TbLu9(IrPt2)2
_symmetry_space_group_name_H-M   'P 1'
_cell_length_a   10.84910819
_cell_length_b   10.84772200
_cell_length_c   6.27447110
_cell_angle_alpha   90.00000000
_cell_angle_beta   90.02068867
_cell_angle_gamma   90.00000000
_symmetry_Int_Tables_number   1
_chemical_formula_structural   TbLu9(IrPt2)2
_chemical_formula_sum   'Tb2 Lu18 Ir4 Pt8'
_cell_volume   738.43059370
_cell_formula_units_Z   2
loop_
 _symmetry_equiv_pos_site_id
 _symmetry_equiv_pos_as_xyz
  1  'x, y, z'
loop_
 _atom_site_type_symbol
 _atom_site_label
 _atom_site_symmetry_multiplicity
 _atom_site_fract_x
 _atom_site_fract_y
 _atom_site_fract_z
 _atom_site_occupancy
  Tb  Tb0  1  0.087491  0.706059  0.626320  1
  Tb  Tb1  1  0.087491  0.293941  0.126320  1
  Lu  Lu2  1  0.296793  0.085873  0.375578  1
  Lu  Lu3  1  0.296793  0.914127  0.875578  1
  Lu  Lu4  1  0.703937  0.086736  0.874532  1
  Lu  Lu5  1  0.703937  0.913264  0.374532  1
  Lu  Lu6  1  0.586683  0.795495  0.874951  1
  Lu  Lu7  1  0.586683  0.204505  0.374951  1
  Lu  Lu8  1  0.413622  0.795685  0.374646  1
  Lu  Lu9  1  0.413622  0.204315  0.874646  1
  Lu  Lu10  1  0.204807  0.412846  0.625230  1
  Lu  Lu11  1  0.204807  0.587154  0.125230  1
  Lu  Lu12  1  0.794337  0.413639  0.125566  1
  Lu  Lu13  1  0.794337  0.586361  0.625566  1
  Lu  Lu14  1  0.911923  0.703898  0.125497  1
  Lu  Lu15  1  0.911923  0.296102  0.625497  1
  Lu  Lu16  1  0.999028  0.000869  0.499020  1
  Lu  Lu17  1  0.999028  0.999131  0.999020  1
  Lu  Lu18  1  0.500286  0.499953  0.999997  1
  Lu  Lu19  1  0.500286  0.500047  0.499997  1
  Ir  Ir20  1  0.500457  0.999942  0.120332  1
  Ir  Ir21  1  0.500457  0.000058  0.620332  1
  Ir  Ir22  1  0.998589  0.500083  0.880000  1
  Ir  Ir23  1  0.998589  0.499917  0.380000  1
  Pt  Pt24  1  0.844802  0.152859  0.250845  1
  Pt  Pt25  1  0.844802  0.847141  0.750845  1
  Pt  Pt26  1  0.154551  0.151644  0.745962  1
  Pt  Pt27  1  0.154551  0.848356  0.245962  1
  Pt  Pt28  1  0.653551  0.346405  0.750047  1
  Pt  Pt29  1  0.653551  0.653595  0.250047  1
  Pt  Pt30  1  0.349143  0.346656  0.251477  1
  Pt  Pt31  1  0.349143  0.653344  0.751477  1
