# generated using pymatgen
data_Zr6Ti4Al12Ru6Rh
_symmetry_space_group_name_H-M   'P 1'
_cell_length_a   8.78530856
_cell_length_b   8.78530854
_cell_length_c   8.80116700
_cell_angle_alpha   59.94027320
_cell_angle_beta   59.94027324
_cell_angle_gamma   60.17663054
_symmetry_Int_Tables_number   1
_chemical_formula_structural   Zr6Ti4Al12Ru6Rh
_chemical_formula_sum   'Zr6 Ti4 Al12 Ru6 Rh1'
_cell_volume   480.53162168
_cell_formula_units_Z   1
loop_
 _symmetry_equiv_pos_site_id
 _symmetry_equiv_pos_as_xyz
  1  'x, y, z'
loop_
 _atom_site_type_symbol
 _atom_site_label
 _atom_site_symmetry_multiplicity
 _atom_site_fract_x
 _atom_site_fract_y
 _atom_site_fract_z
 _atom_site_occupancy
  Zr  Zr0  1  0.697856  0.301472  0.297039  1
  Zr  Zr1  1  0.697856  0.301472  0.703634  1
  Zr  Zr2  1  0.699177  0.699177  0.300823  1
  Zr  Zr3  1  0.301472  0.697856  0.703634  1
  Zr  Zr4  1  0.301472  0.697856  0.297039  1
  Zr  Zr5  1  0.302796  0.302796  0.697204  1
  Ti  Ti6  1  0.640025  0.119169  0.120403  1
  Ti  Ti7  1  0.119169  0.640025  0.120403  1
  Ti  Ti8  1  0.120602  0.120602  0.641462  1
  Ti  Ti9  1  0.120602  0.120602  0.117332  1
  Al  Al10  1  0.357460  0.881608  0.880466  1
  Al  Al11  1  0.881608  0.357460  0.880466  1
  Al  Al12  1  0.880808  0.880808  0.357021  1
  Al  Al13  1  0.880808  0.880808  0.881365  1
  Al  Al14  1  0.991300  0.335084  0.336808  1
  Al  Al15  1  0.335084  0.991300  0.336808  1
  Al  Al16  1  0.334570  0.334570  0.995553  1
  Al  Al17  1  0.334570  0.334570  0.335307  1
  Al  Al18  1  0.004701  0.666052  0.664624  1
  Al  Al19  1  0.666052  0.004701  0.664624  1
  Al  Al20  1  0.666756  0.666756  0.001055  1
  Al  Al21  1  0.666756  0.666756  0.665436  1
  Ru  Ru22  1  0.999787  0.999787  0.000213  1
  Ru  Ru23  1  0.498058  0.001510  0.001387  1
  Ru  Ru24  1  0.498058  0.001510  0.499044  1
  Ru  Ru25  1  0.498604  0.498604  0.001396  1
  Ru  Ru26  1  0.001510  0.498058  0.499044  1
  Ru  Ru27  1  0.001510  0.498058  0.001387  1
  Rh  Rh28  1  0.000976  0.000976  0.499024  1
