# generated using pymatgen
data_MnNb16Fe3Te16
_symmetry_space_group_name_H-M   'P 1'
_cell_length_a   4.86484200
_cell_length_b   10.87885683
_cell_length_c   18.92317312
_cell_angle_alpha   90.02893386
_cell_angle_beta   90.00000000
_cell_angle_gamma   90.00000000
_symmetry_Int_Tables_number   1
_chemical_formula_structural   MnNb16Fe3Te16
_chemical_formula_sum   'Mn1 Nb16 Fe3 Te16'
_cell_volume   1001.48836590
_cell_formula_units_Z   1
loop_
 _symmetry_equiv_pos_site_id
 _symmetry_equiv_pos_as_xyz
  1  'x, y, z'
loop_
 _atom_site_type_symbol
 _atom_site_label
 _atom_site_symmetry_multiplicity
 _atom_site_fract_x
 _atom_site_fract_y
 _atom_site_fract_z
 _atom_site_occupancy
  Mn  Mn0  1  0.249401  0.500000  0.500000  1
  Nb  Nb1  1  0.500583  0.565013  0.381978  1
  Nb  Nb2  1  0.500583  0.434987  0.618022  1
  Nb  Nb3  1  0.500051  0.064501  0.117117  1
  Nb  Nb4  1  0.500051  0.935499  0.882883  1
  Nb  Nb5  1  0.500278  0.706247  0.537002  1
  Nb  Nb6  1  0.500278  0.293753  0.462998  1
  Nb  Nb7  1  0.499971  0.204704  0.963279  1
  Nb  Nb8  1  0.499971  0.795296  0.036721  1
  Nb  Nb9  1  0.999765  0.691660  0.442431  1
  Nb  Nb10  1  0.999765  0.308340  0.557569  1
  Nb  Nb11  1  0.000124  0.190386  0.057241  1
  Nb  Nb12  1  0.000124  0.809614  0.942759  1
  Nb  Nb13  1  0.999476  0.400195  0.390276  1
  Nb  Nb14  1  0.999476  0.599805  0.609724  1
  Nb  Nb15  1  0.000024  0.901150  0.108815  1
  Nb  Nb16  1  0.000024  0.098850  0.891185  1
  Fe  Fe17  1  0.750276  0.000000  0.000000  1
  Fe  Fe18  1  0.749288  0.500000  0.500000  1
  Fe  Fe19  1  0.249881  0.000000  0.000000  1
  Te  Te20  1  0.997652  0.849442  0.563392  1
  Te  Te21  1  0.997652  0.150558  0.436608  1
  Te  Te22  1  0.000082  0.348979  0.936842  1
  Te  Te23  1  0.000082  0.651021  0.063158  1
  Te  Te24  1  0.501865  0.331290  0.313943  1
  Te  Te25  1  0.501865  0.668710  0.686057  1
  Te  Te26  1  0.499899  0.831457  0.185784  1
  Te  Te27  1  0.499899  0.168543  0.814216  1
  Te  Te28  1  0.502496  0.825499  0.402551  1
  Te  Te29  1  0.502496  0.174501  0.597449  1
  Te  Te30  1  0.500019  0.325163  0.097402  1
  Te  Te31  1  0.500019  0.674837  0.902598  1
  Te  Te32  1  0.998129  0.609033  0.299261  1
  Te  Te33  1  0.998129  0.390967  0.700739  1
  Te  Te34  1  0.000162  0.109171  0.200546  1
  Te  Te35  1  0.000162  0.890829  0.799454  1
