# generated using pymatgen
data_Nd3Eu2Si3O12F
_symmetry_space_group_name_H-M   'P 1'
_cell_length_a   7.18710900
_cell_length_b   9.74731166
_cell_length_c   9.74731200
_cell_angle_alpha   119.99999435
_cell_angle_beta   90.00000000
_cell_angle_gamma   90.00000000
_symmetry_Int_Tables_number   1
_chemical_formula_structural   Nd3Eu2Si3O12F
_chemical_formula_sum   'Nd6 Eu4 Si6 O24 F2'
_cell_volume   591.36362577
_cell_formula_units_Z   2
loop_
 _symmetry_equiv_pos_site_id
 _symmetry_equiv_pos_as_xyz
  1  'x, y, z'
loop_
 _atom_site_type_symbol
 _atom_site_label
 _atom_site_symmetry_multiplicity
 _atom_site_fract_x
 _atom_site_fract_y
 _atom_site_fract_z
 _atom_site_occupancy
  Nd  Nd0  1  0.750000  0.258678  0.250733  1
  Nd  Nd1  1  0.750000  0.749267  0.007944  1
  Nd  Nd2  1  0.750000  0.992056  0.741322  1
  Nd  Nd3  1  0.250000  0.741322  0.749267  1
  Nd  Nd4  1  0.250000  0.007944  0.258678  1
  Nd  Nd5  1  0.250000  0.250733  0.992056  1
  Eu  Eu6  1  0.500515  0.666667  0.333333  1
  Eu  Eu7  1  0.000515  0.333333  0.666667  1
  Eu  Eu8  1  0.999485  0.666667  0.333333  1
  Eu  Eu9  1  0.499485  0.333333  0.666667  1
  Si  Si10  1  0.250000  0.636486  0.024090  1
  Si  Si11  1  0.750000  0.612397  0.636486  1
  Si  Si12  1  0.250000  0.975910  0.612397  1
  Si  Si13  1  0.750000  0.024090  0.387603  1
  Si  Si14  1  0.250000  0.387603  0.363514  1
  Si  Si15  1  0.750000  0.363514  0.975910  1
  O  O16  1  0.750000  0.108831  0.582214  1
  O  O17  1  0.569800  0.241615  0.910043  1
  O  O18  1  0.250000  0.300257  0.469373  1
  O  O19  1  0.069800  0.758385  0.089957  1
  O  O20  1  0.930200  0.668428  0.758385  1
  O  O21  1  0.750000  0.417786  0.526617  1
  O  O22  1  0.569800  0.089957  0.331572  1
  O  O23  1  0.250000  0.526617  0.108831  1
  O  O24  1  0.430200  0.910043  0.668428  1
  O  O25  1  0.250000  0.582214  0.473383  1
  O  O26  1  0.750000  0.469373  0.169116  1
  O  O27  1  0.430200  0.331572  0.241615  1
  O  O28  1  0.750000  0.473383  0.891169  1
  O  O29  1  0.250000  0.169116  0.699743  1
  O  O30  1  0.750000  0.830884  0.300257  1
  O  O31  1  0.930200  0.241615  0.910043  1
  O  O32  1  0.930200  0.089957  0.331572  1
  O  O33  1  0.430200  0.758385  0.089957  1
  O  O34  1  0.750000  0.699743  0.530627  1
  O  O35  1  0.569800  0.668428  0.758385  1
  O  O36  1  0.250000  0.891169  0.417786  1
  O  O37  1  0.069800  0.331572  0.241615  1
  O  O38  1  0.250000  0.530627  0.830884  1
  O  O39  1  0.069800  0.910043  0.668428  1
  F  F40  1  0.250000  0.000000  0.000000  1
  F  F41  1  0.750000  0.000000  0.000000  1
