# generated using pymatgen
data_La4PrAlTl2
_symmetry_space_group_name_H-M   'P 1'
_cell_length_a   9.54391889
_cell_length_b   9.54391878
_cell_length_c   9.54392000
_cell_angle_alpha   96.10528491
_cell_angle_beta   96.10529088
_cell_angle_gamma   141.93281069
_symmetry_Int_Tables_number   1
_chemical_formula_structural   La4PrAlTl2
_chemical_formula_sum   'La8 Pr2 Al2 Tl4'
_cell_volume   506.70551825
_cell_formula_units_Z   2
loop_
 _symmetry_equiv_pos_site_id
 _symmetry_equiv_pos_as_xyz
  1  'x, y, z'
loop_
 _atom_site_type_symbol
 _atom_site_label
 _atom_site_symmetry_multiplicity
 _atom_site_fract_x
 _atom_site_fract_y
 _atom_site_fract_z
 _atom_site_occupancy
  La  La0  1  0.915292  0.217006  0.132329  1
  La  La1  1  0.217029  0.084736  0.301762  1
  La  La2  1  0.782971  0.915264  0.698238  1
  La  La3  1  0.084708  0.782994  0.867671  1
  La  La4  1  0.717027  0.415264  0.132292  1
  La  La5  1  0.282973  0.584736  0.867708  1
  La  La6  1  0.584677  0.717006  0.301713  1
  La  La7  1  0.415323  0.282994  0.698287  1
  Pr  Pr8  1  0.750012  0.250000  0.500012  1
  Pr  Pr9  1  0.249988  0.750000  0.499988  1
  Al  Al10  1  0.750000  0.750000  0.000000  1
  Al  Al11  1  0.250000  0.250000  0.000000  1
  Tl  Tl12  1  0.839857  0.660141  0.500026  1
  Tl  Tl13  1  0.660115  0.160141  0.820282  1
  Tl  Tl14  1  0.339885  0.839859  0.179718  1
  Tl  Tl15  1  0.160143  0.339859  0.499974  1
