# generated using pymatgen
data_EuYB4Ir4Rh
_symmetry_space_group_name_H-M   'P 1'
_cell_length_a   7.55987062
_cell_length_b   6.33717388
_cell_length_c   5.67235196
_cell_angle_alpha   77.80745743
_cell_angle_beta   55.02042612
_cell_angle_gamma   47.20335754
_symmetry_Int_Tables_number   1
_chemical_formula_structural   EuYB4Ir4Rh
_chemical_formula_sum   'Eu1 Y1 B4 Ir4 Rh1'
_cell_volume   156.03326856
_cell_formula_units_Z   1
loop_
 _symmetry_equiv_pos_site_id
 _symmetry_equiv_pos_as_xyz
  1  'x, y, z'
loop_
 _atom_site_type_symbol
 _atom_site_label
 _atom_site_symmetry_multiplicity
 _atom_site_fract_x
 _atom_site_fract_y
 _atom_site_fract_z
 _atom_site_occupancy
  Eu  Eu0  1  0.142056  0.142056  0.857944  1
  Y  Y1  1  0.860375  0.860375  0.139625  1
  B  B2  1  0.210533  0.524952  0.475310  1
  B  B3  1  0.789897  0.473559  0.525652  1
  B  B4  1  0.524952  0.210533  0.789206  1
  B  B5  1  0.473559  0.789897  0.210890  1
  Ir  Ir6  1  0.750384  0.750384  0.749616  1
  Ir  Ir7  1  0.250912  0.250912  0.249088  1
  Ir  Ir8  1  0.999906  0.999906  0.500094  1
  Ir  Ir9  1  0.497441  0.497441  0.502559  1
  Rh  Rh10  1  0.499985  0.499985  0.000015  1
