# generated using pymatgen
data_La5Ir2Rh
_symmetry_space_group_name_H-M   'P 1'
_cell_length_a   11.38439600
_cell_length_b   11.38439600
_cell_length_c   6.77170900
_cell_angle_alpha   90.00000000
_cell_angle_beta   90.00000000
_cell_angle_gamma   90.00000000
_symmetry_Int_Tables_number   1
_chemical_formula_structural   La5Ir2Rh
_chemical_formula_sum   'La20 Ir8 Rh4'
_cell_volume   877.64377141
_cell_formula_units_Z   4
loop_
 _symmetry_equiv_pos_site_id
 _symmetry_equiv_pos_as_xyz
  1  'x, y, z'
loop_
 _atom_site_type_symbol
 _atom_site_label
 _atom_site_symmetry_multiplicity
 _atom_site_fract_x
 _atom_site_fract_y
 _atom_site_fract_z
 _atom_site_occupancy
  La  La0  1  0.291552  0.093080  0.389891  1
  La  La1  1  0.291552  0.906920  0.889891  1
  La  La2  1  0.708448  0.093080  0.889891  1
  La  La3  1  0.708448  0.906920  0.389891  1
  La  La4  1  0.593080  0.791552  0.889891  1
  La  La5  1  0.593080  0.208448  0.389891  1
  La  La6  1  0.406920  0.791552  0.389891  1
  La  La7  1  0.406920  0.208448  0.889891  1
  La  La8  1  0.208448  0.406920  0.610109  1
  La  La9  1  0.208448  0.593080  0.110109  1
  La  La10  1  0.791552  0.406920  0.110109  1
  La  La11  1  0.791552  0.593080  0.610109  1
  La  La12  1  0.906920  0.708448  0.110109  1
  La  La13  1  0.906920  0.291552  0.610109  1
  La  La14  1  0.093080  0.708448  0.610109  1
  La  La15  1  0.093080  0.291552  0.110109  1
  La  La16  1  0.000000  0.000000  0.500000  1
  La  La17  1  0.000000  0.000000  0.000000  1
  La  La18  1  0.500000  0.500000  0.000000  1
  La  La19  1  0.500000  0.500000  0.500000  1
  Ir  Ir20  1  0.845637  0.154363  0.250000  1
  Ir  Ir21  1  0.845637  0.845637  0.750000  1
  Ir  Ir22  1  0.154363  0.154363  0.750000  1
  Ir  Ir23  1  0.154363  0.845637  0.250000  1
  Ir  Ir24  1  0.654363  0.345637  0.750000  1
  Ir  Ir25  1  0.654363  0.654363  0.250000  1
  Ir  Ir26  1  0.345637  0.345637  0.250000  1
  Ir  Ir27  1  0.345637  0.654363  0.750000  1
  Rh  Rh28  1  0.500000  0.000000  0.114004  1
  Rh  Rh29  1  0.500000  0.000000  0.614004  1
  Rh  Rh30  1  0.000000  0.500000  0.885996  1
  Rh  Rh31  1  0.000000  0.500000  0.385996  1
