# generated using pymatgen
data_Li8CuSi5Pd2
_symmetry_space_group_name_H-M   'P 1'
_cell_length_a   5.87367100
_cell_length_b   5.87367100
_cell_length_c   5.94027400
_cell_angle_alpha   90.00000000
_cell_angle_beta   90.00000000
_cell_angle_gamma   90.00000000
_symmetry_Int_Tables_number   1
_chemical_formula_structural   Li8CuSi5Pd2
_chemical_formula_sum   'Li8 Cu1 Si5 Pd2'
_cell_volume   204.93951844
_cell_formula_units_Z   1
loop_
 _symmetry_equiv_pos_site_id
 _symmetry_equiv_pos_as_xyz
  1  'x, y, z'
loop_
 _atom_site_type_symbol
 _atom_site_label
 _atom_site_symmetry_multiplicity
 _atom_site_fract_x
 _atom_site_fract_y
 _atom_site_fract_z
 _atom_site_occupancy
  Li  Li0  1  0.246140  0.753860  0.252846  1
  Li  Li1  1  0.753860  0.246140  0.252846  1
  Li  Li2  1  0.246140  0.246140  0.747154  1
  Li  Li3  1  0.000000  0.000000  0.000000  1
  Li  Li4  1  0.000000  0.500000  0.500000  1
  Li  Li5  1  0.753860  0.753860  0.747154  1
  Li  Li6  1  0.500000  0.000000  0.500000  1
  Li  Li7  1  0.500000  0.500000  0.000000  1
  Cu  Cu8  1  0.000000  0.000000  0.500000  1
  Si  Si9  1  0.248047  0.248047  0.247677  1
  Si  Si10  1  0.500000  0.500000  0.500000  1
  Si  Si11  1  0.751953  0.248047  0.752323  1
  Si  Si12  1  0.751953  0.751953  0.247677  1
  Si  Si13  1  0.248047  0.751953  0.752323  1
  Pd  Pd14  1  0.000000  0.500000  0.000000  1
  Pd  Pd15  1  0.500000  0.000000  0.000000  1
