# generated using pymatgen
data_NbTc5Te8
_symmetry_space_group_name_H-M   'P 1'
_cell_length_a   7.15069632
_cell_length_b   7.16188114
_cell_length_c   7.13289475
_cell_angle_alpha   93.49578200
_cell_angle_beta   94.34416317
_cell_angle_gamma   93.61600174
_symmetry_Int_Tables_number   1
_chemical_formula_structural   NbTc5Te8
_chemical_formula_sum   'Nb1 Tc5 Te8'
_cell_volume   362.72392847
_cell_formula_units_Z   1
loop_
 _symmetry_equiv_pos_site_id
 _symmetry_equiv_pos_as_xyz
  1  'x, y, z'
loop_
 _atom_site_type_symbol
 _atom_site_label
 _atom_site_symmetry_multiplicity
 _atom_site_fract_x
 _atom_site_fract_y
 _atom_site_fract_z
 _atom_site_occupancy
  Nb  Nb0  1  0.911988  0.043826  0.744221  1
  Tc  Tc1  1  0.746379  0.910905  0.042077  1
  Tc  Tc2  1  0.050276  0.749906  0.915197  1
  Tc  Tc3  1  0.085209  0.955739  0.253241  1
  Tc  Tc4  1  0.253052  0.090074  0.956542  1
  Tc  Tc5  1  0.950696  0.254972  0.085724  1
  Te  Te6  1  0.710038  0.697434  0.715105  1
  Te  Te7  1  0.284566  0.288024  0.289254  1
  Te  Te8  1  0.770401  0.120554  0.367773  1
  Te  Te9  1  0.381063  0.778175  0.125295  1
  Te  Te10  1  0.121021  0.388147  0.778203  1
  Te  Te11  1  0.242122  0.875612  0.622759  1
  Te  Te12  1  0.612498  0.225797  0.879669  1
  Te  Te13  1  0.880692  0.620835  0.224941  1
