# generated using pymatgen
data_Nd8CdHgIr2
_symmetry_space_group_name_H-M   'P 1'
_cell_length_a   9.94860608
_cell_length_b   9.94860669
_cell_length_c   9.95807400
_cell_angle_alpha   59.96851562
_cell_angle_beta   59.96851357
_cell_angle_gamma   60.01683466
_symmetry_Int_Tables_number   1
_chemical_formula_structural   Nd8CdHgIr2
_chemical_formula_sum   'Nd16 Cd2 Hg2 Ir4'
_cell_volume   696.67972848
_cell_formula_units_Z   2
loop_
 _symmetry_equiv_pos_site_id
 _symmetry_equiv_pos_as_xyz
  1  'x, y, z'
loop_
 _atom_site_type_symbol
 _atom_site_label
 _atom_site_symmetry_multiplicity
 _atom_site_fract_x
 _atom_site_fract_y
 _atom_site_fract_z
 _atom_site_occupancy
  Nd  Nd0  1  0.348907  0.348907  0.348246  1
  Nd  Nd1  1  0.348907  0.348907  0.953940  1
  Nd  Nd2  1  0.350022  0.950636  0.349671  1
  Nd  Nd3  1  0.950636  0.350022  0.349671  1
  Nd  Nd4  1  0.808736  0.189827  0.192221  1
  Nd  Nd5  1  0.189827  0.808736  0.809216  1
  Nd  Nd6  1  0.189827  0.808736  0.192221  1
  Nd  Nd7  1  0.808736  0.189827  0.809216  1
  Nd  Nd8  1  0.190061  0.190061  0.809939  1
  Nd  Nd9  1  0.807862  0.807862  0.192138  1
  Nd  Nd10  1  0.939296  0.560109  0.561310  1
  Nd  Nd11  1  0.560109  0.939296  0.939285  1
  Nd  Nd12  1  0.560109  0.939296  0.561310  1
  Nd  Nd13  1  0.939296  0.560109  0.939285  1
  Nd  Nd14  1  0.560795  0.560795  0.939205  1
  Nd  Nd15  1  0.939041  0.939041  0.560959  1
  Cd  Cd16  1  0.579446  0.259828  0.580362  1
  Cd  Cd17  1  0.259828  0.579446  0.580362  1
  Hg  Hg18  1  0.583123  0.583123  0.585227  1
  Hg  Hg19  1  0.583123  0.583123  0.248526  1
  Ir  Ir20  1  0.142432  0.142432  0.140665  1
  Ir  Ir21  1  0.142432  0.142432  0.574470  1
  Ir  Ir22  1  0.142628  0.574819  0.141276  1
  Ir  Ir23  1  0.574819  0.142628  0.141276  1
