# generated using pymatgen
data_Nd4CuPd2Rh
_symmetry_space_group_name_H-M   'P 1'
_cell_length_a   4.55253600
_cell_length_b   5.78343580
_cell_length_c   7.35238926
_cell_angle_alpha   90.10914356
_cell_angle_beta   90.00000000
_cell_angle_gamma   90.00000000
_symmetry_Int_Tables_number   1
_chemical_formula_structural   Nd4CuPd2Rh
_chemical_formula_sum   'Nd4 Cu1 Pd2 Rh1'
_cell_volume   193.58290896
_cell_formula_units_Z   1
loop_
 _symmetry_equiv_pos_site_id
 _symmetry_equiv_pos_as_xyz
  1  'x, y, z'
loop_
 _atom_site_type_symbol
 _atom_site_label
 _atom_site_symmetry_multiplicity
 _atom_site_fract_x
 _atom_site_fract_y
 _atom_site_fract_z
 _atom_site_occupancy
  Nd  Nd0  1  0.250000  0.362387  0.676246  1
  Nd  Nd1  1  0.750000  0.644434  0.327849  1
  Nd  Nd2  1  0.750000  0.865390  0.809456  1
  Nd  Nd3  1  0.250000  0.134593  0.182840  1
  Cu  Cu4  1  0.250000  0.628819  0.037059  1
  Pd  Pd5  1  0.750000  0.151677  0.452327  1
  Pd  Pd6  1  0.750000  0.375228  0.964098  1
  Rh  Rh7  1  0.250000  0.837474  0.550124  1
