# generated using pymatgen
data_Ho8NiAg2Ir
_symmetry_space_group_name_H-M   'P 1'
_cell_length_a   9.46051494
_cell_length_b   9.46051478
_cell_length_c   9.50661200
_cell_angle_alpha   59.83869168
_cell_angle_beta   59.83869224
_cell_angle_gamma   59.81948309
_symmetry_Int_Tables_number   1
_chemical_formula_structural   Ho8NiAg2Ir
_chemical_formula_sum   'Ho16 Ni2 Ag4 Ir2'
_cell_volume   599.35484717
_cell_formula_units_Z   2
loop_
 _symmetry_equiv_pos_site_id
 _symmetry_equiv_pos_as_xyz
  1  'x, y, z'
loop_
 _atom_site_type_symbol
 _atom_site_label
 _atom_site_symmetry_multiplicity
 _atom_site_fract_x
 _atom_site_fract_y
 _atom_site_fract_z
 _atom_site_occupancy
  Ho  Ho0  1  0.352774  0.352774  0.344640  1
  Ho  Ho1  1  0.352774  0.352774  0.949809  1
  Ho  Ho2  1  0.356505  0.945002  0.349245  1
  Ho  Ho3  1  0.945002  0.356505  0.349245  1
  Ho  Ho4  1  0.808747  0.187483  0.189585  1
  Ho  Ho5  1  0.187483  0.808747  0.814185  1
  Ho  Ho6  1  0.187483  0.808747  0.189585  1
  Ho  Ho7  1  0.808747  0.187483  0.814185  1
  Ho  Ho8  1  0.188744  0.188744  0.811256  1
  Ho  Ho9  1  0.811118  0.811118  0.188882  1
  Ho  Ho10  1  0.936031  0.562178  0.565705  1
  Ho  Ho11  1  0.562178  0.936031  0.936086  1
  Ho  Ho12  1  0.562178  0.936031  0.565705  1
  Ho  Ho13  1  0.936031  0.562178  0.936086  1
  Ho  Ho14  1  0.565408  0.565408  0.934592  1
  Ho  Ho15  1  0.937854  0.937854  0.562146  1
  Ni  Ni16  1  0.143077  0.571721  0.142601  1
  Ni  Ni17  1  0.571721  0.143077  0.142601  1
  Ag  Ag18  1  0.582004  0.582004  0.582469  1
  Ag  Ag19  1  0.582004  0.582004  0.253524  1
  Ag  Ag20  1  0.581702  0.254171  0.582064  1
  Ag  Ag21  1  0.254171  0.581702  0.582064  1
  Ir  Ir22  1  0.143132  0.143132  0.142400  1
  Ir  Ir23  1  0.143132  0.143132  0.571336  1
