# generated using pymatgen
data_Sb2SeF14
_symmetry_space_group_name_H-M   'P 1'
_cell_length_a   7.63656800
_cell_length_b   8.83228152
_cell_length_c   17.14652400
_cell_angle_alpha   90.00000000
_cell_angle_beta   90.00000000
_cell_angle_gamma   103.85134309
_symmetry_Int_Tables_number   1
_chemical_formula_structural   Sb2SeF14
_chemical_formula_sum   'Sb8 Se4 F56'
_cell_volume   1122.87322876
_cell_formula_units_Z   4
loop_
 _symmetry_equiv_pos_site_id
 _symmetry_equiv_pos_as_xyz
  1  'x, y, z'
loop_
 _atom_site_type_symbol
 _atom_site_label
 _atom_site_symmetry_multiplicity
 _atom_site_fract_x
 _atom_site_fract_y
 _atom_site_fract_z
 _atom_site_occupancy
  Sb  Sb0  1  0.224117  0.228300  0.819740  1
  Sb  Sb1  1  0.775883  0.271700  0.319740  1
  Sb  Sb2  1  0.775883  0.771700  0.180260  1
  Sb  Sb3  1  0.224117  0.728300  0.680260  1
  Sb  Sb4  1  0.782340  0.669294  0.538466  1
  Sb  Sb5  1  0.217660  0.830706  0.038466  1
  Sb  Sb6  1  0.217660  0.330706  0.461534  1
  Sb  Sb7  1  0.782340  0.169294  0.961534  1
  Se  Se8  1  0.821881  0.631670  0.862108  1
  Se  Se9  1  0.178119  0.868330  0.362108  1
  Se  Se10  1  0.178119  0.368330  0.137892  1
  Se  Se11  1  0.821881  0.131670  0.637892  1
  F  F12  1  0.812384  0.314650  0.669512  1
  F  F13  1  0.187616  0.185350  0.169512  1
  F  F14  1  0.187616  0.685350  0.330488  1
  F  F15  1  0.812384  0.814650  0.830488  1
  F  F16  1  0.665991  0.031787  0.703603  1
  F  F17  1  0.334009  0.468213  0.203603  1
  F  F18  1  0.334009  0.968213  0.296397  1
  F  F19  1  0.665991  0.531787  0.796397  1
  F  F20  1  0.667301  0.129173  0.564872  1
  F  F21  1  0.332699  0.370827  0.064872  1
  F  F22  1  0.332699  0.870827  0.435128  1
  F  F23  1  0.667301  0.629173  0.935128  1
  F  F24  1  0.025376  0.657981  0.753200  1
  F  F25  1  0.974624  0.842019  0.253200  1
  F  F26  1  0.974624  0.342019  0.246800  1
  F  F27  1  0.025376  0.157981  0.746800  1
  F  F28  1  0.385662  0.798052  0.596940  1
  F  F29  1  0.614338  0.701948  0.096940  1
  F  F30  1  0.614338  0.201948  0.403060  1
  F  F31  1  0.385662  0.298052  0.903060  1
  F  F32  1  0.397052  0.768819  0.760826  1
  F  F33  1  0.602948  0.731181  0.260826  1
  F  F34  1  0.602948  0.231181  0.239174  1
  F  F35  1  0.397052  0.268819  0.739174  1
  F  F36  1  0.165626  0.925296  0.679536  1
  F  F37  1  0.834374  0.574704  0.179536  1
  F  F38  1  0.834374  0.074704  0.320464  1
  F  F39  1  0.165626  0.425296  0.820464  1
  F  F40  1  0.231993  0.518450  0.663822  1
  F  F41  1  0.768007  0.981550  0.163822  1
  F  F42  1  0.768007  0.481550  0.336178  1
  F  F43  1  0.231993  0.018450  0.836178  1
  F  F44  1  0.013797  0.671856  0.598659  1
  F  F45  1  0.986203  0.828144  0.098659  1
  F  F46  1  0.986203  0.328144  0.401341  1
  F  F47  1  0.013797  0.171856  0.901341  1
  F  F48  1  0.948673  0.752839  0.454786  1
  F  F49  1  0.051327  0.747161  0.954786  1
  F  F50  1  0.051327  0.247161  0.545214  1
  F  F51  1  0.948673  0.252839  0.045214  1
  F  F52  1  0.653824  0.603766  0.631316  1
  F  F53  1  0.346176  0.896234  0.131316  1
  F  F54  1  0.346176  0.396234  0.368684  1
  F  F55  1  0.653824  0.103766  0.868684  1
  F  F56  1  0.586123  0.680704  0.474425  1
  F  F57  1  0.413877  0.819296  0.974425  1
  F  F58  1  0.413877  0.319296  0.525575  1
  F  F59  1  0.586123  0.180704  0.025575  1
  F  F60  1  0.821786  0.883230  0.574046  1
  F  F61  1  0.178214  0.616770  0.074046  1
  F  F62  1  0.178214  0.116770  0.425954  1
  F  F63  1  0.821786  0.383230  0.925954  1
  F  F64  1  0.790977  0.464705  0.511031  1
  F  F65  1  0.209023  0.035295  0.011031  1
  F  F66  1  0.209023  0.535295  0.488969  1
  F  F67  1  0.790977  0.964705  0.988969  1
