# generated using pymatgen
data_Lu5SiGeSe3
_symmetry_space_group_name_H-M   'P 1'
_cell_length_a   6.99254814
_cell_length_b   6.99254808
_cell_length_c   6.99464300
_cell_angle_alpha   99.13800076
_cell_angle_beta   99.78097447
_cell_angle_gamma   132.16024794
_symmetry_Int_Tables_number   1
_chemical_formula_structural   Lu5SiGeSe3
_chemical_formula_sum   'Lu5 Si1 Ge1 Se3'
_cell_volume   231.75507511
_cell_formula_units_Z   1
loop_
 _symmetry_equiv_pos_site_id
 _symmetry_equiv_pos_as_xyz
  1  'x, y, z'
loop_
 _atom_site_type_symbol
 _atom_site_label
 _atom_site_symmetry_multiplicity
 _atom_site_fract_x
 _atom_site_fract_y
 _atom_site_fract_z
 _atom_site_occupancy
  Lu  Lu0  1  0.393842  0.785007  0.178850  1
  Lu  Lu1  1  0.002551  0.994179  0.996730  1
  Lu  Lu2  1  0.596842  0.207902  0.804743  1
  Lu  Lu3  1  0.208537  0.413509  0.622046  1
  Lu  Lu4  1  0.798102  0.599477  0.397579  1
  Si  Si5  1  0.503417  0.501542  0.004959  1
  Ge  Ge6  1  0.096157  0.698216  0.794374  1
  Se  Se7  1  0.694763  0.899043  0.593805  1
  Se  Se8  1  0.300244  0.099532  0.399776  1
  Se  Se9  1  0.905545  0.301593  0.207138  1
