# generated using pymatgen
data_Dy6Ho6GaNi2HgOs2
_symmetry_space_group_name_H-M   'P 1'
_cell_length_a   8.33828697
_cell_length_b   8.33828709
_cell_length_c   8.34236300
_cell_angle_alpha   113.09942093
_cell_angle_beta   110.18696437
_cell_angle_gamma   105.20224520
_symmetry_Int_Tables_number   1
_chemical_formula_structural   Dy6Ho6GaNi2HgOs2
_chemical_formula_sum   'Dy6 Ho6 Ga1 Ni2 Hg1 Os2'
_cell_volume   444.47398938
_cell_formula_units_Z   1
loop_
 _symmetry_equiv_pos_site_id
 _symmetry_equiv_pos_as_xyz
  1  'x, y, z'
loop_
 _atom_site_type_symbol
 _atom_site_label
 _atom_site_symmetry_multiplicity
 _atom_site_fract_x
 _atom_site_fract_y
 _atom_site_fract_z
 _atom_site_occupancy
  Dy  Dy0  1  0.434700  0.241313  0.192786  1
  Dy  Dy1  1  0.565300  0.758687  0.807214  1
  Dy  Dy2  1  0.048527  0.241914  0.807214  1
  Dy  Dy3  1  0.951473  0.758086  0.192786  1
  Dy  Dy4  1  0.179575  0.278033  0.457607  1
  Dy  Dy5  1  0.820425  0.721967  0.542393  1
  Ho  Ho6  1  0.179758  0.722322  0.902080  1
  Ho  Ho7  1  0.820242  0.277678  0.097920  1
  Ho  Ho8  1  0.329857  0.643393  0.313033  1
  Ho  Ho9  1  0.670143  0.356607  0.686967  1
  Ho  Ho10  1  0.330361  0.016823  0.686967  1
  Ho  Ho11  1  0.669639  0.983177  0.313033  1
  Ga  Ga12  1  0.000000  0.000000  0.000000  1
  Ni  Ni13  1  0.116653  0.616653  0.500000  1
  Ni  Ni14  1  0.883347  0.383347  0.500000  1
  Hg  Hg15  1  0.500000  0.500000  0.000000  1
  Os  Os16  1  0.329484  0.999811  0.329295  1
  Os  Os17  1  0.670516  0.000189  0.670705  1
