# generated using pymatgen
data_Tm8Lu2Ru3Rh
_symmetry_space_group_name_H-M   'P 1'
_cell_length_a   6.23361431
_cell_length_b   7.24407239
_cell_length_c   8.32065398
_cell_angle_alpha   96.79798833
_cell_angle_beta   112.05942151
_cell_angle_gamma   90.11189524
_symmetry_Int_Tables_number   1
_chemical_formula_structural   Tm8Lu2Ru3Rh
_chemical_formula_sum   'Tm8 Lu2 Ru3 Rh1'
_cell_volume   345.33996613
_cell_formula_units_Z   1
loop_
 _symmetry_equiv_pos_site_id
 _symmetry_equiv_pos_as_xyz
  1  'x, y, z'
loop_
 _atom_site_type_symbol
 _atom_site_label
 _atom_site_symmetry_multiplicity
 _atom_site_fract_x
 _atom_site_fract_y
 _atom_site_fract_z
 _atom_site_occupancy
  Tm  Tm0  1  0.525052  0.084394  0.815162  1
  Tm  Tm1  1  0.475587  0.917734  0.183354  1
  Tm  Tm2  1  0.710073  0.415393  0.183522  1
  Tm  Tm3  1  0.289242  0.583476  0.810922  1
  Tm  Tm4  1  0.292727  0.313398  0.436544  1
  Tm  Tm5  1  0.708746  0.684118  0.566670  1
  Tm  Tm6  1  0.855247  0.182952  0.564033  1
  Tm  Tm7  1  0.141565  0.819513  0.437405  1
  Lu  Lu8  1  0.080322  0.248098  0.998319  1
  Lu  Lu9  1  0.918577  0.750951  0.999862  1
  Ru  Ru10  1  0.677559  0.424528  0.781138  1
  Ru  Ru11  1  0.105891  0.922238  0.781758  1
  Ru  Ru12  1  0.897063  0.076902  0.219037  1
  Rh  Rh13  1  0.322348  0.576304  0.222276  1
