# generated using pymatgen
data_Mg4SiNi2(AsIr)5
_symmetry_space_group_name_H-M   'P 1'
_cell_length_a   7.00869383
_cell_length_b   6.97202821
_cell_length_c   6.97202650
_cell_angle_alpha   109.05173424
_cell_angle_beta   109.59218567
_cell_angle_gamma   109.55619214
_symmetry_Int_Tables_number   1
_chemical_formula_structural   Mg4SiNi2(AsIr)5
_chemical_formula_sum   'Mg4 Si1 Ni2 As5 Ir5'
_cell_volume   262.94422111
_cell_formula_units_Z   1
loop_
 _symmetry_equiv_pos_site_id
 _symmetry_equiv_pos_as_xyz
  1  'x, y, z'
loop_
 _atom_site_type_symbol
 _atom_site_label
 _atom_site_symmetry_multiplicity
 _atom_site_fract_x
 _atom_site_fract_y
 _atom_site_fract_z
 _atom_site_occupancy
  Mg  Mg0  1  0.999349  0.992136  0.493930  1
  Mg  Mg1  1  0.504889  0.000608  0.996398  1
  Mg  Mg2  1  0.999349  0.505419  0.007213  1
  Mg  Mg3  1  0.504889  0.508491  0.504281  1
  Si  Si4  1  0.680726  0.682593  0.998133  1
  Ni  Ni5  1  0.251899  0.499608  0.752291  1
  Ni  Ni6  1  0.762962  0.252424  0.510538  1
  As  As7  1  0.310875  0.316954  0.993921  1
  As  As8  1  0.996545  0.674576  0.687815  1
  As  As9  1  0.996545  0.308731  0.321969  1
  As  As10  1  0.687295  0.002329  0.684966  1
  As  As11  1  0.311500  0.001538  0.309962  1
  Ir  Ir12  1  0.983483  0.986634  0.996848  1
  Ir  Ir13  1  0.507073  0.263848  0.744335  1
  Ir  Ir14  1  0.507073  0.762738  0.243225  1
  Ir  Ir15  1  0.742372  0.494054  0.248319  1
  Ir  Ir16  1  0.253176  0.747319  0.505857  1
