# generated using pymatgen
data_Nd2TcB8W
_symmetry_space_group_name_H-M   'P 1'
_cell_length_a   6.10020604
_cell_length_b   11.80983863
_cell_length_c   3.68967300
_cell_angle_alpha   90.00000000
_cell_angle_beta   90.00000000
_cell_angle_gamma   89.93700853
_symmetry_Int_Tables_number   1
_chemical_formula_structural   Nd2TcB8W
_chemical_formula_sum   'Nd4 Tc2 B16 W2'
_cell_volume   265.81291798
_cell_formula_units_Z   2
loop_
 _symmetry_equiv_pos_site_id
 _symmetry_equiv_pos_as_xyz
  1  'x, y, z'
loop_
 _atom_site_type_symbol
 _atom_site_label
 _atom_site_symmetry_multiplicity
 _atom_site_fract_x
 _atom_site_fract_y
 _atom_site_fract_z
 _atom_site_occupancy
  Nd  Nd0  1  0.625676  0.348057  0.000000  1
  Nd  Nd1  1  0.374324  0.651943  0.000000  1
  Nd  Nd2  1  0.126182  0.149225  0.000000  1
  Nd  Nd3  1  0.873818  0.850775  0.000000  1
  Tc  Tc4  1  0.631408  0.085250  0.000000  1
  Tc  Tc5  1  0.368592  0.914750  0.000000  1
  B  B6  1  0.780814  0.182359  0.500000  1
  B  B7  1  0.219186  0.817641  0.500000  1
  B  B8  1  0.284630  0.314452  0.500000  1
  B  B9  1  0.715370  0.685548  0.500000  1
  B  B10  1  0.859516  0.031672  0.500000  1
  B  B11  1  0.140484  0.968328  0.500000  1
  B  B12  1  0.363569  0.467406  0.500000  1
  B  B13  1  0.636431  0.532594  0.500000  1
  B  B14  1  0.887376  0.453829  0.500000  1
  B  B15  1  0.112624  0.546171  0.500000  1
  B  B16  1  0.389013  0.045692  0.500000  1
  B  B17  1  0.610987  0.954308  0.500000  1
  B  B18  1  0.975940  0.308248  0.500000  1
  B  B19  1  0.024060  0.691752  0.500000  1
  B  B20  1  0.477111  0.188647  0.500000  1
  B  B21  1  0.522889  0.811353  0.500000  1
  W  W22  1  0.128195  0.415565  0.000000  1
  W  W23  1  0.871805  0.584435  0.000000  1
