# generated using pymatgen
data_Co6ReSi2Tc3
_symmetry_space_group_name_H-M   'P 1'
_cell_length_a   4.70716800
_cell_length_b   4.70716794
_cell_length_c   7.34361000
_cell_angle_alpha   90.00000000
_cell_angle_beta   90.00000000
_cell_angle_gamma   120.00000041
_symmetry_Int_Tables_number   1
_chemical_formula_structural   Co6ReSi2Tc3
_chemical_formula_sum   'Co6 Re1 Si2 Tc3'
_cell_volume   140.91577917
_cell_formula_units_Z   1
loop_
 _symmetry_equiv_pos_site_id
 _symmetry_equiv_pos_as_xyz
  1  'x, y, z'
loop_
 _atom_site_type_symbol
 _atom_site_label
 _atom_site_symmetry_multiplicity
 _atom_site_fract_x
 _atom_site_fract_y
 _atom_site_fract_z
 _atom_site_occupancy
  Co  Co0  1  0.828434  0.171566  0.248885  1
  Co  Co1  1  0.828434  0.656868  0.248885  1
  Co  Co2  1  0.343132  0.171566  0.248885  1
  Co  Co3  1  0.171360  0.828640  0.750713  1
  Co  Co4  1  0.171360  0.342721  0.750713  1
  Co  Co5  1  0.657279  0.828640  0.750713  1
  Re  Re6  1  0.333333  0.666667  0.069333  1
  Si  Si7  1  0.000000  0.000000  0.499428  1
  Si  Si8  1  0.000000  0.000000  0.999695  1
  Tc  Tc9  1  0.333333  0.666667  0.432425  1
  Tc  Tc10  1  0.666667  0.333333  0.568702  1
  Tc  Tc11  1  0.666667  0.333333  0.931623  1
