# generated using pymatgen
data_NdHoCo3P4Ru3
_symmetry_space_group_name_H-M   'P 1'
_cell_length_a   3.86669800
_cell_length_b   10.74075851
_cell_length_c   12.57566332
_cell_angle_alpha   89.86000623
_cell_angle_beta   90.00000000
_cell_angle_gamma   90.00000000
_symmetry_Int_Tables_number   1
_chemical_formula_structural   NdHoCo3P4Ru3
_chemical_formula_sum   'Nd3 Ho3 Co9 P12 Ru9'
_cell_volume   522.28170307
_cell_formula_units_Z   3
loop_
 _symmetry_equiv_pos_site_id
 _symmetry_equiv_pos_as_xyz
  1  'x, y, z'
loop_
 _atom_site_type_symbol
 _atom_site_label
 _atom_site_symmetry_multiplicity
 _atom_site_fract_x
 _atom_site_fract_y
 _atom_site_fract_z
 _atom_site_occupancy
  Nd  Nd0  1  0.000000  0.500063  0.524492  1
  Nd  Nd1  1  0.500000  0.001188  0.471550  1
  Nd  Nd2  1  0.000000  0.678532  0.800339  1
  Ho  Ho3  1  0.500000  0.820127  0.199918  1
  Ho  Ho4  1  0.500000  0.181646  0.200773  1
  Ho  Ho5  1  0.000000  0.319667  0.799901  1
  Co  Co6  1  0.000000  0.496804  0.987795  1
  Co  Co7  1  0.500000  0.001540  0.017277  1
  Co  Co8  1  0.000000  0.375129  0.278882  1
  Co  Co9  1  0.500000  0.329921  0.990755  1
  Co  Co10  1  0.500000  0.666042  0.993584  1
  Co  Co11  1  0.000000  0.168285  0.013146  1
  Co  Co12  1  0.000000  0.833778  0.012343  1
  Co  Co13  1  0.500000  0.497885  0.704703  1
  Co  Co14  1  0.000000  0.001327  0.294348  1
  P  P15  1  0.500000  0.312974  0.617690  1
  P  P16  1  0.500000  0.689718  0.616934  1
  P  P17  1  0.000000  0.192040  0.376450  1
  P  P18  1  0.000000  0.810946  0.377879  1
  P  P19  1  0.500000  0.496117  0.885239  1
  P  P20  1  0.000000  0.000560  0.118756  1
  P  P21  1  0.500000  0.847995  0.903640  1
  P  P22  1  0.500000  0.154153  0.901337  1
  P  P23  1  0.000000  0.653985  0.099287  1
  P  P24  1  0.000000  0.344953  0.104170  1
  P  P25  1  0.500000  0.499690  0.335790  1
  P  P26  1  0.000000  0.000884  0.664394  1
  Ru  Ru27  1  0.500000  0.299967  0.420881  1
  Ru  Ru28  1  0.500000  0.703600  0.424936  1
  Ru  Ru29  1  0.000000  0.205288  0.570125  1
  Ru  Ru30  1  0.000000  0.798579  0.571178  1
  Ru  Ru31  1  0.500000  0.878395  0.719269  1
  Ru  Ru32  1  0.500000  0.126577  0.719201  1
  Ru  Ru33  1  0.000000  0.618632  0.279528  1
  Ru  Ru34  1  0.500000  0.491141  0.148974  1
  Ru  Ru35  1  0.000000  0.001870  0.854532  1
