# generated using pymatgen
data_SrYNi12P5
_symmetry_space_group_name_H-M   'P 1'
_cell_length_a   3.63798800
_cell_length_b   10.81183138
_cell_length_c   13.24353822
_cell_angle_alpha   71.82593237
_cell_angle_beta   90.00000000
_cell_angle_gamma   90.00000000
_symmetry_Int_Tables_number   1
_chemical_formula_structural   SrYNi12P5
_chemical_formula_sum   'Sr2 Y2 Ni24 P10'
_cell_volume   494.92564904
_cell_formula_units_Z   2
loop_
 _symmetry_equiv_pos_site_id
 _symmetry_equiv_pos_as_xyz
  1  'x, y, z'
loop_
 _atom_site_type_symbol
 _atom_site_label
 _atom_site_symmetry_multiplicity
 _atom_site_fract_x
 _atom_site_fract_y
 _atom_site_fract_z
 _atom_site_occupancy
  Sr  Sr0  1  0.250000  0.245480  0.188274  1
  Sr  Sr1  1  0.750000  0.754520  0.811726  1
  Y  Y2  1  0.250000  0.281473  0.681082  1
  Y  Y3  1  0.750000  0.718527  0.318918  1
  Ni  Ni4  1  0.250000  0.836859  0.140000  1
  Ni  Ni5  1  0.750000  0.163141  0.860000  1
  Ni  Ni6  1  0.250000  0.288162  0.440287  1
  Ni  Ni7  1  0.750000  0.711838  0.559713  1
  Ni  Ni8  1  0.250000  0.069377  0.014836  1
  Ni  Ni9  1  0.750000  0.930623  0.985164  1
  Ni  Ni10  1  0.250000  0.063930  0.447482  1
  Ni  Ni11  1  0.750000  0.936070  0.552518  1
  Ni  Ni12  1  0.250000  0.592470  0.695239  1
  Ni  Ni13  1  0.750000  0.407530  0.304761  1
  Ni  Ni14  1  0.250000  0.582092  0.010288  1
  Ni  Ni15  1  0.750000  0.417908  0.989712  1
  Ni  Ni16  1  0.250000  0.579650  0.508073  1
  Ni  Ni17  1  0.750000  0.420350  0.491927  1
  Ni  Ni18  1  0.250000  0.297129  0.914815  1
  Ni  Ni19  1  0.750000  0.702871  0.085185  1
  Ni  Ni20  1  0.250000  0.998301  0.657835  1
  Ni  Ni21  1  0.750000  0.001699  0.342165  1
  Ni  Ni22  1  0.250000  0.837317  0.437358  1
  Ni  Ni23  1  0.750000  0.162683  0.562642  1
  Ni  Ni24  1  0.250000  0.995002  0.847860  1
  Ni  Ni25  1  0.750000  0.004998  0.152140  1
  Ni  Ni26  1  0.250000  0.568084  0.205067  1
  Ni  Ni27  1  0.750000  0.431916  0.794933  1
  P  P28  1  0.250000  0.507364  0.871709  1
  P  P29  1  0.750000  0.492636  0.128291  1
  P  P30  1  0.250000  0.802402  0.984879  1
  P  P31  1  0.750000  0.197598  0.015121  1
  P  P32  1  0.250000  0.496888  0.377822  1
  P  P33  1  0.750000  0.503112  0.622178  1
  P  P34  1  0.250000  0.811650  0.609785  1
  P  P35  1  0.750000  0.188350  0.390215  1
  P  P36  1  0.250000  0.942889  0.261642  1
  P  P37  1  0.750000  0.057111  0.738358  1
