# generated using pymatgen
data_La8Mg5HgAu20
_symmetry_space_group_name_H-M   'P 1'
_cell_length_a   8.82952221
_cell_length_b   8.82952252
_cell_length_c   10.44561980
_cell_angle_alpha   90.21111722
_cell_angle_beta   89.78888414
_cell_angle_gamma   108.25140217
_symmetry_Int_Tables_number   1
_chemical_formula_structural   La8Mg5HgAu20
_chemical_formula_sum   'La8 Mg5 Hg1 Au20'
_cell_volume   773.36885726
_cell_formula_units_Z   1
loop_
 _symmetry_equiv_pos_site_id
 _symmetry_equiv_pos_as_xyz
  1  'x, y, z'
loop_
 _atom_site_type_symbol
 _atom_site_label
 _atom_site_symmetry_multiplicity
 _atom_site_fract_x
 _atom_site_fract_y
 _atom_site_fract_z
 _atom_site_occupancy
  La  La0  1  0.701902  0.300988  0.001518  1
  La  La1  1  0.296078  0.698563  0.002675  1
  La  La2  1  0.800988  0.201902  0.498482  1
  La  La3  1  0.198563  0.796078  0.497325  1
  La  La4  1  0.297949  0.303261  0.203456  1
  La  La5  1  0.697898  0.698917  0.796144  1
  La  La6  1  0.198917  0.197898  0.703856  1
  La  La7  1  0.803261  0.797949  0.296544  1
  Mg  Mg8  1  0.989840  0.489840  0.750000  1
  Mg  Mg9  1  0.489217  0.989217  0.750000  1
  Mg  Mg10  1  0.510348  0.010348  0.250000  1
  Mg  Mg11  1  0.999400  0.999225  0.999181  1
  Mg  Mg12  1  0.499225  0.499400  0.500819  1
  Hg  Hg13  1  0.016871  0.516871  0.250000  1
  Au  Au14  1  0.096618  0.096068  0.404352  1
  Au  Au15  1  0.903459  0.903898  0.596126  1
  Au  Au16  1  0.403898  0.403459  0.903874  1
  Au  Au17  1  0.596068  0.596618  0.095648  1
  Au  Au18  1  0.883513  0.155559  0.202295  1
  Au  Au19  1  0.115409  0.835647  0.794955  1
  Au  Au20  1  0.613091  0.333269  0.704876  1
  Au  Au21  1  0.655559  0.383513  0.297705  1
  Au  Au22  1  0.397619  0.669304  0.297808  1
  Au  Au23  1  0.335647  0.615409  0.705045  1
  Au  Au24  1  0.833269  0.113091  0.795124  1
  Au  Au25  1  0.169304  0.897619  0.202192  1
  Au  Au26  1  0.930759  0.662261  0.015004  1
  Au  Au27  1  0.065994  0.336883  0.971975  1
  Au  Au28  1  0.566123  0.843641  0.522846  1
  Au  Au29  1  0.162261  0.430759  0.484996  1
  Au  Au30  1  0.433997  0.156430  0.478258  1
  Au  Au31  1  0.836883  0.565994  0.528025  1
  Au  Au32  1  0.343641  0.066123  0.977154  1
  Au  Au33  1  0.656430  0.933997  0.021742  1
