# generated using pymatgen
data_Eu4Dy2TaO12
_symmetry_space_group_name_H-M   'P 1'
_cell_length_a   6.53401541
_cell_length_b   6.52199387
_cell_length_c   6.54837000
_cell_angle_alpha   98.58073274
_cell_angle_beta   98.87121677
_cell_angle_gamma   98.64821412
_symmetry_Int_Tables_number   1
_chemical_formula_structural   Eu4Dy2TaO12
_chemical_formula_sum   'Eu4 Dy2 Ta1 O12'
_cell_volume   268.30573523
_cell_formula_units_Z   1
loop_
 _symmetry_equiv_pos_site_id
 _symmetry_equiv_pos_as_xyz
  1  'x, y, z'
loop_
 _atom_site_type_symbol
 _atom_site_label
 _atom_site_symmetry_multiplicity
 _atom_site_fract_x
 _atom_site_fract_y
 _atom_site_fract_z
 _atom_site_occupancy
  Eu  Eu0  1  0.302206  0.140651  0.605634  1
  Eu  Eu1  1  0.702591  0.862150  0.395230  1
  Eu  Eu2  1  0.397138  0.697024  0.862687  1
  Eu  Eu3  1  0.137488  0.602108  0.300013  1
  Dy  Dy4  1  0.860520  0.386569  0.702289  1
  Dy  Dy5  1  0.612997  0.295545  0.135182  1
  Ta  Ta6  1  0.002547  0.998510  0.998354  1
  O  O7  1  0.932679  0.047499  0.699993  1
  O  O8  1  0.951498  0.303618  0.063519  1
  O  O9  1  0.596438  0.177845  0.437083  1
  O  O10  1  0.820969  0.559764  0.409095  1
  O  O11  1  0.301123  0.077355  0.972018  1
  O  O12  1  0.567219  0.409767  0.824693  1
  O  O13  1  0.435130  0.584854  0.177796  1
  O  O14  1  0.696825  0.938415  0.040832  1
  O  O15  1  0.175845  0.434948  0.591783  1
  O  O16  1  0.409809  0.823228  0.566044  1
  O  O17  1  0.029069  0.700473  0.919168  1
  O  O18  1  0.067913  0.959679  0.298584  1
