# generated using pymatgen
data_Li2Hf4As5PRu6
_symmetry_space_group_name_H-M   'P 1'
_cell_length_a   7.60637694
_cell_length_b   7.62744950
_cell_length_c   7.60637727
_cell_angle_alpha   128.02881373
_cell_angle_beta   121.91465570
_cell_angle_gamma   81.60391485
_symmetry_Int_Tables_number   1
_chemical_formula_structural   Li2Hf4As5PRu6
_chemical_formula_sum   'Li2 Hf4 As5 P1 Ru6'
_cell_volume   284.21475032
_cell_formula_units_Z   1
loop_
 _symmetry_equiv_pos_site_id
 _symmetry_equiv_pos_as_xyz
  1  'x, y, z'
loop_
 _atom_site_type_symbol
 _atom_site_label
 _atom_site_symmetry_multiplicity
 _atom_site_fract_x
 _atom_site_fract_y
 _atom_site_fract_z
 _atom_site_occupancy
  Li  Li0  1  0.463808  0.683806  0.719999  1
  Li  Li1  1  0.524189  0.258656  0.234467  1
  Hf  Hf2  1  0.752569  0.842925  0.590355  1
  Hf  Hf3  1  0.250229  0.839168  0.088938  1
  Hf  Hf4  1  0.051233  0.255187  0.703953  1
  Hf  Hf5  1  0.947200  0.650889  0.203688  1
  As  As6  1  0.719264  0.236891  0.017626  1
  As  As7  1  0.337853  0.581930  0.259536  1
  As  As8  1  0.665649  0.922272  0.244562  1
  As  As9  1  0.177710  0.922272  0.756624  1
  As  As10  1  0.822394  0.581930  0.744077  1
  P  P11  1  0.281889  0.270831  0.488944  1
  Ru  Ru12  1  0.476819  0.496431  0.970147  1
  Ru  Ru13  1  0.026285  0.496431  0.519613  1
  Ru  Ru14  1  0.092235  0.247802  0.102352  1
  Ru  Ru15  1  0.920902  0.012188  0.167867  1
  Ru  Ru16  1  0.344321  0.012188  0.591288  1
  Ru  Ru17  1  0.645451  0.247802  0.655567  1
