# generated using pymatgen
data_Cs3K3(TbBi2)2
_symmetry_space_group_name_H-M   'P 1'
_cell_length_a   10.58178855
_cell_length_b   10.58178916
_cell_length_c   10.51748200
_cell_angle_alpha   131.13581224
_cell_angle_beta   68.22550465
_cell_angle_gamma   135.63106780
_symmetry_Int_Tables_number   1
_chemical_formula_structural   Cs3K3(TbBi2)2
_chemical_formula_sum   'Cs3 K3 Tb2 Bi4'
_cell_volume   609.11590345
_cell_formula_units_Z   1
loop_
 _symmetry_equiv_pos_site_id
 _symmetry_equiv_pos_as_xyz
  1  'x, y, z'
loop_
 _atom_site_type_symbol
 _atom_site_label
 _atom_site_symmetry_multiplicity
 _atom_site_fract_x
 _atom_site_fract_y
 _atom_site_fract_z
 _atom_site_occupancy
  Cs  Cs0  1  0.182144  0.269184  0.451329  1
  Cs  Cs1  1  0.819028  0.728273  0.547302  1
  Cs  Cs2  1  0.681689  0.234909  0.916598  1
  K  K3  1  0.249770  0.250382  0.997120  1
  K  K4  1  0.746738  0.747350  0.997120  1
  K  K5  1  0.315999  0.792558  0.108556  1
  Tb  Tb6  1  0.750774  0.246284  0.497601  1
  Tb  Tb7  1  0.251316  0.746826  0.497600  1
  Bi  Bi8  1  0.904042  0.293633  0.197673  1
  Bi  Bi9  1  0.595909  0.794962  0.390871  1
  Bi  Bi10  1  0.403512  0.192773  0.596286  1
  Bi  Bi11  1  0.099078  0.702863  0.801942  1
