# generated using pymatgen
data_Tb12Co4HgOs
_symmetry_space_group_name_H-M   'P 1'
_cell_length_a   8.32158150
_cell_length_b   8.32155509
_cell_length_c   8.32157998
_cell_angle_alpha   111.08473277
_cell_angle_beta   110.18390233
_cell_angle_gamma   107.17068947
_symmetry_Int_Tables_number   1
_chemical_formula_structural   Tb12Co4HgOs
_chemical_formula_sum   'Tb12 Co4 Hg1 Os1'
_cell_volume   443.03981896
_cell_formula_units_Z   1
loop_
 _symmetry_equiv_pos_site_id
 _symmetry_equiv_pos_as_xyz
  1  'x, y, z'
loop_
 _atom_site_type_symbol
 _atom_site_label
 _atom_site_symmetry_multiplicity
 _atom_site_fract_x
 _atom_site_fract_y
 _atom_site_fract_z
 _atom_site_occupancy
  Tb  Tb0  1  0.413292  0.220216  0.193101  1
  Tb  Tb1  1  0.586708  0.779784  0.806899  1
  Tb  Tb2  1  0.027115  0.220216  0.806922  1
  Tb  Tb3  1  0.972885  0.779784  0.193078  1
  Tb  Tb4  1  0.179732  0.281084  0.460750  1
  Tb  Tb5  1  0.820268  0.718916  0.539250  1
  Tb  Tb6  1  0.179666  0.718916  0.898649  1
  Tb  Tb7  1  0.820334  0.281084  0.101351  1
  Tb  Tb8  1  0.317540  0.624211  0.306670  1
  Tb  Tb9  1  0.682460  0.375789  0.693330  1
  Tb  Tb10  1  0.317470  0.010766  0.693294  1
  Tb  Tb11  1  0.682530  0.989234  0.306706  1
  Co  Co12  1  0.369830  0.000000  0.369830  1
  Co  Co13  1  0.630170  0.000000  0.630170  1
  Co  Co14  1  0.112263  0.612229  0.499965  1
  Co  Co15  1  0.887737  0.387771  0.500035  1
  Hg  Hg16  1  0.500000  0.500000  0.000000  1
  Os  Os17  1  0.000000  0.000000  0.000000  1
