# generated using pymatgen
data_Mn2NbZn2Ni7
_symmetry_space_group_name_H-M   'P 1'
_cell_length_a   3.72119400
_cell_length_b   3.72119400
_cell_length_c   10.59298700
_cell_angle_alpha   90.00000000
_cell_angle_beta   90.00000000
_cell_angle_gamma   90.00000000
_symmetry_Int_Tables_number   1
_chemical_formula_structural   Mn2NbZn2Ni7
_chemical_formula_sum   'Mn2 Nb1 Zn2 Ni7'
_cell_volume   146.68410772
_cell_formula_units_Z   1
loop_
 _symmetry_equiv_pos_site_id
 _symmetry_equiv_pos_as_xyz
  1  'x, y, z'
loop_
 _atom_site_type_symbol
 _atom_site_label
 _atom_site_symmetry_multiplicity
 _atom_site_fract_x
 _atom_site_fract_y
 _atom_site_fract_z
 _atom_site_occupancy
  Mn  Mn0  1  0.500000  0.500000  0.335783  1
  Mn  Mn1  1  0.500000  0.500000  0.664217  1
  Nb  Nb2  1  0.000000  0.000000  0.000000  1
  Zn  Zn3  1  0.000000  0.000000  0.337426  1
  Zn  Zn4  1  0.000000  0.000000  0.662574  1
  Ni  Ni5  1  0.500000  0.500000  0.000000  1
  Ni  Ni6  1  0.500000  0.000000  0.169879  1
  Ni  Ni7  1  0.500000  0.000000  0.500000  1
  Ni  Ni8  1  0.500000  0.000000  0.830121  1
  Ni  Ni9  1  0.000000  0.500000  0.169879  1
  Ni  Ni10  1  0.000000  0.500000  0.500000  1
  Ni  Ni11  1  0.000000  0.500000  0.830121  1
