# generated using pymatgen
data_PrYCI
_symmetry_space_group_name_H-M   'P 1'
_cell_length_a   3.83506100
_cell_length_b   3.83506053
_cell_length_c   15.30891400
_cell_angle_alpha   90.00000000
_cell_angle_beta   90.00000000
_cell_angle_gamma   119.99999541
_symmetry_Int_Tables_number   1
_chemical_formula_structural   PrYCI
_chemical_formula_sum   'Pr2 Y2 C2 I2'
_cell_volume   194.99323057
_cell_formula_units_Z   2
loop_
 _symmetry_equiv_pos_site_id
 _symmetry_equiv_pos_as_xyz
  1  'x, y, z'
loop_
 _atom_site_type_symbol
 _atom_site_label
 _atom_site_symmetry_multiplicity
 _atom_site_fract_x
 _atom_site_fract_y
 _atom_site_fract_z
 _atom_site_occupancy
  Pr  Pr0  1  0.333333  0.666667  0.413294  1
  Pr  Pr1  1  0.666667  0.333333  0.913294  1
  Y  Y2  1  0.666667  0.333333  0.585803  1
  Y  Y3  1  0.333333  0.666667  0.085803  1
  C  C4  1  0.000000  0.000000  0.507587  1
  C  C5  1  0.000000  0.000000  0.007587  1
  I  I6  1  0.666667  0.333333  0.243317  1
  I  I7  1  0.333333  0.666667  0.743317  1
