# generated using pymatgen
data_Tb8Zr9Nb3Si16
_symmetry_space_group_name_H-M   'P 1'
_cell_length_a   7.30139797
_cell_length_b   7.30139804
_cell_length_c   13.41811205
_cell_angle_alpha   90.02600916
_cell_angle_beta   90.02601074
_cell_angle_gamma   90.04305035
_symmetry_Int_Tables_number   1
_chemical_formula_structural   Tb8Zr9Nb3Si16
_chemical_formula_sum   'Tb8 Zr9 Nb3 Si16'
_cell_volume   715.32474396
_cell_formula_units_Z   1
loop_
 _symmetry_equiv_pos_site_id
 _symmetry_equiv_pos_as_xyz
  1  'x, y, z'
loop_
 _atom_site_type_symbol
 _atom_site_label
 _atom_site_symmetry_multiplicity
 _atom_site_fract_x
 _atom_site_fract_y
 _atom_site_fract_z
 _atom_site_occupancy
  Tb  Tb0  1  0.998920  0.345854  0.213994  1
  Tb  Tb1  1  0.002815  0.655383  0.713446  1
  Tb  Tb2  1  0.154357  0.498988  0.462978  1
  Tb  Tb3  1  0.501012  0.845643  0.037022  1
  Tb  Tb4  1  0.846160  0.502403  0.965852  1
  Tb  Tb5  1  0.497597  0.153840  0.534148  1
  Tb  Tb6  1  0.344617  0.997185  0.786554  1
  Tb  Tb7  1  0.654146  0.001080  0.286006  1
  Zr  Zr8  1  0.675930  0.324070  0.750000  1
  Zr  Zr9  1  0.146992  0.993879  0.374821  1
  Zr  Zr10  1  0.854426  0.004395  0.876317  1
  Zr  Zr11  1  0.505834  0.648282  0.622748  1
  Zr  Zr12  1  0.351718  0.494166  0.877252  1
  Zr  Zr13  1  0.493327  0.353064  0.125651  1
  Zr  Zr14  1  0.646936  0.506673  0.374349  1
  Zr  Zr15  1  0.995605  0.145574  0.623683  1
  Zr  Zr16  1  0.006121  0.853008  0.125179  1
  Nb  Nb17  1  0.176284  0.175735  0.000966  1
  Nb  Nb18  1  0.824265  0.823716  0.499034  1
  Nb  Nb19  1  0.323592  0.676408  0.250000  1
  Si  Si20  1  0.360862  0.296319  0.316106  1
  Si  Si21  1  0.638384  0.705996  0.816480  1
  Si  Si22  1  0.203420  0.860505  0.565347  1
  Si  Si23  1  0.139495  0.796580  0.934653  1
  Si  Si24  1  0.796170  0.139055  0.066695  1
  Si  Si25  1  0.860945  0.203830  0.433305  1
  Si  Si26  1  0.294004  0.361616  0.683520  1
  Si  Si27  1  0.703681  0.639138  0.183894  1
  Si  Si28  1  0.295635  0.049659  0.185682  1
  Si  Si29  1  0.704773  0.947449  0.684123  1
  Si  Si30  1  0.449659  0.796048  0.434252  1
  Si  Si31  1  0.203952  0.550341  0.065748  1
  Si  Si32  1  0.547839  0.202366  0.937843  1
  Si  Si33  1  0.797634  0.452161  0.562157  1
  Si  Si34  1  0.052551  0.295227  0.815877  1
  Si  Si35  1  0.950341  0.704365  0.314318  1
