# generated using pymatgen
data_Hf2Sc6Nb12Si15As
_symmetry_space_group_name_H-M   'P 1'
_cell_length_a   6.70865371
_cell_length_b   6.90170195
_cell_length_c   13.16031546
_cell_angle_alpha   89.88712920
_cell_angle_beta   90.16974182
_cell_angle_gamma   90.03742149
_symmetry_Int_Tables_number   1
_chemical_formula_structural   Hf2Sc6Nb12Si15As
_chemical_formula_sum   'Hf2 Sc6 Nb12 Si15 As1'
_cell_volume   609.33347134
_cell_formula_units_Z   1
loop_
 _symmetry_equiv_pos_site_id
 _symmetry_equiv_pos_as_xyz
  1  'x, y, z'
loop_
 _atom_site_type_symbol
 _atom_site_label
 _atom_site_symmetry_multiplicity
 _atom_site_fract_x
 _atom_site_fract_y
 _atom_site_fract_z
 _atom_site_occupancy
  Hf  Hf0  1  0.497421  0.674904  0.596345  1
  Hf  Hf1  1  0.999693  0.824704  0.904013  1
  Sc  Sc2  1  0.499832  0.325794  0.094719  1
  Sc  Sc3  1  0.004627  0.176535  0.404038  1
  Sc  Sc4  1  0.499353  0.326858  0.405370  1
  Sc  Sc5  1  0.000044  0.173335  0.094476  1
  Sc  Sc6  1  0.498559  0.674859  0.905973  1
  Sc  Sc7  1  0.997686  0.823509  0.595549  1
  Nb  Nb8  1  0.660053  0.173201  0.624866  1
  Nb  Nb9  1  0.162442  0.327130  0.875702  1
  Nb  Nb10  1  0.336815  0.827380  0.124354  1
  Nb  Nb11  1  0.839126  0.669473  0.374804  1
  Nb  Nb12  1  0.338878  0.826674  0.376979  1
  Nb  Nb13  1  0.837772  0.674066  0.123840  1
  Nb  Nb14  1  0.664959  0.170873  0.875080  1
  Nb  Nb15  1  0.163740  0.330066  0.624996  1
  Nb  Nb16  1  0.836564  0.496184  0.750372  1
  Nb  Nb17  1  0.337005  0.003596  0.748998  1
  Nb  Nb18  1  0.163546  0.505094  0.250200  1
  Nb  Nb19  1  0.663308  0.994038  0.248944  1
  Si  Si20  1  0.168448  0.533305  0.039115  1
  Si  Si21  1  0.330610  0.033821  0.960647  1
  Si  Si22  1  0.829755  0.466325  0.539712  1
  Si  Si23  1  0.319458  0.035528  0.540623  1
  Si  Si24  1  0.830683  0.466237  0.960592  1
  Si  Si25  1  0.669707  0.966790  0.039120  1
  Si  Si26  1  0.170976  0.534043  0.461045  1
  Si  Si27  1  0.459587  0.386769  0.751204  1
  Si  Si28  1  0.959304  0.113482  0.749238  1
  Si  Si29  1  0.540343  0.612924  0.249486  1
  Si  Si30  1  0.041898  0.885692  0.250106  1
  Si  Si31  1  0.703580  0.861448  0.750482  1
  Si  Si32  1  0.203986  0.638107  0.750681  1
  Si  Si33  1  0.296081  0.138641  0.249503  1
  Si  Si34  1  0.795953  0.361419  0.249152  1
  As  As35  1  0.678208  0.967196  0.459676  1
