# generated using pymatgen
data_CsPuO4
_symmetry_space_group_name_H-M   'P 1'
_cell_length_a   8.38301200
_cell_length_b   8.38301200
_cell_length_c   6.57689000
_cell_angle_alpha   90.00000000
_cell_angle_beta   90.00000000
_cell_angle_gamma   90.00000000
_symmetry_Int_Tables_number   1
_chemical_formula_structural   CsPuO4
_chemical_formula_sum   'Cs4 Pu4 O16'
_cell_volume   462.19022256
_cell_formula_units_Z   4
loop_
 _symmetry_equiv_pos_site_id
 _symmetry_equiv_pos_as_xyz
  1  'x, y, z'
loop_
 _atom_site_type_symbol
 _atom_site_label
 _atom_site_symmetry_multiplicity
 _atom_site_fract_x
 _atom_site_fract_y
 _atom_site_fract_z
 _atom_site_occupancy
  Cs  Cs0  1  0.000000  0.000000  0.500000  1
  Cs  Cs1  1  0.500000  0.500000  0.500000  1
  Cs  Cs2  1  0.000000  0.500000  0.447590  1
  Cs  Cs3  1  0.500000  0.000000  0.552410  1
  Pu  Pu4  1  0.750000  0.250000  0.000000  1
  Pu  Pu5  1  0.750000  0.750000  0.000000  1
  Pu  Pu6  1  0.250000  0.250000  0.000000  1
  Pu  Pu7  1  0.250000  0.750000  0.000000  1
  O  O8  1  0.747052  0.500000  0.049287  1
  O  O9  1  0.000000  0.752948  0.049287  1
  O  O10  1  0.000000  0.247052  0.049287  1
  O  O11  1  0.252948  0.500000  0.049287  1
  O  O12  1  0.752948  0.000000  0.950713  1
  O  O13  1  0.247052  0.000000  0.950713  1
  O  O14  1  0.500000  0.747052  0.950713  1
  O  O15  1  0.500000  0.252948  0.950713  1
  O  O16  1  0.719906  0.219906  0.274102  1
  O  O17  1  0.719906  0.780094  0.274102  1
  O  O18  1  0.280094  0.219906  0.274102  1
  O  O19  1  0.280094  0.780094  0.274102  1
  O  O20  1  0.780094  0.719906  0.725898  1
  O  O21  1  0.219906  0.280094  0.725898  1
  O  O22  1  0.219906  0.719906  0.725898  1
  O  O23  1  0.780094  0.280094  0.725898  1
