# generated using pymatgen
data_La2V3Ni9P7
_symmetry_space_group_name_H-M   'P 1'
_cell_length_a   9.22632200
_cell_length_b   9.22632180
_cell_length_c   3.73778400
_cell_angle_alpha   90.00000000
_cell_angle_beta   90.00000000
_cell_angle_gamma   120.00000073
_symmetry_Int_Tables_number   1
_chemical_formula_structural   La2V3Ni9P7
_chemical_formula_sum   'La2 V3 Ni9 P7'
_cell_volume   275.55102731
_cell_formula_units_Z   1
loop_
 _symmetry_equiv_pos_site_id
 _symmetry_equiv_pos_as_xyz
  1  'x, y, z'
loop_
 _atom_site_type_symbol
 _atom_site_label
 _atom_site_symmetry_multiplicity
 _atom_site_fract_x
 _atom_site_fract_y
 _atom_site_fract_z
 _atom_site_occupancy
  La  La0  1  0.333333  0.666667  0.000000  1
  La  La1  1  0.666667  0.333333  0.500000  1
  V  V2  1  0.213734  0.111271  0.500000  1
  V  V3  1  0.888729  0.102464  0.500000  1
  V  V4  1  0.897536  0.786266  0.500000  1
  Ni  Ni5  1  0.126904  0.275686  0.000000  1
  Ni  Ni6  1  0.724314  0.851218  0.000000  1
  Ni  Ni7  1  0.148782  0.873096  0.000000  1
  Ni  Ni8  1  0.428065  0.365776  0.000000  1
  Ni  Ni9  1  0.634224  0.062289  0.000000  1
  Ni  Ni10  1  0.937711  0.571935  0.000000  1
  Ni  Ni11  1  0.052595  0.433050  0.500000  1
  Ni  Ni12  1  0.566950  0.619545  0.500000  1
  Ni  Ni13  1  0.380455  0.947405  0.500000  1
  P  P14  1  0.292348  0.396128  0.500000  1
  P  P15  1  0.603872  0.896220  0.500000  1
  P  P16  1  0.103780  0.707652  0.500000  1
  P  P17  1  0.401856  0.103465  0.000000  1
  P  P18  1  0.896535  0.298391  0.000000  1
  P  P19  1  0.701609  0.598144  0.000000  1
  P  P20  1  0.000000  0.000000  0.000000  1
