# generated using pymatgen
data_NaMn2(NiSb6)2
_symmetry_space_group_name_H-M   'P 1'
_cell_length_a   8.03656300
_cell_length_b   7.98869125
_cell_length_c   7.98869069
_cell_angle_alpha   108.98372844
_cell_angle_beta   109.46533874
_cell_angle_gamma   109.72127115
_symmetry_Int_Tables_number   1
_chemical_formula_structural   NaMn2(NiSb6)2
_chemical_formula_sum   'Na1 Mn2 Ni2 Sb12'
_cell_volume   395.98900631
_cell_formula_units_Z   1
loop_
 _symmetry_equiv_pos_site_id
 _symmetry_equiv_pos_as_xyz
  1  'x, y, z'
loop_
 _atom_site_type_symbol
 _atom_site_label
 _atom_site_symmetry_multiplicity
 _atom_site_fract_x
 _atom_site_fract_y
 _atom_site_fract_z
 _atom_site_occupancy
  Na  Na0  1  0.000000  0.000000  0.000000  1
  Mn  Mn1  1  0.000000  0.500000  0.000000  1
  Mn  Mn2  1  0.000000  0.000000  0.500000  1
  Ni  Ni3  1  0.500000  0.500000  0.500000  1
  Ni  Ni4  1  0.500000  0.000000  0.000000  1
  Sb  Sb5  1  0.842647  0.665939  0.504479  1
  Sb  Sb6  1  0.157353  0.334061  0.495521  1
  Sb  Sb7  1  0.157353  0.661833  0.823292  1
  Sb  Sb8  1  0.842647  0.338167  0.176708  1
  Sb  Sb9  1  0.666545  0.503527  0.842866  1
  Sb  Sb10  1  0.333455  0.496473  0.157134  1
  Sb  Sb11  1  0.666545  0.823677  0.163018  1
  Sb  Sb12  1  0.333455  0.176323  0.836982  1
  Sb  Sb13  1  0.502547  0.840588  0.661959  1
  Sb  Sb14  1  0.497453  0.159412  0.338041  1
  Sb  Sb15  1  0.173152  0.838338  0.334812  1
  Sb  Sb16  1  0.826848  0.161662  0.665188  1
