# generated using pymatgen
data_V7ReSi2(B2W)2
_symmetry_space_group_name_H-M   'P 1'
_cell_length_a   6.80635873
_cell_length_b   6.83130041
_cell_length_c   6.82410649
_cell_angle_alpha   129.29878926
_cell_angle_beta   129.17911228
_cell_angle_gamma   74.77787128
_symmetry_Int_Tables_number   1
_chemical_formula_structural   V7ReSi2(B2W)2
_chemical_formula_sum   'V7 Re1 Si2 B4 W2'
_cell_volume   185.26430344
_cell_formula_units_Z   1
loop_
 _symmetry_equiv_pos_site_id
 _symmetry_equiv_pos_as_xyz
  1  'x, y, z'
loop_
 _atom_site_type_symbol
 _atom_site_label
 _atom_site_symmetry_multiplicity
 _atom_site_fract_x
 _atom_site_fract_y
 _atom_site_fract_z
 _atom_site_occupancy
  V  V0  1  0.972876  0.470528  0.167088  1
  V  V1  1  0.193356  0.032982  0.500313  1
  V  V2  1  0.471739  0.305125  0.501544  1
  V  V3  1  0.804368  0.972058  0.501681  1
  V  V4  1  0.305604  0.802887  0.832733  1
  V  V5  1  0.004211  0.003721  0.003248  1
  V  V6  1  0.501097  0.501192  0.997698  1
  Re  Re7  1  0.692218  0.191962  0.159045  1
  Si  Si8  1  0.244936  0.237703  0.993483  1
  Si  Si9  1  0.749393  0.749712  0.009881  1
  B  B10  1  0.616782  0.120588  0.733973  1
  B  B11  1  0.121723  0.382627  0.498813  1
  B  B12  1  0.883909  0.622359  0.499037  1
  B  B13  1  0.382876  0.886552  0.265860  1
  W  W14  1  0.527067  0.692664  0.500171  1
  W  W15  1  0.027845  0.527338  0.835430  1
