# generated using pymatgen
data_Tb7YCo17Si10Ir
_symmetry_space_group_name_H-M   'P 1'
_cell_length_a   5.23651532
_cell_length_b   5.23651409
_cell_length_c   21.96447902
_cell_angle_alpha   89.90012302
_cell_angle_beta   90.09987711
_cell_angle_gamma   120.40257619
_symmetry_Int_Tables_number   1
_chemical_formula_structural   Tb7YCo17Si10Ir
_chemical_formula_sum   'Tb7 Y1 Co17 Si10 Ir1'
_cell_volume   519.46849662
_cell_formula_units_Z   1
loop_
 _symmetry_equiv_pos_site_id
 _symmetry_equiv_pos_as_xyz
  1  'x, y, z'
loop_
 _atom_site_type_symbol
 _atom_site_label
 _atom_site_symmetry_multiplicity
 _atom_site_fract_x
 _atom_site_fract_y
 _atom_site_fract_z
 _atom_site_occupancy
  Tb  Tb0  1  0.332621  0.667379  0.530558  1
  Tb  Tb1  1  0.665312  0.334688  0.474596  1
  Tb  Tb2  1  0.666593  0.333407  0.026883  1
  Tb  Tb3  1  0.333415  0.666585  0.971273  1
  Tb  Tb4  1  0.333116  0.666884  0.675680  1
  Tb  Tb5  1  0.667558  0.332442  0.325810  1
  Tb  Tb6  1  0.666712  0.333288  0.173422  1
  Y  Y7  1  0.333574  0.666426  0.826247  1
  Co  Co8  1  0.166047  0.332204  0.087151  1
  Co  Co9  1  0.833739  0.667915  0.911515  1
  Co  Co10  1  0.667796  0.833953  0.087151  1
  Co  Co11  1  0.833012  0.668318  0.589897  1
  Co  Co12  1  0.332085  0.166261  0.911515  1
  Co  Co13  1  0.165023  0.330948  0.412521  1
  Co  Co14  1  0.165796  0.834204  0.087376  1
  Co  Co15  1  0.331682  0.166988  0.589897  1
  Co  Co16  1  0.834373  0.165627  0.910730  1
  Co  Co17  1  0.669052  0.834977  0.412521  1
  Co  Co18  1  0.833326  0.166674  0.590706  1
  Co  Co19  1  0.167803  0.334964  0.247639  1
  Co  Co20  1  0.832627  0.664387  0.750679  1
  Co  Co21  1  0.665036  0.832197  0.247639  1
  Co  Co22  1  0.335613  0.167373  0.750679  1
  Co  Co23  1  0.167597  0.832403  0.249650  1
  Co  Co24  1  0.832661  0.167339  0.750826  1
  Si  Si25  1  0.999606  0.000394  0.999072  1
  Si  Si26  1  0.996977  0.003023  0.503026  1
  Si  Si27  1  0.332383  0.667617  0.166634  1
  Si  Si28  1  0.665898  0.334102  0.832247  1
  Si  Si29  1  0.665857  0.334143  0.669210  1
  Si  Si30  1  0.343922  0.656078  0.329091  1
  Si  Si31  1  0.000894  0.999106  0.167775  1
  Si  Si32  1  0.001354  0.998646  0.831022  1
  Si  Si33  1  0.000585  0.999415  0.670340  1
  Si  Si34  1  0.991676  0.008324  0.328269  1
  Ir  Ir35  1  0.168680  0.831320  0.410747  1
