# generated using pymatgen
data_Dy4Y2ErCoI12
_symmetry_space_group_name_H-M   'P 1'
_cell_length_a   9.75167596
_cell_length_b   9.74196621
_cell_length_c   9.73772436
_cell_angle_alpha   106.81839422
_cell_angle_beta   106.80365287
_cell_angle_gamma   106.83131455
_symmetry_Int_Tables_number   1
_chemical_formula_structural   Dy4Y2ErCoI12
_chemical_formula_sum   'Dy4 Y2 Er1 Co1 I12'
_cell_volume   774.22016795
_cell_formula_units_Z   1
loop_
 _symmetry_equiv_pos_site_id
 _symmetry_equiv_pos_as_xyz
  1  'x, y, z'
loop_
 _atom_site_type_symbol
 _atom_site_label
 _atom_site_symmetry_multiplicity
 _atom_site_fract_x
 _atom_site_fract_y
 _atom_site_fract_z
 _atom_site_occupancy
  Dy  Dy0  1  0.021167  0.286909  0.091237  1
  Dy  Dy1  1  0.091490  0.021314  0.287259  1
  Dy  Dy2  1  0.712874  0.908144  0.978508  1
  Dy  Dy3  1  0.978359  0.712878  0.907767  1
  Y  Y4  1  0.499931  0.500001  0.499840  1
  Y  Y5  1  0.288035  0.092145  0.021024  1
  Er  Er6  1  0.909146  0.978808  0.715614  1
  Co  Co7  1  0.999431  0.999845  0.000195  1
  I  I8  1  0.462494  0.160404  0.385653  1
  I  I9  1  0.385664  0.462675  0.160278  1
  I  I10  1  0.160620  0.385642  0.462525  1
  I  I11  1  0.538854  0.839917  0.614113  1
  I  I12  1  0.614239  0.537230  0.839277  1
  I  I13  1  0.839379  0.615377  0.537357  1
  I  I14  1  0.323278  0.775823  0.929505  1
  I  I15  1  0.929323  0.321929  0.774965  1
  I  I16  1  0.776353  0.929831  0.324176  1
  I  I17  1  0.676392  0.224190  0.070430  1
  I  I18  1  0.070584  0.676922  0.223980  1
  I  I19  1  0.222387  0.070017  0.676294  1
