# generated using pymatgen
data_HoLu(TaN2)2
_symmetry_space_group_name_H-M   'P 1'
_cell_length_a   3.16388200
_cell_length_b   3.16388134
_cell_length_c   10.98205500
_cell_angle_alpha   90.00000000
_cell_angle_beta   90.00000000
_cell_angle_gamma   119.99998601
_symmetry_Int_Tables_number   1
_chemical_formula_structural   HoLu(TaN2)2
_chemical_formula_sum   'Ho1 Lu1 Ta2 N4'
_cell_volume   95.20390711
_cell_formula_units_Z   1
loop_
 _symmetry_equiv_pos_site_id
 _symmetry_equiv_pos_as_xyz
  1  'x, y, z'
loop_
 _atom_site_type_symbol
 _atom_site_label
 _atom_site_symmetry_multiplicity
 _atom_site_fract_x
 _atom_site_fract_y
 _atom_site_fract_z
 _atom_site_occupancy
  Ho  Ho0  1  0.000000  0.000000  0.500000  1
  Lu  Lu1  1  0.000000  0.000000  0.000000  1
  Ta  Ta2  1  0.333333  0.666667  0.751659  1
  Ta  Ta3  1  0.666667  0.333333  0.248341  1
  N  N4  1  0.666667  0.333333  0.633798  1
  N  N5  1  0.333333  0.666667  0.366202  1
  N  N6  1  0.333333  0.666667  0.127900  1
  N  N7  1  0.666667  0.333333  0.872100  1
