# generated using pymatgen
data_CePrSc2(ReB6)2
_symmetry_space_group_name_H-M   'P 1'
_cell_length_a   3.65174300
_cell_length_b   9.07714605
_cell_length_c   11.51373435
_cell_angle_alpha   90.05531869
_cell_angle_beta   90.00000000
_cell_angle_gamma   90.00000000
_symmetry_Int_Tables_number   1
_chemical_formula_structural   CePrSc2(ReB6)2
_chemical_formula_sum   'Ce2 Pr2 Sc4 Re4 B24'
_cell_volume   381.65023252
_cell_formula_units_Z   2
loop_
 _symmetry_equiv_pos_site_id
 _symmetry_equiv_pos_as_xyz
  1  'x, y, z'
loop_
 _atom_site_type_symbol
 _atom_site_label
 _atom_site_symmetry_multiplicity
 _atom_site_fract_x
 _atom_site_fract_y
 _atom_site_fract_z
 _atom_site_occupancy
  Ce  Ce0  1  0.000000  0.321162  0.415226  1
  Ce  Ce1  1  0.000000  0.678838  0.584774  1
  Pr  Pr2  1  0.000000  0.821920  0.085325  1
  Pr  Pr3  1  0.000000  0.178080  0.914675  1
  Sc  Sc4  1  0.000000  0.944652  0.372036  1
  Sc  Sc5  1  0.000000  0.055348  0.627964  1
  Sc  Sc6  1  0.000000  0.444125  0.129753  1
  Sc  Sc7  1  0.000000  0.555875  0.870247  1
  Re  Re8  1  0.000000  0.639325  0.320088  1
  Re  Re9  1  0.000000  0.360675  0.679912  1
  Re  Re10  1  0.000000  0.143638  0.185577  1
  Re  Re11  1  0.000000  0.856362  0.814423  1
  B  B12  1  0.500000  0.555354  0.431278  1
  B  B13  1  0.500000  0.444646  0.568722  1
  B  B14  1  0.500000  0.057014  0.071292  1
  B  B15  1  0.500000  0.942986  0.928708  1
  B  B16  1  0.500000  0.753769  0.417195  1
  B  B17  1  0.500000  0.246231  0.582805  1
  B  B18  1  0.500000  0.254866  0.085489  1
  B  B19  1  0.500000  0.745134  0.914511  1
  B  B20  1  0.500000  0.793949  0.266994  1
  B  B21  1  0.500000  0.206051  0.733006  1
  B  B22  1  0.500000  0.294874  0.236536  1
  B  B23  1  0.500000  0.705126  0.763464  1
  B  B24  1  0.500000  0.627556  0.184768  1
  B  B25  1  0.500000  0.372444  0.815232  1
  B  B26  1  0.500000  0.129850  0.317951  1
  B  B27  1  0.500000  0.870150  0.682049  1
  B  B28  1  0.500000  0.983791  0.216455  1
  B  B29  1  0.500000  0.016209  0.783545  1
  B  B30  1  0.500000  0.482330  0.286509  1
  B  B31  1  0.500000  0.517670  0.713491  1
  B  B32  1  0.500000  0.593848  0.025318  1
  B  B33  1  0.500000  0.406152  0.974682  1
  B  B34  1  0.500000  0.097282  0.474157  1
  B  B35  1  0.500000  0.902718  0.525843  1
