# generated using pymatgen
data_CaLuGa9Ru5
_symmetry_space_group_name_H-M   'P 1'
_cell_length_a   8.01992293
_cell_length_b   8.01992163
_cell_length_c   8.01992134
_cell_angle_alpha   134.63903692
_cell_angle_beta   134.81067946
_cell_angle_gamma   65.95810983
_symmetry_Int_Tables_number   1
_chemical_formula_structural   CaLuGa9Ru5
_chemical_formula_sum   'Ca1 Lu1 Ga9 Ru5'
_cell_volume   256.42505815
_cell_formula_units_Z   1
loop_
 _symmetry_equiv_pos_site_id
 _symmetry_equiv_pos_as_xyz
  1  'x, y, z'
loop_
 _atom_site_type_symbol
 _atom_site_label
 _atom_site_symmetry_multiplicity
 _atom_site_fract_x
 _atom_site_fract_y
 _atom_site_fract_z
 _atom_site_occupancy
  Ca  Ca0  1  0.500000  0.000000  0.500000  1
  Lu  Lu1  1  0.000000  0.500000  0.500000  1
  Ga  Ga2  1  0.436256  0.857874  0.999912  1
  Ga  Ga3  1  0.142038  0.142126  0.578381  1
  Ga  Ga4  1  0.857962  0.436344  0.000088  1
  Ga  Ga5  1  0.857962  0.857874  0.421619  1
  Ga  Ga6  1  0.563744  0.142126  0.000088  1
  Ga  Ga7  1  0.142038  0.563656  0.999912  1
  Ga  Ga8  1  0.563744  0.563656  0.421619  1
  Ga  Ga9  1  0.000000  0.000000  0.000000  1
  Ga  Ga10  1  0.436256  0.436344  0.578381  1
  Ru  Ru11  1  0.181819  0.181819  0.000000  1
  Ru  Ru12  1  0.818181  0.818181  0.000000  1
  Ru  Ru13  1  0.249597  0.749597  0.500000  1
  Ru  Ru14  1  0.750403  0.250403  0.500000  1
  Ru  Ru15  1  0.500000  0.500000  0.000000  1
