# generated using pymatgen
data_Pr2Re17C3
_symmetry_space_group_name_H-M   'P 1'
_cell_length_a   7.06658848
_cell_length_b   7.06658781
_cell_length_c   7.06658811
_cell_angle_alpha   82.84384459
_cell_angle_beta   82.84384485
_cell_angle_gamma   82.84384655
_symmetry_Int_Tables_number   1
_chemical_formula_structural   Pr2Re17C3
_chemical_formula_sum   'Pr2 Re17 C3'
_cell_volume   345.26752451
_cell_formula_units_Z   1
loop_
 _symmetry_equiv_pos_site_id
 _symmetry_equiv_pos_as_xyz
  1  'x, y, z'
loop_
 _atom_site_type_symbol
 _atom_site_label
 _atom_site_symmetry_multiplicity
 _atom_site_fract_x
 _atom_site_fract_y
 _atom_site_fract_z
 _atom_site_occupancy
  Pr  Pr0  1  0.649401  0.649401  0.649401  1
  Pr  Pr1  1  0.350599  0.350599  0.350599  1
  Re  Re2  1  0.000000  0.000000  0.500000  1
  Re  Re3  1  0.500000  0.000000  0.000000  1
  Re  Re4  1  0.000000  0.500000  0.000000  1
  Re  Re5  1  0.721083  0.278917  0.000000  1
  Re  Re6  1  0.000000  0.721083  0.278917  1
  Re  Re7  1  0.278917  0.000000  0.721083  1
  Re  Re8  1  0.000000  0.278917  0.721083  1
  Re  Re9  1  0.721083  0.000000  0.278917  1
  Re  Re10  1  0.278917  0.721083  0.000000  1
  Re  Re11  1  0.348215  0.348215  0.863971  1
  Re  Re12  1  0.863971  0.348215  0.348215  1
  Re  Re13  1  0.348215  0.863971  0.348215  1
  Re  Re14  1  0.651785  0.651785  0.136029  1
  Re  Re15  1  0.136029  0.651785  0.651785  1
  Re  Re16  1  0.651785  0.136029  0.651785  1
  Re  Re17  1  0.902640  0.902640  0.902640  1
  Re  Re18  1  0.097360  0.097360  0.097360  1
  C  C19  1  0.500000  0.500000  0.000000  1
  C  C20  1  0.000000  0.500000  0.500000  1
  C  C21  1  0.500000  0.000000  0.500000  1
