# generated using pymatgen
data_NdY(MgIn2)2
_symmetry_space_group_name_H-M   'P 1'
_cell_length_a   6.53620255
_cell_length_b   6.53620357
_cell_length_c   4.68307600
_cell_angle_alpha   90.00000000
_cell_angle_beta   90.00000000
_cell_angle_gamma   91.12124298
_symmetry_Int_Tables_number   1
_chemical_formula_structural   NdY(MgIn2)2
_chemical_formula_sum   'Nd1 Y1 Mg2 In4'
_cell_volume   200.03183273
_cell_formula_units_Z   1
loop_
 _symmetry_equiv_pos_site_id
 _symmetry_equiv_pos_as_xyz
  1  'x, y, z'
loop_
 _atom_site_type_symbol
 _atom_site_label
 _atom_site_symmetry_multiplicity
 _atom_site_fract_x
 _atom_site_fract_y
 _atom_site_fract_z
 _atom_site_occupancy
  Nd  Nd0  1  0.000000  0.000000  0.500000  1
  Y  Y1  1  0.500000  0.500000  0.500000  1
  Mg  Mg2  1  0.750021  0.249979  0.000000  1
  Mg  Mg3  1  0.249979  0.750021  0.000000  1
  In  In4  1  0.500000  0.000000  0.500000  1
  In  In5  1  0.000000  0.500000  0.500000  1
  In  In6  1  0.747956  0.747956  0.000000  1
  In  In7  1  0.252044  0.252044  0.000000  1
