# generated using pymatgen
data_Ho12Th4MgCo4Cu3
_symmetry_space_group_name_H-M   'P 1'
_cell_length_a   9.37557465
_cell_length_b   9.44757957
_cell_length_c   9.44758000
_cell_angle_alpha   60.00000548
_cell_angle_beta   59.74562456
_cell_angle_gamma   59.74562857
_symmetry_Int_Tables_number   1
_chemical_formula_structural   Ho12Th4MgCo4Cu3
_chemical_formula_sum   'Ho12 Th4 Mg1 Co4 Cu3'
_cell_volume   589.44530062
_cell_formula_units_Z   1
loop_
 _symmetry_equiv_pos_site_id
 _symmetry_equiv_pos_as_xyz
  1  'x, y, z'
loop_
 _atom_site_type_symbol
 _atom_site_label
 _atom_site_symmetry_multiplicity
 _atom_site_fract_x
 _atom_site_fract_y
 _atom_site_fract_z
 _atom_site_occupancy
  Ho  Ho0  1  0.808211  0.191035  0.191035  1
  Ho  Ho1  1  0.187213  0.812832  0.812832  1
  Ho  Ho2  1  0.187213  0.812832  0.187124  1
  Ho  Ho3  1  0.808211  0.191035  0.809718  1
  Ho  Ho4  1  0.187213  0.187124  0.812832  1
  Ho  Ho5  1  0.808211  0.809718  0.191035  1
  Ho  Ho6  1  0.929061  0.565920  0.565920  1
  Ho  Ho7  1  0.563532  0.934885  0.934885  1
  Ho  Ho8  1  0.563532  0.934885  0.566698  1
  Ho  Ho9  1  0.929061  0.565920  0.939099  1
  Ho  Ho10  1  0.563532  0.566698  0.934885  1
  Ho  Ho11  1  0.929061  0.939099  0.565920  1
  Th  Th12  1  0.346743  0.347521  0.347521  1
  Th  Th13  1  0.346743  0.347521  0.958218  1
  Th  Th14  1  0.346743  0.958218  0.347521  1
  Th  Th15  1  0.937689  0.354104  0.354104  1
  Mg  Mg16  1  0.310054  0.563315  0.563315  1
  Co  Co17  1  0.139909  0.146231  0.146231  1
  Co  Co18  1  0.139909  0.146231  0.567629  1
  Co  Co19  1  0.139909  0.567629  0.146231  1
  Co  Co20  1  0.565547  0.144817  0.144817  1
  Cu  Cu21  1  0.587568  0.588609  0.588609  1
  Cu  Cu22  1  0.587568  0.588609  0.235211  1
  Cu  Cu23  1  0.587568  0.235211  0.588609  1
