# generated using pymatgen
data_Y4Al18Pd5Ru
_symmetry_space_group_name_H-M   'P 1'
_cell_length_a   7.62381836
_cell_length_b   7.62381734
_cell_length_c   9.48980905
_cell_angle_alpha   90.05092394
_cell_angle_beta   90.05093329
_cell_angle_gamma   119.65092960
_symmetry_Int_Tables_number   1
_chemical_formula_structural   Y4Al18Pd5Ru
_chemical_formula_sum   'Y4 Al18 Pd5 Ru1'
_cell_volume   479.34626001
_cell_formula_units_Z   1
loop_
 _symmetry_equiv_pos_site_id
 _symmetry_equiv_pos_as_xyz
  1  'x, y, z'
loop_
 _atom_site_type_symbol
 _atom_site_label
 _atom_site_symmetry_multiplicity
 _atom_site_fract_x
 _atom_site_fract_y
 _atom_site_fract_z
 _atom_site_occupancy
  Y  Y0  1  0.996244  0.670822  0.249484  1
  Y  Y1  1  0.007347  0.331174  0.750459  1
  Y  Y2  1  0.668826  0.992653  0.249541  1
  Y  Y3  1  0.329178  0.003756  0.750516  1
  Al  Al4  1  0.129420  0.131382  0.248864  1
  Al  Al5  1  0.868618  0.870580  0.751136  1
  Al  Al6  1  0.994374  0.333724  0.074079  1
  Al  Al7  1  0.994810  0.659592  0.926545  1
  Al  Al8  1  0.998257  0.665668  0.577162  1
  Al  Al9  1  0.334332  0.001743  0.422838  1
  Al  Al10  1  0.000828  0.334499  0.423597  1
  Al  Al11  1  0.665501  0.999172  0.576403  1
  Al  Al12  1  0.666276  0.005626  0.925921  1
  Al  Al13  1  0.340408  0.005190  0.073455  1
  Al  Al14  1  0.334520  0.334632  0.559568  1
  Al  Al15  1  0.665368  0.665480  0.440432  1
  Al  Al16  1  0.667308  0.661828  0.053389  1
  Al  Al17  1  0.338172  0.332692  0.946611  1
  Al  Al18  1  0.336824  0.545373  0.248864  1
  Al  Al19  1  0.661031  0.451494  0.754736  1
  Al  Al20  1  0.548506  0.338969  0.245264  1
  Al  Al21  1  0.454627  0.663176  0.751136  1
  Pd  Pd22  1  0.327998  0.672002  0.000000  1
  Pd  Pd23  1  0.327745  0.672255  0.500000  1
  Pd  Pd24  1  0.671553  0.328447  0.500000  1
  Pd  Pd25  1  0.000484  0.999516  0.000000  1
  Pd  Pd26  1  0.999845  0.000155  0.500000  1
  Ru  Ru27  1  0.671598  0.328402  0.000000  1
