# generated using pymatgen
data_Yb5Pr3(DyRu2)2
_symmetry_space_group_name_H-M   'P 1'
_cell_length_a   8.68255911
_cell_length_b   8.61477197
_cell_length_c   7.38861233
_cell_angle_alpha   83.18404512
_cell_angle_beta   83.31341199
_cell_angle_gamma   43.96545631
_symmetry_Int_Tables_number   1
_chemical_formula_structural   Yb5Pr3(DyRu2)2
_chemical_formula_sum   'Yb5 Pr3 Dy2 Ru4'
_cell_volume   380.56952489
_cell_formula_units_Z   1
loop_
 _symmetry_equiv_pos_site_id
 _symmetry_equiv_pos_as_xyz
  1  'x, y, z'
loop_
 _atom_site_type_symbol
 _atom_site_label
 _atom_site_symmetry_multiplicity
 _atom_site_fract_x
 _atom_site_fract_y
 _atom_site_fract_z
 _atom_site_occupancy
  Yb  Yb0  1  0.199610  0.981244  0.583169  1
  Yb  Yb1  1  0.017799  0.800213  0.915014  1
  Yb  Yb2  1  0.206594  0.361297  0.316030  1
  Yb  Yb3  1  0.641080  0.789805  0.186642  1
  Yb  Yb4  1  0.805161  0.626089  0.679199  1
  Pr  Pr5  1  0.374088  0.196276  0.821073  1
  Pr  Pr6  1  0.970404  0.208395  0.077629  1
  Pr  Pr7  1  0.798258  0.026695  0.423464  1
  Dy  Dy8  1  0.555585  0.447581  0.750288  1
  Dy  Dy9  1  0.420759  0.578716  0.247565  1
  Ru  Ru10  1  0.190978  0.587852  0.575320  1
  Ru  Ru11  1  0.400017  0.826196  0.926745  1
  Ru  Ru12  1  0.809270  0.384063  0.424459  1
  Ru  Ru13  1  0.610398  0.185573  0.073400  1
