# generated using pymatgen
data_Sc8Be3Si13Tc12
_symmetry_space_group_name_H-M   'P 1'
_cell_length_a   6.55298511
_cell_length_b   6.58355008
_cell_length_c   12.30534900
_cell_angle_alpha   90.00000000
_cell_angle_beta   90.00000000
_cell_angle_gamma   90.68638244
_symmetry_Int_Tables_number   1
_chemical_formula_structural   Sc8Be3Si13Tc12
_chemical_formula_sum   'Sc8 Be3 Si13 Tc12'
_cell_volume   530.83811270
_cell_formula_units_Z   1
loop_
 _symmetry_equiv_pos_site_id
 _symmetry_equiv_pos_as_xyz
  1  'x, y, z'
loop_
 _atom_site_type_symbol
 _atom_site_label
 _atom_site_symmetry_multiplicity
 _atom_site_fract_x
 _atom_site_fract_y
 _atom_site_fract_z
 _atom_site_occupancy
  Sc  Sc0  1  0.494843  0.338266  0.093356  1
  Sc  Sc1  1  0.990363  0.165239  0.405991  1
  Sc  Sc2  1  0.508234  0.662829  0.595290  1
  Sc  Sc3  1  0.005925  0.838313  0.903922  1
  Sc  Sc4  1  0.508234  0.662829  0.904710  1
  Sc  Sc5  1  0.005925  0.838313  0.596078  1
  Sc  Sc6  1  0.494843  0.338266  0.406644  1
  Sc  Sc7  1  0.990363  0.165239  0.094009  1
  Be  Be8  1  0.535881  0.358591  0.750000  1
  Be  Be9  1  0.033974  0.145220  0.750000  1
  Be  Be10  1  0.473171  0.631408  0.250000  1
  Si  Si11  1  0.659932  0.044426  0.547299  1
  Si  Si12  1  0.161037  0.454352  0.951477  1
  Si  Si13  1  0.332654  0.957484  0.045041  1
  Si  Si14  1  0.844316  0.552670  0.450927  1
  Si  Si15  1  0.332654  0.957484  0.454959  1
  Si  Si16  1  0.844316  0.552670  0.049073  1
  Si  Si17  1  0.659932  0.044426  0.952701  1
  Si  Si18  1  0.161037  0.454352  0.548523  1
  Si  Si19  1  0.964064  0.853090  0.250000  1
  Si  Si20  1  0.802396  0.633952  0.750000  1
  Si  Si21  1  0.301928  0.868403  0.750000  1
  Si  Si22  1  0.199884  0.359658  0.250000  1
  Si  Si23  1  0.693118  0.134833  0.250000  1
  Tc  Tc24  1  0.825900  0.344262  0.621728  1
  Tc  Tc25  1  0.331493  0.160496  0.876351  1
  Tc  Tc26  1  0.192419  0.648426  0.123028  1
  Tc  Tc27  1  0.655527  0.843179  0.376245  1
  Tc  Tc28  1  0.192419  0.648426  0.376972  1
  Tc  Tc29  1  0.655527  0.843179  0.123755  1
  Tc  Tc30  1  0.825900  0.344262  0.878272  1
  Tc  Tc31  1  0.331493  0.160496  0.623649  1
  Tc  Tc32  1  0.669327  0.987945  0.750000  1
  Tc  Tc33  1  0.166509  0.514446  0.750000  1
  Tc  Tc34  1  0.320048  0.007130  0.250000  1
  Tc  Tc35  1  0.834415  0.485435  0.250000  1
