# generated using pymatgen
data_Hf4MnCo2Si4Au
_symmetry_space_group_name_H-M   'P 1'
_cell_length_a   3.83462600
_cell_length_b   6.48638489
_cell_length_c   7.40484085
_cell_angle_alpha   88.85648338
_cell_angle_beta   90.00000000
_cell_angle_gamma   90.00000000
_symmetry_Int_Tables_number   1
_chemical_formula_structural   Hf4MnCo2Si4Au
_chemical_formula_sum   'Hf4 Mn1 Co2 Si4 Au1'
_cell_volume   184.14289005
_cell_formula_units_Z   1
loop_
 _symmetry_equiv_pos_site_id
 _symmetry_equiv_pos_as_xyz
  1  'x, y, z'
loop_
 _atom_site_type_symbol
 _atom_site_label
 _atom_site_symmetry_multiplicity
 _atom_site_fract_x
 _atom_site_fract_y
 _atom_site_fract_z
 _atom_site_occupancy
  Hf  Hf0  1  0.250000  0.010090  0.325000  1
  Hf  Hf1  1  0.250000  0.528940  0.191806  1
  Hf  Hf2  1  0.750000  0.976585  0.669792  1
  Hf  Hf3  1  0.750000  0.485296  0.805725  1
  Mn  Mn4  1  0.750000  0.847763  0.065413  1
  Co  Co5  1  0.250000  0.642793  0.564994  1
  Co  Co6  1  0.750000  0.358134  0.442964  1
  Si  Si7  1  0.250000  0.282258  0.594032  1
  Si  Si8  1  0.250000  0.761984  0.870187  1
  Si  Si9  1  0.750000  0.716467  0.392312  1
  Si  Si10  1  0.750000  0.235912  0.145231  1
  Au  Au11  1  0.250000  0.153781  0.932545  1
