# generated using pymatgen
data_Zr4Fe4Si3As
_symmetry_space_group_name_H-M   'P 1'
_cell_length_a   3.96430500
_cell_length_b   6.44684655
_cell_length_c   7.08669964
_cell_angle_alpha   90.24941779
_cell_angle_beta   90.00000000
_cell_angle_gamma   90.00000000
_symmetry_Int_Tables_number   1
_chemical_formula_structural   Zr4Fe4Si3As
_chemical_formula_sum   'Zr4 Fe4 Si3 As1'
_cell_volume   181.11495168
_cell_formula_units_Z   1
loop_
 _symmetry_equiv_pos_site_id
 _symmetry_equiv_pos_as_xyz
  1  'x, y, z'
loop_
 _atom_site_type_symbol
 _atom_site_label
 _atom_site_symmetry_multiplicity
 _atom_site_fract_x
 _atom_site_fract_y
 _atom_site_fract_z
 _atom_site_occupancy
  Zr  Zr0  1  0.250000  0.998115  0.299828  1
  Zr  Zr1  1  0.250000  0.499840  0.195561  1
  Zr  Zr2  1  0.750000  0.993634  0.698781  1
  Zr  Zr3  1  0.750000  0.502589  0.804943  1
  Fe  Fe4  1  0.250000  0.153102  0.937630  1
  Fe  Fe5  1  0.250000  0.656782  0.567235  1
  Fe  Fe6  1  0.750000  0.848953  0.066079  1
  Fe  Fe7  1  0.750000  0.351618  0.427651  1
  Si  Si8  1  0.250000  0.788821  0.897319  1
  Si  Si9  1  0.750000  0.712013  0.392404  1
  Si  Si10  1  0.750000  0.211626  0.105856  1
  As  As11  1  0.250000  0.282906  0.606712  1
