# generated using pymatgen
data_ErP2Ru2Rh
_symmetry_space_group_name_H-M   'P 1'
_cell_length_a   3.93835500
_cell_length_b   11.24170000
_cell_length_c   12.53985600
_cell_angle_alpha   90.00000000
_cell_angle_beta   90.00000000
_cell_angle_gamma   90.00000000
_symmetry_Int_Tables_number   1
_chemical_formula_structural   ErP2Ru2Rh
_chemical_formula_sum   'Er6 P12 Ru12 Rh6'
_cell_volume   555.18714433
_cell_formula_units_Z   6
loop_
 _symmetry_equiv_pos_site_id
 _symmetry_equiv_pos_as_xyz
  1  'x, y, z'
loop_
 _atom_site_type_symbol
 _atom_site_label
 _atom_site_symmetry_multiplicity
 _atom_site_fract_x
 _atom_site_fract_y
 _atom_site_fract_z
 _atom_site_occupancy
  Er  Er0  1  0.750000  0.250000  0.476831  1
  Er  Er1  1  0.250000  0.750000  0.523169  1
  Er  Er2  1  0.250000  0.930833  0.795649  1
  Er  Er3  1  0.250000  0.569167  0.795649  1
  Er  Er4  1  0.750000  0.069167  0.204351  1
  Er  Er5  1  0.750000  0.430833  0.204351  1
  P  P6  1  0.250000  0.250000  0.118816  1
  P  P7  1  0.750000  0.750000  0.881184  1
  P  P8  1  0.250000  0.250000  0.653257  1
  P  P9  1  0.750000  0.750000  0.346743  1
  P  P10  1  0.250000  0.442766  0.384256  1
  P  P11  1  0.250000  0.057234  0.384256  1
  P  P12  1  0.750000  0.557234  0.615744  1
  P  P13  1  0.750000  0.942766  0.615744  1
  P  P14  1  0.250000  0.906039  0.103951  1
  P  P15  1  0.250000  0.593961  0.103951  1
  P  P16  1  0.750000  0.093961  0.896049  1
  P  P17  1  0.750000  0.406039  0.896049  1
  Ru  Ru18  1  0.250000  0.250000  0.840968  1
  Ru  Ru19  1  0.750000  0.750000  0.159032  1
  Ru  Ru20  1  0.750000  0.250000  0.012632  1
  Ru  Ru21  1  0.250000  0.750000  0.987368  1
  Ru  Ru22  1  0.250000  0.417264  0.008987  1
  Ru  Ru23  1  0.250000  0.082736  0.008987  1
  Ru  Ru24  1  0.750000  0.582736  0.991013  1
  Ru  Ru25  1  0.750000  0.917264  0.991013  1
  Ru  Ru26  1  0.250000  0.452335  0.571620  1
  Ru  Ru27  1  0.250000  0.047665  0.571620  1
  Ru  Ru28  1  0.750000  0.547665  0.428380  1
  Ru  Ru29  1  0.750000  0.952335  0.428380  1
  Rh  Rh30  1  0.250000  0.250000  0.304291  1
  Rh  Rh31  1  0.750000  0.750000  0.695709  1
  Rh  Rh32  1  0.250000  0.874436  0.284936  1
  Rh  Rh33  1  0.250000  0.625564  0.284936  1
  Rh  Rh34  1  0.750000  0.125564  0.715064  1
  Rh  Rh35  1  0.750000  0.374436  0.715064  1
