# generated using pymatgen
data_Dy3HoEr4(ReB6)4
_symmetry_space_group_name_H-M   'P 1'
_cell_length_a   3.66898100
_cell_length_b   9.14940900
_cell_length_c   11.53511700
_cell_angle_alpha   89.99945753
_cell_angle_beta   90.00000000
_cell_angle_gamma   90.00000000
_symmetry_Int_Tables_number   1
_chemical_formula_structural   Dy3HoEr4(ReB6)4
_chemical_formula_sum   'Dy3 Ho1 Er4 Re4 B24'
_cell_volume   387.22243233
_cell_formula_units_Z   1
loop_
 _symmetry_equiv_pos_site_id
 _symmetry_equiv_pos_as_xyz
  1  'x, y, z'
loop_
 _atom_site_type_symbol
 _atom_site_label
 _atom_site_symmetry_multiplicity
 _atom_site_fract_x
 _atom_site_fract_y
 _atom_site_fract_z
 _atom_site_occupancy
  Dy  Dy0  1  0.000000  0.323374  0.413827  1
  Dy  Dy1  1  0.000000  0.676630  0.586185  1
  Dy  Dy2  1  0.000000  0.823393  0.086148  1
  Ho  Ho3  1  0.000000  0.176560  0.913831  1
  Er  Er4  1  0.000000  0.943296  0.370110  1
  Er  Er5  1  0.000000  0.056704  0.629917  1
  Er  Er6  1  0.000000  0.443281  0.129815  1
  Er  Er7  1  0.000000  0.556649  0.870166  1
  Re  Re8  1  0.000000  0.639002  0.320538  1
  Re  Re9  1  0.000000  0.360882  0.679580  1
  Re  Re10  1  0.000000  0.138994  0.179316  1
  Re  Re11  1  0.000000  0.861186  0.820599  1
  B  B12  1  0.500000  0.553441  0.432819  1
  B  B13  1  0.500000  0.446533  0.567201  1
  B  B14  1  0.500000  0.053494  0.067029  1
  B  B15  1  0.500000  0.946735  0.932850  1
  B  B16  1  0.500000  0.749719  0.418608  1
  B  B17  1  0.500000  0.250287  0.581430  1
  B  B18  1  0.500000  0.249689  0.081184  1
  B  B19  1  0.500000  0.750311  0.918593  1
  B  B20  1  0.500000  0.792495  0.265633  1
  B  B21  1  0.500000  0.207426  0.734512  1
  B  B22  1  0.500000  0.292487  0.234323  1
  B  B23  1  0.500000  0.707504  0.765643  1
  B  B24  1  0.500000  0.630708  0.185484  1
  B  B25  1  0.500000  0.369156  0.814632  1
  B  B26  1  0.500000  0.130727  0.314486  1
  B  B27  1  0.500000  0.869313  0.685523  1
  B  B28  1  0.500000  0.982265  0.212172  1
  B  B29  1  0.500000  0.017973  0.787899  1
  B  B30  1  0.500000  0.482232  0.287779  1
  B  B31  1  0.500000  0.517742  0.712226  1
  B  B32  1  0.500000  0.599479  0.027806  1
  B  B33  1  0.500000  0.400316  0.972119  1
  B  B34  1  0.500000  0.099468  0.472199  1
  B  B35  1  0.500000  0.900549  0.527819  1
