# generated using pymatgen
data_Lu20Os5Pt7
_symmetry_space_group_name_H-M   'P 1'
_cell_length_a   10.81201093
_cell_length_b   10.81200983
_cell_length_c   6.24560300
_cell_angle_alpha   90.04217691
_cell_angle_beta   90.04217690
_cell_angle_gamma   90.29144068
_symmetry_Int_Tables_number   1
_chemical_formula_structural   Lu20Os5Pt7
_chemical_formula_sum   'Lu20 Os5 Pt7'
_cell_volume   730.09845265
_cell_formula_units_Z   1
loop_
 _symmetry_equiv_pos_site_id
 _symmetry_equiv_pos_as_xyz
  1  'x, y, z'
loop_
 _atom_site_type_symbol
 _atom_site_label
 _atom_site_symmetry_multiplicity
 _atom_site_fract_x
 _atom_site_fract_y
 _atom_site_fract_z
 _atom_site_occupancy
  Lu  Lu0  1  0.296966  0.082914  0.370764  1
  Lu  Lu1  1  0.296607  0.909613  0.870493  1
  Lu  Lu2  1  0.702195  0.083467  0.869978  1
  Lu  Lu3  1  0.701971  0.915335  0.369307  1
  Lu  Lu4  1  0.579142  0.793427  0.868252  1
  Lu  Lu5  1  0.584355  0.203201  0.372241  1
  Lu  Lu6  1  0.413034  0.792994  0.373653  1
  Lu  Lu7  1  0.414740  0.200905  0.870510  1
  Lu  Lu8  1  0.206573  0.420858  0.631748  1
  Lu  Lu9  1  0.207006  0.586966  0.126347  1
  Lu  Lu10  1  0.796799  0.415645  0.127759  1
  Lu  Lu11  1  0.799095  0.585260  0.629490  1
  Lu  Lu12  1  0.917086  0.703034  0.129236  1
  Lu  Lu13  1  0.916533  0.297805  0.630022  1
  Lu  Lu14  1  0.090387  0.703393  0.629507  1
  Lu  Lu15  1  0.084665  0.298029  0.130693  1
  Lu  Lu16  1  0.998889  0.000204  0.500498  1
  Lu  Lu17  1  0.999796  0.001111  0.999502  1
  Lu  Lu18  1  0.496549  0.500610  0.998418  1
  Lu  Lu19  1  0.499390  0.503451  0.501582  1
  Os  Os20  1  0.347676  0.652324  0.750000  1
  Os  Os21  1  0.499608  0.000002  0.124248  1
  Os  Os22  1  0.499460  0.999566  0.622698  1
  Os  Os23  1  0.000434  0.500540  0.877302  1
  Os  Os24  1  0.999998  0.500392  0.375752  1
  Pt  Pt25  1  0.847046  0.152954  0.250000  1
  Pt  Pt26  1  0.845799  0.847508  0.751029  1
  Pt  Pt27  1  0.152492  0.154201  0.748971  1
  Pt  Pt28  1  0.150693  0.849307  0.250000  1
  Pt  Pt29  1  0.652877  0.347123  0.750000  1
  Pt  Pt30  1  0.655503  0.653365  0.249124  1
  Pt  Pt31  1  0.346635  0.344497  0.250876  1
