# generated using pymatgen
data_BaCuAs3F18
_symmetry_space_group_name_H-M   'P 1'
_cell_length_a   9.68235600
_cell_length_b   10.63973600
_cell_length_c   14.23018300
_cell_angle_alpha   90.00000000
_cell_angle_beta   90.00000000
_cell_angle_gamma   90.00000000
_symmetry_Int_Tables_number   1
_chemical_formula_structural   BaCuAs3F18
_chemical_formula_sum   'Ba4 Cu4 As12 F72'
_cell_volume   1465.96088970
_cell_formula_units_Z   4
loop_
 _symmetry_equiv_pos_site_id
 _symmetry_equiv_pos_as_xyz
  1  'x, y, z'
loop_
 _atom_site_type_symbol
 _atom_site_label
 _atom_site_symmetry_multiplicity
 _atom_site_fract_x
 _atom_site_fract_y
 _atom_site_fract_z
 _atom_site_occupancy
  Ba  Ba0  1  0.523295  0.917733  0.750000  1
  Ba  Ba1  1  0.976705  0.417733  0.750000  1
  Ba  Ba2  1  0.476705  0.082267  0.250000  1
  Ba  Ba3  1  0.023295  0.582267  0.250000  1
  Cu  Cu4  1  0.000000  0.000000  0.500000  1
  Cu  Cu5  1  0.500000  0.500000  0.000000  1
  Cu  Cu6  1  0.000000  0.000000  0.000000  1
  Cu  Cu7  1  0.500000  0.500000  0.500000  1
  As  As8  1  0.119837  0.020062  0.750000  1
  As  As9  1  0.380163  0.520062  0.750000  1
  As  As10  1  0.880163  0.979938  0.250000  1
  As  As11  1  0.619837  0.479938  0.250000  1
  As  As12  1  0.693261  0.201930  0.551296  1
  As  As13  1  0.806739  0.701930  0.948704  1
  As  As14  1  0.306739  0.798070  0.051296  1
  As  As15  1  0.193261  0.298070  0.448704  1
  As  As16  1  0.306739  0.798070  0.448704  1
  As  As17  1  0.193261  0.298070  0.051296  1
  As  As18  1  0.693261  0.201930  0.948704  1
  As  As19  1  0.806739  0.701930  0.551296  1
  F  F20  1  0.121035  0.025520  0.624290  1
  F  F21  1  0.378965  0.525520  0.875710  1
  F  F22  1  0.878965  0.974480  0.124290  1
  F  F23  1  0.621035  0.474480  0.375710  1
  F  F24  1  0.878965  0.974480  0.375710  1
  F  F25  1  0.621035  0.474480  0.124290  1
  F  F26  1  0.121035  0.025520  0.875710  1
  F  F27  1  0.378965  0.525520  0.624290  1
  F  F28  1  0.184334  0.864838  0.750000  1
  F  F29  1  0.315666  0.364838  0.750000  1
  F  F30  1  0.815666  0.135162  0.250000  1
  F  F31  1  0.684334  0.635162  0.250000  1
  F  F32  1  0.297381  0.072936  0.750000  1
  F  F33  1  0.202619  0.572936  0.750000  1
  F  F34  1  0.702619  0.927064  0.250000  1
  F  F35  1  0.797381  0.427064  0.250000  1
  F  F36  1  0.066449  0.183259  0.750000  1
  F  F37  1  0.433551  0.683259  0.750000  1
  F  F38  1  0.933551  0.816741  0.250000  1
  F  F39  1  0.566449  0.316741  0.250000  1
  F  F40  1  0.946720  0.971703  0.750000  1
  F  F41  1  0.553280  0.471702  0.750000  1
  F  F42  1  0.053280  0.028297  0.250000  1
  F  F43  1  0.446720  0.528297  0.250000  1
  F  F44  1  0.819943  0.078129  0.558011  1
  F  F45  1  0.680057  0.578129  0.941989  1
  F  F46  1  0.180057  0.921871  0.058011  1
  F  F47  1  0.319943  0.421871  0.441989  1
  F  F48  1  0.180057  0.921871  0.441989  1
  F  F49  1  0.319943  0.421871  0.058011  1
  F  F50  1  0.819943  0.078129  0.941989  1
  F  F51  1  0.680057  0.578129  0.558011  1
  F  F52  1  0.791076  0.284248  0.468426  1
  F  F53  1  0.708924  0.784248  0.031574  1
  F  F54  1  0.208924  0.715752  0.968426  1
  F  F55  1  0.291076  0.215752  0.531574  1
  F  F56  1  0.208924  0.715752  0.531574  1
  F  F57  1  0.291076  0.215752  0.968426  1
  F  F58  1  0.791076  0.284248  0.031574  1
  F  F59  1  0.708924  0.784248  0.468426  1
  F  F60  1  0.602551  0.121397  0.460261  1
  F  F61  1  0.897449  0.621397  0.039739  1
  F  F62  1  0.397449  0.878603  0.960261  1
  F  F63  1  0.102551  0.378603  0.539739  1
  F  F64  1  0.397449  0.878603  0.539739  1
  F  F65  1  0.102551  0.378603  0.960261  1
  F  F66  1  0.602551  0.121397  0.039739  1
  F  F67  1  0.897449  0.621397  0.460261  1
  F  F68  1  0.564107  0.321966  0.554427  1
  F  F69  1  0.935893  0.821966  0.945573  1
  F  F70  1  0.435893  0.678034  0.054427  1
  F  F71  1  0.064107  0.178034  0.445573  1
  F  F72  1  0.435893  0.678034  0.445573  1
  F  F73  1  0.064107  0.178034  0.054427  1
  F  F74  1  0.564107  0.321966  0.945573  1
  F  F75  1  0.935893  0.821966  0.554427  1
  F  F76  1  0.596222  0.115256  0.639021  1
  F  F77  1  0.903778  0.615256  0.860979  1
  F  F78  1  0.403778  0.884744  0.139021  1
  F  F79  1  0.096222  0.384744  0.360979  1
  F  F80  1  0.403778  0.884744  0.360979  1
  F  F81  1  0.096222  0.384744  0.139021  1
  F  F82  1  0.596222  0.115256  0.860979  1
  F  F83  1  0.903778  0.615256  0.639021  1
  F  F84  1  0.784544  0.282442  0.644935  1
  F  F85  1  0.715456  0.782442  0.855065  1
  F  F86  1  0.215456  0.717558  0.144935  1
  F  F87  1  0.284544  0.217558  0.355065  1
  F  F88  1  0.215456  0.717558  0.355065  1
  F  F89  1  0.284544  0.217558  0.144935  1
  F  F90  1  0.784544  0.282442  0.855065  1
  F  F91  1  0.715456  0.782442  0.644935  1
