# generated using pymatgen
data_Ho7Hf(Nb3Si4)4
_symmetry_space_group_name_H-M   'P 1'
_cell_length_a   7.03445859
_cell_length_b   7.03099433
_cell_length_c   12.99701479
_cell_angle_alpha   90.13987190
_cell_angle_beta   90.02868901
_cell_angle_gamma   89.92920907
_symmetry_Int_Tables_number   1
_chemical_formula_structural   Ho7Hf(Nb3Si4)4
_chemical_formula_sum   'Ho7 Hf1 Nb12 Si16'
_cell_volume   642.81996749
_cell_formula_units_Z   1
loop_
 _symmetry_equiv_pos_site_id
 _symmetry_equiv_pos_as_xyz
  1  'x, y, z'
loop_
 _atom_site_type_symbol
 _atom_site_label
 _atom_site_symmetry_multiplicity
 _atom_site_fract_x
 _atom_site_fract_y
 _atom_site_fract_z
 _atom_site_occupancy
  Ho  Ho0  1  0.001293  0.660628  0.718071  1
  Ho  Ho1  1  0.159285  0.498080  0.467889  1
  Ho  Ho2  1  0.501893  0.840791  0.033574  1
  Ho  Ho3  1  0.840185  0.501931  0.969335  1
  Ho  Ho4  1  0.498605  0.159791  0.530775  1
  Ho  Ho5  1  0.339921  0.999039  0.782362  1
  Ho  Ho6  1  0.661133  0.002426  0.280830  1
  Hf  Hf7  1  0.006524  0.344438  0.216931  1
  Nb  Nb8  1  0.169670  0.172230  0.001368  1
  Nb  Nb9  1  0.829780  0.828469  0.498353  1
  Nb  Nb10  1  0.327756  0.666749  0.249724  1
  Nb  Nb11  1  0.670585  0.329654  0.750043  1
  Nb  Nb12  1  0.150448  0.993663  0.374077  1
  Nb  Nb13  1  0.845749  0.008945  0.877081  1
  Nb  Nb14  1  0.506495  0.653292  0.625708  1
  Nb  Nb15  1  0.346108  0.493851  0.875043  1
  Nb  Nb16  1  0.493049  0.345266  0.127270  1
  Nb  Nb17  1  0.654638  0.503110  0.372432  1
  Nb  Nb18  1  0.992423  0.154800  0.623636  1
  Nb  Nb19  1  0.004860  0.846345  0.125436  1
  Si  Si20  1  0.292244  0.045697  0.186734  1
  Si  Si21  1  0.704971  0.956124  0.686148  1
  Si  Si22  1  0.455349  0.793514  0.435511  1
  Si  Si23  1  0.203669  0.543200  0.065080  1
  Si  Si24  1  0.544513  0.205552  0.937665  1
  Si  Si25  1  0.795041  0.455880  0.562739  1
  Si  Si26  1  0.043937  0.295797  0.813599  1
  Si  Si27  1  0.955914  0.699342  0.312377  1
  Si  Si28  1  0.362547  0.293926  0.317214  1
  Si  Si29  1  0.632938  0.705435  0.817953  1
  Si  Si30  1  0.204480  0.867496  0.566972  1
  Si  Si31  1  0.132386  0.795884  0.933263  1
  Si  Si32  1  0.798872  0.137238  0.072134  1
  Si  Si33  1  0.867315  0.206088  0.429025  1
  Si  Si34  1  0.295591  0.366924  0.682402  1
  Si  Si35  1  0.709835  0.628404  0.181245  1
