# generated using pymatgen
data_NbAl2Pt5Rh4
_symmetry_space_group_name_H-M   'P 1'
_cell_length_a   3.88024500
_cell_length_b   3.94876600
_cell_length_c   11.69872800
_cell_angle_alpha   90.00000000
_cell_angle_beta   90.00000000
_cell_angle_gamma   90.00000000
_symmetry_Int_Tables_number   1
_chemical_formula_structural   NbAl2Pt5Rh4
_chemical_formula_sum   'Nb1 Al2 Pt5 Rh4'
_cell_volume   179.25001066
_cell_formula_units_Z   1
loop_
 _symmetry_equiv_pos_site_id
 _symmetry_equiv_pos_as_xyz
  1  'x, y, z'
loop_
 _atom_site_type_symbol
 _atom_site_label
 _atom_site_symmetry_multiplicity
 _atom_site_fract_x
 _atom_site_fract_y
 _atom_site_fract_z
 _atom_site_occupancy
  Nb  Nb0  1  0.000000  0.000000  0.000000  1
  Al  Al1  1  0.000000  0.000000  0.340151  1
  Al  Al2  1  0.000000  0.000000  0.659849  1
  Pt  Pt3  1  0.500000  0.500000  0.334374  1
  Pt  Pt4  1  0.500000  0.500000  0.665626  1
  Pt  Pt5  1  0.000000  0.500000  0.166745  1
  Pt  Pt6  1  0.000000  0.500000  0.500000  1
  Pt  Pt7  1  0.000000  0.500000  0.833255  1
  Rh  Rh8  1  0.500000  0.500000  0.000000  1
  Rh  Rh9  1  0.500000  0.000000  0.167285  1
  Rh  Rh10  1  0.500000  0.000000  0.500000  1
  Rh  Rh11  1  0.500000  0.000000  0.832715  1
