# generated using pymatgen
data_CaZr(Re2Si)4
_symmetry_space_group_name_H-M   'P 1'
_cell_length_a   7.39248965
_cell_length_b   7.39248968
_cell_length_c   4.13191900
_cell_angle_alpha   90.00000000
_cell_angle_beta   90.00000000
_cell_angle_gamma   91.25943671
_symmetry_Int_Tables_number   1
_chemical_formula_structural   CaZr(Re2Si)4
_chemical_formula_sum   'Ca1 Zr1 Re8 Si4'
_cell_volume   225.75029264
_cell_formula_units_Z   1
loop_
 _symmetry_equiv_pos_site_id
 _symmetry_equiv_pos_as_xyz
  1  'x, y, z'
loop_
 _atom_site_type_symbol
 _atom_site_label
 _atom_site_symmetry_multiplicity
 _atom_site_fract_x
 _atom_site_fract_y
 _atom_site_fract_z
 _atom_site_occupancy
  Ca  Ca0  1  0.000000  0.000000  0.500000  1
  Zr  Zr1  1  0.500000  0.500000  0.000000  1
  Re  Re2  1  0.653248  0.898599  0.000000  1
  Re  Re3  1  0.161204  0.587272  0.500000  1
  Re  Re4  1  0.101401  0.346752  0.000000  1
  Re  Re5  1  0.898599  0.653248  0.000000  1
  Re  Re6  1  0.412728  0.838796  0.500000  1
  Re  Re7  1  0.587272  0.161204  0.500000  1
  Re  Re8  1  0.346752  0.101401  0.000000  1
  Re  Re9  1  0.838796  0.412728  0.500000  1
  Si  Si10  1  0.210188  0.789812  0.000000  1
  Si  Si11  1  0.789812  0.210188  0.000000  1
  Si  Si12  1  0.704182  0.704182  0.500000  1
  Si  Si13  1  0.295818  0.295818  0.500000  1
