# generated using pymatgen
data_Y3HoCu2(Si2Ru)2
_symmetry_space_group_name_H-M   'P 1'
_cell_length_a   4.22502100
_cell_length_b   6.98069847
_cell_length_c   7.39655261
_cell_angle_alpha   91.50209991
_cell_angle_beta   90.00000000
_cell_angle_gamma   90.00000000
_symmetry_Int_Tables_number   1
_chemical_formula_structural   Y3HoCu2(Si2Ru)2
_chemical_formula_sum   'Y3 Ho1 Cu2 Si4 Ru2'
_cell_volume   218.07598207
_cell_formula_units_Z   1
loop_
 _symmetry_equiv_pos_site_id
 _symmetry_equiv_pos_as_xyz
  1  'x, y, z'
loop_
 _atom_site_type_symbol
 _atom_site_label
 _atom_site_symmetry_multiplicity
 _atom_site_fract_x
 _atom_site_fract_y
 _atom_site_fract_z
 _atom_site_occupancy
  Y  Y0  1  0.250000  0.993994  0.798055  1
  Y  Y1  1  0.750000  0.006487  0.202295  1
  Y  Y2  1  0.250000  0.493276  0.687219  1
  Ho  Ho3  1  0.750000  0.507884  0.310444  1
  Cu  Cu4  1  0.750000  0.832635  0.572412  1
  Cu  Cu5  1  0.250000  0.166301  0.426509  1
  Si  Si6  1  0.250000  0.300095  0.089802  1
  Si  Si7  1  0.750000  0.699726  0.911514  1
  Si  Si8  1  0.250000  0.795656  0.388648  1
  Si  Si9  1  0.750000  0.204546  0.611065  1
  Ru  Ru10  1  0.750000  0.347238  0.935187  1
  Ru  Ru11  1  0.250000  0.652162  0.066850  1
