# generated using pymatgen
data_Tm8NbGe16Mo11
_symmetry_space_group_name_H-M   'P 1'
_cell_length_a   6.89448302
_cell_length_b   7.03884927
_cell_length_c   13.10054100
_cell_angle_alpha   90.00000000
_cell_angle_beta   90.00000000
_cell_angle_gamma   90.11081347
_symmetry_Int_Tables_number   1
_chemical_formula_structural   Tm8NbGe16Mo11
_chemical_formula_sum   'Tm8 Nb1 Ge16 Mo11'
_cell_volume   635.75793585
_cell_formula_units_Z   1
loop_
 _symmetry_equiv_pos_site_id
 _symmetry_equiv_pos_as_xyz
  1  'x, y, z'
loop_
 _atom_site_type_symbol
 _atom_site_label
 _atom_site_symmetry_multiplicity
 _atom_site_fract_x
 _atom_site_fract_y
 _atom_site_fract_z
 _atom_site_occupancy
  Tm  Tm0  1  0.490727  0.328953  0.092343  1
  Tm  Tm1  1  0.988472  0.171006  0.407802  1
  Tm  Tm2  1  0.511244  0.670490  0.592483  1
  Tm  Tm3  1  0.011352  0.830337  0.907723  1
  Tm  Tm4  1  0.511244  0.670490  0.907517  1
  Tm  Tm5  1  0.011352  0.830337  0.592277  1
  Tm  Tm6  1  0.490727  0.328953  0.407657  1
  Tm  Tm7  1  0.988472  0.171006  0.092198  1
  Nb  Nb8  1  0.835131  0.508316  0.250000  1
  Ge  Ge9  1  0.813024  0.645835  0.750000  1
  Ge  Ge10  1  0.312333  0.855195  0.750000  1
  Ge  Ge11  1  0.192446  0.352213  0.250000  1
  Ge  Ge12  1  0.687679  0.141296  0.250000  1
  Ge  Ge13  1  0.530566  0.369048  0.750000  1
  Ge  Ge14  1  0.032365  0.131629  0.750000  1
  Ge  Ge15  1  0.464743  0.631097  0.250000  1
  Ge  Ge16  1  0.969411  0.873012  0.250000  1
  Ge  Ge17  1  0.671251  0.045177  0.547652  1
  Ge  Ge18  1  0.171276  0.454443  0.952430  1
  Ge  Ge19  1  0.327370  0.954941  0.047443  1
  Ge  Ge20  1  0.827935  0.545034  0.455340  1
  Ge  Ge21  1  0.327370  0.954941  0.452557  1
  Ge  Ge22  1  0.827935  0.545034  0.044660  1
  Ge  Ge23  1  0.671251  0.045177  0.952348  1
  Ge  Ge24  1  0.171276  0.454443  0.547570  1
  Mo  Mo25  1  0.668820  0.004037  0.750000  1
  Mo  Mo26  1  0.167656  0.495965  0.750000  1
  Mo  Mo27  1  0.331004  0.994524  0.250000  1
  Mo  Mo28  1  0.830428  0.343920  0.627940  1
  Mo  Mo29  1  0.331533  0.156455  0.873320  1
  Mo  Mo30  1  0.168328  0.655751  0.125823  1
  Mo  Mo31  1  0.667493  0.842412  0.374478  1
  Mo  Mo32  1  0.168328  0.655751  0.374177  1
  Mo  Mo33  1  0.667493  0.842412  0.125522  1
  Mo  Mo34  1  0.830428  0.343920  0.872060  1
  Mo  Mo35  1  0.331533  0.156455  0.626680  1
