# generated using pymatgen
data_Cs4GdOsCl12
_symmetry_space_group_name_H-M   'P 1'
_cell_length_a   12.89340963
_cell_length_b   12.89340894
_cell_length_c   12.89340800
_cell_angle_alpha   131.84035273
_cell_angle_beta   131.84035595
_cell_angle_gamma   70.48128705
_symmetry_Int_Tables_number   1
_chemical_formula_structural   Cs4GdOsCl12
_chemical_formula_sum   'Cs8 Gd2 Os2 Cl24'
_cell_volume   1165.69322498
_cell_formula_units_Z   2
loop_
 _symmetry_equiv_pos_site_id
 _symmetry_equiv_pos_as_xyz
  1  'x, y, z'
loop_
 _atom_site_type_symbol
 _atom_site_label
 _atom_site_symmetry_multiplicity
 _atom_site_fract_x
 _atom_site_fract_y
 _atom_site_fract_z
 _atom_site_occupancy
  Cs  Cs0  1  0.375002  0.849120  0.974197  1
  Cs  Cs1  1  0.599120  0.625002  0.474197  1
  Cs  Cs2  1  0.875093  0.849171  0.474194  1
  Cs  Cs3  1  0.599171  0.125093  0.974194  1
  Cs  Cs4  1  0.874907  0.400829  0.025806  1
  Cs  Cs5  1  0.150829  0.124907  0.525806  1
  Cs  Cs6  1  0.374998  0.400880  0.525803  1
  Cs  Cs7  1  0.150880  0.624998  0.025803  1
  Gd  Gd8  1  0.499938  0.500062  0.000000  1
  Gd  Gd9  1  0.250062  0.749938  0.500000  1
  Os  Os10  1  0.000021  0.999980  0.000000  1
  Os  Os11  1  0.749979  0.250020  0.500000  1
  Cl  Cl12  1  0.748172  0.495209  0.253253  1
  Cl  Cl13  1  0.504790  0.251828  0.746747  1
  Cl  Cl14  1  0.373477  0.373448  0.999980  1
  Cl  Cl15  1  0.123448  0.623477  0.499980  1
  Cl  Cl16  1  0.376523  0.876552  0.500020  1
  Cl  Cl17  1  0.626552  0.626523  0.000020  1
  Cl  Cl18  1  0.110367  0.110354  0.000047  1
  Cl  Cl19  1  0.860354  0.360367  0.500047  1
  Cl  Cl20  1  0.639633  0.139646  0.499953  1
  Cl  Cl21  1  0.889646  0.889633  0.999953  1
  Cl  Cl22  1  0.222158  0.001049  0.221136  1
  Cl  Cl23  1  0.750981  0.029922  0.278872  1
  Cl  Cl24  1  0.504972  0.758087  0.253406  1
  Cl  Cl25  1  0.527842  0.248951  0.278864  1
  Cl  Cl26  1  0.970078  0.249019  0.721128  1
  Cl  Cl27  1  0.999019  0.220078  0.221128  1
  Cl  Cl28  1  0.998951  0.777842  0.778864  1
  Cl  Cl29  1  0.779922  0.000981  0.778872  1
  Cl  Cl30  1  0.751049  0.472158  0.721136  1
  Cl  Cl31  1  0.245028  0.491913  0.246594  1
  Cl  Cl32  1  0.245210  0.998172  0.753253  1
  Cl  Cl33  1  0.001828  0.754791  0.246747  1
  Cl  Cl34  1  0.508087  0.754973  0.753406  1
  Cl  Cl35  1  0.241913  0.495027  0.746594  1
