# generated using pymatgen
data_Tb2Pr3(IrO6)2
_symmetry_space_group_name_H-M   'P 1'
_cell_length_a   7.06544759
_cell_length_b   7.06544794
_cell_length_c   7.47301992
_cell_angle_alpha   74.12994459
_cell_angle_beta   74.12995368
_cell_angle_gamma   51.55189783
_symmetry_Int_Tables_number   1
_chemical_formula_structural   Tb2Pr3(IrO6)2
_chemical_formula_sum   'Tb2 Pr3 Ir2 O12'
_cell_volume   278.37081436
_cell_formula_units_Z   1
loop_
 _symmetry_equiv_pos_site_id
 _symmetry_equiv_pos_as_xyz
  1  'x, y, z'
loop_
 _atom_site_type_symbol
 _atom_site_label
 _atom_site_symmetry_multiplicity
 _atom_site_fract_x
 _atom_site_fract_y
 _atom_site_fract_z
 _atom_site_occupancy
  Tb  Tb0  1  0.301862  0.301862  0.361042  1
  Tb  Tb1  1  0.698138  0.698138  0.638958  1
  Pr  Pr2  1  0.695173  0.695173  0.167990  1
  Pr  Pr3  1  0.304827  0.304827  0.832010  1
  Pr  Pr4  1  0.000000  0.000000  0.500000  1
  Ir  Ir5  1  0.752007  0.247993  0.000000  1
  Ir  Ir6  1  0.247993  0.752007  0.000000  1
  O  O7  1  0.092434  0.596612  0.567950  1
  O  O8  1  0.001926  0.001926  0.167085  1
  O  O9  1  0.403388  0.907566  0.432050  1
  O  O10  1  0.498644  0.498644  0.179798  1
  O  O11  1  0.107130  0.565624  0.089313  1
  O  O12  1  0.907566  0.403388  0.432050  1
  O  O13  1  0.998074  0.998074  0.832915  1
  O  O14  1  0.596612  0.092433  0.567950  1
  O  O15  1  0.501356  0.501356  0.820202  1
  O  O16  1  0.565624  0.107130  0.089313  1
  O  O17  1  0.434376  0.892870  0.910687  1
  O  O18  1  0.892870  0.434376  0.910687  1
