# generated using pymatgen
data_Zr4MnAl5Os2
_symmetry_space_group_name_H-M   'P 1'
_cell_length_a   5.27019200
_cell_length_b   5.23554584
_cell_length_c   8.53491200
_cell_angle_alpha   90.00000000
_cell_angle_beta   90.00000000
_cell_angle_gamma   120.21914720
_symmetry_Int_Tables_number   1
_chemical_formula_structural   Zr4MnAl5Os2
_chemical_formula_sum   'Zr4 Mn1 Al5 Os2'
_cell_volume   203.49549589
_cell_formula_units_Z   1
loop_
 _symmetry_equiv_pos_site_id
 _symmetry_equiv_pos_as_xyz
  1  'x, y, z'
loop_
 _atom_site_type_symbol
 _atom_site_label
 _atom_site_symmetry_multiplicity
 _atom_site_fract_x
 _atom_site_fract_y
 _atom_site_fract_z
 _atom_site_occupancy
  Zr  Zr0  1  0.668337  0.336673  0.061648  1
  Zr  Zr1  1  0.668337  0.336673  0.438352  1
  Zr  Zr2  1  0.331745  0.663491  0.551210  1
  Zr  Zr3  1  0.331745  0.663491  0.948791  1
  Mn  Mn4  1  0.166730  0.333461  0.250000  1
  Al  Al5  1  0.167022  0.829795  0.250000  1
  Al  Al6  1  0.662773  0.829795  0.250000  1
  Al  Al7  1  0.332424  0.166843  0.750000  1
  Al  Al8  1  0.834420  0.166843  0.750000  1
  Al  Al9  1  0.833628  0.667257  0.750000  1
  Os  Os10  1  0.001418  0.002836  0.001498  1
  Os  Os11  1  0.001418  0.002836  0.498502  1
