# generated using pymatgen
data_Tb2Sm6Be3Si12Pt
_symmetry_space_group_name_H-M   'P 1'
_cell_length_a   7.98061100
_cell_length_b   7.98061123
_cell_length_c   8.34916700
_cell_angle_alpha   90.00000000
_cell_angle_beta   90.00000000
_cell_angle_gamma   119.99998659
_symmetry_Int_Tables_number   1
_chemical_formula_structural   Tb2Sm6Be3Si12Pt
_chemical_formula_sum   'Tb2 Sm6 Be3 Si12 Pt1'
_cell_volume   460.51749739
_cell_formula_units_Z   1
loop_
 _symmetry_equiv_pos_site_id
 _symmetry_equiv_pos_as_xyz
  1  'x, y, z'
loop_
 _atom_site_type_symbol
 _atom_site_label
 _atom_site_symmetry_multiplicity
 _atom_site_fract_x
 _atom_site_fract_y
 _atom_site_fract_z
 _atom_site_occupancy
  Tb  Tb0  1  0.000000  0.000000  0.750565  1
  Tb  Tb1  1  0.000000  0.000000  0.249478  1
  Sm  Sm2  1  0.498721  0.501279  0.752443  1
  Sm  Sm3  1  0.498801  0.501199  0.247577  1
  Sm  Sm4  1  0.002559  0.501279  0.752443  1
  Sm  Sm5  1  0.002400  0.501199  0.247577  1
  Sm  Sm6  1  0.498721  0.997441  0.752443  1
  Sm  Sm7  1  0.498801  0.997600  0.247577  1
  Be  Be8  1  0.666667  0.333333  0.999283  1
  Be  Be9  1  0.333333  0.666667  0.000716  1
  Be  Be10  1  0.333333  0.666667  0.499687  1
  Si  Si11  1  0.828002  0.171998  0.000092  1
  Si  Si12  1  0.172179  0.827821  0.999966  1
  Si  Si13  1  0.343996  0.171998  0.000092  1
  Si  Si14  1  0.170800  0.829200  0.499906  1
  Si  Si15  1  0.655642  0.827821  0.999966  1
  Si  Si16  1  0.834548  0.165452  0.500109  1
  Si  Si17  1  0.828002  0.656004  0.000092  1
  Si  Si18  1  0.658400  0.829200  0.499906  1
  Si  Si19  1  0.172179  0.344358  0.999966  1
  Si  Si20  1  0.330904  0.165452  0.500109  1
  Si  Si21  1  0.170800  0.341600  0.499906  1
  Si  Si22  1  0.834548  0.669096  0.500109  1
  Pt  Pt23  1  0.666667  0.333333  0.499994  1
