# generated using pymatgen
data_YSc5Al24Os5Pd3
_symmetry_space_group_name_H-M   'P 1'
_cell_length_a   8.75829627
_cell_length_b   8.77679339
_cell_length_c   9.46207989
_cell_angle_alpha   90.33930217
_cell_angle_beta   89.99293813
_cell_angle_gamma   120.34246201
_symmetry_Int_Tables_number   1
_chemical_formula_structural   YSc5Al24Os5Pd3
_chemical_formula_sum   'Y1 Sc5 Al24 Os5 Pd3'
_cell_volume   627.70223102
_cell_formula_units_Z   1
loop_
 _symmetry_equiv_pos_site_id
 _symmetry_equiv_pos_as_xyz
  1  'x, y, z'
loop_
 _atom_site_type_symbol
 _atom_site_label
 _atom_site_symmetry_multiplicity
 _atom_site_fract_x
 _atom_site_fract_y
 _atom_site_fract_z
 _atom_site_occupancy
  Y  Y0  1  0.195453  0.379064  0.252523  1
  Sc  Sc1  1  0.799544  0.617267  0.746951  1
  Sc  Sc2  1  0.608453  0.799288  0.252446  1
  Sc  Sc3  1  0.387804  0.198851  0.748034  1
  Sc  Sc4  1  0.197102  0.811763  0.252406  1
  Sc  Sc5  1  0.804539  0.186371  0.747442  1
  Al  Al6  1  0.336184  0.666907  0.036869  1
  Al  Al7  1  0.666605  0.336767  0.953811  1
  Al  Al8  1  0.663465  0.332437  0.542150  1
  Al  Al9  1  0.338910  0.671307  0.466565  1
  Al  Al10  1  0.167638  0.326886  0.581135  1
  Al  Al11  1  0.833144  0.673582  0.424239  1
  Al  Al12  1  0.671962  0.837484  0.576047  1
  Al  Al13  1  0.832941  0.673801  0.076484  1
  Al  Al14  1  0.331335  0.163636  0.426954  1
  Al  Al15  1  0.167556  0.326232  0.918314  1
  Al  Al16  1  0.167480  0.843676  0.579231  1
  Al  Al17  1  0.329775  0.168000  0.075222  1
  Al  Al18  1  0.830614  0.156540  0.423157  1
  Al  Al19  1  0.673868  0.832537  0.921479  1
  Al  Al20  1  0.836670  0.161993  0.078628  1
  Al  Al21  1  0.160306  0.837636  0.918477  1
  Al  Al22  1  0.560112  0.120603  0.252590  1
  Al  Al23  1  0.439503  0.879552  0.748649  1
  Al  Al24  1  0.876629  0.439779  0.249502  1
  Al  Al25  1  0.117636  0.559614  0.750344  1
  Al  Al26  1  0.564292  0.438800  0.249584  1
  Al  Al27  1  0.440037  0.561830  0.750311  1
  Al  Al28  1  0.994989  0.987223  0.250107  1
  Al  Al29  1  0.999032  0.000545  0.749670  1
  Os  Os30  1  0.500928  0.001551  0.501617  1
  Os  Os31  1  0.501508  0.500816  0.998903  1
  Os  Os32  1  0.501662  0.501309  0.500967  1
  Os  Os33  1  0.000847  0.001466  0.000032  1
  Os  Os34  1  0.000920  0.001481  0.499677  1
  Pd  Pd35  1  0.500736  0.001311  0.999409  1
  Pd  Pd36  1  0.999953  0.500913  0.999719  1
  Pd  Pd37  1  0.999870  0.501178  0.500359  1
