# generated using pymatgen
data_Pr3Nd7Si5Bi
_symmetry_space_group_name_H-M   'P 1'
_cell_length_a   7.89334651
_cell_length_b   7.89316946
_cell_length_c   9.07416800
_cell_angle_alpha   115.77374448
_cell_angle_beta   115.79613106
_cell_angle_gamma   90.00046319
_symmetry_Int_Tables_number   1
_chemical_formula_structural   Pr3Nd7Si5Bi
_chemical_formula_sum   'Pr3 Nd7 Si5 Bi1'
_cell_volume   445.71757883
_cell_formula_units_Z   1
loop_
 _symmetry_equiv_pos_site_id
 _symmetry_equiv_pos_as_xyz
  1  'x, y, z'
loop_
 _atom_site_type_symbol
 _atom_site_label
 _atom_site_symmetry_multiplicity
 _atom_site_fract_x
 _atom_site_fract_y
 _atom_site_fract_z
 _atom_site_occupancy
  Pr  Pr0  1  0.675706  0.523947  0.715246  1
  Pr  Pr1  1  0.191777  0.675059  0.715363  1
  Pr  Pr2  1  0.524827  0.041511  0.716243  1
  Nd  Nd3  1  0.501603  0.501413  0.002908  1
  Nd  Nd4  1  0.999083  0.999058  0.998052  1
  Nd  Nd5  1  0.974733  0.824050  0.282948  1
  Nd  Nd6  1  0.307505  0.458296  0.283035  1
  Nd  Nd7  1  0.824239  0.307806  0.283612  1
  Nd  Nd8  1  0.457895  0.974010  0.282493  1
  Nd  Nd9  1  0.041813  0.193939  0.718131  1
  Si  Si10  1  0.247101  0.247214  0.496528  1
  Si  Si11  1  0.616658  0.885319  0.002013  1
  Si  Si12  1  0.384389  0.117333  0.001713  1
  Si  Si13  1  0.885410  0.384610  0.002126  1
  Si  Si14  1  0.117198  0.616243  0.001214  1
  Bi  Bi15  1  0.750063  0.750193  0.498373  1
