# generated using pymatgen
data_Er4Si3Ir3Rh
_symmetry_space_group_name_H-M   'P 1'
_cell_length_a   10.65671576
_cell_length_b   10.65671495
_cell_length_c   7.68658787
_cell_angle_alpha   71.72961235
_cell_angle_beta   71.72961144
_cell_angle_gamma   29.90830860
_symmetry_Int_Tables_number   1
_chemical_formula_structural   Er4Si3Ir3Rh
_chemical_formula_sum   'Er8 Si6 Ir6 Rh2'
_cell_volume   411.70327814
_cell_formula_units_Z   2
loop_
 _symmetry_equiv_pos_site_id
 _symmetry_equiv_pos_as_xyz
  1  'x, y, z'
loop_
 _atom_site_type_symbol
 _atom_site_label
 _atom_site_symmetry_multiplicity
 _atom_site_fract_x
 _atom_site_fract_y
 _atom_site_fract_z
 _atom_site_occupancy
  Er  Er0  1  0.211274  0.448367  0.399799  1
  Er  Er1  1  0.551633  0.788726  0.100201  1
  Er  Er2  1  0.448146  0.211020  0.902489  1
  Er  Er3  1  0.927382  0.211421  0.329232  1
  Er  Er4  1  0.788579  0.072618  0.170768  1
  Er  Er5  1  0.071561  0.790021  0.669866  1
  Er  Er6  1  0.209979  0.928439  0.830134  1
  Er  Er7  1  0.788980  0.551854  0.597511  1
  Si  Si8  1  0.604613  0.395387  0.750000  1
  Si  Si9  1  0.395166  0.604834  0.250000  1
  Si  Si10  1  0.299547  0.043684  0.443758  1
  Si  Si11  1  0.956316  0.700453  0.056242  1
  Si  Si12  1  0.702198  0.954525  0.556570  1
  Si  Si13  1  0.045475  0.297802  0.943430  1
  Ir  Ir14  1  0.285011  0.591533  0.025921  1
  Ir  Ir15  1  0.590873  0.284843  0.526272  1
  Ir  Ir16  1  0.715157  0.409127  0.973728  1
  Ir  Ir17  1  0.069358  0.370612  0.193016  1
  Ir  Ir18  1  0.629388  0.930642  0.306984  1
  Ir  Ir19  1  0.408467  0.714989  0.474079  1
  Rh  Rh20  1  0.929929  0.629033  0.807807  1
  Rh  Rh21  1  0.370967  0.070071  0.692193  1
