# generated using pymatgen
data_TiB2Mo4P
_symmetry_space_group_name_H-M   'P 1'
_cell_length_a   6.00195394
_cell_length_b   6.00195476
_cell_length_c   6.97350193
_cell_angle_alpha   115.48914440
_cell_angle_beta   115.48914332
_cell_angle_gamma   90.00000046
_symmetry_Int_Tables_number   1
_chemical_formula_structural   TiB2Mo4P
_chemical_formula_sum   'Ti2 B4 Mo8 P2'
_cell_volume   199.33051089
_cell_formula_units_Z   2
loop_
 _symmetry_equiv_pos_site_id
 _symmetry_equiv_pos_as_xyz
  1  'x, y, z'
loop_
 _atom_site_type_symbol
 _atom_site_label
 _atom_site_symmetry_multiplicity
 _atom_site_fract_x
 _atom_site_fract_y
 _atom_site_fract_z
 _atom_site_occupancy
  Ti  Ti0  1  0.500000  0.500000  0.000000  1
  Ti  Ti1  1  0.000000  0.000000  0.000000  1
  B  B2  1  0.382899  0.882899  0.000000  1
  B  B3  1  0.617101  0.117101  0.000000  1
  B  B4  1  0.117101  0.382899  0.000000  1
  B  B5  1  0.882899  0.617101  0.000000  1
  Mo  Mo6  1  0.027501  0.527501  0.720759  1
  Mo  Mo7  1  0.693258  0.193258  0.720759  1
  Mo  Mo8  1  0.193258  0.027501  0.720759  1
  Mo  Mo9  1  0.527501  0.693258  0.720759  1
  Mo  Mo10  1  0.972499  0.472499  0.279241  1
  Mo  Mo11  1  0.306742  0.806742  0.279241  1
  Mo  Mo12  1  0.806742  0.972499  0.279241  1
  Mo  Mo13  1  0.472499  0.306742  0.279241  1
  P  P14  1  0.250000  0.250000  0.500000  1
  P  P15  1  0.750000  0.750000  0.500000  1
