# generated using pymatgen
data_Er3Bi5O14
_symmetry_space_group_name_H-M   'P 1'
_cell_length_a   6.61043136
_cell_length_b   6.72336446
_cell_length_c   7.77505017
_cell_angle_alpha   106.72440321
_cell_angle_beta   89.50846359
_cell_angle_gamma   98.99669471
_symmetry_Int_Tables_number   1
_chemical_formula_structural   Er3Bi5O14
_chemical_formula_sum   'Er3 Bi5 O14'
_cell_volume   326.62608802
_cell_formula_units_Z   1
loop_
 _symmetry_equiv_pos_site_id
 _symmetry_equiv_pos_as_xyz
  1  'x, y, z'
loop_
 _atom_site_type_symbol
 _atom_site_label
 _atom_site_symmetry_multiplicity
 _atom_site_fract_x
 _atom_site_fract_y
 _atom_site_fract_z
 _atom_site_occupancy
  Er  Er0  1  0.462299  0.001979  0.252243  1
  Er  Er1  1  0.538549  0.994622  0.751960  1
  Er  Er2  1  0.263601  0.536840  0.885154  1
  Bi  Bi3  1  0.002972  0.007860  0.502688  1
  Bi  Bi4  1  0.004465  0.001115  0.998958  1
  Bi  Bi5  1  0.736408  0.476241  0.114767  1
  Bi  Bi6  1  0.721067  0.464016  0.614822  1
  Bi  Bi7  1  0.266913  0.528326  0.390716  1
  O  O8  1  0.448687  0.653237  0.163754  1
  O  O9  1  0.536000  0.341932  0.823972  1
  O  O10  1  0.305550  0.919306  0.950916  1
  O  O11  1  0.697614  0.053548  0.050151  1
  O  O12  1  0.301675  0.922813  0.514466  1
  O  O13  1  0.699498  0.081361  0.488905  1
  O  O14  1  0.531546  0.353826  0.348988  1
  O  O15  1  0.454658  0.644155  0.660787  1
  O  O16  1  0.938609  0.667221  0.956110  1
  O  O17  1  0.086518  0.325857  0.031095  1
  O  O18  1  0.095480  0.336521  0.626330  1
  O  O19  1  0.905554  0.681348  0.372435  1
  O  O20  1  0.873369  0.927892  0.731627  1
  O  O21  1  0.128967  0.079985  0.269157  1
