# generated using pymatgen
data_La3Se3N
_symmetry_space_group_name_H-M   'P 1'
_cell_length_a   4.23684500
_cell_length_b   13.08993300
_cell_length_c   13.75559700
_cell_angle_alpha   90.00000000
_cell_angle_beta   90.00000000
_cell_angle_gamma   90.00000000
_symmetry_Int_Tables_number   1
_chemical_formula_structural   La3Se3N
_chemical_formula_sum   'La12 Se12 N4'
_cell_volume   762.88564596
_cell_formula_units_Z   4
loop_
 _symmetry_equiv_pos_site_id
 _symmetry_equiv_pos_as_xyz
  1  'x, y, z'
loop_
 _atom_site_type_symbol
 _atom_site_label
 _atom_site_symmetry_multiplicity
 _atom_site_fract_x
 _atom_site_fract_y
 _atom_site_fract_z
 _atom_site_occupancy
  La  La0  1  0.250000  0.710679  0.363276  1
  La  La1  1  0.750000  0.930349  0.633010  1
  La  La2  1  0.750000  0.789321  0.863276  1
  La  La3  1  0.750000  0.430349  0.866990  1
  La  La4  1  0.750000  0.958982  0.151520  1
  La  La5  1  0.250000  0.210679  0.136724  1
  La  La6  1  0.750000  0.458982  0.348480  1
  La  La7  1  0.250000  0.069651  0.366990  1
  La  La8  1  0.750000  0.289321  0.636724  1
  La  La9  1  0.250000  0.541018  0.651520  1
  La  La10  1  0.250000  0.041018  0.848480  1
  La  La11  1  0.250000  0.569651  0.133010  1
  Se  Se12  1  0.750000  0.631080  0.497360  1
  Se  Se13  1  0.750000  0.131080  0.002640  1
  Se  Se14  1  0.250000  0.593629  0.892291  1
  Se  Se15  1  0.750000  0.723047  0.193181  1
  Se  Se16  1  0.750000  0.906371  0.392291  1
  Se  Se17  1  0.250000  0.776953  0.693181  1
  Se  Se18  1  0.750000  0.406371  0.107709  1
  Se  Se19  1  0.250000  0.093629  0.607709  1
  Se  Se20  1  0.250000  0.276953  0.806819  1
  Se  Se21  1  0.250000  0.868920  0.997360  1
  Se  Se22  1  0.250000  0.368920  0.502640  1
  Se  Se23  1  0.750000  0.223047  0.306819  1
  N  N24  1  0.250000  0.542737  0.297177  1
  N  N25  1  0.750000  0.957263  0.797177  1
  N  N26  1  0.250000  0.042737  0.202823  1
  N  N27  1  0.750000  0.457263  0.702823  1
