# generated using pymatgen
data_TmLu3Mo4F28
_symmetry_space_group_name_H-M   'P 1'
_cell_length_a   5.53494201
_cell_length_b   8.74718682
_cell_length_c   11.77473200
_cell_angle_alpha   62.59289851
_cell_angle_beta   89.99592145
_cell_angle_gamma   90.00351996
_symmetry_Int_Tables_number   1
_chemical_formula_structural   TmLu3Mo4F28
_chemical_formula_sum   'Tm1 Lu3 Mo4 F28'
_cell_volume   506.08942861
_cell_formula_units_Z   1
loop_
 _symmetry_equiv_pos_site_id
 _symmetry_equiv_pos_as_xyz
  1  'x, y, z'
loop_
 _atom_site_type_symbol
 _atom_site_label
 _atom_site_symmetry_multiplicity
 _atom_site_fract_x
 _atom_site_fract_y
 _atom_site_fract_z
 _atom_site_occupancy
  Tm  Tm0  1  0.753868  0.815184  0.768083  1
  Lu  Lu1  1  0.746607  0.815264  0.268369  1
  Lu  Lu2  1  0.246476  0.185263  0.231694  1
  Lu  Lu3  1  0.253940  0.185775  0.731717  1
  Mo  Mo4  1  0.744288  0.273502  0.454082  1
  Mo  Mo5  1  0.244639  0.727114  0.046428  1
  Mo  Mo6  1  0.255041  0.726860  0.544663  1
  Mo  Mo7  1  0.755273  0.272140  0.954777  1
  F  F8  1  0.469542  0.704648  0.919772  1
  F  F9  1  0.970962  0.294967  0.580390  1
  F  F10  1  0.528821  0.295099  0.080512  1
  F  F11  1  0.029347  0.704153  0.418886  1
  F  F12  1  0.449207  0.282274  0.547212  1
  F  F13  1  0.950099  0.717135  0.953982  1
  F  F14  1  0.551762  0.717764  0.452460  1
  F  F15  1  0.050447  0.281978  0.047661  1
  F  F16  1  0.774196  0.523581  0.856541  1
  F  F17  1  0.272882  0.475164  0.643389  1
  F  F18  1  0.227539  0.475378  0.144357  1
  F  F19  1  0.726946  0.524974  0.355681  1
  F  F20  1  0.760513  0.019860  0.053280  1
  F  F21  1  0.260302  0.979290  0.446637  1
  F  F22  1  0.239251  0.979321  0.947045  1
  F  F23  1  0.738507  0.021122  0.552558  1
  F  F24  1  0.974665  0.731003  0.646089  1
  F  F25  1  0.475895  0.268751  0.852432  1
  F  F26  1  0.022291  0.267972  0.351670  1
  F  F27  1  0.522530  0.732325  0.148688  1
  F  F28  1  0.029671  0.745756  0.178566  1
  F  F29  1  0.528129  0.254828  0.322437  1
  F  F30  1  0.970745  0.253874  0.822665  1
  F  F31  1  0.468468  0.744534  0.677192  1
  F  F32  1  0.427244  0.971196  0.234740  1
  F  F33  1  0.927139  0.029209  0.265439  1
  F  F34  1  0.574819  0.032014  0.765854  1
  F  F35  1  0.077949  0.970727  0.734047  1
