# generated using pymatgen
data_Pr13Th3(HgIr)4
_symmetry_space_group_name_H-M   'P 1'
_cell_length_a   10.02327392
_cell_length_b   10.02627613
_cell_length_c   10.02627800
_cell_angle_alpha   60.00000043
_cell_angle_beta   59.99009177
_cell_angle_gamma   59.99008754
_symmetry_Int_Tables_number   1
_chemical_formula_structural   Pr13Th3(HgIr)4
_chemical_formula_sum   'Pr13 Th3 Hg4 Ir4'
_cell_volume   712.37543442
_cell_formula_units_Z   1
loop_
 _symmetry_equiv_pos_site_id
 _symmetry_equiv_pos_as_xyz
  1  'x, y, z'
loop_
 _atom_site_type_symbol
 _atom_site_label
 _atom_site_symmetry_multiplicity
 _atom_site_fract_x
 _atom_site_fract_y
 _atom_site_fract_z
 _atom_site_occupancy
  Pr  Pr0  1  0.951856  0.349381  0.349381  1
  Pr  Pr1  1  0.808435  0.192468  0.192468  1
  Pr  Pr2  1  0.192734  0.807816  0.807816  1
  Pr  Pr3  1  0.192734  0.807816  0.191635  1
  Pr  Pr4  1  0.808435  0.192468  0.806629  1
  Pr  Pr5  1  0.192734  0.191635  0.807816  1
  Pr  Pr6  1  0.808435  0.806629  0.192468  1
  Pr  Pr7  1  0.937547  0.563413  0.563413  1
  Pr  Pr8  1  0.561573  0.938010  0.938010  1
  Pr  Pr9  1  0.561573  0.938010  0.562407  1
  Pr  Pr10  1  0.937547  0.563413  0.935625  1
  Pr  Pr11  1  0.561573  0.562407  0.938010  1
  Pr  Pr12  1  0.937547  0.935625  0.563413  1
  Th  Th13  1  0.344291  0.345803  0.345803  1
  Th  Th14  1  0.344291  0.345803  0.964101  1
  Th  Th15  1  0.344291  0.964101  0.345803  1
  Hg  Hg16  1  0.581284  0.583115  0.583115  1
  Hg  Hg17  1  0.581284  0.583115  0.252487  1
  Hg  Hg18  1  0.581284  0.252487  0.583115  1
  Hg  Hg19  1  0.250725  0.583091  0.583091  1
  Ir  Ir20  1  0.151826  0.140346  0.140346  1
  Ir  Ir21  1  0.151826  0.140346  0.567481  1
  Ir  Ir22  1  0.151826  0.567481  0.140346  1
  Ir  Ir23  1  0.564344  0.145218  0.145218  1
