# generated using pymatgen
data_Y10PtRhPb6
_symmetry_space_group_name_H-M   'P 1'
_cell_length_a   9.23737000
_cell_length_b   9.23736943
_cell_length_c   6.87146700
_cell_angle_alpha   90.00000000
_cell_angle_beta   90.00000000
_cell_angle_gamma   119.99999489
_symmetry_Int_Tables_number   1
_chemical_formula_structural   Y10PtRhPb6
_chemical_formula_sum   'Y10 Pt1 Rh1 Pb6'
_cell_volume   507.78137969
_cell_formula_units_Z   1
loop_
 _symmetry_equiv_pos_site_id
 _symmetry_equiv_pos_as_xyz
  1  'x, y, z'
loop_
 _atom_site_type_symbol
 _atom_site_label
 _atom_site_symmetry_multiplicity
 _atom_site_fract_x
 _atom_site_fract_y
 _atom_site_fract_z
 _atom_site_occupancy
  Y  Y0  1  0.000000  0.757936  0.756318  1
  Y  Y1  1  0.333333  0.666667  0.500000  1
  Y  Y2  1  0.333333  0.666667  0.000000  1
  Y  Y3  1  0.757936  0.757936  0.243682  1
  Y  Y4  1  0.242064  0.242064  0.756318  1
  Y  Y5  1  0.000000  0.242064  0.243682  1
  Y  Y6  1  0.666667  0.333333  0.500000  1
  Y  Y7  1  0.242064  0.000000  0.243682  1
  Y  Y8  1  0.757936  0.000000  0.756318  1
  Y  Y9  1  0.666667  0.333333  0.000000  1
  Pt  Pt10  1  0.000000  0.000000  0.500000  1
  Rh  Rh11  1  0.000000  0.000000  0.000000  1
  Pb  Pb12  1  0.400871  0.000000  0.749324  1
  Pb  Pb13  1  0.400871  0.400871  0.250676  1
  Pb  Pb14  1  0.599129  0.599129  0.749324  1
  Pb  Pb15  1  0.000000  0.599129  0.250676  1
  Pb  Pb16  1  0.000000  0.400871  0.749324  1
  Pb  Pb17  1  0.599129  0.000000  0.250676  1
