# generated using pymatgen
data_InFeH8(NCl4)2
_symmetry_space_group_name_H-M   'P 1'
_cell_length_a   9.18913981
_cell_length_b   9.18913909
_cell_length_c   9.18913958
_cell_angle_alpha   134.08033067
_cell_angle_beta   134.08032566
_cell_angle_gamma   66.96256928
_symmetry_Int_Tables_number   1
_chemical_formula_structural   InFeH8(NCl4)2
_chemical_formula_sum   'In1 Fe1 H8 N2 Cl8'
_cell_volume   393.91740959
_cell_formula_units_Z   1
loop_
 _symmetry_equiv_pos_site_id
 _symmetry_equiv_pos_as_xyz
  1  'x, y, z'
loop_
 _atom_site_type_symbol
 _atom_site_label
 _atom_site_symmetry_multiplicity
 _atom_site_fract_x
 _atom_site_fract_y
 _atom_site_fract_z
 _atom_site_occupancy
  In  In0  1  0.625001  0.875000  0.750001  1
  Fe  Fe1  1  0.375001  0.125000  0.250001  1
  H  H2  1  0.798440  0.679648  0.149004  1
  H  H3  1  0.030645  0.649436  0.350996  1
  H  H4  1  0.177218  0.530889  0.879732  1
  H  H5  1  0.151158  0.297487  0.620269  1
  H  H6  1  0.202512  0.322783  0.853671  1
  H  H7  1  0.969112  0.348842  0.646329  1
  H  H8  1  0.820353  0.469355  0.118791  1
  H  H9  1  0.850565  0.701561  0.381211  1
  N  N10  1  0.875001  0.625000  0.250001  1
  N  N11  1  0.125001  0.375000  0.750001  1
  Cl  Cl12  1  0.300483  0.642146  0.362643  1
  Cl  Cl13  1  0.562161  0.199518  0.841664  1
  Cl  Cl14  1  0.857855  0.720497  0.658338  1
  Cl  Cl15  1  0.239758  0.066483  0.894600  1
  Cl  Cl16  1  0.671883  0.345157  0.605401  1
  Cl  Cl17  1  0.779503  0.937841  0.137357  1
  Cl  Cl18  1  0.154842  0.260243  0.326725  1
  Cl  Cl19  1  0.433518  0.828117  0.173275  1
