# generated using pymatgen
data_Y6Ga4NiRu3
_symmetry_space_group_name_H-M   'P 1'
_cell_length_a   5.61330846
_cell_length_b   7.68462612
_cell_length_c   13.78830900
_cell_angle_alpha   90.07742206
_cell_angle_beta   90.25469940
_cell_angle_gamma   90.08287776
_symmetry_Int_Tables_number   1
_chemical_formula_structural   Y6Ga4NiRu3
_chemical_formula_sum   'Y12 Ga8 Ni2 Ru6'
_cell_volume   594.76788828
_cell_formula_units_Z   2
loop_
 _symmetry_equiv_pos_site_id
 _symmetry_equiv_pos_as_xyz
  1  'x, y, z'
loop_
 _atom_site_type_symbol
 _atom_site_label
 _atom_site_symmetry_multiplicity
 _atom_site_fract_x
 _atom_site_fract_y
 _atom_site_fract_z
 _atom_site_occupancy
  Y  Y0  1  0.617556  0.254927  0.252921  1
  Y  Y1  1  0.382444  0.745073  0.747079  1
  Y  Y2  1  0.374508  0.765231  0.249172  1
  Y  Y3  1  0.625492  0.234769  0.750828  1
  Y  Y4  1  0.151513  0.394973  0.094273  1
  Y  Y5  1  0.848487  0.605027  0.905727  1
  Y  Y6  1  0.850843  0.596357  0.597966  1
  Y  Y7  1  0.848237  0.897343  0.402902  1
  Y  Y8  1  0.149157  0.403643  0.402034  1
  Y  Y9  1  0.151763  0.102657  0.597098  1
  Y  Y10  1  0.147785  0.095337  0.904772  1
  Y  Y11  1  0.852215  0.904663  0.095228  1
  Ga  Ga12  1  0.122185  0.107443  0.249292  1
  Ga  Ga13  1  0.877815  0.892557  0.750708  1
  Ga  Ga14  1  0.868593  0.603039  0.242483  1
  Ga  Ga15  1  0.131407  0.396961  0.757517  1
  Ga  Ga16  1  0.639364  0.257197  0.997985  1
  Ga  Ga17  1  0.360636  0.742803  0.002015  1
  Ga  Ga18  1  0.364234  0.747138  0.500430  1
  Ga  Ga19  1  0.635766  0.252862  0.499570  1
  Ni  Ni20  1  0.358965  0.465165  0.907980  1
  Ni  Ni21  1  0.641035  0.534835  0.092020  1
  Ru  Ru22  1  0.354611  0.042820  0.091451  1
  Ru  Ru23  1  0.645389  0.957180  0.908549  1
  Ru  Ru24  1  0.645889  0.964677  0.593686  1
  Ru  Ru25  1  0.642460  0.535329  0.400867  1
  Ru  Ru26  1  0.354111  0.035323  0.406314  1
  Ru  Ru27  1  0.357540  0.464671  0.599133  1
