# generated using pymatgen
data_Ac2Co17Si8Ni
_symmetry_space_group_name_H-M   'P 1'
_cell_length_a   8.01242281
_cell_length_b   8.01242143
_cell_length_c   7.99939054
_cell_angle_alpha   121.78166756
_cell_angle_beta   121.19476802
_cell_angle_gamma   87.53931339
_symmetry_Int_Tables_number   1
_chemical_formula_structural   Ac2Co17Si8Ni
_chemical_formula_sum   'Ac2 Co17 Si8 Ni1'
_cell_volume   354.28178090
_cell_formula_units_Z   1
loop_
 _symmetry_equiv_pos_site_id
 _symmetry_equiv_pos_as_xyz
  1  'x, y, z'
loop_
 _atom_site_type_symbol
 _atom_site_label
 _atom_site_symmetry_multiplicity
 _atom_site_fract_x
 _atom_site_fract_y
 _atom_site_fract_z
 _atom_site_occupancy
  Ac  Ac0  1  0.750592  0.750919  0.999428  1
  Ac  Ac1  1  0.248510  0.248837  0.999428  1
  Co  Co2  1  0.808026  0.309137  0.756426  1
  Co  Co3  1  0.308030  0.549787  0.498771  1
  Co  Co4  1  0.193295  0.691182  0.244063  1
  Co  Co5  1  0.690810  0.447877  0.499030  1
  Co  Co6  1  0.948985  0.190741  0.498771  1
  Co  Co7  1  0.068105  0.195202  0.263307  1
  Co  Co8  1  0.298110  0.428884  0.726996  1
  Co  Co9  1  0.051152  0.808220  0.499030  1
  Co  Co10  1  0.567652  0.301197  0.868849  1
  Co  Co11  1  0.447289  0.948400  0.756426  1
  Co  Co12  1  0.796585  0.079118  0.875702  1
  Co  Co13  1  0.430441  0.698153  0.128594  1
  Co  Co14  1  0.700584  0.569529  0.270113  1
  Co  Co15  1  0.207829  0.931868  0.139697  1
  Co  Co16  1  0.999618  0.498243  0.497861  1
  Co  Co17  1  0.552881  0.050767  0.244063  1
  Co  Co18  1  0.502200  0.998760  0.500960  1
  Si  Si19  1  0.285867  0.788083  0.836172  1
  Si  Si20  1  0.788954  0.952452  0.502300  1
  Si  Si21  1  0.951193  0.453271  0.163261  1
  Si  Si22  1  0.453540  0.287202  0.501168  1
  Si  Si23  1  0.048090  0.550305  0.836172  1
  Si  Si24  1  0.213966  0.047628  0.501168  1
  Si  Si25  1  0.709990  0.212068  0.163261  1
  Si  Si26  1  0.549848  0.713347  0.502300  1
  Ni  Ni27  1  0.927859  0.798823  0.726682  1
