# generated using pymatgen
data_UCoOF5
_symmetry_space_group_name_H-M   'P 1'
_cell_length_a   5.73911731
_cell_length_b   5.91939713
_cell_length_c   5.76540400
_cell_angle_alpha   118.52143337
_cell_angle_beta   118.78789210
_cell_angle_gamma   91.74986828
_symmetry_Int_Tables_number   1
_chemical_formula_structural   UCoOF5
_chemical_formula_sum   'U1 Co1 O1 F5'
_cell_volume   141.93267223
_cell_formula_units_Z   1
loop_
 _symmetry_equiv_pos_site_id
 _symmetry_equiv_pos_as_xyz
  1  'x, y, z'
loop_
 _atom_site_type_symbol
 _atom_site_label
 _atom_site_symmetry_multiplicity
 _atom_site_fract_x
 _atom_site_fract_y
 _atom_site_fract_z
 _atom_site_occupancy
  U  U0  1  0.670192  0.984405  0.318082  1
  Co  Co1  1  0.147517  0.460350  0.317160  1
  O  O2  1  0.945535  0.218486  0.362508  1
  F  F3  1  0.360062  0.722420  0.268025  1
  F  F4  1  0.397619  0.228079  0.252974  1
  F  F5  1  0.461501  0.714418  0.801945  1
  F  F6  1  0.923412  0.725578  0.382441  1
  F  F7  1  0.855316  0.241499  0.830342  1
