# generated using pymatgen
data_Y3GaSn3Ru2
_symmetry_space_group_name_H-M   'P 1'
_cell_length_a   7.61309600
_cell_length_b   7.61309640
_cell_length_c   3.94379300
_cell_angle_alpha   90.00000000
_cell_angle_beta   90.00000000
_cell_angle_gamma   119.99999826
_symmetry_Int_Tables_number   1
_chemical_formula_structural   Y3GaSn3Ru2
_chemical_formula_sum   'Y3 Ga1 Sn3 Ru2'
_cell_volume   197.95541509
_cell_formula_units_Z   1
loop_
 _symmetry_equiv_pos_site_id
 _symmetry_equiv_pos_as_xyz
  1  'x, y, z'
loop_
 _atom_site_type_symbol
 _atom_site_label
 _atom_site_symmetry_multiplicity
 _atom_site_fract_x
 _atom_site_fract_y
 _atom_site_fract_z
 _atom_site_occupancy
  Y  Y0  1  0.396373  0.984079  0.500000  1
  Y  Y1  1  0.015921  0.412295  0.500000  1
  Y  Y2  1  0.587705  0.603627  0.500000  1
  Ga  Ga3  1  0.666667  0.333333  0.000000  1
  Sn  Sn4  1  0.739066  0.991245  0.000000  1
  Sn  Sn5  1  0.008755  0.747821  0.000000  1
  Sn  Sn6  1  0.252179  0.260934  0.000000  1
  Ru  Ru7  1  0.333333  0.666667  0.000000  1
  Ru  Ru8  1  0.000000  0.000000  0.500000  1
