# generated using pymatgen
data_NdSm(Ga4Ni9)2
_symmetry_space_group_name_H-M   'P 1'
_cell_length_a   8.13833801
_cell_length_b   8.13833833
_cell_length_c   8.13833702
_cell_angle_alpha   120.86101262
_cell_angle_beta   120.86100957
_cell_angle_gamma   88.51504308
_symmetry_Int_Tables_number   1
_chemical_formula_structural   NdSm(Ga4Ni9)2
_chemical_formula_sum   'Nd1 Sm1 Ga8 Ni18'
_cell_volume   376.04932323
_cell_formula_units_Z   1
loop_
 _symmetry_equiv_pos_site_id
 _symmetry_equiv_pos_as_xyz
  1  'x, y, z'
loop_
 _atom_site_type_symbol
 _atom_site_label
 _atom_site_symmetry_multiplicity
 _atom_site_fract_x
 _atom_site_fract_y
 _atom_site_fract_z
 _atom_site_occupancy
  Nd  Nd0  1  0.250000  0.250000  0.000000  1
  Sm  Sm1  1  0.750000  0.750000  0.000000  1
  Ga  Ga2  1  0.801107  0.301455  0.857945  1
  Ga  Ga3  1  0.443509  0.943161  0.142056  1
  Ga  Ga4  1  0.698895  0.556840  0.500349  1
  Ga  Ga5  1  0.056490  0.198545  0.499651  1
  Ga  Ga6  1  0.198546  0.698895  0.142056  1
  Ga  Ga7  1  0.556839  0.056490  0.857945  1
  Ga  Ga8  1  0.943161  0.801106  0.499651  1
  Ga  Ga9  1  0.301455  0.443510  0.500349  1
  Ni  Ni10  1  0.203708  0.064524  0.268453  1
  Ni  Ni11  1  0.796068  0.935255  0.731548  1
  Ni  Ni12  1  0.296291  0.564745  0.860814  1
  Ni  Ni13  1  0.703929  0.435476  0.139185  1
  Ni  Ni14  1  0.435478  0.296291  0.731548  1
  Ni  Ni15  1  0.564745  0.703929  0.268453  1
  Ni  Ni16  1  0.935255  0.203708  0.139187  1
  Ni  Ni17  1  0.064524  0.796069  0.860815  1
  Ni  Ni18  1  0.499999  0.000000  0.499999  1
  Ni  Ni19  1  0.000000  0.499999  0.499999  1
  Ni  Ni20  1  0.296201  0.795896  0.735153  1
  Ni  Ni21  1  0.060743  0.561049  0.264848  1
  Ni  Ni22  1  0.203800  0.938952  0.499695  1
  Ni  Ni23  1  0.439258  0.704105  0.500306  1
  Ni  Ni24  1  0.704105  0.203800  0.264848  1
  Ni  Ni25  1  0.938952  0.439258  0.735153  1
  Ni  Ni26  1  0.561049  0.296201  0.500306  1
  Ni  Ni27  1  0.795896  0.060743  0.499695  1
