# generated using pymatgen
data_Ba4Y(ReO6)2
_symmetry_space_group_name_H-M   'P 1'
_cell_length_a   10.14221067
_cell_length_b   10.14221072
_cell_length_c   10.14221121
_cell_angle_alpha   33.83743406
_cell_angle_beta   33.83743585
_cell_angle_gamma   33.83743370
_symmetry_Int_Tables_number   1
_chemical_formula_structural   Ba4Y(ReO6)2
_chemical_formula_sum   'Ba4 Y1 Re2 O12'
_cell_volume   288.27040435
_cell_formula_units_Z   1
loop_
 _symmetry_equiv_pos_site_id
 _symmetry_equiv_pos_as_xyz
  1  'x, y, z'
loop_
 _atom_site_type_symbol
 _atom_site_label
 _atom_site_symmetry_multiplicity
 _atom_site_fract_x
 _atom_site_fract_y
 _atom_site_fract_z
 _atom_site_occupancy
  Ba  Ba0  1  0.711735  0.711735  0.711735  1
  Ba  Ba1  1  0.288265  0.288265  0.288265  1
  Ba  Ba2  1  0.865866  0.865866  0.865866  1
  Ba  Ba3  1  0.134134  0.134134  0.134134  1
  Y  Y4  1  0.000000  0.000000  0.000000  1
  Re  Re5  1  0.578734  0.578734  0.578734  1
  Re  Re6  1  0.421266  0.421266  0.421266  1
  O  O7  1  0.224617  0.686147  0.224617  1
  O  O8  1  0.224617  0.224617  0.686147  1
  O  O9  1  0.686147  0.224617  0.224617  1
  O  O10  1  0.775383  0.313853  0.775383  1
  O  O11  1  0.775383  0.775383  0.313853  1
  O  O12  1  0.313853  0.775383  0.775383  1
  O  O13  1  0.388940  0.857926  0.388940  1
  O  O14  1  0.388940  0.388940  0.857926  1
  O  O15  1  0.857926  0.388940  0.388940  1
  O  O16  1  0.611060  0.142074  0.611060  1
  O  O17  1  0.611060  0.611060  0.142074  1
  O  O18  1  0.142074  0.611060  0.611060  1
