# generated using pymatgen
data_Nd2AsPt8
_symmetry_space_group_name_H-M   'P 1'
_cell_length_a   9.26160614
_cell_length_b   9.26160539
_cell_length_c   4.32234900
_cell_angle_alpha   90.00000000
_cell_angle_beta   90.00000000
_cell_angle_gamma   145.31598153
_symmetry_Int_Tables_number   1
_chemical_formula_structural   Nd2AsPt8
_chemical_formula_sum   'Nd2 As1 Pt8'
_cell_volume   210.98082035
_cell_formula_units_Z   1
loop_
 _symmetry_equiv_pos_site_id
 _symmetry_equiv_pos_as_xyz
  1  'x, y, z'
loop_
 _atom_site_type_symbol
 _atom_site_label
 _atom_site_symmetry_multiplicity
 _atom_site_fract_x
 _atom_site_fract_y
 _atom_site_fract_z
 _atom_site_occupancy
  Nd  Nd0  1  0.625796  0.376117  0.500000  1
  Nd  Nd1  1  0.376117  0.625796  0.500000  1
  As  As2  1  0.232014  0.232014  0.000000  1
  Pt  Pt3  1  0.104953  0.878244  0.000000  1
  Pt  Pt4  1  0.878244  0.104953  0.000000  1
  Pt  Pt5  1  0.487948  0.984385  0.000000  1
  Pt  Pt6  1  0.984385  0.487948  0.000000  1
  Pt  Pt7  1  0.195351  0.789580  0.500000  1
  Pt  Pt8  1  0.789580  0.195351  0.500000  1
  Pt  Pt9  1  0.987677  0.987677  0.500000  1
  Pt  Pt10  1  0.651535  0.651535  0.000000  1
