# generated using pymatgen
data_LuSc3(SiMo)4
_symmetry_space_group_name_H-M   'P 1'
_cell_length_a   3.54949000
_cell_length_b   7.10400901
_cell_length_c   8.25726896
_cell_angle_alpha   89.95091930
_cell_angle_beta   90.00000000
_cell_angle_gamma   90.00000000
_symmetry_Int_Tables_number   1
_chemical_formula_structural   LuSc3(SiMo)4
_chemical_formula_sum   'Lu1 Sc3 Si4 Mo4'
_cell_volume   208.21198856
_cell_formula_units_Z   1
loop_
 _symmetry_equiv_pos_site_id
 _symmetry_equiv_pos_as_xyz
  1  'x, y, z'
loop_
 _atom_site_type_symbol
 _atom_site_label
 _atom_site_symmetry_multiplicity
 _atom_site_fract_x
 _atom_site_fract_y
 _atom_site_fract_z
 _atom_site_occupancy
  Lu  Lu0  1  0.750000  0.456704  0.835304  1
  Sc  Sc1  1  0.250000  0.042370  0.333857  1
  Sc  Sc2  1  0.250000  0.543754  0.168297  1
  Sc  Sc3  1  0.750000  0.955758  0.665022  1
  Si  Si4  1  0.250000  0.253547  0.631938  1
  Si  Si5  1  0.250000  0.763409  0.863243  1
  Si  Si6  1  0.750000  0.743044  0.362995  1
  Si  Si7  1  0.750000  0.240806  0.139644  1
  Mo  Mo8  1  0.250000  0.124654  0.942097  1
  Mo  Mo9  1  0.250000  0.626605  0.558059  1
  Mo  Mo10  1  0.750000  0.874621  0.060595  1
  Mo  Mo11  1  0.750000  0.374729  0.438947  1
