# generated using pymatgen
data_Li30Si5GeAs2
_symmetry_space_group_name_H-M   'P 1'
_cell_length_a   9.14916889
_cell_length_b   9.16454339
_cell_length_c   9.14714243
_cell_angle_alpha   109.46945663
_cell_angle_beta   109.46387434
_cell_angle_gamma   109.46152261
_symmetry_Int_Tables_number   1
_chemical_formula_structural   Li30Si5GeAs2
_chemical_formula_sum   'Li30 Si5 Ge1 As2'
_cell_volume   590.55016128
_cell_formula_units_Z   1
loop_
 _symmetry_equiv_pos_site_id
 _symmetry_equiv_pos_as_xyz
  1  'x, y, z'
loop_
 _atom_site_type_symbol
 _atom_site_label
 _atom_site_symmetry_multiplicity
 _atom_site_fract_x
 _atom_site_fract_y
 _atom_site_fract_z
 _atom_site_occupancy
  Li  Li0  1  0.339043  0.806978  0.720880  1
  Li  Li1  1  0.118240  0.745794  0.871278  1
  Li  Li2  1  0.727450  0.342058  0.807742  1
  Li  Li3  1  0.617455  0.776221  0.585904  1
  Li  Li4  1  0.023463  0.911552  0.686690  1
  Li  Li5  1  0.085521  0.275974  0.116192  1
  Li  Li6  1  0.919416  0.693015  0.032536  1
  Li  Li7  1  0.273441  0.114086  0.087940  1
  Li  Li8  1  0.187619  0.412629  0.524369  1
  Li  Li9  1  0.776098  0.585945  0.615277  1
  Li  Li10  1  0.692235  0.031715  0.914098  1
  Li  Li11  1  0.534027  0.193795  0.418740  1
  Li  Li12  1  0.629343  0.379600  0.257652  1
  Li  Li13  1  0.464811  0.157715  0.879387  1
  Li  Li14  1  0.878527  0.126832  0.752951  1
  Li  Li15  1  0.972841  0.386364  0.660684  1
  Li  Li16  1  0.410907  0.527883  0.189887  1
  Li  Li17  1  0.113338  0.086487  0.274957  1
  Li  Li18  1  0.306666  0.840741  0.225665  1
  Li  Li19  1  0.756861  0.878040  0.127913  1
  Li  Li20  1  0.891449  0.474068  0.162663  1
  Li  Li21  1  0.588572  0.614121  0.773983  1
  Li  Li22  1  0.378297  0.657684  0.966561  1
  Li  Li23  1  0.809215  0.723252  0.341469  1
  Li  Li24  1  0.662645  0.972546  0.389722  1
  Li  Li25  1  0.158216  0.883136  0.469162  1
  Li  Li26  1  0.219505  0.307850  0.838874  1
  Li  Li27  1  0.370324  0.247179  0.619206  1
  Li  Li28  1  0.842680  0.224320  0.310384  1
  Li  Li29  1  0.249823  0.622873  0.374486  1
  Si  Si30  1  0.998994  0.083259  0.498716  1
  Si  Si31  1  0.998679  0.583360  0.498840  1
  Si  Si32  1  0.087855  0.501917  0.000441  1
  Si  Si33  1  0.417241  0.414700  0.414942  1
  Si  Si34  1  0.914674  0.914508  0.917122  1
  Ge  Ge35  1  0.500461  0.002185  0.588321  1
  As  As36  1  0.583539  0.499638  0.000257  1
  As  As37  1  0.500526  0.999979  0.084115  1
