# generated using pymatgen
data_TbDyLu2(B6Rh)2
_symmetry_space_group_name_H-M   'P 1'
_cell_length_a   3.62845100
_cell_length_b   9.11159703
_cell_length_c   11.46180004
_cell_angle_alpha   90.00964696
_cell_angle_beta   90.00000000
_cell_angle_gamma   90.00000000
_symmetry_Int_Tables_number   1
_chemical_formula_structural   TbDyLu2(B6Rh)2
_chemical_formula_sum   'Tb2 Dy2 Lu4 B24 Rh4'
_cell_volume   378.93837509
_cell_formula_units_Z   2
loop_
 _symmetry_equiv_pos_site_id
 _symmetry_equiv_pos_as_xyz
  1  'x, y, z'
loop_
 _atom_site_type_symbol
 _atom_site_label
 _atom_site_symmetry_multiplicity
 _atom_site_fract_x
 _atom_site_fract_y
 _atom_site_fract_z
 _atom_site_occupancy
  Tb  Tb0  1  0.500000  0.321773  0.413799  1
  Tb  Tb1  1  0.500000  0.678227  0.586201  1
  Dy  Dy2  1  0.500000  0.178288  0.913849  1
  Dy  Dy3  1  0.500000  0.821712  0.086151  1
  Lu  Lu4  1  0.500000  0.444413  0.126736  1
  Lu  Lu5  1  0.500000  0.555587  0.873264  1
  Lu  Lu6  1  0.500000  0.055614  0.626851  1
  Lu  Lu7  1  0.500000  0.944386  0.373149  1
  B  B8  1  0.000000  0.105379  0.471595  1
  B  B9  1  0.000000  0.894621  0.528405  1
  B  B10  1  0.000000  0.394273  0.971490  1
  B  B11  1  0.000000  0.605727  0.028510  1
  B  B12  1  0.000000  0.131969  0.316861  1
  B  B13  1  0.000000  0.868031  0.683139  1
  B  B14  1  0.000000  0.367837  0.817032  1
  B  B15  1  0.000000  0.632163  0.182968  1
  B  B16  1  0.000000  0.054454  0.065686  1
  B  B17  1  0.000000  0.945546  0.934314  1
  B  B18  1  0.000000  0.445453  0.565929  1
  B  B19  1  0.000000  0.554547  0.434071  1
  B  B20  1  0.000000  0.483119  0.285824  1
  B  B21  1  0.000000  0.516881  0.714176  1
  B  B22  1  0.000000  0.017093  0.786007  1
  B  B23  1  0.000000  0.982907  0.213993  1
  B  B24  1  0.000000  0.251193  0.080059  1
  B  B25  1  0.000000  0.748807  0.919941  1
  B  B26  1  0.000000  0.248710  0.580306  1
  B  B27  1  0.000000  0.751290  0.419694  1
  B  B28  1  0.000000  0.294843  0.235534  1
  B  B29  1  0.000000  0.705157  0.764466  1
  B  B30  1  0.000000  0.205030  0.735829  1
  B  B31  1  0.000000  0.794970  0.264171  1
  Rh  Rh32  1  0.500000  0.140306  0.179903  1
  Rh  Rh33  1  0.500000  0.859694  0.820097  1
  Rh  Rh34  1  0.500000  0.359376  0.680280  1
  Rh  Rh35  1  0.500000  0.640624  0.319720  1
