# generated using pymatgen
data_Cs2VNiP6(HO10)2
_symmetry_space_group_name_H-M   'P 1'
_cell_length_a   8.84975305
_cell_length_b   9.19477312
_cell_length_c   12.28562700
_cell_angle_alpha   69.04856361
_cell_angle_beta   89.99397892
_cell_angle_gamma   90.00321219
_symmetry_Int_Tables_number   1
_chemical_formula_structural   Cs2VNiP6(HO10)2
_chemical_formula_sum   'Cs4 V2 Ni2 P12 H4 O40'
_cell_volume   933.60324319
_cell_formula_units_Z   2
loop_
 _symmetry_equiv_pos_site_id
 _symmetry_equiv_pos_as_xyz
  1  'x, y, z'
loop_
 _atom_site_type_symbol
 _atom_site_label
 _atom_site_symmetry_multiplicity
 _atom_site_fract_x
 _atom_site_fract_y
 _atom_site_fract_z
 _atom_site_occupancy
  Cs  Cs0  1  0.573821  0.249990  0.499969  1
  Cs  Cs1  1  0.049130  0.249819  0.000075  1
  Cs  Cs2  1  0.450969  0.749893  0.500068  1
  Cs  Cs3  1  0.926051  0.750004  0.999941  1
  V  V4  1  0.250056  0.499766  0.249966  1
  V  V5  1  0.250150  0.000005  0.750067  1
  Ni  Ni6  1  0.750435  0.500195  0.750254  1
  Ni  Ni7  1  0.749921  0.999804  0.250121  1
  P  P8  1  0.124763  0.249883  0.499984  1
  P  P9  1  0.624862  0.250096  0.999989  1
  P  P10  1  0.875205  0.750039  0.500042  1
  P  P11  1  0.375212  0.749891  0.999988  1
  P  P12  1  0.941245  0.201339  0.708631  1
  P  P13  1  0.436902  0.203540  0.206039  1
  P  P14  1  0.941039  0.298714  0.291402  1
  P  P15  1  0.437100  0.296437  0.793852  1
  P  P16  1  0.062877  0.796050  0.293863  1
  P  P17  1  0.559059  0.799052  0.791437  1
  P  P18  1  0.063074  0.703891  0.706033  1
  P  P19  1  0.558883  0.701025  0.208589  1
  H  H20  1  0.249370  0.999022  0.250453  1
  H  H21  1  0.751003  0.001228  0.749391  1
  H  H22  1  0.749942  0.499999  0.249949  1
  H  H23  1  0.250121  0.499783  0.750110  1
  O  O24  1  0.017702  0.194791  0.418451  1
  O  O25  1  0.510523  0.195814  0.918436  1
  O  O26  1  0.017562  0.304921  0.581539  1
  O  O27  1  0.510584  0.304383  0.081515  1
  O  O28  1  0.989561  0.804518  0.581454  1
  O  O29  1  0.482291  0.804897  0.081576  1
  O  O30  1  0.989551  0.695657  0.418495  1
  O  O31  1  0.482047  0.694813  0.918390  1
  O  O32  1  0.822839  0.099787  0.677804  1
  O  O33  1  0.306414  0.112804  0.178667  1
  O  O34  1  0.822824  0.400134  0.322238  1
  O  O35  1  0.306437  0.387188  0.821286  1
  O  O36  1  0.193383  0.887033  0.321316  1
  O  O37  1  0.677166  0.900327  0.822303  1
  O  O38  1  0.193441  0.612934  0.678648  1
  O  O39  1  0.677228  0.599665  0.177805  1
  O  O40  1  0.884645  0.314707  0.760704  1
  O  O41  1  0.372890  0.334214  0.247327  1
  O  O42  1  0.884763  0.185340  0.239203  1
  O  O43  1  0.372947  0.165872  0.752614  1
  O  O44  1  0.127025  0.665652  0.252625  1
  O  O45  1  0.615078  0.685770  0.738990  1
  O  O46  1  0.127103  0.834402  0.747331  1
  O  O47  1  0.615142  0.814389  0.260886  1
  O  O48  1  0.218684  0.388642  0.425025  1
  O  O49  1  0.710503  0.392989  0.927888  1
  O  O50  1  0.218723  0.111214  0.575012  1
  O  O51  1  0.710465  0.107105  0.072126  1
  O  O52  1  0.789625  0.607216  0.572168  1
  O  O53  1  0.281165  0.611186  0.075003  1
  O  O54  1  0.789619  0.892978  0.427841  1
  O  O55  1  0.281244  0.888715  0.925063  1
  O  O56  1  0.069966  0.399386  0.215330  1
  O  O57  1  0.555100  0.389842  0.708988  1
  O  O58  1  0.069906  0.100632  0.784741  1
  O  O59  1  0.554986  0.110377  0.290968  1
  O  O60  1  0.944905  0.610686  0.790962  1
  O  O61  1  0.430004  0.600324  0.284680  1
  O  O62  1  0.944801  0.889494  0.209009  1
  O  O63  1  0.429967  0.899739  0.715381  1
