# generated using pymatgen
data_BaAlAsAu5
_symmetry_space_group_name_H-M   'P 1'
_cell_length_a   7.24532000
_cell_length_b   9.22497700
_cell_length_c   10.42379600
_cell_angle_alpha   90.00000000
_cell_angle_beta   90.00000000
_cell_angle_gamma   90.00000000
_symmetry_Int_Tables_number   1
_chemical_formula_structural   BaAlAsAu5
_chemical_formula_sum   'Ba4 Al4 As4 Au20'
_cell_volume   696.70474263
_cell_formula_units_Z   4
loop_
 _symmetry_equiv_pos_site_id
 _symmetry_equiv_pos_as_xyz
  1  'x, y, z'
loop_
 _atom_site_type_symbol
 _atom_site_label
 _atom_site_symmetry_multiplicity
 _atom_site_fract_x
 _atom_site_fract_y
 _atom_site_fract_z
 _atom_site_occupancy
  Ba  Ba0  1  0.250000  0.207092  0.099312  1
  Ba  Ba1  1  0.250000  0.707092  0.400688  1
  Ba  Ba2  1  0.750000  0.792908  0.900688  1
  Ba  Ba3  1  0.750000  0.292908  0.599312  1
  Al  Al4  1  0.250000  0.070720  0.608822  1
  Al  Al5  1  0.250000  0.570720  0.891178  1
  Al  Al6  1  0.750000  0.929280  0.391178  1
  Al  Al7  1  0.750000  0.429280  0.108822  1
  As  As8  1  0.250000  0.334650  0.450691  1
  As  As9  1  0.250000  0.834650  0.049309  1
  As  As10  1  0.750000  0.665350  0.549309  1
  As  As11  1  0.750000  0.165350  0.950691  1
  Au  Au12  1  0.042540  0.093588  0.396338  1
  Au  Au13  1  0.457460  0.593588  0.103662  1
  Au  Au14  1  0.542540  0.906412  0.603662  1
  Au  Au15  1  0.957460  0.406412  0.896338  1
  Au  Au16  1  0.957460  0.906412  0.603662  1
  Au  Au17  1  0.542540  0.406412  0.896338  1
  Au  Au18  1  0.457460  0.093588  0.396338  1
  Au  Au19  1  0.042540  0.593588  0.103662  1
  Au  Au20  1  0.035004  0.108031  0.810776  1
  Au  Au21  1  0.464996  0.608031  0.689224  1
  Au  Au22  1  0.535004  0.891969  0.189224  1
  Au  Au23  1  0.964996  0.391969  0.310776  1
  Au  Au24  1  0.964996  0.891969  0.189224  1
  Au  Au25  1  0.535004  0.391969  0.310776  1
  Au  Au26  1  0.464996  0.108031  0.810776  1
  Au  Au27  1  0.035004  0.608031  0.689224  1
  Au  Au28  1  0.250000  0.345020  0.699594  1
  Au  Au29  1  0.250000  0.845020  0.800406  1
  Au  Au30  1  0.750000  0.654980  0.300406  1
  Au  Au31  1  0.750000  0.154980  0.199594  1
