# generated using pymatgen
data_Nd10TcBi4Ir
_symmetry_space_group_name_H-M   'P 1'
_cell_length_a   8.19538279
_cell_length_b   9.28113200
_cell_length_c   12.74256800
_cell_angle_alpha   90.00000000
_cell_angle_beta   90.05511884
_cell_angle_gamma   90.00000000
_symmetry_Int_Tables_number   1
_chemical_formula_structural   Nd10TcBi4Ir
_chemical_formula_sum   'Nd20 Tc2 Bi8 Ir2'
_cell_volume   969.23023147
_cell_formula_units_Z   2
loop_
 _symmetry_equiv_pos_site_id
 _symmetry_equiv_pos_as_xyz
  1  'x, y, z'
loop_
 _atom_site_type_symbol
 _atom_site_label
 _atom_site_symmetry_multiplicity
 _atom_site_fract_x
 _atom_site_fract_y
 _atom_site_fract_z
 _atom_site_occupancy
  Nd  Nd0  1  0.841075  0.750000  0.786717  1
  Nd  Nd1  1  0.158925  0.250000  0.213283  1
  Nd  Nd2  1  0.345551  0.250000  0.708337  1
  Nd  Nd3  1  0.654449  0.750000  0.291663  1
  Nd  Nd4  1  0.376363  0.750000  0.695636  1
  Nd  Nd5  1  0.623637  0.250000  0.304364  1
  Nd  Nd6  1  0.872367  0.250000  0.804878  1
  Nd  Nd7  1  0.127633  0.750000  0.195122  1
  Nd  Nd8  1  0.948928  0.750000  0.502228  1
  Nd  Nd9  1  0.051072  0.250000  0.497772  1
  Nd  Nd10  1  0.443698  0.250000  0.996907  1
  Nd  Nd11  1  0.556302  0.750000  0.003093  1
  Nd  Nd12  1  0.676624  0.037148  0.564533  1
  Nd  Nd13  1  0.323376  0.962852  0.435467  1
  Nd  Nd14  1  0.179557  0.959800  0.932307  1
  Nd  Nd15  1  0.323376  0.537148  0.435467  1
  Nd  Nd16  1  0.820443  0.040200  0.067693  1
  Nd  Nd17  1  0.676624  0.462852  0.564533  1
  Nd  Nd18  1  0.820443  0.459800  0.067693  1
  Nd  Nd19  1  0.179557  0.540200  0.932307  1
  Tc  Tc20  1  0.586602  0.750000  0.515543  1
  Tc  Tc21  1  0.413398  0.250000  0.484457  1
  Bi  Bi22  1  0.571933  0.493254  0.828432  1
  Bi  Bi23  1  0.428067  0.506746  0.171568  1
  Bi  Bi24  1  0.071497  0.506316  0.672484  1
  Bi  Bi25  1  0.428067  0.993254  0.171568  1
  Bi  Bi26  1  0.928503  0.493684  0.327516  1
  Bi  Bi27  1  0.571933  0.006746  0.828432  1
  Bi  Bi28  1  0.928503  0.006316  0.327516  1
  Bi  Bi29  1  0.071497  0.993684  0.672484  1
  Ir  Ir30  1  0.072263  0.250000  0.992057  1
  Ir  Ir31  1  0.927737  0.750000  0.007943  1
