# generated using pymatgen
data_ScTiFe12P7
_symmetry_space_group_name_H-M   'P 1'
_cell_length_a   8.82880700
_cell_length_b   8.82880749
_cell_length_c   3.57205100
_cell_angle_alpha   90.00000000
_cell_angle_beta   90.00000000
_cell_angle_gamma   119.99999442
_symmetry_Int_Tables_number   1
_chemical_formula_structural   ScTiFe12P7
_chemical_formula_sum   'Sc1 Ti1 Fe12 P7'
_cell_volume   241.13062805
_cell_formula_units_Z   1
loop_
 _symmetry_equiv_pos_site_id
 _symmetry_equiv_pos_as_xyz
  1  'x, y, z'
loop_
 _atom_site_type_symbol
 _atom_site_label
 _atom_site_symmetry_multiplicity
 _atom_site_fract_x
 _atom_site_fract_y
 _atom_site_fract_z
 _atom_site_occupancy
  Sc  Sc0  1  0.333333  0.666667  0.000000  1
  Ti  Ti1  1  0.000000  0.000000  0.500000  1
  Fe  Fe2  1  0.729233  0.763033  0.000000  1
  Fe  Fe3  1  0.236967  0.966200  0.000000  1
  Fe  Fe4  1  0.033800  0.270767  0.000000  1
  Fe  Fe5  1  0.944728  0.492300  0.000000  1
  Fe  Fe6  1  0.507700  0.452428  0.000000  1
  Fe  Fe7  1  0.547572  0.055272  0.000000  1
  Fe  Fe8  1  0.101180  0.722017  0.500000  1
  Fe  Fe9  1  0.277983  0.379163  0.500000  1
  Fe  Fe10  1  0.620837  0.898820  0.500000  1
  Fe  Fe11  1  0.761462  0.548685  0.500000  1
  Fe  Fe12  1  0.451315  0.212778  0.500000  1
  Fe  Fe13  1  0.787222  0.238538  0.500000  1
  P  P14  1  0.966008  0.752357  0.000000  1
  P  P15  1  0.247643  0.213650  0.000000  1
  P  P16  1  0.786350  0.033992  0.000000  1
  P  P17  1  0.073269  0.451700  0.500000  1
  P  P18  1  0.548300  0.621567  0.500000  1
  P  P19  1  0.378433  0.926731  0.500000  1
  P  P20  1  0.666667  0.333333  0.000000  1
