# generated using pymatgen
data_Li2Er5Tm3(Sc5Si8)2
_symmetry_space_group_name_H-M   'P 1'
_cell_length_a   6.95923707
_cell_length_b   7.36271044
_cell_length_c   13.94359515
_cell_angle_alpha   90.00254854
_cell_angle_beta   90.01646358
_cell_angle_gamma   89.95431157
_symmetry_Int_Tables_number   1
_chemical_formula_structural   Li2Er5Tm3(Sc5Si8)2
_chemical_formula_sum   'Li2 Er5 Tm3 Sc10 Si16'
_cell_volume   714.45348772
_cell_formula_units_Z   1
loop_
 _symmetry_equiv_pos_site_id
 _symmetry_equiv_pos_as_xyz
  1  'x, y, z'
loop_
 _atom_site_type_symbol
 _atom_site_label
 _atom_site_symmetry_multiplicity
 _atom_site_fract_x
 _atom_site_fract_y
 _atom_site_fract_z
 _atom_site_occupancy
  Li  Li0  1  0.159780  0.506306  0.749984  1
  Li  Li1  1  0.840227  0.493667  0.250027  1
  Er  Er2  1  0.010063  0.184478  0.097998  1
  Er  Er3  1  0.989954  0.815538  0.901994  1
  Er  Er4  1  0.485254  0.674903  0.902921  1
  Er  Er5  1  0.990005  0.815519  0.597992  1
  Er  Er6  1  0.514710  0.325106  0.097085  1
  Tm  Tm7  1  0.010137  0.184628  0.401937  1
  Tm  Tm8  1  0.514699  0.325033  0.402867  1
  Tm  Tm9  1  0.485293  0.674950  0.597114  1
  Sc  Sc10  1  0.341108  0.003899  0.250062  1
  Sc  Sc11  1  0.658820  0.996140  0.749964  1
  Sc  Sc12  1  0.326522  0.181213  0.626234  1
  Sc  Sc13  1  0.673470  0.818832  0.373738  1
  Sc  Sc14  1  0.166051  0.674727  0.373113  1
  Sc  Sc15  1  0.673487  0.818853  0.126299  1
  Sc  Sc16  1  0.833984  0.325243  0.626869  1
  Sc  Sc17  1  0.326502  0.181158  0.873717  1
  Sc  Sc18  1  0.834020  0.325249  0.873077  1
  Sc  Sc19  1  0.165986  0.674748  0.126934  1
  Si  Si20  1  0.029330  0.100361  0.749970  1
  Si  Si21  1  0.970712  0.899769  0.250075  1
  Si  Si22  1  0.466553  0.610868  0.250064  1
  Si  Si23  1  0.533472  0.389117  0.749946  1
  Si  Si24  1  0.287297  0.876787  0.749936  1
  Si  Si25  1  0.712826  0.123265  0.250146  1
  Si  Si26  1  0.220003  0.371145  0.250143  1
  Si  Si27  1  0.779860  0.628725  0.749920  1
  Si  Si28  1  0.161168  0.461411  0.533433  1
  Si  Si29  1  0.838814  0.538279  0.466478  1
  Si  Si30  1  0.342030  0.967117  0.461227  1
  Si  Si31  1  0.839075  0.538512  0.033445  1
  Si  Si32  1  0.657856  0.032983  0.538729  1
  Si  Si33  1  0.160919  0.461480  0.966559  1
  Si  Si34  1  0.657907  0.033015  0.961257  1
  Si  Si35  1  0.342104  0.966974  0.038745  1
