# generated using pymatgen
data_Si4BrCl15
_symmetry_space_group_name_H-M   'P 1'
_cell_length_a   7.03785529
_cell_length_b   10.73841719
_cell_length_c   10.83701907
_cell_angle_alpha   77.57423786
_cell_angle_beta   90.00001377
_cell_angle_gamma   90.09140341
_symmetry_Int_Tables_number   1
_chemical_formula_structural   Si4BrCl15
_chemical_formula_sum   'Si4 Br1 Cl15'
_cell_volume   799.82641772
_cell_formula_units_Z   1
loop_
 _symmetry_equiv_pos_site_id
 _symmetry_equiv_pos_as_xyz
  1  'x, y, z'
loop_
 _atom_site_type_symbol
 _atom_site_label
 _atom_site_symmetry_multiplicity
 _atom_site_fract_x
 _atom_site_fract_y
 _atom_site_fract_z
 _atom_site_occupancy
  Si  Si0  1  0.925587  0.245831  0.643204  1
  Si  Si1  1  0.429464  0.751364  0.856048  1
  Si  Si2  1  0.071791  0.751974  0.355253  1
  Si  Si3  1  0.571625  0.249123  0.144878  1
  Br  Br4  1  0.073196  0.405478  0.700519  1
  Cl  Cl5  1  0.566340  0.603546  0.804252  1
  Cl  Cl6  1  0.934527  0.604549  0.303129  1
  Cl  Cl7  1  0.434160  0.396794  0.196428  1
  Cl  Cl8  1  0.926436  0.090591  0.789315  1
  Cl  Cl9  1  0.431365  0.905940  0.709524  1
  Cl  Cl10  1  0.069656  0.905730  0.207829  1
  Cl  Cl11  1  0.568877  0.094394  0.291355  1
  Cl  Cl12  1  0.060923  0.201657  0.492094  1
  Cl  Cl13  1  0.564058  0.795708  0.007035  1
  Cl  Cl14  1  0.935923  0.795851  0.506252  1
  Cl  Cl15  1  0.437822  0.204837  0.993492  1
  Cl  Cl16  1  0.652082  0.296453  0.595405  1
  Cl  Cl17  1  0.156307  0.699470  0.904045  1
  Cl  Cl18  1  0.344891  0.699879  0.402423  1
  Cl  Cl19  1  0.844971  0.300831  0.097518  1
