# generated using pymatgen
data_Ac3NiSn3Ir2
_symmetry_space_group_name_H-M   'P 1'
_cell_length_a   7.71535700
_cell_length_b   7.71535711
_cell_length_c   4.27864100
_cell_angle_alpha   90.00000000
_cell_angle_beta   90.00000000
_cell_angle_gamma   120.00000381
_symmetry_Int_Tables_number   1
_chemical_formula_structural   Ac3NiSn3Ir2
_chemical_formula_sum   'Ac3 Ni1 Sn3 Ir2'
_cell_volume   220.57105589
_cell_formula_units_Z   1
loop_
 _symmetry_equiv_pos_site_id
 _symmetry_equiv_pos_as_xyz
  1  'x, y, z'
loop_
 _atom_site_type_symbol
 _atom_site_label
 _atom_site_symmetry_multiplicity
 _atom_site_fract_x
 _atom_site_fract_y
 _atom_site_fract_z
 _atom_site_occupancy
  Ac  Ac0  1  0.416999  0.416999  0.500000  1
  Ac  Ac1  1  0.583001  0.000000  0.500000  1
  Ac  Ac2  1  0.000000  0.583001  0.500000  1
  Ni  Ni3  1  0.000000  0.000000  0.500000  1
  Sn  Sn4  1  0.760070  0.760070  0.000000  1
  Sn  Sn5  1  0.239930  0.000000  0.000000  1
  Sn  Sn6  1  0.000000  0.239930  0.000000  1
  Ir  Ir7  1  0.666667  0.333333  0.000000  1
  Ir  Ir8  1  0.333333  0.666667  0.000000  1
