# generated using pymatgen
data_Li3Pr4Tl2Si4Ag
_symmetry_space_group_name_H-M   'P 1'
_cell_length_a   9.90386919
_cell_length_b   9.90386962
_cell_length_c   6.98725982
_cell_angle_alpha   90.23082516
_cell_angle_beta   89.76917292
_cell_angle_gamma   153.29816711
_symmetry_Int_Tables_number   1
_chemical_formula_structural   Li3Pr4Tl2Si4Ag
_chemical_formula_sum   'Li3 Pr4 Tl2 Si4 Ag1'
_cell_volume   307.96076090
_cell_formula_units_Z   1
loop_
 _symmetry_equiv_pos_site_id
 _symmetry_equiv_pos_as_xyz
  1  'x, y, z'
loop_
 _atom_site_type_symbol
 _atom_site_label
 _atom_site_symmetry_multiplicity
 _atom_site_fract_x
 _atom_site_fract_y
 _atom_site_fract_z
 _atom_site_occupancy
  Li  Li0  1  0.183626  0.816374  0.446341  1
  Li  Li1  1  0.175811  0.824189  0.064618  1
  Li  Li2  1  0.823660  0.176340  0.933921  1
  Pr  Pr3  1  0.545291  0.454709  0.249338  1
  Pr  Pr4  1  0.453351  0.546649  0.748109  1
  Pr  Pr5  1  0.351261  0.648739  0.245824  1
  Pr  Pr6  1  0.649694  0.350306  0.750762  1
  Tl  Tl7  1  0.719534  0.280466  0.235090  1
  Tl  Tl8  1  0.276732  0.723268  0.773405  1
  Si  Si9  1  0.943910  0.056090  0.075908  1
  Si  Si10  1  0.055797  0.944203  0.922950  1
  Si  Si11  1  0.056536  0.943464  0.575339  1
  Si  Si12  1  0.944540  0.055460  0.422914  1
  Ag  Ag13  1  0.820256  0.179744  0.555483  1
