# generated using pymatgen
data_CuPtBr6
_symmetry_space_group_name_H-M   'P 1'
_cell_length_a   6.51847461
_cell_length_b   6.51847505
_cell_length_c   7.20425044
_cell_angle_alpha   98.38352688
_cell_angle_beta   98.38353443
_cell_angle_gamma   119.74307909
_symmetry_Int_Tables_number   1
_chemical_formula_structural   CuPtBr6
_chemical_formula_sum   'Cu1 Pt1 Br6'
_cell_volume   254.32513567
_cell_formula_units_Z   1
loop_
 _symmetry_equiv_pos_site_id
 _symmetry_equiv_pos_as_xyz
  1  'x, y, z'
loop_
 _atom_site_type_symbol
 _atom_site_label
 _atom_site_symmetry_multiplicity
 _atom_site_fract_x
 _atom_site_fract_y
 _atom_site_fract_z
 _atom_site_occupancy
  Cu  Cu0  1  0.166905  0.833094  0.000000  1
  Pt  Pt1  1  0.833167  0.166832  0.000000  1
  Br  Br2  1  0.914285  0.553856  0.208627  1
  Br  Br3  1  0.576717  0.927257  0.206946  1
  Br  Br4  1  0.204799  0.214761  0.208238  1
  Br  Br5  1  0.785239  0.795201  0.791761  1
  Br  Br6  1  0.446144  0.085715  0.791374  1
  Br  Br7  1  0.072743  0.423283  0.793055  1
