# generated using pymatgen
data_Cs2TbDy(MgTe3)2
_symmetry_space_group_name_H-M   'P 1'
_cell_length_a   8.93723472
_cell_length_b   8.93723577
_cell_length_c   11.89698402
_cell_angle_alpha   90.00651373
_cell_angle_beta   89.99348515
_cell_angle_gamma   150.31188631
_symmetry_Int_Tables_number   1
_chemical_formula_structural   Cs2TbDy(MgTe3)2
_chemical_formula_sum   'Cs2 Tb1 Dy1 Mg2 Te6'
_cell_volume   470.64417840
_cell_formula_units_Z   1
loop_
 _symmetry_equiv_pos_site_id
 _symmetry_equiv_pos_as_xyz
  1  'x, y, z'
loop_
 _atom_site_type_symbol
 _atom_site_label
 _atom_site_symmetry_multiplicity
 _atom_site_fract_x
 _atom_site_fract_y
 _atom_site_fract_z
 _atom_site_occupancy
  Cs  Cs0  1  0.752700  0.247299  0.250001  1
  Cs  Cs1  1  0.247299  0.752700  0.749999  1
  Tb  Tb2  1  0.500000  0.500000  0.000000  1
  Dy  Dy3  1  0.500000  0.500000  0.500000  1
  Mg  Mg4  1  0.035265  0.964734  0.250033  1
  Mg  Mg5  1  0.964734  0.035265  0.749967  1
  Te  Te6  1  0.119155  0.880844  0.051414  1
  Te  Te7  1  0.438005  0.561995  0.250301  1
  Te  Te8  1  0.118838  0.881161  0.448751  1
  Te  Te9  1  0.881161  0.118838  0.551250  1
  Te  Te10  1  0.561995  0.438005  0.749699  1
  Te  Te11  1  0.880844  0.119155  0.948586  1
