# generated using pymatgen
data_Ho5Lu5(In2Pd)4
_symmetry_space_group_name_H-M   'P 1'
_cell_length_a   3.61182700
_cell_length_b   8.06203121
_cell_length_c   18.08210322
_cell_angle_alpha   89.89765366
_cell_angle_beta   90.00000000
_cell_angle_gamma   90.00000000
_symmetry_Int_Tables_number   1
_chemical_formula_structural   Ho5Lu5(In2Pd)4
_chemical_formula_sum   'Ho5 Lu5 In8 Pd4'
_cell_volume   526.52581201
_cell_formula_units_Z   1
loop_
 _symmetry_equiv_pos_site_id
 _symmetry_equiv_pos_as_xyz
  1  'x, y, z'
loop_
 _atom_site_type_symbol
 _atom_site_label
 _atom_site_symmetry_multiplicity
 _atom_site_fract_x
 _atom_site_fract_y
 _atom_site_fract_z
 _atom_site_occupancy
  Ho  Ho0  1  0.000000  0.500063  0.499584  1
  Ho  Ho1  1  0.000000  0.999169  0.000011  1
  Ho  Ho2  1  0.000000  0.739805  0.280438  1
  Ho  Ho3  1  0.000000  0.261011  0.719448  1
  Ho  Ho4  1  0.000000  0.760802  0.780559  1
  Lu  Lu5  1  0.000000  0.240094  0.220004  1
  Lu  Lu6  1  0.000000  0.615481  0.084769  1
  Lu  Lu7  1  0.000000  0.383383  0.916492  1
  Lu  Lu8  1  0.000000  0.883637  0.583901  1
  Lu  Lu9  1  0.000000  0.116977  0.415377  1
  In  In10  1  0.500000  0.706507  0.934066  1
  In  In11  1  0.500000  0.291743  0.067293  1
  In  In12  1  0.500000  0.794392  0.433295  1
  In  In13  1  0.500000  0.206696  0.565961  1
  In  In14  1  0.500000  0.582697  0.649490  1
  In  In15  1  0.500000  0.416782  0.350072  1
  In  In16  1  0.500000  0.918535  0.149459  1
  In  In17  1  0.500000  0.082855  0.850637  1
  Pd  Pd18  1  0.500000  0.520397  0.194539  1
  Pd  Pd19  1  0.500000  0.475505  0.806172  1
  Pd  Pd20  1  0.500000  0.975831  0.693981  1
  Pd  Pd21  1  0.500000  0.027637  0.304452  1
