# generated using pymatgen
data_Tb5Dy(RuCl3)2
_symmetry_space_group_name_H-M   'P 1'
_cell_length_a   4.06791200
_cell_length_b   8.28495334
_cell_length_c   11.61208960
_cell_angle_alpha   89.27004753
_cell_angle_beta   90.00000000
_cell_angle_gamma   90.00000000
_symmetry_Int_Tables_number   1
_chemical_formula_structural   Tb5Dy(RuCl3)2
_chemical_formula_sum   'Tb5 Dy1 Ru2 Cl6'
_cell_volume   391.32423837
_cell_formula_units_Z   1
loop_
 _symmetry_equiv_pos_site_id
 _symmetry_equiv_pos_as_xyz
  1  'x, y, z'
loop_
 _atom_site_type_symbol
 _atom_site_label
 _atom_site_symmetry_multiplicity
 _atom_site_fract_x
 _atom_site_fract_y
 _atom_site_fract_z
 _atom_site_occupancy
  Tb  Tb0  1  0.250000  0.282582  0.397814  1
  Tb  Tb1  1  0.750000  0.717558  0.601686  1
  Tb  Tb2  1  0.250000  0.857388  0.357775  1
  Tb  Tb3  1  0.750000  0.142800  0.642016  1
  Tb  Tb4  1  0.250000  0.888787  0.833281  1
  Dy  Dy5  1  0.750000  0.111074  0.167727  1
  Ru  Ru6  1  0.250000  0.942331  0.597722  1
  Ru  Ru7  1  0.750000  0.057768  0.402251  1
  Cl  Cl8  1  0.250000  0.434447  0.625456  1
  Cl  Cl9  1  0.750000  0.566029  0.373327  1
  Cl  Cl10  1  0.250000  0.890394  0.098731  1
  Cl  Cl11  1  0.750000  0.111021  0.902518  1
  Cl  Cl12  1  0.250000  0.333329  0.147818  1
  Cl  Cl13  1  0.750000  0.664491  0.851881  1
