# generated using pymatgen
data_Tb9Ho(In2Rh)4
_symmetry_space_group_name_H-M   'P 1'
_cell_length_a   3.64870900
_cell_length_b   8.04352458
_cell_length_c   18.33449612
_cell_angle_alpha   90.06378482
_cell_angle_beta   90.00000000
_cell_angle_gamma   90.00000000
_symmetry_Int_Tables_number   1
_chemical_formula_structural   Tb9Ho(In2Rh)4
_chemical_formula_sum   'Tb9 Ho1 In8 Rh4'
_cell_volume   538.08926917
_cell_formula_units_Z   1
loop_
 _symmetry_equiv_pos_site_id
 _symmetry_equiv_pos_as_xyz
  1  'x, y, z'
loop_
 _atom_site_type_symbol
 _atom_site_label
 _atom_site_symmetry_multiplicity
 _atom_site_fract_x
 _atom_site_fract_y
 _atom_site_fract_z
 _atom_site_occupancy
  Tb  Tb0  1  0.000000  0.115805  0.411377  1
  Tb  Tb1  1  0.000000  0.883708  0.588203  1
  Tb  Tb2  1  0.000000  0.383898  0.911774  1
  Tb  Tb3  1  0.000000  0.616474  0.088559  1
  Tb  Tb4  1  0.000000  0.244590  0.220860  1
  Tb  Tb5  1  0.000000  0.755634  0.779214  1
  Tb  Tb6  1  0.000000  0.255559  0.720837  1
  Tb  Tb7  1  0.000000  0.999975  0.000096  1
  Tb  Tb8  1  0.000000  0.499847  0.499979  1
  Ho  Ho9  1  0.000000  0.744626  0.278940  1
  In  In10  1  0.500000  0.427321  0.349771  1
  In  In11  1  0.500000  0.573885  0.650147  1
  In  In12  1  0.500000  0.073928  0.849861  1
  In  In13  1  0.500000  0.925592  0.150497  1
  In  In14  1  0.500000  0.292952  0.068339  1
  In  In15  1  0.500000  0.707291  0.931863  1
  In  In16  1  0.500000  0.207252  0.568116  1
  In  In17  1  0.500000  0.792226  0.431250  1
  Rh  Rh18  1  0.500000  0.019877  0.304745  1
  Rh  Rh19  1  0.500000  0.977785  0.695085  1
  Rh  Rh20  1  0.500000  0.477830  0.804849  1
  Rh  Rh21  1  0.500000  0.523942  0.195639  1
