# generated using pymatgen
data_Nd12IrPd3
_symmetry_space_group_name_H-M   'P 1'
_cell_length_a   6.62314804
_cell_length_b   7.32238704
_cell_length_c   10.05306800
_cell_angle_alpha   90.00000000
_cell_angle_beta   90.00000000
_cell_angle_gamma   90.01247527
_symmetry_Int_Tables_number   1
_chemical_formula_structural   Nd12IrPd3
_chemical_formula_sum   'Nd12 Ir1 Pd3'
_cell_volume   487.54617458
_cell_formula_units_Z   1
loop_
 _symmetry_equiv_pos_site_id
 _symmetry_equiv_pos_as_xyz
  1  'x, y, z'
loop_
 _atom_site_type_symbol
 _atom_site_label
 _atom_site_symmetry_multiplicity
 _atom_site_fract_x
 _atom_site_fract_y
 _atom_site_fract_z
 _atom_site_occupancy
  Nd  Nd0  1  0.331497  0.678212  0.058693  1
  Nd  Nd1  1  0.167345  0.177611  0.439325  1
  Nd  Nd2  1  0.666967  0.327754  0.564648  1
  Nd  Nd3  1  0.826711  0.818953  0.936398  1
  Nd  Nd4  1  0.666967  0.327754  0.935352  1
  Nd  Nd5  1  0.826711  0.818953  0.563602  1
  Nd  Nd6  1  0.331497  0.678212  0.441307  1
  Nd  Nd7  1  0.167345  0.177611  0.060675  1
  Nd  Nd8  1  0.861283  0.527711  0.250000  1
  Nd  Nd9  1  0.637848  0.028388  0.250000  1
  Nd  Nd10  1  0.146465  0.472591  0.750000  1
  Nd  Nd11  1  0.367776  0.961100  0.750000  1
  Ir  Ir12  1  0.567453  0.618296  0.750000  1
  Pd  Pd13  1  0.069789  0.884769  0.250000  1
  Pd  Pd14  1  0.428218  0.386364  0.250000  1
  Pd  Pd15  1  0.936127  0.115723  0.750000  1
