# generated using pymatgen
data_Tm12Co6Pt
_symmetry_space_group_name_H-M   'P 1'
_cell_length_a   11.10579800
_cell_length_b   8.21616358
_cell_length_c   10.93365111
_cell_angle_alpha   54.79568187
_cell_angle_beta   90.00000000
_cell_angle_gamma   90.00000000
_symmetry_Int_Tables_number   1
_chemical_formula_structural   Tm12Co6Pt
_chemical_formula_sum   'Tm24 Co12 Pt2'
_cell_volume   815.19224875
_cell_formula_units_Z   2
loop_
 _symmetry_equiv_pos_site_id
 _symmetry_equiv_pos_as_xyz
  1  'x, y, z'
loop_
 _atom_site_type_symbol
 _atom_site_label
 _atom_site_symmetry_multiplicity
 _atom_site_fract_x
 _atom_site_fract_y
 _atom_site_fract_z
 _atom_site_occupancy
  Tm  Tm0  1  0.708261  0.232340  0.539599  1
  Tm  Tm1  1  0.208261  0.767660  0.960401  1
  Tm  Tm2  1  0.841299  0.501732  0.657702  1
  Tm  Tm3  1  0.341299  0.498268  0.842298  1
  Tm  Tm4  1  0.158701  0.498268  0.342298  1
  Tm  Tm5  1  0.658701  0.501732  0.157702  1
  Tm  Tm6  1  0.002253  0.839991  0.354804  1
  Tm  Tm7  1  0.502253  0.160009  0.145196  1
  Tm  Tm8  1  0.997747  0.160009  0.645196  1
  Tm  Tm9  1  0.497747  0.839991  0.854804  1
  Tm  Tm10  1  0.791739  0.232340  0.039599  1
  Tm  Tm11  1  0.291739  0.767660  0.460401  1
  Tm  Tm12  1  0.927157  0.770834  0.087886  1
  Tm  Tm13  1  0.427157  0.229166  0.412114  1
  Tm  Tm14  1  0.072843  0.229166  0.912114  1
  Tm  Tm15  1  0.572843  0.770834  0.587886  1
  Tm  Tm16  1  0.298617  0.242624  0.680256  1
  Tm  Tm17  1  0.798617  0.757376  0.819744  1
  Tm  Tm18  1  0.701383  0.757376  0.319744  1
  Tm  Tm19  1  0.201383  0.242624  0.180256  1
  Tm  Tm20  1  0.930499  0.257108  0.315108  1
  Tm  Tm21  1  0.430499  0.742892  0.184892  1
  Tm  Tm22  1  0.069501  0.742892  0.684892  1
  Tm  Tm23  1  0.569501  0.257108  0.815108  1
  Co  Co24  1  0.679504  0.906808  0.026725  1
  Co  Co25  1  0.179504  0.093192  0.473275  1
  Co  Co26  1  0.320496  0.093192  0.973275  1
  Co  Co27  1  0.820496  0.906808  0.526725  1
  Co  Co28  1  0.399814  0.494068  0.100798  1
  Co  Co29  1  0.899814  0.505932  0.399202  1
  Co  Co30  1  0.600186  0.505932  0.899202  1
  Co  Co31  1  0.100186  0.494068  0.600798  1
  Co  Co32  1  0.814392  0.101084  0.838672  1
  Co  Co33  1  0.314392  0.898916  0.661328  1
  Co  Co34  1  0.185608  0.898916  0.161328  1
  Co  Co35  1  0.685608  0.101084  0.338672  1
  Pt  Pt36  1  0.500000  0.500000  0.500000  1
  Pt  Pt37  1  0.000000  0.500000  0.000000  1
