# generated using pymatgen
data_Dy5Ho3(B6Ru)4
_symmetry_space_group_name_H-M   'P 1'
_cell_length_a   3.65758500
_cell_length_b   9.14239502
_cell_length_c   11.51906103
_cell_angle_alpha   90.00816479
_cell_angle_beta   90.00000000
_cell_angle_gamma   90.00000000
_symmetry_Int_Tables_number   1
_chemical_formula_structural   Dy5Ho3(B6Ru)4
_chemical_formula_sum   'Dy5 Ho3 B24 Ru4'
_cell_volume   385.18687886
_cell_formula_units_Z   1
loop_
 _symmetry_equiv_pos_site_id
 _symmetry_equiv_pos_as_xyz
  1  'x, y, z'
loop_
 _atom_site_type_symbol
 _atom_site_label
 _atom_site_symmetry_multiplicity
 _atom_site_fract_x
 _atom_site_fract_y
 _atom_site_fract_z
 _atom_site_occupancy
  Dy  Dy0  1  0.000000  0.323062  0.414078  1
  Dy  Dy1  1  0.000000  0.676963  0.586089  1
  Dy  Dy2  1  0.000000  0.822893  0.085877  1
  Dy  Dy3  1  0.000000  0.177122  0.913995  1
  Dy  Dy4  1  0.000000  0.943887  0.372399  1
  Ho  Ho5  1  0.000000  0.056186  0.627834  1
  Ho  Ho6  1  0.000000  0.443861  0.127574  1
  Ho  Ho7  1  0.000000  0.556145  0.872344  1
  B  B8  1  0.500000  0.554040  0.432942  1
  B  B9  1  0.500000  0.445755  0.567133  1
  B  B10  1  0.500000  0.054272  0.066969  1
  B  B11  1  0.500000  0.945784  0.932894  1
  B  B12  1  0.500000  0.747707  0.419756  1
  B  B13  1  0.500000  0.251954  0.580335  1
  B  B14  1  0.500000  0.248211  0.080214  1
  B  B15  1  0.500000  0.751868  0.919718  1
  B  B16  1  0.500000  0.790952  0.266212  1
  B  B17  1  0.500000  0.208706  0.733705  1
  B  B18  1  0.500000  0.291493  0.233597  1
  B  B19  1  0.500000  0.708659  0.766355  1
  B  B20  1  0.500000  0.631959  0.185103  1
  B  B21  1  0.500000  0.367941  0.814827  1
  B  B22  1  0.500000  0.132436  0.314659  1
  B  B23  1  0.500000  0.867874  0.685264  1
  B  B24  1  0.500000  0.984068  0.212713  1
  B  B25  1  0.500000  0.016144  0.787013  1
  B  B26  1  0.500000  0.483740  0.286943  1
  B  B27  1  0.500000  0.516170  0.713031  1
  B  B28  1  0.500000  0.607972  0.029791  1
  B  B29  1  0.500000  0.392012  0.970146  1
  B  B30  1  0.500000  0.108680  0.470322  1
  B  B31  1  0.500000  0.891592  0.530250  1
  Ru  Ru32  1  0.000000  0.637665  0.321039  1
  Ru  Ru33  1  0.000000  0.361980  0.679023  1
  Ru  Ru34  1  0.000000  0.138313  0.178739  1
  Ru  Ru35  1  0.000000  0.861934  0.821117  1
