# generated using pymatgen
data_YbPrSmCo2
_symmetry_space_group_name_H-M   'P 1'
_cell_length_a   3.91706100
_cell_length_b   3.91706046
_cell_length_c   20.59241400
_cell_angle_alpha   90.00000000
_cell_angle_beta   90.00000000
_cell_angle_gamma   119.99999611
_symmetry_Int_Tables_number   1
_chemical_formula_structural   YbPrSmCo2
_chemical_formula_sum   'Yb2 Pr2 Sm2 Co4'
_cell_volume   273.62672942
_cell_formula_units_Z   2
loop_
 _symmetry_equiv_pos_site_id
 _symmetry_equiv_pos_as_xyz
  1  'x, y, z'
loop_
 _atom_site_type_symbol
 _atom_site_label
 _atom_site_symmetry_multiplicity
 _atom_site_fract_x
 _atom_site_fract_y
 _atom_site_fract_z
 _atom_site_occupancy
  Yb  Yb0  1  0.333333  0.666667  0.750000  1
  Yb  Yb1  1  0.666667  0.333333  0.250000  1
  Pr  Pr2  1  0.000000  0.000000  0.907131  1
  Pr  Pr3  1  0.000000  0.000000  0.592869  1
  Sm  Sm4  1  0.000000  0.000000  0.091366  1
  Sm  Sm5  1  0.000000  0.000000  0.408634  1
  Co  Co6  1  0.333333  0.666667  0.001027  1
  Co  Co7  1  0.666667  0.333333  0.001807  1
  Co  Co8  1  0.333333  0.666667  0.498973  1
  Co  Co9  1  0.666667  0.333333  0.498193  1
