# generated using pymatgen
data_U4Re7Si2(GeP)2
_symmetry_space_group_name_H-M   'P 1'
_cell_length_a   7.15583303
_cell_length_b   7.15491205
_cell_length_c   7.16190662
_cell_angle_alpha   109.35045795
_cell_angle_beta   109.37865081
_cell_angle_gamma   109.64501272
_symmetry_Int_Tables_number   1
_chemical_formula_structural   U4Re7Si2(GeP)2
_chemical_formula_sum   'U4 Re7 Si2 Ge2 P2'
_cell_volume   282.41020421
_cell_formula_units_Z   1
loop_
 _symmetry_equiv_pos_site_id
 _symmetry_equiv_pos_as_xyz
  1  'x, y, z'
loop_
 _atom_site_type_symbol
 _atom_site_label
 _atom_site_symmetry_multiplicity
 _atom_site_fract_x
 _atom_site_fract_y
 _atom_site_fract_z
 _atom_site_occupancy
  U  U0  1  0.479663  0.479824  0.480964  1
  U  U1  1  0.002234  0.002800  0.491622  1
  U  U2  1  0.501274  0.002887  0.003476  1
  U  U3  1  0.001855  0.491767  0.003258  1
  Re  Re4  1  0.748401  0.248422  0.497198  1
  Re  Re5  1  0.499017  0.249497  0.747659  1
  Re  Re6  1  0.498934  0.744799  0.242321  1
  Re  Re7  1  0.249885  0.499321  0.748586  1
  Re  Re8  1  0.747969  0.499565  0.245860  1
  Re  Re9  1  0.244984  0.745793  0.497077  1
  Re  Re10  1  0.018782  0.026754  0.028726  1
  Si  Si11  1  0.314205  0.993584  0.312562  1
  Si  Si12  1  0.693795  0.691728  0.994896  1
  Ge  Ge13  1  0.994999  0.699930  0.700933  1
  Ge  Ge14  1  0.692503  0.992014  0.690725  1
  P  P15  1  0.314859  0.313262  0.995706  1
  P  P16  1  0.996640  0.318054  0.318430  1
