# generated using pymatgen
data_ErGa2(CoSn)4
_symmetry_space_group_name_H-M   'P 1'
_cell_length_a   6.50872611
_cell_length_b   6.50872585
_cell_length_c   6.52037674
_cell_angle_alpha   119.38009592
_cell_angle_beta   119.38009387
_cell_angle_gamma   90.97644403
_symmetry_Int_Tables_number   1
_chemical_formula_structural   ErGa2(CoSn)4
_chemical_formula_sum   'Er1 Ga2 Co4 Sn4'
_cell_volume   197.28952028
_cell_formula_units_Z   1
loop_
 _symmetry_equiv_pos_site_id
 _symmetry_equiv_pos_as_xyz
  1  'x, y, z'
loop_
 _atom_site_type_symbol
 _atom_site_label
 _atom_site_symmetry_multiplicity
 _atom_site_fract_x
 _atom_site_fract_y
 _atom_site_fract_z
 _atom_site_occupancy
  Er  Er0  1  0.976369  0.976369  0.000000  1
  Ga  Ga1  1  0.888537  0.524743  0.000000  1
  Ga  Ga2  1  0.524743  0.888537  0.000000  1
  Co  Co3  1  0.608641  0.246809  0.000000  1
  Co  Co4  1  0.246809  0.608641  0.000000  1
  Co  Co5  1  0.734692  0.734692  0.306956  1
  Co  Co6  1  0.427736  0.427736  0.693044  1
  Sn  Sn7  1  0.458987  0.458987  0.340879  1
  Sn  Sn8  1  0.507690  0.007690  0.500000  1
  Sn  Sn9  1  0.007690  0.507690  0.500000  1
  Sn  Sn10  1  0.118108  0.118108  0.659120  1
