# generated using pymatgen
data_LuTh(Co3Si2)2
_symmetry_space_group_name_H-M   'P 1'
_cell_length_a   6.28302566
_cell_length_b   6.28302506
_cell_length_c   6.28302655
_cell_angle_alpha   130.32557989
_cell_angle_beta   113.36944749
_cell_angle_gamma   87.49029755
_symmetry_Int_Tables_number   1
_chemical_formula_structural   LuTh(Co3Si2)2
_chemical_formula_sum   'Lu1 Th1 Co6 Si4'
_cell_volume   165.35473730
_cell_formula_units_Z   1
loop_
 _symmetry_equiv_pos_site_id
 _symmetry_equiv_pos_as_xyz
  1  'x, y, z'
loop_
 _atom_site_type_symbol
 _atom_site_label
 _atom_site_symmetry_multiplicity
 _atom_site_fract_x
 _atom_site_fract_y
 _atom_site_fract_z
 _atom_site_occupancy
  Lu  Lu0  1  0.750000  0.455633  0.705633  1
  Th  Th1  1  0.250000  0.534401  0.284401  1
  Co  Co2  1  0.012315  0.002101  0.514416  1
  Co  Co3  1  0.487685  0.002101  0.989785  1
  Co  Co4  1  0.723336  0.001749  0.722482  1
  Co  Co5  1  0.220732  0.499145  0.722482  1
  Co  Co6  1  0.279268  0.001749  0.278413  1
  Co  Co7  1  0.776664  0.499145  0.278413  1
  Si  Si8  1  0.069780  0.867404  0.797625  1
  Si  Si9  1  0.907023  0.111387  0.204364  1
  Si  Si10  1  0.592977  0.797341  0.204364  1
  Si  Si11  1  0.430220  0.227845  0.797625  1
