# generated using pymatgen
data_Nd5Zn2Ir3
_symmetry_space_group_name_H-M   'P 1'
_cell_length_a   8.57182140
_cell_length_b   8.57182155
_cell_length_c   8.57182100
_cell_angle_alpha   109.47121462
_cell_angle_beta   109.47121497
_cell_angle_gamma   109.47122930
_symmetry_Int_Tables_number   1
_chemical_formula_structural   Nd5Zn2Ir3
_chemical_formula_sum   'Nd10 Zn4 Ir6'
_cell_volume   484.83889565
_cell_formula_units_Z   2
loop_
 _symmetry_equiv_pos_site_id
 _symmetry_equiv_pos_as_xyz
  1  'x, y, z'
loop_
 _atom_site_type_symbol
 _atom_site_label
 _atom_site_symmetry_multiplicity
 _atom_site_fract_x
 _atom_site_fract_y
 _atom_site_fract_z
 _atom_site_occupancy
  Nd  Nd0  1  0.250000  0.679436  0.429436  1
  Nd  Nd1  1  0.750000  0.820564  0.070564  1
  Nd  Nd2  1  0.429436  0.250000  0.679436  1
  Nd  Nd3  1  0.679436  0.429436  0.250000  1
  Nd  Nd4  1  0.070564  0.750000  0.820564  1
  Nd  Nd5  1  0.820564  0.070564  0.750000  1
  Nd  Nd6  1  0.222941  0.222941  0.222941  1
  Nd  Nd7  1  0.500000  0.000000  0.277059  1
  Nd  Nd8  1  0.277059  0.500000  0.000000  1
  Nd  Nd9  1  0.000000  0.277059  0.500000  1
  Zn  Zn10  1  0.594774  0.594774  0.594774  1
  Zn  Zn11  1  0.500000  0.000000  0.905226  1
  Zn  Zn12  1  0.905226  0.500000  0.000000  1
  Zn  Zn13  1  0.000000  0.905226  0.500000  1
  Ir  Ir14  1  0.250000  0.128887  0.878887  1
  Ir  Ir15  1  0.750000  0.371113  0.621113  1
  Ir  Ir16  1  0.878886  0.250000  0.128887  1
  Ir  Ir17  1  0.128887  0.878886  0.250000  1
  Ir  Ir18  1  0.621113  0.750000  0.371113  1
  Ir  Ir19  1  0.371113  0.621113  0.750000  1
