# generated using pymatgen
data_Ce2ThCu2Se7
_symmetry_space_group_name_H-M   'P 1'
_cell_length_a   10.33584881
_cell_length_b   10.34074549
_cell_length_c   6.04709243
_cell_angle_alpha   90.04298690
_cell_angle_beta   89.97976449
_cell_angle_gamma   120.02491844
_symmetry_Int_Tables_number   1
_chemical_formula_structural   Ce2ThCu2Se7
_chemical_formula_sum   'Ce4 Th2 Cu4 Se14'
_cell_volume   559.58492922
_cell_formula_units_Z   2
loop_
 _symmetry_equiv_pos_site_id
 _symmetry_equiv_pos_as_xyz
  1  'x, y, z'
loop_
 _atom_site_type_symbol
 _atom_site_label
 _atom_site_symmetry_multiplicity
 _atom_site_fract_x
 _atom_site_fract_y
 _atom_site_fract_z
 _atom_site_occupancy
  Ce  Ce0  1  0.847673  0.621262  0.529134  1
  Ce  Ce1  1  0.622198  0.773338  0.028632  1
  Ce  Ce2  1  0.771905  0.150453  0.529300  1
  Ce  Ce3  1  0.379877  0.227954  0.529258  1
  Th  Th4  1  0.225227  0.848327  0.029993  1
  Th  Th5  1  0.150956  0.376760  0.029908  1
  Cu  Cu6  1  0.666512  0.333386  0.154830  1
  Cu  Cu7  1  0.333910  0.666883  0.656130  1
  Cu  Cu8  1  0.999677  0.999758  0.502420  1
  Cu  Cu9  1  0.999327  0.999634  0.002686  1
  Se  Se10  1  0.666676  0.333619  0.755312  1
  Se  Se11  1  0.566408  0.486102  0.278800  1
  Se  Se12  1  0.154198  0.893209  0.515903  1
  Se  Se13  1  0.513854  0.080679  0.279283  1
  Se  Se14  1  0.435050  0.514150  0.778336  1
  Se  Se15  1  0.488241  0.920774  0.777812  1
  Se  Se16  1  0.845283  0.106614  0.015044  1
  Se  Se17  1  0.078491  0.565957  0.776652  1
  Se  Se18  1  0.739245  0.845881  0.514807  1
  Se  Se19  1  0.334687  0.667220  0.256721  1
  Se  Se20  1  0.919381  0.433800  0.279328  1
  Se  Se21  1  0.261463  0.154453  0.014953  1
  Se  Se22  1  0.107353  0.261044  0.515810  1
  Se  Se23  1  0.892408  0.738740  0.015357  1
