# generated using pymatgen
data_Y5Ho5(AlSb2)2
_symmetry_space_group_name_H-M   'P 1'
_cell_length_a   8.87768164
_cell_length_b   8.86605513
_cell_length_c   6.41958400
_cell_angle_alpha   90.00000000
_cell_angle_beta   90.00000000
_cell_angle_gamma   120.02929564
_symmetry_Int_Tables_number   1
_chemical_formula_structural   Y5Ho5(AlSb2)2
_chemical_formula_sum   'Y5 Ho5 Al2 Sb4'
_cell_volume   437.46088923
_cell_formula_units_Z   1
loop_
 _symmetry_equiv_pos_site_id
 _symmetry_equiv_pos_as_xyz
  1  'x, y, z'
loop_
 _atom_site_type_symbol
 _atom_site_label
 _atom_site_symmetry_multiplicity
 _atom_site_fract_x
 _atom_site_fract_y
 _atom_site_fract_z
 _atom_site_occupancy
  Y  Y0  1  0.754962  0.998598  0.750000  1
  Y  Y1  1  0.755801  0.756924  0.250000  1
  Y  Y2  1  0.007698  0.244697  0.250000  1
  Y  Y3  1  0.007827  0.762561  0.750000  1
  Y  Y4  1  0.243236  0.234197  0.750000  1
  Ho  Ho5  1  0.335194  0.667635  0.000052  1
  Ho  Ho6  1  0.656276  0.328067  0.499871  1
  Ho  Ho7  1  0.656276  0.328067  0.000129  1
  Ho  Ho8  1  0.335194  0.667635  0.499948  1
  Ho  Ho9  1  0.243724  0.009462  0.250000  1
  Al  Al10  1  0.398166  0.996903  0.750000  1
  Al  Al11  1  0.397914  0.400404  0.250000  1
  Sb  Sb12  1  0.999530  0.607570  0.250000  1
  Sb  Sb13  1  0.998563  0.392145  0.750000  1
  Sb  Sb14  1  0.605113  0.604478  0.750000  1
  Sb  Sb15  1  0.604527  0.000655  0.250000  1
