# generated using pymatgen
data_Tb13HoAu20
_symmetry_space_group_name_H-M   'P 1'
_cell_length_a   8.77199845
_cell_length_b   8.77199819
_cell_length_c   10.43492502
_cell_angle_alpha   89.99533475
_cell_angle_beta   89.99533643
_cell_angle_gamma   107.19185246
_symmetry_Int_Tables_number   1
_chemical_formula_structural   Tb13HoAu20
_chemical_formula_sum   'Tb13 Ho1 Au20'
_cell_volume   767.07081869
_cell_formula_units_Z   1
loop_
 _symmetry_equiv_pos_site_id
 _symmetry_equiv_pos_as_xyz
  1  'x, y, z'
loop_
 _atom_site_type_symbol
 _atom_site_label
 _atom_site_symmetry_multiplicity
 _atom_site_fract_x
 _atom_site_fract_y
 _atom_site_fract_z
 _atom_site_occupancy
  Tb  Tb0  1  0.692973  0.307027  0.000000  1
  Tb  Tb1  1  0.307027  0.692973  0.000000  1
  Tb  Tb2  1  0.807096  0.192904  0.500000  1
  Tb  Tb3  1  0.192904  0.807096  0.500000  1
  Tb  Tb4  1  0.500000  0.500000  0.500000  1
  Tb  Tb5  1  0.002718  0.502717  0.249913  1
  Tb  Tb6  1  0.997282  0.497283  0.750087  1
  Tb  Tb7  1  0.497283  0.997282  0.750087  1
  Tb  Tb8  1  0.502717  0.002718  0.249913  1
  Tb  Tb9  1  0.313190  0.313190  0.187787  1
  Tb  Tb10  1  0.686810  0.686810  0.812213  1
  Tb  Tb11  1  0.186598  0.186598  0.688208  1
  Tb  Tb12  1  0.813402  0.813402  0.311792  1
  Ho  Ho13  1  0.000000  0.000000  0.000000  1
  Au  Au14  1  0.860390  0.149092  0.209067  1
  Au  Au15  1  0.139610  0.850908  0.790933  1
  Au  Au16  1  0.640112  0.350523  0.709548  1
  Au  Au17  1  0.649477  0.359888  0.290452  1
  Au  Au18  1  0.359888  0.649477  0.290452  1
  Au  Au19  1  0.350523  0.640112  0.709548  1
  Au  Au20  1  0.850908  0.139610  0.790933  1
  Au  Au21  1  0.149092  0.860390  0.209067  1
  Au  Au22  1  0.937769  0.645725  0.002489  1
  Au  Au23  1  0.062231  0.354275  0.997511  1
  Au  Au24  1  0.562472  0.855149  0.502440  1
  Au  Au25  1  0.144851  0.437528  0.497560  1
  Au  Au26  1  0.437528  0.144851  0.497560  1
  Au  Au27  1  0.855149  0.562472  0.502440  1
  Au  Au28  1  0.354275  0.062231  0.997511  1
  Au  Au29  1  0.645725  0.937769  0.002489  1
  Au  Au30  1  0.105261  0.105261  0.397650  1
  Au  Au31  1  0.894739  0.894739  0.602350  1
  Au  Au32  1  0.394935  0.394935  0.897696  1
  Au  Au33  1  0.605065  0.605065  0.102304  1
