# generated using pymatgen
data_NdY5(AlAu5)2
_symmetry_space_group_name_H-M   'P 1'
_cell_length_a   8.51110300
_cell_length_b   8.51110418
_cell_length_c   13.49848200
_cell_angle_alpha   90.00000000
_cell_angle_beta   90.00000000
_cell_angle_gamma   128.45054830
_symmetry_Int_Tables_number   1
_chemical_formula_structural   NdY5(AlAu5)2
_chemical_formula_sum   'Nd2 Y10 Al4 Au20'
_cell_volume   765.77106075
_cell_formula_units_Z   2
loop_
 _symmetry_equiv_pos_site_id
 _symmetry_equiv_pos_as_xyz
  1  'x, y, z'
loop_
 _atom_site_type_symbol
 _atom_site_label
 _atom_site_symmetry_multiplicity
 _atom_site_fract_x
 _atom_site_fract_y
 _atom_site_fract_z
 _atom_site_occupancy
  Nd  Nd0  1  0.321370  0.678630  0.250000  1
  Nd  Nd1  1  0.678630  0.321370  0.750000  1
  Y  Y2  1  0.927286  0.072714  0.250000  1
  Y  Y3  1  0.072714  0.927286  0.750000  1
  Y  Y4  1  0.629709  0.370291  0.464523  1
  Y  Y5  1  0.370291  0.629709  0.535477  1
  Y  Y6  1  0.629709  0.370291  0.035477  1
  Y  Y7  1  0.370291  0.629709  0.964523  1
  Y  Y8  1  0.883229  0.116771  0.950754  1
  Y  Y9  1  0.116771  0.883229  0.049246  1
  Y  Y10  1  0.883229  0.116771  0.549246  1
  Y  Y11  1  0.116771  0.883229  0.450754  1
  Al  Al12  1  0.719829  0.280171  0.250000  1
  Al  Al13  1  0.280171  0.719829  0.750000  1
  Al  Al14  1  0.533435  0.466565  0.250000  1
  Al  Al15  1  0.466565  0.533435  0.750000  1
  Au  Au16  1  0.322740  0.070949  0.250000  1
  Au  Au17  1  0.070949  0.322740  0.750000  1
  Au  Au18  1  0.677260  0.929051  0.750000  1
  Au  Au19  1  0.929051  0.677260  0.250000  1
  Au  Au20  1  0.575158  0.008145  0.398385  1
  Au  Au21  1  0.008145  0.575158  0.601615  1
  Au  Au22  1  0.575158  0.008145  0.101615  1
  Au  Au23  1  0.008145  0.575158  0.898385  1
  Au  Au24  1  0.424842  0.991855  0.601615  1
  Au  Au25  1  0.991855  0.424842  0.398385  1
  Au  Au26  1  0.424842  0.991855  0.898385  1
  Au  Au27  1  0.991855  0.424842  0.101615  1
  Au  Au28  1  0.687050  0.741159  0.395139  1
  Au  Au29  1  0.741159  0.687050  0.604861  1
  Au  Au30  1  0.687050  0.741159  0.104861  1
  Au  Au31  1  0.741159  0.687050  0.895139  1
  Au  Au32  1  0.312950  0.258841  0.604861  1
  Au  Au33  1  0.258841  0.312950  0.395139  1
  Au  Au34  1  0.312950  0.258841  0.895139  1
  Au  Au35  1  0.258841  0.312950  0.104861  1
