# generated using pymatgen
data_LiZr6Zn17SiNi5
_symmetry_space_group_name_H-M   'P 1'
_cell_length_a   8.62197695
_cell_length_b   8.67387825
_cell_length_c   8.62197674
_cell_angle_alpha   59.80067274
_cell_angle_beta   59.97774354
_cell_angle_gamma   59.80067239
_symmetry_Int_Tables_number   1
_chemical_formula_structural   LiZr6Zn17SiNi5
_chemical_formula_sum   'Li1 Zr6 Zn17 Si1 Ni5'
_cell_volume   454.48998834
_cell_formula_units_Z   1
loop_
 _symmetry_equiv_pos_site_id
 _symmetry_equiv_pos_as_xyz
  1  'x, y, z'
loop_
 _atom_site_type_symbol
 _atom_site_label
 _atom_site_symmetry_multiplicity
 _atom_site_fract_x
 _atom_site_fract_y
 _atom_site_fract_z
 _atom_site_occupancy
  Li  Li0  1  0.000000  0.000000  0.000000  1
  Zr  Zr1  1  0.712008  0.284455  0.287992  1
  Zr  Zr2  1  0.287992  0.715545  0.712008  1
  Zr  Zr3  1  0.285714  0.714286  0.285714  1
  Zr  Zr4  1  0.714286  0.285714  0.714286  1
  Zr  Zr5  1  0.287992  0.284455  0.712008  1
  Zr  Zr6  1  0.712008  0.715545  0.287992  1
  Zn  Zn7  1  0.126645  0.117856  0.126645  1
  Zn  Zn8  1  0.873355  0.882144  0.873355  1
  Zn  Zn9  1  0.125687  0.123479  0.627356  1
  Zn  Zn10  1  0.126645  0.628857  0.126645  1
  Zn  Zn11  1  0.874313  0.876521  0.372644  1
  Zn  Zn12  1  0.873355  0.371143  0.873355  1
  Zn  Zn13  1  0.627356  0.123479  0.125687  1
  Zn  Zn14  1  0.372644  0.876521  0.874313  1
  Zn  Zn15  1  0.000000  0.500000  0.000000  1
  Zn  Zn16  1  0.335747  0.336228  0.335747  1
  Zn  Zn17  1  0.664253  0.663772  0.664253  1
  Zn  Zn18  1  0.343840  0.333394  0.989374  1
  Zn  Zn19  1  0.335747  0.992280  0.335747  1
  Zn  Zn20  1  0.656160  0.666606  0.010626  1
  Zn  Zn21  1  0.664253  0.007720  0.664253  1
  Zn  Zn22  1  0.989374  0.333394  0.343840  1
  Zn  Zn23  1  0.010626  0.666606  0.656160  1
  Si  Si24  1  0.500000  0.500000  0.500000  1
  Ni  Ni25  1  0.500000  0.000000  0.000000  1
  Ni  Ni26  1  0.000000  0.500000  0.500000  1
  Ni  Ni27  1  0.500000  0.000000  0.500000  1
  Ni  Ni28  1  0.000000  0.000000  0.500000  1
  Ni  Ni29  1  0.500000  0.500000  0.000000  1
