# generated using pymatgen
data_Sc2Ti3(Re7Tc5)2
_symmetry_space_group_name_H-M   'P 1'
_cell_length_a   8.37932002
_cell_length_b   8.38407274
_cell_length_c   8.37921756
_cell_angle_alpha   109.47376023
_cell_angle_beta   109.47411159
_cell_angle_gamma   109.53959029
_symmetry_Int_Tables_number   1
_chemical_formula_structural   Sc2Ti3(Re7Tc5)2
_chemical_formula_sum   'Sc2 Ti3 Re14 Tc10'
_cell_volume   452.74020636
_cell_formula_units_Z   1
loop_
 _symmetry_equiv_pos_site_id
 _symmetry_equiv_pos_as_xyz
  1  'x, y, z'
loop_
 _atom_site_type_symbol
 _atom_site_label
 _atom_site_symmetry_multiplicity
 _atom_site_fract_x
 _atom_site_fract_y
 _atom_site_fract_z
 _atom_site_occupancy
  Sc  Sc0  1  0.999966  0.999479  0.999820  1
  Sc  Sc1  1  0.629293  0.999675  0.999976  1
  Ti  Ti2  1  0.000235  0.628760  0.999997  1
  Ti  Ti3  1  0.999905  0.999415  0.628630  1
  Ti  Ti4  1  0.371281  0.370830  0.369543  1
  Re  Re5  1  0.280228  0.599379  0.599564  1
  Re  Re6  1  0.598072  0.279240  0.599308  1
  Re  Re7  1  0.376796  0.193766  0.999931  1
  Re  Re8  1  0.182312  0.806979  0.806956  1
  Re  Re9  1  0.377006  0.001143  0.194397  1
  Re  Re10  1  0.194621  0.376419  0.999845  1
  Re  Re11  1  0.002798  0.378728  0.194539  1
  Re  Re12  1  0.808553  0.183789  0.806416  1
  Re  Re13  1  0.808102  0.806093  0.184928  1
  Re  Re14  1  0.002411  0.194051  0.378858  1
  Re  Re15  1  0.194705  0.000610  0.376861  1
  Re  Re16  1  0.622627  0.620745  0.814735  1
  Re  Re17  1  0.816694  0.623153  0.622697  1
  Re  Re18  1  0.622398  0.813787  0.620455  1
  Tc  Tc19  1  0.397520  0.676959  0.000516  1
  Tc  Tc20  1  0.721580  0.323786  0.323033  1
  Tc  Tc21  1  0.397834  0.000382  0.676417  1
  Tc  Tc22  1  0.682454  0.400915  0.000293  1
  Tc  Tc23  1  0.999003  0.401787  0.681234  1
  Tc  Tc24  1  0.317230  0.720521  0.317965  1
  Tc  Tc25  1  0.317689  0.318999  0.721139  1
  Tc  Tc26  1  0.999161  0.681076  0.401526  1
  Tc  Tc27  1  0.681853  0.000529  0.401054  1
  Tc  Tc28  1  0.597676  0.599004  0.279370  1
