# generated using pymatgen
data_Yb2ZnSi13Ir6
_symmetry_space_group_name_H-M   'P 1'
_cell_length_a   8.12146701
_cell_length_b   8.02174587
_cell_length_c   7.99985911
_cell_angle_alpha   56.51528746
_cell_angle_beta   57.05317988
_cell_angle_gamma   56.70295896
_symmetry_Int_Tables_number   1
_chemical_formula_structural   Yb2ZnSi13Ir6
_chemical_formula_sum   'Yb2 Zn1 Si13 Ir6'
_cell_volume   340.92234954
_cell_formula_units_Z   1
loop_
 _symmetry_equiv_pos_site_id
 _symmetry_equiv_pos_as_xyz
  1  'x, y, z'
loop_
 _atom_site_type_symbol
 _atom_site_label
 _atom_site_symmetry_multiplicity
 _atom_site_fract_x
 _atom_site_fract_y
 _atom_site_fract_z
 _atom_site_occupancy
  Yb  Yb0  1  0.501429  0.496234  0.498489  1
  Yb  Yb1  1  0.000877  0.001732  0.996534  1
  Zn  Zn2  1  0.355457  0.163452  0.580989  1
  Si  Si3  1  0.562337  0.347993  0.176499  1
  Si  Si4  1  0.171070  0.566424  0.353749  1
  Si  Si5  1  0.061766  0.672311  0.857215  1
  Si  Si6  1  0.849927  0.061806  0.673582  1
  Si  Si7  1  0.670715  0.849612  0.067758  1
  Si  Si8  1  0.646158  0.830738  0.434899  1
  Si  Si9  1  0.438054  0.646689  0.825686  1
  Si  Si10  1  0.830963  0.430728  0.651099  1
  Si  Si11  1  0.934321  0.332956  0.146161  1
  Si  Si12  1  0.154013  0.937120  0.318603  1
  Si  Si13  1  0.323621  0.159740  0.929132  1
  Si  Si14  1  0.250019  0.248056  0.252111  1
  Si  Si15  1  0.746462  0.754341  0.748501  1
  Ir  Ir16  1  0.927725  0.571185  0.251866  1
  Ir  Ir17  1  0.249236  0.915631  0.571800  1
  Ir  Ir18  1  0.570557  0.249058  0.928839  1
  Ir  Ir19  1  0.766156  0.068913  0.416766  1
  Ir  Ir20  1  0.429181  0.753889  0.066448  1
  Ir  Ir21  1  0.059953  0.441391  0.753276  1
