# generated using pymatgen
data_Ho5Er11InAg3Rh4
_symmetry_space_group_name_H-M   'P 1'
_cell_length_a   9.47991648
_cell_length_b   9.47638674
_cell_length_c   9.47859075
_cell_angle_alpha   60.16886656
_cell_angle_beta   60.16202133
_cell_angle_gamma   60.18615741
_symmetry_Int_Tables_number   1
_chemical_formula_structural   Ho5Er11InAg3Rh4
_chemical_formula_sum   'Ho5 Er11 In1 Ag3 Rh4'
_cell_volume   604.46047014
_cell_formula_units_Z   1
loop_
 _symmetry_equiv_pos_site_id
 _symmetry_equiv_pos_as_xyz
  1  'x, y, z'
loop_
 _atom_site_type_symbol
 _atom_site_label
 _atom_site_symmetry_multiplicity
 _atom_site_fract_x
 _atom_site_fract_y
 _atom_site_fract_z
 _atom_site_occupancy
  Ho  Ho0  1  0.189448  0.189759  0.810387  1
  Ho  Ho1  1  0.435955  0.063229  0.063399  1
  Ho  Ho2  1  0.435054  0.060752  0.435014  1
  Ho  Ho3  1  0.063115  0.436045  0.063470  1
  Ho  Ho4  1  0.648663  0.053379  0.648102  1
  Er  Er5  1  0.188905  0.812083  0.812247  1
  Er  Er6  1  0.063169  0.063266  0.436033  1
  Er  Er7  1  0.810250  0.189632  0.189633  1
  Er  Er8  1  0.812342  0.812080  0.188957  1
  Er  Er9  1  0.648358  0.648340  0.053174  1
  Er  Er10  1  0.648792  0.648613  0.648757  1
  Er  Er11  1  0.060485  0.435410  0.435151  1
  Er  Er12  1  0.053087  0.648704  0.648192  1
  Er  Er13  1  0.812214  0.189047  0.812168  1
  Er  Er14  1  0.435200  0.435414  0.060598  1
  Er  Er15  1  0.189579  0.810135  0.189873  1
  In  In16  1  0.421025  0.421406  0.420876  1
  Ag  Ag17  1  0.417305  0.748731  0.417625  1
  Ag  Ag18  1  0.417610  0.417902  0.748693  1
  Ag  Ag19  1  0.749037  0.417530  0.417584  1
  Rh  Rh20  1  0.856119  0.429653  0.856569  1
  Rh  Rh21  1  0.857204  0.856162  0.428813  1
  Rh  Rh22  1  0.429162  0.855677  0.857149  1
  Rh  Rh23  1  0.857921  0.857049  0.857535  1
