# generated using pymatgen
data_Th8Ti10Nb2Si15As
_symmetry_space_group_name_H-M   'P 1'
_cell_length_a   7.25195785
_cell_length_b   7.24871696
_cell_length_c   13.33723400
_cell_angle_alpha   90.00146229
_cell_angle_beta   89.89643714
_cell_angle_gamma   89.93299828
_symmetry_Int_Tables_number   1
_chemical_formula_structural   Th8Ti10Nb2Si15As
_chemical_formula_sum   'Th8 Ti10 Nb2 Si15 As1'
_cell_volume   701.10195397
_cell_formula_units_Z   1
loop_
 _symmetry_equiv_pos_site_id
 _symmetry_equiv_pos_as_xyz
  1  'x, y, z'
loop_
 _atom_site_type_symbol
 _atom_site_label
 _atom_site_symmetry_multiplicity
 _atom_site_fract_x
 _atom_site_fract_y
 _atom_site_fract_z
 _atom_site_occupancy
  Th  Th0  1  0.339199  0.999454  0.467790  1
  Th  Th1  1  0.498582  0.840843  0.718637  1
  Th  Th2  1  0.499962  0.160387  0.218128  1
  Th  Th3  1  0.838597  0.498702  0.281830  1
  Th  Th4  1  0.161830  0.499563  0.781458  1
  Th  Th5  1  0.662870  0.997367  0.968668  1
  Th  Th6  1  0.998335  0.341585  0.530458  1
  Th  Th7  1  0.000311  0.660676  0.031794  1
  Ti  Ti8  1  0.824793  0.172495  0.750080  1
  Ti  Ti9  1  0.671463  0.672005  0.500250  1
  Ti  Ti10  1  0.160287  0.008509  0.876326  1
  Ti  Ti11  1  0.491466  0.657152  0.125987  1
  Ti  Ti12  1  0.507522  0.341501  0.626606  1
  Ti  Ti13  1  0.659291  0.496567  0.876054  1
  Ti  Ti14  1  0.341033  0.507921  0.373590  1
  Ti  Ti15  1  0.842712  0.993223  0.374579  1
  Ti  Ti16  1  0.008356  0.156829  0.124251  1
  Ti  Ti17  1  0.989544  0.837237  0.623083  1
  Nb  Nb18  1  0.328158  0.328271  0.000046  1
  Nb  Nb19  1  0.171710  0.828811  0.249803  1
  Si  Si20  1  0.376143  0.698922  0.935279  1
  Si  Si21  1  0.622489  0.302973  0.436782  1
  Si  Si22  1  0.697985  0.376201  0.064108  1
  Si  Si23  1  0.302224  0.623417  0.564060  1
  Si  Si24  1  0.802488  0.876217  0.186180  1
  Si  Si25  1  0.123895  0.198408  0.314646  1
  Si  Si26  1  0.876936  0.802222  0.813283  1
  Si  Si27  1  0.287675  0.956739  0.063725  1
  Si  Si28  1  0.543463  0.786221  0.315414  1
  Si  Si29  1  0.469282  0.217469  0.818063  1
  Si  Si30  1  0.785837  0.542371  0.684926  1
  Si  Si31  1  0.212616  0.456762  0.186002  1
  Si  Si32  1  0.712773  0.042804  0.564877  1
  Si  Si33  1  0.957395  0.286519  0.934696  1
  Si  Si34  1  0.041356  0.713263  0.435613  1
  As  As35  1  0.191421  0.120395  0.682923  1
