# generated using pymatgen
data_Er6Al24IrOsRu6
_symmetry_space_group_name_H-M   'P 1'
_cell_length_a   8.77504948
_cell_length_b   8.77949781
_cell_length_c   9.57229636
_cell_angle_alpha   90.07445720
_cell_angle_beta   90.01172676
_cell_angle_gamma   120.06585690
_symmetry_Int_Tables_number   1
_chemical_formula_structural   Er6Al24IrOsRu6
_chemical_formula_sum   'Er6 Al24 Ir1 Os1 Ru6'
_cell_volume   638.22946371
_cell_formula_units_Z   1
loop_
 _symmetry_equiv_pos_site_id
 _symmetry_equiv_pos_as_xyz
  1  'x, y, z'
loop_
 _atom_site_type_symbol
 _atom_site_label
 _atom_site_symmetry_multiplicity
 _atom_site_fract_x
 _atom_site_fract_y
 _atom_site_fract_z
 _atom_site_occupancy
  Er  Er0  1  0.195590  0.387430  0.249077  1
  Er  Er1  1  0.804410  0.612570  0.750923  1
  Er  Er2  1  0.611874  0.804428  0.249582  1
  Er  Er3  1  0.388126  0.195572  0.750418  1
  Er  Er4  1  0.193886  0.806778  0.250017  1
  Er  Er5  1  0.806114  0.193222  0.749983  1
  Al  Al6  1  0.332774  0.667188  0.019024  1
  Al  Al7  1  0.667226  0.332812  0.980976  1
  Al  Al8  1  0.665018  0.332495  0.519641  1
  Al  Al9  1  0.334982  0.667505  0.480359  1
  Al  Al10  1  0.163303  0.325468  0.577238  1
  Al  Al11  1  0.836697  0.674532  0.422762  1
  Al  Al12  1  0.674229  0.837273  0.577111  1
  Al  Al13  1  0.837452  0.674084  0.077272  1
  Al  Al14  1  0.325771  0.162727  0.422889  1
  Al  Al15  1  0.162548  0.325916  0.922728  1
  Al  Al16  1  0.163239  0.838257  0.577641  1
  Al  Al17  1  0.325967  0.162865  0.077219  1
  Al  Al18  1  0.836761  0.161743  0.422359  1
  Al  Al19  1  0.674033  0.837135  0.922781  1
  Al  Al20  1  0.837515  0.163014  0.077685  1
  Al  Al21  1  0.162485  0.836986  0.922315  1
  Al  Al22  1  0.561840  0.122367  0.250369  1
  Al  Al23  1  0.438160  0.877633  0.749631  1
  Al  Al24  1  0.877091  0.438118  0.249157  1
  Al  Al25  1  0.122909  0.561882  0.750843  1
  Al  Al26  1  0.562502  0.437895  0.250831  1
  Al  Al27  1  0.437498  0.562105  0.749169  1
  Al  Al28  1  0.000324  0.999965  0.250109  1
  Al  Al29  1  0.999676  0.000035  0.749891  1
  Ir  Ir30  1  0.000000  0.500000  0.500000  1
  Os  Os31  1  0.500000  0.500000  0.000000  1
  Ru  Ru32  1  0.500000  0.000000  0.000000  1
  Ru  Ru33  1  0.000000  0.500000  0.000000  1
  Ru  Ru34  1  0.500000  0.000000  0.500000  1
  Ru  Ru35  1  0.500000  0.500000  0.500000  1
  Ru  Ru36  1  0.000000  0.000000  0.000000  1
  Ru  Ru37  1  0.000000  0.000000  0.500000  1
