# generated using pymatgen
data_Tm3Lu7In8PtRh3
_symmetry_space_group_name_H-M   'P 1'
_cell_length_a   3.55660900
_cell_length_b   7.97610849
_cell_length_c   18.04131470
_cell_angle_alpha   90.01906310
_cell_angle_beta   90.00000000
_cell_angle_gamma   90.00000000
_symmetry_Int_Tables_number   1
_chemical_formula_structural   Tm3Lu7In8PtRh3
_chemical_formula_sum   'Tm3 Lu7 In8 Pt1 Rh3'
_cell_volume   511.79416917
_cell_formula_units_Z   1
loop_
 _symmetry_equiv_pos_site_id
 _symmetry_equiv_pos_as_xyz
  1  'x, y, z'
loop_
 _atom_site_type_symbol
 _atom_site_label
 _atom_site_symmetry_multiplicity
 _atom_site_fract_x
 _atom_site_fract_y
 _atom_site_fract_z
 _atom_site_occupancy
  Tm  Tm0  1  0.000000  0.747835  0.279286  1
  Tm  Tm1  1  0.000000  0.999709  0.999967  1
  Tm  Tm2  1  0.000000  0.500336  0.500115  1
  Lu  Lu3  1  0.000000  0.115651  0.412752  1
  Lu  Lu4  1  0.000000  0.883468  0.587843  1
  Lu  Lu5  1  0.000000  0.383820  0.912196  1
  Lu  Lu6  1  0.000000  0.617090  0.086154  1
  Lu  Lu7  1  0.000000  0.240733  0.221323  1
  Lu  Lu8  1  0.000000  0.755804  0.778923  1
  Lu  Lu9  1  0.000000  0.255878  0.721344  1
  In  In10  1  0.500000  0.422657  0.351936  1
  In  In11  1  0.500000  0.573595  0.650054  1
  In  In12  1  0.500000  0.074703  0.850199  1
  In  In13  1  0.500000  0.928495  0.149003  1
  In  In14  1  0.500000  0.292506  0.065350  1
  In  In15  1  0.500000  0.706286  0.932638  1
  In  In16  1  0.500000  0.205880  0.566962  1
  In  In17  1  0.500000  0.793745  0.433110  1
  Pt  Pt18  1  0.500000  0.523433  0.195964  1
  Rh  Rh19  1  0.500000  0.025301  0.304591  1
  Rh  Rh20  1  0.500000  0.976870  0.695582  1
  Rh  Rh21  1  0.500000  0.476202  0.804711  1
