# generated using pymatgen
data_Tb4Pr4S11Cl
_symmetry_space_group_name_H-M   'P 1'
_cell_length_a   3.98162100
_cell_length_b   10.59256318
_cell_length_c   10.96154348
_cell_angle_alpha   90.00052272
_cell_angle_beta   90.00000000
_cell_angle_gamma   90.00000000
_symmetry_Int_Tables_number   1
_chemical_formula_structural   Tb4Pr4S11Cl
_chemical_formula_sum   'Tb4 Pr4 S11 Cl1'
_cell_volume   462.30936609
_cell_formula_units_Z   1
loop_
 _symmetry_equiv_pos_site_id
 _symmetry_equiv_pos_as_xyz
  1  'x, y, z'
loop_
 _atom_site_type_symbol
 _atom_site_label
 _atom_site_symmetry_multiplicity
 _atom_site_fract_x
 _atom_site_fract_y
 _atom_site_fract_z
 _atom_site_occupancy
  Tb  Tb0  1  0.250000  0.182524  0.481743  1
  Tb  Tb1  1  0.750000  0.817822  0.506856  1
  Tb  Tb2  1  0.750000  0.683118  0.013190  1
  Tb  Tb3  1  0.250000  0.309778  0.003482  1
  Pr  Pr4  1  0.250000  0.987729  0.806662  1
  Pr  Pr5  1  0.750000  0.998161  0.191006  1
  Pr  Pr6  1  0.750000  0.516836  0.691912  1
  Pr  Pr7  1  0.250000  0.502697  0.309449  1
  S  S8  1  0.750000  0.703896  0.270048  1
  S  S9  1  0.750000  0.791447  0.768734  1
  S  S10  1  0.250000  0.202069  0.230730  1
  S  S11  1  0.250000  0.946292  0.381934  1
  S  S12  1  0.750000  0.057142  0.616850  1
  S  S13  1  0.750000  0.445004  0.120044  1
  S  S14  1  0.250000  0.546347  0.888522  1
  S  S15  1  0.250000  0.863809  0.042816  1
  S  S16  1  0.750000  0.135766  0.948977  1
  S  S17  1  0.750000  0.367239  0.460874  1
  S  S18  1  0.250000  0.638391  0.543884  1
  Cl  Cl19  1  0.250000  0.303934  0.722289  1
