# generated using pymatgen
data_CoSn2Sb10Pd3
_symmetry_space_group_name_H-M   'P 1'
_cell_length_a   8.16221292
_cell_length_b   8.14304833
_cell_length_c   8.15805221
_cell_angle_alpha   109.36576673
_cell_angle_beta   109.32172195
_cell_angle_gamma   109.19977818
_symmetry_Int_Tables_number   1
_chemical_formula_structural   CoSn2Sb10Pd3
_chemical_formula_sum   'Co1 Sn2 Sb10 Pd3'
_cell_volume   420.09586021
_cell_formula_units_Z   1
loop_
 _symmetry_equiv_pos_site_id
 _symmetry_equiv_pos_as_xyz
  1  'x, y, z'
loop_
 _atom_site_type_symbol
 _atom_site_label
 _atom_site_symmetry_multiplicity
 _atom_site_fract_x
 _atom_site_fract_y
 _atom_site_fract_z
 _atom_site_occupancy
  Co  Co0  1  0.503897  0.499180  0.499165  1
  Sn  Sn1  1  0.167525  0.343162  0.492630  1
  Sn  Sn2  1  0.657124  0.811714  0.155398  1
  Sb  Sb3  1  0.189501  0.846202  0.343415  1
  Sb  Sb4  1  0.651869  0.506822  0.832637  1
  Sb  Sb5  1  0.807336  0.152184  0.652911  1
  Sb  Sb6  1  0.344690  0.196542  0.847177  1
  Sb  Sb7  1  0.505529  0.829902  0.654326  1
  Sb  Sb8  1  0.493445  0.165788  0.345119  1
  Sb  Sb9  1  0.347013  0.496563  0.168240  1
  Sb  Sb10  1  0.155246  0.654612  0.808615  1
  Sb  Sb11  1  0.846569  0.342932  0.193064  1
  Sb  Sb12  1  0.834464  0.653788  0.506373  1
  Pd  Pd13  1  0.497552  0.002661  0.998808  1
  Pd  Pd14  1  0.997002  0.498593  0.999128  1
  Pd  Pd15  1  0.001237  0.999356  0.502993  1
