# generated using pymatgen
data_Er4Al24Pd8Rh
_symmetry_space_group_name_H-M   'P 1'
_cell_length_a   7.51591830
_cell_length_b   7.54548873
_cell_length_c   13.16514362
_cell_angle_alpha   84.62273336
_cell_angle_beta   79.14158470
_cell_angle_gamma   59.91566894
_symmetry_Int_Tables_number   1
_chemical_formula_structural   Er4Al24Pd8Rh
_chemical_formula_sum   'Er4 Al24 Pd8 Rh1'
_cell_volume   634.46786654
_cell_formula_units_Z   1
loop_
 _symmetry_equiv_pos_site_id
 _symmetry_equiv_pos_as_xyz
  1  'x, y, z'
loop_
 _atom_site_type_symbol
 _atom_site_label
 _atom_site_symmetry_multiplicity
 _atom_site_fract_x
 _atom_site_fract_y
 _atom_site_fract_z
 _atom_site_occupancy
  Er  Er0  1  0.393304  0.168737  0.808997  1
  Er  Er1  1  0.606696  0.831263  0.191003  1
  Er  Er2  1  0.733997  0.497944  0.808831  1
  Er  Er3  1  0.266003  0.502056  0.191169  1
  Al  Al4  1  0.687336  0.830617  0.945202  1
  Al  Al5  1  0.312664  0.169383  0.054798  1
  Al  Al6  1  0.146334  0.832690  0.561479  1
  Al  Al7  1  0.853666  0.167310  0.438521  1
  Al  Al8  1  0.479371  0.166612  0.559162  1
  Al  Al9  1  0.520629  0.833388  0.440838  1
  Al  Al10  1  0.217282  0.165143  0.328645  1
  Al  Al11  1  0.782718  0.834857  0.671355  1
  Al  Al12  1  0.436548  0.506895  0.671346  1
  Al  Al13  1  0.563452  0.493105  0.328654  1
  Al  Al14  1  0.108954  0.159931  0.670111  1
  Al  Al15  1  0.891046  0.840069  0.329889  1
  Al  Al16  1  0.349759  0.499441  0.945382  1
  Al  Al17  1  0.650241  0.500559  0.054618  1
  Al  Al18  1  0.015295  0.171785  0.954081  1
  Al  Al19  1  0.984705  0.828215  0.045919  1
  Al  Al20  1  0.186831  0.499496  0.440765  1
  Al  Al21  1  0.813169  0.500504  0.559235  1
  Al  Al22  1  0.733359  0.163620  0.183204  1
  Al  Al23  1  0.266641  0.836380  0.816796  1
  Al  Al24  1  0.061230  0.629310  0.817430  1
  Al  Al25  1  0.938770  0.370690  0.182570  1
  Al  Al26  1  0.854655  0.042494  0.816339  1
  Al  Al27  1  0.145345  0.957506  0.183661  1
  Pd  Pd28  1  0.120047  0.492306  0.638776  1
  Pd  Pd29  1  0.879953  0.507694  0.361224  1
  Pd  Pd30  1  0.656783  0.171474  0.999776  1
  Pd  Pd31  1  0.343217  0.828526  0.000224  1
  Pd  Pd32  1  0.537609  0.166826  0.361552  1
  Pd  Pd33  1  0.462391  0.833174  0.638448  1
  Pd  Pd34  1  0.778404  0.174839  0.637473  1
  Pd  Pd35  1  0.221596  0.825161  0.362527  1
  Rh  Rh36  1  0.000000  0.500000  0.000000  1
