# generated using pymatgen
data_Ta12Al9V3N4
_symmetry_space_group_name_H-M   'P 1'
_cell_length_a   8.28950230
_cell_length_b   8.28950233
_cell_length_c   8.26326881
_cell_angle_alpha   59.89492725
_cell_angle_beta   59.89492435
_cell_angle_gamma   59.99999845
_symmetry_Int_Tables_number   1
_chemical_formula_structural   Ta12Al9V3N4
_chemical_formula_sum   'Ta12 Al9 V3 N4'
_cell_volume   400.86876578
_cell_formula_units_Z   1
loop_
 _symmetry_equiv_pos_site_id
 _symmetry_equiv_pos_as_xyz
  1  'x, y, z'
loop_
 _atom_site_type_symbol
 _atom_site_label
 _atom_site_symmetry_multiplicity
 _atom_site_fract_x
 _atom_site_fract_y
 _atom_site_fract_z
 _atom_site_occupancy
  Ta  Ta0  1  0.804397  0.804397  0.195902  1
  Ta  Ta1  1  0.195631  0.195631  0.805364  1
  Ta  Ta2  1  0.803373  0.195631  0.805364  1
  Ta  Ta3  1  0.195303  0.804397  0.195902  1
  Ta  Ta4  1  0.195631  0.803373  0.805364  1
  Ta  Ta5  1  0.804397  0.195303  0.195902  1
  Ta  Ta6  1  0.445603  0.445603  0.054098  1
  Ta  Ta7  1  0.054369  0.054369  0.444636  1
  Ta  Ta8  1  0.446627  0.054369  0.444636  1
  Ta  Ta9  1  0.054697  0.445603  0.054098  1
  Ta  Ta10  1  0.054369  0.446627  0.444636  1
  Ta  Ta11  1  0.445603  0.054697  0.054098  1
  Al  Al12  1  0.625000  0.625000  0.125000  1
  Al  Al13  1  0.757504  0.412218  0.418062  1
  Al  Al14  1  0.412218  0.757504  0.418062  1
  Al  Al15  1  0.413732  0.413732  0.758804  1
  Al  Al16  1  0.412218  0.412218  0.418062  1
  Al  Al17  1  0.492496  0.837782  0.831938  1
  Al  Al18  1  0.837782  0.492496  0.831938  1
  Al  Al19  1  0.836268  0.836268  0.491196  1
  Al  Al20  1  0.837782  0.837782  0.831938  1
  V  V21  1  0.125000  0.625000  0.625000  1
  V  V22  1  0.625000  0.125000  0.625000  1
  V  V23  1  0.625000  0.625000  0.625000  1
  N  N24  1  0.625000  0.125000  0.125000  1
  N  N25  1  0.125000  0.625000  0.125000  1
  N  N26  1  0.125000  0.125000  0.625000  1
  N  N27  1  0.125000  0.125000  0.125000  1
