# generated using pymatgen
data_Pr8HoTmIn6
_symmetry_space_group_name_H-M   'P 1'
_cell_length_a   6.23908592
_cell_length_b   9.43163412
_cell_length_c   9.43163425
_cell_angle_alpha   83.85019695
_cell_angle_beta   70.88409308
_cell_angle_gamma   70.88408885
_symmetry_Int_Tables_number   1
_chemical_formula_structural   Pr8HoTmIn6
_chemical_formula_sum   'Pr8 Ho1 Tm1 In6'
_cell_volume   495.48209471
_cell_formula_units_Z   1
loop_
 _symmetry_equiv_pos_site_id
 _symmetry_equiv_pos_as_xyz
  1  'x, y, z'
loop_
 _atom_site_type_symbol
 _atom_site_label
 _atom_site_symmetry_multiplicity
 _atom_site_fract_x
 _atom_site_fract_y
 _atom_site_fract_z
 _atom_site_occupancy
  Pr  Pr0  1  0.722162  0.863257  0.690938  1
  Pr  Pr1  1  0.277162  0.136629  0.309021  1
  Pr  Pr2  1  0.777838  0.309062  0.136743  1
  Pr  Pr3  1  0.222838  0.690979  0.863371  1
  Pr  Pr4  1  0.586168  0.691413  0.136574  1
  Pr  Pr5  1  0.414745  0.308587  0.863449  1
  Pr  Pr6  1  0.085255  0.136551  0.691413  1
  Pr  Pr7  1  0.913832  0.863426  0.308587  1
  Ho  Ho8  1  0.250000  0.499875  0.500125  1
  Tm  Tm9  1  0.750000  0.500113  0.499887  1
  In  In10  1  0.156562  0.500446  0.186803  1
  In  In11  1  0.843106  0.499574  0.813127  1
  In  In12  1  0.343438  0.813197  0.499554  1
  In  In13  1  0.656894  0.186873  0.500426  1
  In  In14  1  0.250000  0.000212  0.999788  1
  In  In15  1  0.750000  0.999808  0.000192  1
