# generated using pymatgen
data_Dy3Tm5Mn2(B12Rh)2
_symmetry_space_group_name_H-M   'P 1'
_cell_length_a   3.59472900
_cell_length_b   9.07041097
_cell_length_c   11.45130315
_cell_angle_alpha   90.21207794
_cell_angle_beta   90.00000000
_cell_angle_gamma   90.00000000
_symmetry_Int_Tables_number   1
_chemical_formula_structural   Dy3Tm5Mn2(B12Rh)2
_chemical_formula_sum   'Dy3 Tm5 Mn2 B24 Rh2'
_cell_volume   373.37484667
_cell_formula_units_Z   1
loop_
 _symmetry_equiv_pos_site_id
 _symmetry_equiv_pos_as_xyz
  1  'x, y, z'
loop_
 _atom_site_type_symbol
 _atom_site_label
 _atom_site_symmetry_multiplicity
 _atom_site_fract_x
 _atom_site_fract_y
 _atom_site_fract_z
 _atom_site_occupancy
  Dy  Dy0  1  0.500000  0.317975  0.410721  1
  Dy  Dy1  1  0.500000  0.682012  0.589172  1
  Dy  Dy2  1  0.500000  0.172280  0.917750  1
  Tm  Tm3  1  0.500000  0.827770  0.081962  1
  Tm  Tm4  1  0.500000  0.439291  0.126737  1
  Tm  Tm5  1  0.500000  0.561135  0.873536  1
  Tm  Tm6  1  0.500000  0.052193  0.630444  1
  Tm  Tm7  1  0.500000  0.947597  0.369551  1
  Mn  Mn8  1  0.500000  0.138740  0.179979  1
  Mn  Mn9  1  0.500000  0.860578  0.820238  1
  B  B10  1  0.000000  0.105017  0.471636  1
  B  B11  1  0.000000  0.894838  0.528288  1
  B  B12  1  0.000000  0.394724  0.971089  1
  B  B13  1  0.000000  0.606362  0.029196  1
  B  B14  1  0.000000  0.131491  0.313402  1
  B  B15  1  0.000000  0.868214  0.686557  1
  B  B16  1  0.000000  0.368204  0.817562  1
  B  B17  1  0.000000  0.632692  0.182066  1
  B  B18  1  0.000000  0.053225  0.068281  1
  B  B19  1  0.000000  0.945651  0.932289  1
  B  B20  1  0.000000  0.445690  0.566393  1
  B  B21  1  0.000000  0.554511  0.433425  1
  B  B22  1  0.000000  0.482698  0.286665  1
  B  B23  1  0.000000  0.517690  0.713275  1
  B  B24  1  0.000000  0.013826  0.788369  1
  B  B25  1  0.000000  0.985059  0.211578  1
  B  B26  1  0.000000  0.246377  0.082703  1
  B  B27  1  0.000000  0.753439  0.918200  1
  B  B28  1  0.000000  0.249269  0.579588  1
  B  B29  1  0.000000  0.750749  0.420190  1
  B  B30  1  0.000000  0.290425  0.233828  1
  B  B31  1  0.000000  0.709564  0.766486  1
  B  B32  1  0.000000  0.207261  0.735944  1
  B  B33  1  0.000000  0.793148  0.263346  1
  Rh  Rh34  1  0.500000  0.361190  0.679600  1
  Rh  Rh35  1  0.500000  0.639114  0.319955  1
