# generated using pymatgen
data_Dy5Y15Ir5Rh7
_symmetry_space_group_name_H-M   'P 1'
_cell_length_a   10.93061907
_cell_length_b   10.93137497
_cell_length_c   6.39569202
_cell_angle_alpha   90.00160555
_cell_angle_beta   89.99522954
_cell_angle_gamma   90.03758084
_symmetry_Int_Tables_number   1
_chemical_formula_structural   Dy5Y15Ir5Rh7
_chemical_formula_sum   'Dy5 Y15 Ir5 Rh7'
_cell_volume   764.19993932
_cell_formula_units_Z   1
loop_
 _symmetry_equiv_pos_site_id
 _symmetry_equiv_pos_as_xyz
  1  'x, y, z'
loop_
 _atom_site_type_symbol
 _atom_site_label
 _atom_site_symmetry_multiplicity
 _atom_site_fract_x
 _atom_site_fract_y
 _atom_site_fract_z
 _atom_site_occupancy
  Dy  Dy0  1  0.090655  0.292481  0.120094  1
  Dy  Dy1  1  0.000013  0.999656  0.500235  1
  Dy  Dy2  1  0.000385  0.000157  0.999938  1
  Dy  Dy3  1  0.499844  0.499695  0.000175  1
  Dy  Dy4  1  0.500287  0.500055  0.499677  1
  Y  Y5  1  0.290326  0.088573  0.378975  1
  Y  Y6  1  0.290620  0.909007  0.880548  1
  Y  Y7  1  0.708623  0.090449  0.880018  1
  Y  Y8  1  0.708357  0.909412  0.378955  1
  Y  Y9  1  0.587721  0.789628  0.880361  1
  Y  Y10  1  0.587408  0.210257  0.380013  1
  Y  Y11  1  0.410338  0.790069  0.380397  1
  Y  Y12  1  0.412012  0.210078  0.879894  1
  Y  Y13  1  0.210354  0.412200  0.619832  1
  Y  Y14  1  0.209933  0.589653  0.119720  1
  Y  Y15  1  0.789826  0.412535  0.119834  1
  Y  Y16  1  0.790032  0.587953  0.620049  1
  Y  Y17  1  0.911479  0.709443  0.121099  1
  Y  Y18  1  0.909591  0.291248  0.620224  1
  Y  Y19  1  0.090746  0.709235  0.619271  1
  Ir  Ir20  1  0.152110  0.848008  0.250038  1
  Ir  Ir21  1  0.653508  0.346466  0.750016  1
  Ir  Ir22  1  0.653798  0.653245  0.249736  1
  Ir  Ir23  1  0.345705  0.346075  0.249744  1
  Ir  Ir24  1  0.347339  0.652610  0.750009  1
  Rh  Rh25  1  0.848703  0.152406  0.249621  1
  Rh  Rh26  1  0.847029  0.848136  0.750052  1
  Rh  Rh27  1  0.151829  0.153742  0.751742  1
  Rh  Rh28  1  0.500617  0.000273  0.125511  1
  Rh  Rh29  1  0.500484  0.000224  0.626454  1
  Rh  Rh30  1  0.000243  0.498582  0.874503  1
  Rh  Rh31  1  0.000083  0.498449  0.373266  1
