# generated using pymatgen
data_Ac2Be(SiIr2)3
_symmetry_space_group_name_H-M   'P 1'
_cell_length_a   6.76380061
_cell_length_b   6.78026038
_cell_length_c   6.76380064
_cell_angle_alpha   130.23096142
_cell_angle_beta   115.26646536
_cell_angle_gamma   85.75104145
_symmetry_Int_Tables_number   1
_chemical_formula_structural   Ac2Be(SiIr2)3
_chemical_formula_sum   'Ac2 Be1 Si3 Ir6'
_cell_volume   204.82634167
_cell_formula_units_Z   1
loop_
 _symmetry_equiv_pos_site_id
 _symmetry_equiv_pos_as_xyz
  1  'x, y, z'
loop_
 _atom_site_type_symbol
 _atom_site_label
 _atom_site_symmetry_multiplicity
 _atom_site_fract_x
 _atom_site_fract_y
 _atom_site_fract_z
 _atom_site_occupancy
  Ac  Ac0  1  0.246033  0.979441  0.733409  1
  Ac  Ac1  1  0.754637  0.030416  0.275778  1
  Be  Be2  1  0.075033  0.282566  0.207534  1
  Si  Si3  1  0.917956  0.706203  0.788247  1
  Si  Si4  1  0.422662  0.635250  0.212589  1
  Si  Si5  1  0.582058  0.367513  0.785455  1
  Ir  Ir6  1  0.490383  0.499268  0.493005  1
  Ir  Ir7  1  0.006262  0.499268  0.008885  1
  Ir  Ir8  1  0.271855  0.000705  0.272760  1
  Ir  Ir9  1  0.727945  0.000705  0.728850  1
  Ir  Ir10  1  0.228191  0.499333  0.722349  1
  Ir  Ir11  1  0.776984  0.499333  0.271141  1
