# generated using pymatgen
data_RbAl2Au3
_symmetry_space_group_name_H-M   'P 1'
_cell_length_a   5.62290991
_cell_length_b   7.20444287
_cell_length_c   13.57324862
_cell_angle_alpha   89.88472997
_cell_angle_beta   89.94262729
_cell_angle_gamma   89.96945553
_symmetry_Int_Tables_number   1
_chemical_formula_structural   RbAl2Au3
_chemical_formula_sum   'Rb4 Al8 Au12'
_cell_volume   549.84992860
_cell_formula_units_Z   4
loop_
 _symmetry_equiv_pos_site_id
 _symmetry_equiv_pos_as_xyz
  1  'x, y, z'
loop_
 _atom_site_type_symbol
 _atom_site_label
 _atom_site_symmetry_multiplicity
 _atom_site_fract_x
 _atom_site_fract_y
 _atom_site_fract_z
 _atom_site_occupancy
  Rb  Rb0  1  0.249895  0.101865  0.071646  1
  Rb  Rb1  1  0.249607  0.398178  0.571441  1
  Rb  Rb2  1  0.750277  0.897871  0.928388  1
  Rb  Rb3  1  0.750093  0.601906  0.428474  1
  Al  Al4  1  0.999406  0.904964  0.657483  1
  Al  Al5  1  0.500517  0.595918  0.157063  1
  Al  Al6  1  0.499334  0.094917  0.342676  1
  Al  Al7  1  0.000695  0.404420  0.842467  1
  Al  Al8  1  0.000851  0.095804  0.342900  1
  Al  Al9  1  0.499147  0.404248  0.842632  1
  Al  Al10  1  0.501165  0.905043  0.657660  1
  Al  Al11  1  0.999133  0.595208  0.157305  1
  Au  Au12  1  0.250540  0.118751  0.786410  1
  Au  Au13  1  0.249911  0.381403  0.286470  1
  Au  Au14  1  0.750664  0.881369  0.213338  1
  Au  Au15  1  0.750039  0.619219  0.713529  1
  Au  Au16  1  0.249968  0.701490  0.787477  1
  Au  Au17  1  0.249438  0.798435  0.287931  1
  Au  Au18  1  0.749841  0.298361  0.211849  1
  Au  Au19  1  0.750521  0.201653  0.712510  1
  Au  Au20  1  0.248406  0.574146  0.995618  1
  Au  Au21  1  0.251113  0.925121  0.495923  1
  Au  Au22  1  0.748884  0.425554  0.004139  1
  Au  Au23  1  0.750554  0.074156  0.504670  1
