# generated using pymatgen
data_Pr8Si13Hg
_symmetry_space_group_name_H-M   'P 1'
_cell_length_a   7.61450170
_cell_length_b   7.61450153
_cell_length_c   11.89557977
_cell_angle_alpha   89.84441027
_cell_angle_beta   89.84441490
_cell_angle_gamma   134.15412571
_symmetry_Int_Tables_number   1
_chemical_formula_structural   Pr8Si13Hg
_chemical_formula_sum   'Pr8 Si13 Hg1'
_cell_volume   494.83556314
_cell_formula_units_Z   1
loop_
 _symmetry_equiv_pos_site_id
 _symmetry_equiv_pos_as_xyz
  1  'x, y, z'
loop_
 _atom_site_type_symbol
 _atom_site_label
 _atom_site_symmetry_multiplicity
 _atom_site_fract_x
 _atom_site_fract_y
 _atom_site_fract_z
 _atom_site_occupancy
  Pr  Pr0  1  0.499329  0.996383  0.126240  1
  Pr  Pr1  1  0.997443  0.495716  0.879800  1
  Pr  Pr2  1  0.504284  0.002557  0.620200  1
  Pr  Pr3  1  0.003617  0.500671  0.373760  1
  Pr  Pr4  1  0.497555  0.502445  0.250000  1
  Pr  Pr5  1  0.497465  0.502535  0.750000  1
  Pr  Pr6  1  0.005882  0.005985  0.491222  1
  Pr  Pr7  1  0.994015  0.994118  0.008778  1
  Si  Si8  1  0.590201  0.419561  0.497169  1
  Si  Si9  1  0.423006  0.593632  0.503813  1
  Si  Si10  1  0.406368  0.576994  0.996187  1
  Si  Si11  1  0.580439  0.409799  0.002831  1
  Si  Si12  1  0.590856  0.925734  0.372375  1
  Si  Si13  1  0.919689  0.577244  0.623643  1
  Si  Si14  1  0.422756  0.080311  0.876357  1
  Si  Si15  1  0.074266  0.409144  0.127625  1
  Si  Si16  1  0.405792  0.077942  0.369454  1
  Si  Si17  1  0.074593  0.393944  0.630308  1
  Si  Si18  1  0.606056  0.925407  0.869692  1
  Si  Si19  1  0.922058  0.594208  0.130546  1
  Si  Si20  1  0.922894  0.077106  0.250000  1
  Hg  Hg21  1  0.061436  0.938564  0.750000  1
