# generated using pymatgen
data_La6SmPaH24
_symmetry_space_group_name_H-M   'P 1'
_cell_length_a   6.98935200
_cell_length_b   6.98935200
_cell_length_c   6.98935200
_cell_angle_alpha   90.00000000
_cell_angle_beta   90.00000000
_cell_angle_gamma   90.00000000
_symmetry_Int_Tables_number   1
_chemical_formula_structural   La6SmPaH24
_chemical_formula_sum   'La6 Sm1 Pa1 H24'
_cell_volume   341.43712377
_cell_formula_units_Z   1
loop_
 _symmetry_equiv_pos_site_id
 _symmetry_equiv_pos_as_xyz
  1  'x, y, z'
loop_
 _atom_site_type_symbol
 _atom_site_label
 _atom_site_symmetry_multiplicity
 _atom_site_fract_x
 _atom_site_fract_y
 _atom_site_fract_z
 _atom_site_occupancy
  La  La0  1  0.247900  0.000000  0.500000  1
  La  La1  1  0.752100  0.000000  0.500000  1
  La  La2  1  0.000000  0.500000  0.247900  1
  La  La3  1  0.000000  0.500000  0.752100  1
  La  La4  1  0.500000  0.752100  0.000000  1
  La  La5  1  0.500000  0.247900  0.000000  1
  Sm  Sm6  1  0.000000  0.000000  0.000000  1
  Pa  Pa7  1  0.500000  0.500000  0.500000  1
  H  H8  1  0.000000  0.154121  0.304833  1
  H  H9  1  0.500000  0.213172  0.649505  1
  H  H10  1  0.500000  0.786828  0.350495  1
  H  H11  1  0.786828  0.649505  0.500000  1
  H  H12  1  0.213172  0.649505  0.500000  1
  H  H13  1  0.350495  0.500000  0.786828  1
  H  H14  1  0.649505  0.500000  0.786828  1
  H  H15  1  0.304833  0.000000  0.154121  1
  H  H16  1  0.154121  0.304833  0.000000  1
  H  H17  1  0.845879  0.695167  0.000000  1
  H  H18  1  0.304833  0.000000  0.845879  1
  H  H19  1  0.845879  0.304833  0.000000  1
  H  H20  1  0.695167  0.000000  0.154121  1
  H  H21  1  0.695167  0.000000  0.845879  1
  H  H22  1  0.154121  0.695167  0.000000  1
  H  H23  1  0.000000  0.845879  0.695167  1
  H  H24  1  0.000000  0.154121  0.695167  1
  H  H25  1  0.000000  0.845879  0.304833  1
  H  H26  1  0.649505  0.500000  0.213172  1
  H  H27  1  0.350495  0.500000  0.213172  1
  H  H28  1  0.786828  0.350495  0.500000  1
  H  H29  1  0.213172  0.350495  0.500000  1
  H  H30  1  0.500000  0.786828  0.649505  1
  H  H31  1  0.500000  0.213172  0.350495  1
