# generated using pymatgen
data_Tb2(TmPb)3
_symmetry_space_group_name_H-M   'P 1'
_cell_length_a   9.01384311
_cell_length_b   9.03918283
_cell_length_c   6.59411000
_cell_angle_alpha   90.00000000
_cell_angle_beta   90.00000000
_cell_angle_gamma   120.09302725
_symmetry_Int_Tables_number   1
_chemical_formula_structural   Tb2(TmPb)3
_chemical_formula_sum   'Tb4 Tm6 Pb6'
_cell_volume   464.85564772
_cell_formula_units_Z   2
loop_
 _symmetry_equiv_pos_site_id
 _symmetry_equiv_pos_as_xyz
  1  'x, y, z'
loop_
 _atom_site_type_symbol
 _atom_site_label
 _atom_site_symmetry_multiplicity
 _atom_site_fract_x
 _atom_site_fract_y
 _atom_site_fract_z
 _atom_site_occupancy
  Tb  Tb0  1  0.763381  0.762927  0.250000  1
  Tb  Tb1  1  0.763381  0.000453  0.750000  1
  Tb  Tb2  1  0.236619  0.237073  0.750000  1
  Tb  Tb3  1  0.236619  0.999547  0.250000  1
  Tm  Tm4  1  0.000000  0.761063  0.750000  1
  Tm  Tm5  1  0.000000  0.238937  0.250000  1
  Tm  Tm6  1  0.333816  0.666909  0.500000  1
  Tm  Tm7  1  0.666184  0.333091  0.000000  1
  Tm  Tm8  1  0.666184  0.333091  0.500000  1
  Tm  Tm9  1  0.333816  0.666909  0.000000  1
  Pb  Pb10  1  0.393067  0.998413  0.750000  1
  Pb  Pb11  1  0.393067  0.394656  0.250000  1
  Pb  Pb12  1  0.000000  0.602446  0.250000  1
  Pb  Pb13  1  0.000000  0.397554  0.750000  1
  Pb  Pb14  1  0.606933  0.605344  0.750000  1
  Pb  Pb15  1  0.606933  0.001587  0.250000  1
