# generated using pymatgen
data_Cs2NiMoSe4
_symmetry_space_group_name_H-M   'P 1'
_cell_length_a   14.92726946
_cell_length_b   13.28034678
_cell_length_c   7.88444673
_cell_angle_alpha   85.69809523
_cell_angle_beta   62.51897443
_cell_angle_gamma   31.78294202
_symmetry_Int_Tables_number   1
_chemical_formula_structural   Cs2NiMoSe4
_chemical_formula_sum   'Cs4 Ni2 Mo2 Se8'
_cell_volume   536.22010942
_cell_formula_units_Z   2
loop_
 _symmetry_equiv_pos_site_id
 _symmetry_equiv_pos_as_xyz
  1  'x, y, z'
loop_
 _atom_site_type_symbol
 _atom_site_label
 _atom_site_symmetry_multiplicity
 _atom_site_fract_x
 _atom_site_fract_y
 _atom_site_fract_z
 _atom_site_occupancy
  Cs  Cs0  1  0.822783  0.822783  0.177217  1
  Cs  Cs1  1  0.427217  0.427217  0.072783  1
  Cs  Cs2  1  0.177217  0.177217  0.822783  1
  Cs  Cs3  1  0.072783  0.072783  0.427217  1
  Ni  Ni4  1  0.500000  0.500000  0.500000  1
  Ni  Ni5  1  0.750000  0.750000  0.750000  1
  Mo  Mo6  1  0.000000  0.000000  0.000000  1
  Mo  Mo7  1  0.250000  0.250000  0.250000  1
  Se  Se8  1  0.540210  0.854814  0.143894  1
  Se  Se9  1  0.854814  0.540210  0.461082  1
  Se  Se10  1  0.788918  0.106106  0.395186  1
  Se  Se11  1  0.106106  0.788918  0.709790  1
  Se  Se12  1  0.143894  0.461082  0.540210  1
  Se  Se13  1  0.461082  0.143894  0.854814  1
  Se  Se14  1  0.395186  0.709790  0.788918  1
  Se  Se15  1  0.709790  0.395186  0.106106  1
