# generated using pymatgen
data_Yb8TaGe16Mo11
_symmetry_space_group_name_H-M   'P 1'
_cell_length_a   6.86929241
_cell_length_b   7.03744748
_cell_length_c   13.28431100
_cell_angle_alpha   90.00000000
_cell_angle_beta   90.00000000
_cell_angle_gamma   90.02353884
_symmetry_Int_Tables_number   1
_chemical_formula_structural   Yb8TaGe16Mo11
_chemical_formula_sum   'Yb8 Ta1 Ge16 Mo11'
_cell_volume   642.19388837
_cell_formula_units_Z   1
loop_
 _symmetry_equiv_pos_site_id
 _symmetry_equiv_pos_as_xyz
  1  'x, y, z'
loop_
 _atom_site_type_symbol
 _atom_site_label
 _atom_site_symmetry_multiplicity
 _atom_site_fract_x
 _atom_site_fract_y
 _atom_site_fract_z
 _atom_site_occupancy
  Yb  Yb0  1  0.493050  0.328812  0.090256  1
  Yb  Yb1  1  0.993853  0.170503  0.410514  1
  Yb  Yb2  1  0.506886  0.671164  0.590271  1
  Yb  Yb3  1  0.006754  0.829166  0.910035  1
  Yb  Yb4  1  0.506886  0.671164  0.909729  1
  Yb  Yb5  1  0.006754  0.829166  0.589965  1
  Yb  Yb6  1  0.493050  0.328812  0.409744  1
  Yb  Yb7  1  0.993853  0.170503  0.089486  1
  Ta  Ta8  1  0.842123  0.517668  0.250000  1
  Ge  Ge9  1  0.808845  0.647270  0.750000  1
  Ge  Ge10  1  0.308881  0.853824  0.750000  1
  Ge  Ge11  1  0.194556  0.349605  0.250000  1
  Ge  Ge12  1  0.692055  0.144805  0.250000  1
  Ge  Ge13  1  0.532569  0.381850  0.750000  1
  Ge  Ge14  1  0.033409  0.119238  0.750000  1
  Ge  Ge15  1  0.462682  0.618524  0.250000  1
  Ge  Ge16  1  0.969035  0.884891  0.250000  1
  Ge  Ge17  1  0.669557  0.044892  0.545353  1
  Ge  Ge18  1  0.168774  0.455034  0.954389  1
  Ge  Ge19  1  0.330798  0.954723  0.045257  1
  Ge  Ge20  1  0.829334  0.543927  0.456265  1
  Ge  Ge21  1  0.330798  0.954723  0.454743  1
  Ge  Ge22  1  0.829334  0.543927  0.043735  1
  Ge  Ge23  1  0.669557  0.044892  0.954647  1
  Ge  Ge24  1  0.168774  0.455034  0.545611  1
  Mo  Mo25  1  0.660477  0.016903  0.750000  1
  Mo  Mo26  1  0.159478  0.483409  0.750000  1
  Mo  Mo27  1  0.340765  0.983329  0.250000  1
  Mo  Mo28  1  0.838409  0.336366  0.630626  1
  Mo  Mo29  1  0.339609  0.163749  0.870024  1
  Mo  Mo30  1  0.160087  0.664477  0.129106  1
  Mo  Mo31  1  0.660451  0.836529  0.370701  1
  Mo  Mo32  1  0.160087  0.664477  0.370894  1
  Mo  Mo33  1  0.660451  0.836529  0.129299  1
  Mo  Mo34  1  0.838409  0.336366  0.869374  1
  Mo  Mo35  1  0.339609  0.163749  0.629976  1
