# generated using pymatgen
data_Dy16In3AgIr3Os
_symmetry_space_group_name_H-M   'P 1'
_cell_length_a   9.66447987
_cell_length_b   9.66448188
_cell_length_c   9.66447954
_cell_angle_alpha   59.61943144
_cell_angle_beta   59.61942510
_cell_angle_gamma   59.61943379
_symmetry_Int_Tables_number   1
_chemical_formula_structural   Dy16In3AgIr3Os
_chemical_formula_sum   'Dy16 In3 Ag1 Ir3 Os1'
_cell_volume   632.77313891
_cell_formula_units_Z   1
loop_
 _symmetry_equiv_pos_site_id
 _symmetry_equiv_pos_as_xyz
  1  'x, y, z'
loop_
 _atom_site_type_symbol
 _atom_site_label
 _atom_site_symmetry_multiplicity
 _atom_site_fract_x
 _atom_site_fract_y
 _atom_site_fract_z
 _atom_site_occupancy
  Dy  Dy0  1  0.599457  0.599457  0.599457  1
  Dy  Dy1  1  0.599569  0.599569  0.203178  1
  Dy  Dy2  1  0.599569  0.203178  0.599569  1
  Dy  Dy3  1  0.203178  0.599569  0.599569  1
  Dy  Dy4  1  0.058860  0.441461  0.441461  1
  Dy  Dy5  1  0.438275  0.058795  0.058795  1
  Dy  Dy6  1  0.441461  0.058860  0.441461  1
  Dy  Dy7  1  0.058795  0.438275  0.058795  1
  Dy  Dy8  1  0.441461  0.441461  0.058860  1
  Dy  Dy9  1  0.058795  0.058795  0.438275  1
  Dy  Dy10  1  0.186513  0.810610  0.810610  1
  Dy  Dy11  1  0.806361  0.190826  0.190826  1
  Dy  Dy12  1  0.810610  0.186513  0.810610  1
  Dy  Dy13  1  0.190826  0.806361  0.190826  1
  Dy  Dy14  1  0.810610  0.810610  0.186513  1
  Dy  Dy15  1  0.190826  0.190826  0.806361  1
  In  In16  1  0.832009  0.832009  0.503969  1
  In  In17  1  0.832009  0.503969  0.832009  1
  In  In18  1  0.503969  0.832009  0.832009  1
  Ag  Ag19  1  0.832720  0.832720  0.832720  1
  Ir  Ir20  1  0.392466  0.392466  0.827289  1
  Ir  Ir21  1  0.392466  0.827289  0.392466  1
  Ir  Ir22  1  0.827289  0.392466  0.392466  1
  Os  Os23  1  0.391905  0.391905  0.391905  1
