# generated using pymatgen
data_La3Pr(Sn2Ir)4
_symmetry_space_group_name_H-M   'P 1'
_cell_length_a   8.90803103
_cell_length_b   8.90803180
_cell_length_c   9.72673600
_cell_angle_alpha   90.00000000
_cell_angle_beta   90.00000000
_cell_angle_gamma   149.32292748
_symmetry_Int_Tables_number   1
_chemical_formula_structural   La3Pr(Sn2Ir)4
_chemical_formula_sum   'La3 Pr1 Sn8 Ir4'
_cell_volume   393.79485714
_cell_formula_units_Z   1
loop_
 _symmetry_equiv_pos_site_id
 _symmetry_equiv_pos_as_xyz
  1  'x, y, z'
loop_
 _atom_site_type_symbol
 _atom_site_label
 _atom_site_symmetry_multiplicity
 _atom_site_fract_x
 _atom_site_fract_y
 _atom_site_fract_z
 _atom_site_occupancy
  La  La0  1  0.499979  0.500021  0.499609  1
  La  La1  1  0.499979  0.500021  0.000391  1
  La  La2  1  0.703353  0.296647  0.750000  1
  Pr  Pr3  1  0.296825  0.703175  0.250000  1
  Sn  Sn4  1  0.908943  0.091057  0.750000  1
  Sn  Sn5  1  0.924392  0.075608  0.250000  1
  Sn  Sn6  1  0.090983  0.909017  0.250000  1
  Sn  Sn7  1  0.074411  0.925589  0.750000  1
  Sn  Sn8  1  0.698081  0.301919  0.408974  1
  Sn  Sn9  1  0.302237  0.697763  0.589679  1
  Sn  Sn10  1  0.302237  0.697763  0.910321  1
  Sn  Sn11  1  0.698081  0.301919  0.091026  1
  Ir  Ir12  1  0.147126  0.852874  0.504989  1
  Ir  Ir13  1  0.853123  0.146877  0.005142  1
  Ir  Ir14  1  0.147126  0.852874  0.995011  1
  Ir  Ir15  1  0.853123  0.146877  0.494858  1
