# generated using pymatgen
data_Li2VSn(PO4)3
_symmetry_space_group_name_H-M   'P 1'
_cell_length_a   8.68469600
_cell_length_b   8.85625600
_cell_length_c   12.33280500
_cell_angle_alpha   90.00000000
_cell_angle_beta   90.00000000
_cell_angle_gamma   90.00000000
_symmetry_Int_Tables_number   1
_chemical_formula_structural   Li2VSn(PO4)3
_chemical_formula_sum   'Li8 V4 Sn4 P12 O48'
_cell_volume   948.56402021
_cell_formula_units_Z   4
loop_
 _symmetry_equiv_pos_site_id
 _symmetry_equiv_pos_as_xyz
  1  'x, y, z'
loop_
 _atom_site_type_symbol
 _atom_site_label
 _atom_site_symmetry_multiplicity
 _atom_site_fract_x
 _atom_site_fract_y
 _atom_site_fract_z
 _atom_site_occupancy
  Li  Li0  1  0.708990  0.782379  0.321899  1
  Li  Li1  1  0.791010  0.282379  0.178101  1
  Li  Li2  1  0.791010  0.217621  0.821899  1
  Li  Li3  1  0.708990  0.717621  0.678101  1
  Li  Li4  1  0.275882  0.222023  0.684833  1
  Li  Li5  1  0.224118  0.722023  0.815167  1
  Li  Li6  1  0.224118  0.777977  0.184833  1
  Li  Li7  1  0.275882  0.277977  0.315167  1
  V  V8  1  0.254474  0.036027  0.885411  1
  V  V9  1  0.245526  0.536027  0.614589  1
  V  V10  1  0.245526  0.963973  0.385411  1
  V  V11  1  0.254474  0.463973  0.114589  1
  Sn  Sn12  1  0.748720  0.963630  0.111421  1
  Sn  Sn13  1  0.751280  0.463630  0.388579  1
  Sn  Sn14  1  0.751280  0.036370  0.611421  1
  Sn  Sn15  1  0.748720  0.536370  0.888579  1
  P  P16  1  0.898993  0.607975  0.150387  1
  P  P17  1  0.601007  0.107975  0.349613  1
  P  P18  1  0.601007  0.392025  0.650387  1
  P  P19  1  0.898993  0.892025  0.849613  1
  P  P20  1  0.110152  0.397791  0.855122  1
  P  P21  1  0.389848  0.897791  0.644878  1
  P  P22  1  0.389848  0.602209  0.355122  1
  P  P23  1  0.110152  0.102209  0.144878  1
  P  P24  1  0.962406  0.750000  0.500000  1
  P  P25  1  0.537594  0.250000  0.000000  1
  P  P26  1  0.045494  0.250000  0.500000  1
  P  P27  1  0.454506  0.750000  0.000000  1
  O  O28  1  0.831406  0.765257  0.183549  1
  O  O29  1  0.668594  0.265257  0.316451  1
  O  O30  1  0.668594  0.234743  0.683549  1
  O  O31  1  0.831406  0.734743  0.816451  1
  O  O32  1  0.165619  0.238485  0.823663  1
  O  O33  1  0.334381  0.738485  0.676337  1
  O  O34  1  0.334381  0.761515  0.323663  1
  O  O35  1  0.165619  0.261515  0.176337  1
  O  O36  1  0.850473  0.671836  0.416502  1
  O  O37  1  0.649527  0.171836  0.083498  1
  O  O38  1  0.649527  0.328164  0.916502  1
  O  O39  1  0.850473  0.828164  0.583498  1
  O  O40  1  0.147539  0.331970  0.582870  1
  O  O41  1  0.352461  0.831970  0.917130  1
  O  O42  1  0.352461  0.668030  0.082870  1
  O  O43  1  0.147539  0.168030  0.417130  1
  O  O44  1  0.572323  0.606748  0.344950  1
  O  O45  1  0.927677  0.106748  0.155050  1
  O  O46  1  0.927677  0.393252  0.844950  1
  O  O47  1  0.572323  0.893252  0.655050  1
  O  O48  1  0.425677  0.389689  0.660997  1
  O  O49  1  0.074323  0.889689  0.839003  1
  O  O50  1  0.074323  0.610311  0.160997  1
  O  O51  1  0.425677  0.110311  0.339003  1
  O  O52  1  0.848662  0.566031  0.035241  1
  O  O53  1  0.651338  0.066031  0.464759  1
  O  O54  1  0.651338  0.433969  0.535241  1
  O  O55  1  0.848662  0.933969  0.964759  1
  O  O56  1  0.154620  0.444326  0.969757  1
  O  O57  1  0.345380  0.944326  0.530243  1
  O  O58  1  0.345380  0.555674  0.469757  1
  O  O59  1  0.154620  0.055674  0.030243  1
  O  O60  1  0.552354  0.862500  0.066605  1
  O  O61  1  0.947646  0.362500  0.433395  1
  O  O62  1  0.947646  0.137500  0.566605  1
  O  O63  1  0.552354  0.637500  0.933395  1
  O  O64  1  0.446790  0.134112  0.935890  1
  O  O65  1  0.053210  0.634112  0.564110  1
  O  O66  1  0.053210  0.865888  0.435890  1
  O  O67  1  0.446790  0.365888  0.064110  1
  O  O68  1  0.671608  0.985020  0.273131  1
  O  O69  1  0.828392  0.485020  0.226869  1
  O  O70  1  0.828392  0.014980  0.773131  1
  O  O71  1  0.671608  0.514980  0.726869  1
  O  O72  1  0.329311  0.018024  0.726420  1
  O  O73  1  0.170689  0.518024  0.773580  1
  O  O74  1  0.170689  0.981976  0.226420  1
  O  O75  1  0.329311  0.481976  0.273580  1
