# generated using pymatgen
data_Er4Tm(SiSb)2
_symmetry_space_group_name_H-M   'P 1'
_cell_length_a   8.44119930
_cell_length_b   8.44119962
_cell_length_c   7.77882200
_cell_angle_alpha   90.00000000
_cell_angle_beta   90.00000000
_cell_angle_gamma   125.31217270
_symmetry_Int_Tables_number   1
_chemical_formula_structural   Er4Tm(SiSb)2
_chemical_formula_sum   'Er8 Tm2 Si4 Sb4'
_cell_volume   452.29334396
_cell_formula_units_Z   2
loop_
 _symmetry_equiv_pos_site_id
 _symmetry_equiv_pos_as_xyz
  1  'x, y, z'
loop_
 _atom_site_type_symbol
 _atom_site_label
 _atom_site_symmetry_multiplicity
 _atom_site_fract_x
 _atom_site_fract_y
 _atom_site_fract_z
 _atom_site_occupancy
  Er  Er0  1  0.540233  0.790863  0.165036  1
  Er  Er1  1  0.290863  0.040233  0.334964  1
  Er  Er2  1  0.209137  0.459767  0.834964  1
  Er  Er3  1  0.959767  0.709137  0.665036  1
  Er  Er4  1  0.709137  0.959767  0.665036  1
  Er  Er5  1  0.459767  0.209137  0.834964  1
  Er  Er6  1  0.790863  0.540233  0.165036  1
  Er  Er7  1  0.040233  0.290863  0.334964  1
  Tm  Tm8  1  0.500000  0.500000  0.500000  1
  Tm  Tm9  1  0.000000  0.000000  0.000000  1
  Si  Si10  1  0.632926  0.632926  0.868110  1
  Si  Si11  1  0.132926  0.132926  0.631890  1
  Si  Si12  1  0.867074  0.867074  0.368110  1
  Si  Si13  1  0.367074  0.367074  0.131890  1
  Sb  Sb14  1  0.293799  0.706201  0.500000  1
  Sb  Sb15  1  0.206201  0.793799  0.000000  1
  Sb  Sb16  1  0.706201  0.293799  0.500000  1
  Sb  Sb17  1  0.793799  0.206201  0.000000  1
