# generated using pymatgen
data_LiNdEr(P3Pd10)2
_symmetry_space_group_name_H-M   'P 1'
_cell_length_a   8.65910393
_cell_length_b   8.65910876
_cell_length_c   8.65910000
_cell_angle_alpha   60.00000289
_cell_angle_beta   60.00005322
_cell_angle_gamma   60.00000188
_symmetry_Int_Tables_number   1
_chemical_formula_structural   LiNdEr(P3Pd10)2
_chemical_formula_sum   'Li1 Nd1 Er1 P6 Pd20'
_cell_volume   459.09661880
_cell_formula_units_Z   1
loop_
 _symmetry_equiv_pos_site_id
 _symmetry_equiv_pos_as_xyz
  1  'x, y, z'
loop_
 _atom_site_type_symbol
 _atom_site_label
 _atom_site_symmetry_multiplicity
 _atom_site_fract_x
 _atom_site_fract_y
 _atom_site_fract_z
 _atom_site_occupancy
  Li  Li0  1  0.000000  0.000000  0.000000  1
  Nd  Nd1  1  0.750000  0.750000  0.750000  1
  Er  Er2  1  0.250000  0.250000  0.250000  1
  P  P3  1  0.739779  0.260221  0.260221  1
  P  P4  1  0.260221  0.739779  0.739779  1
  P  P5  1  0.260221  0.739779  0.260222  1
  P  P6  1  0.739779  0.260221  0.739779  1
  P  P7  1  0.260221  0.260221  0.739779  1
  P  P8  1  0.739779  0.739779  0.260221  1
  Pd  Pd9  1  0.382691  0.382690  0.382691  1
  Pd  Pd10  1  0.611557  0.611556  0.611556  1
  Pd  Pd11  1  0.382691  0.382692  0.851928  1
  Pd  Pd12  1  0.382691  0.851928  0.382691  1
  Pd  Pd13  1  0.611557  0.611556  0.165331  1
  Pd  Pd14  1  0.611557  0.165331  0.611556  1
  Pd  Pd15  1  0.851928  0.382691  0.382691  1
  Pd  Pd16  1  0.165330  0.611557  0.611557  1
  Pd  Pd17  1  0.344730  0.000415  0.000415  1
  Pd  Pd18  1  0.654439  0.000415  0.000415  1
  Pd  Pd19  1  0.000415  0.344730  0.654438  1
  Pd  Pd20  1  0.000415  0.654438  0.344730  1
  Pd  Pd21  1  0.000415  0.344730  0.000415  1
  Pd  Pd22  1  0.654438  0.000415  0.344731  1
  Pd  Pd23  1  0.000415  0.654438  0.000415  1
  Pd  Pd24  1  0.344730  0.000415  0.654438  1
  Pd  Pd25  1  0.000415  0.000415  0.344731  1
  Pd  Pd26  1  0.000416  0.000415  0.654438  1
  Pd  Pd27  1  0.654439  0.344730  0.000415  1
  Pd  Pd28  1  0.344730  0.654438  0.000415  1
