# generated using pymatgen
data_Na4DySi12Ir19
_symmetry_space_group_name_H-M   'P 1'
_cell_length_a   12.77327200
_cell_length_b   12.76749168
_cell_length_c   4.00141900
_cell_angle_alpha   90.00000000
_cell_angle_beta   90.00000000
_cell_angle_gamma   120.01497756
_symmetry_Int_Tables_number   1
_chemical_formula_structural   Na4DySi12Ir19
_chemical_formula_sum   'Na4 Dy1 Si12 Ir19'
_cell_volume   565.04994943
_cell_formula_units_Z   1
loop_
 _symmetry_equiv_pos_site_id
 _symmetry_equiv_pos_as_xyz
  1  'x, y, z'
loop_
 _atom_site_type_symbol
 _atom_site_label
 _atom_site_symmetry_multiplicity
 _atom_site_fract_x
 _atom_site_fract_y
 _atom_site_fract_z
 _atom_site_occupancy
  Na  Na0  1  0.333584  0.667640  0.500000  1
  Na  Na1  1  0.665946  0.332360  0.500000  1
  Na  Na2  1  0.000831  0.817601  0.000000  1
  Na  Na3  1  0.183231  0.182399  0.000000  1
  Dy  Dy4  1  0.824972  0.000000  0.000000  1
  Si  Si5  1  0.999002  0.630148  0.500000  1
  Si  Si6  1  0.368855  0.369852  0.500000  1
  Si  Si7  1  0.631034  0.000000  0.500000  1
  Si  Si8  1  0.517135  0.686065  0.000000  1
  Si  Si9  1  0.312029  0.830895  0.000000  1
  Si  Si10  1  0.168074  0.481721  0.000000  1
  Si  Si11  1  0.481134  0.169105  0.000000  1
  Si  Si12  1  0.686352  0.518279  0.000000  1
  Si  Si13  1  0.831070  0.313935  0.000000  1
  Si  Si14  1  0.002497  0.183701  0.500000  1
  Si  Si15  1  0.818794  0.816299  0.500000  1
  Si  Si16  1  0.184271  0.000000  0.500000  1
  Ir  Ir17  1  0.514416  0.874430  0.000000  1
  Ir  Ir18  1  0.123336  0.638800  0.000000  1
  Ir  Ir19  1  0.359142  0.485295  0.000000  1
  Ir  Ir20  1  0.484538  0.361200  0.000000  1
  Ir  Ir21  1  0.873849  0.514705  0.000000  1
  Ir  Ir22  1  0.639987  0.125570  0.000000  1
  Ir  Ir23  1  0.997013  0.444203  0.500000  1
  Ir  Ir24  1  0.552810  0.555797  0.500000  1
  Ir  Ir25  1  0.447356  0.000000  0.500000  1
  Ir  Ir26  1  0.997915  0.282495  0.000000  1
  Ir  Ir27  1  0.715420  0.717505  0.000000  1
  Ir  Ir28  1  0.283420  0.000000  0.000000  1
  Ir  Ir29  1  0.624442  0.808176  0.500000  1
  Ir  Ir30  1  0.195320  0.815313  0.500000  1
  Ir  Ir31  1  0.183291  0.379478  0.500000  1
  Ir  Ir32  1  0.380007  0.184687  0.500000  1
  Ir  Ir33  1  0.803812  0.620522  0.500000  1
  Ir  Ir34  1  0.816265  0.191824  0.500000  1
  Ir  Ir35  1  0.998852  0.000000  0.500000  1
