# generated using pymatgen
data_Nd4Dy2Al24Os5Pt3
_symmetry_space_group_name_H-M   'P 1'
_cell_length_a   8.87547771
_cell_length_b   8.89347425
_cell_length_c   9.63561918
_cell_angle_alpha   90.04345070
_cell_angle_beta   89.85417547
_cell_angle_gamma   119.60343376
_symmetry_Int_Tables_number   1
_chemical_formula_structural   Nd4Dy2Al24Os5Pt3
_chemical_formula_sum   'Nd4 Dy2 Al24 Os5 Pt3'
_cell_volume   661.29251355
_cell_formula_units_Z   1
loop_
 _symmetry_equiv_pos_site_id
 _symmetry_equiv_pos_as_xyz
  1  'x, y, z'
loop_
 _atom_site_type_symbol
 _atom_site_label
 _atom_site_symmetry_multiplicity
 _atom_site_fract_x
 _atom_site_fract_y
 _atom_site_fract_z
 _atom_site_occupancy
  Nd  Nd0  1  0.187558  0.380064  0.249878  1
  Nd  Nd1  1  0.812442  0.619936  0.750122  1
  Nd  Nd2  1  0.617208  0.813755  0.251709  1
  Nd  Nd3  1  0.382792  0.186245  0.748291  1
  Dy  Dy4  1  0.195495  0.808872  0.251080  1
  Dy  Dy5  1  0.804505  0.191128  0.748920  1
  Al  Al6  1  0.334780  0.671630  0.027293  1
  Al  Al7  1  0.665220  0.328370  0.972707  1
  Al  Al8  1  0.670039  0.330940  0.525636  1
  Al  Al9  1  0.329961  0.669060  0.474364  1
  Al  Al10  1  0.157164  0.325554  0.574290  1
  Al  Al11  1  0.842836  0.674446  0.425710  1
  Al  Al12  1  0.673608  0.841893  0.575185  1
  Al  Al13  1  0.837737  0.675855  0.077226  1
  Al  Al14  1  0.326392  0.158107  0.424815  1
  Al  Al15  1  0.162263  0.324145  0.922774  1
  Al  Al16  1  0.164405  0.834684  0.573890  1
  Al  Al17  1  0.325841  0.157713  0.075604  1
  Al  Al18  1  0.835595  0.165316  0.426110  1
  Al  Al19  1  0.674159  0.842287  0.924396  1
  Al  Al20  1  0.831519  0.159705  0.075524  1
  Al  Al21  1  0.168481  0.840295  0.924476  1
  Al  Al22  1  0.560262  0.125206  0.249687  1
  Al  Al23  1  0.439738  0.874794  0.750313  1
  Al  Al24  1  0.873754  0.438241  0.252959  1
  Al  Al25  1  0.126246  0.561759  0.747041  1
  Al  Al26  1  0.563638  0.435565  0.249627  1
  Al  Al27  1  0.436362  0.564435  0.750373  1
  Al  Al28  1  0.000156  0.001269  0.250180  1
  Al  Al29  1  0.999844  0.998731  0.749820  1
  Os  Os30  1  0.500000  0.000000  0.000000  1
  Os  Os31  1  0.500000  0.000000  0.500000  1
  Os  Os32  1  0.000000  0.500000  0.500000  1
  Os  Os33  1  0.000000  0.000000  0.000000  1
  Os  Os34  1  0.000000  0.000000  0.500000  1
  Pt  Pt35  1  0.000000  0.500000  0.000000  1
  Pt  Pt36  1  0.500000  0.500000  0.000000  1
  Pt  Pt37  1  0.500000  0.500000  0.500000  1
