# generated using pymatgen
data_LaNiB4Os3
_symmetry_space_group_name_H-M   'P 1'
_cell_length_a   7.63991798
_cell_length_b   7.46770619
_cell_length_c   3.97635600
_cell_angle_alpha   90.00000000
_cell_angle_beta   90.00000000
_cell_angle_gamma   88.20617559
_symmetry_Int_Tables_number   1
_chemical_formula_structural   LaNiB4Os3
_chemical_formula_sum   'La2 Ni2 B8 Os6'
_cell_volume   226.75052202
_cell_formula_units_Z   2
loop_
 _symmetry_equiv_pos_site_id
 _symmetry_equiv_pos_as_xyz
  1  'x, y, z'
loop_
 _atom_site_type_symbol
 _atom_site_label
 _atom_site_symmetry_multiplicity
 _atom_site_fract_x
 _atom_site_fract_y
 _atom_site_fract_z
 _atom_site_occupancy
  La  La0  1  0.000000  0.000000  0.024521  1
  La  La1  1  0.500000  0.500000  0.580736  1
  Ni  Ni2  1  0.141766  0.385826  0.884750  1
  Ni  Ni3  1  0.858234  0.614174  0.884750  1
  B  B4  1  0.670711  0.779997  0.104796  1
  B  B5  1  0.329289  0.220003  0.104796  1
  B  B6  1  0.276900  0.837776  0.601013  1
  B  B7  1  0.723100  0.162224  0.601013  1
  B  B8  1  0.842396  0.695326  0.386035  1
  B  B9  1  0.157604  0.304674  0.386035  1
  B  B10  1  0.205120  0.672670  0.884368  1
  B  B11  1  0.794880  0.327330  0.884368  1
  Os  Os12  1  0.883520  0.369489  0.379836  1
  Os  Os13  1  0.116480  0.630511  0.379836  1
  Os  Os14  1  0.347485  0.112347  0.603518  1
  Os  Os15  1  0.652515  0.887653  0.603518  1
  Os  Os16  1  0.603431  0.148457  0.103058  1
  Os  Os17  1  0.396569  0.851543  0.103058  1
