# generated using pymatgen
data_Yb8Si16Mo11W
_symmetry_space_group_name_H-M   'P 1'
_cell_length_a   6.73613431
_cell_length_b   6.91059143
_cell_length_c   13.07761900
_cell_angle_alpha   90.00000000
_cell_angle_beta   90.00000000
_cell_angle_gamma   90.03056669
_symmetry_Int_Tables_number   1
_chemical_formula_structural   Yb8Si16Mo11W
_chemical_formula_sum   'Yb8 Si16 Mo11 W1'
_cell_volume   608.77186692
_cell_formula_units_Z   1
loop_
 _symmetry_equiv_pos_site_id
 _symmetry_equiv_pos_as_xyz
  1  'x, y, z'
loop_
 _atom_site_type_symbol
 _atom_site_label
 _atom_site_symmetry_multiplicity
 _atom_site_fract_x
 _atom_site_fract_y
 _atom_site_fract_z
 _atom_site_occupancy
  Yb  Yb0  1  0.998358  0.166688  0.090766  1
  Yb  Yb1  1  0.001731  0.833417  0.909196  1
  Yb  Yb2  1  0.502052  0.666530  0.909044  1
  Yb  Yb3  1  0.001731  0.833417  0.590804  1
  Yb  Yb4  1  0.498092  0.333610  0.090915  1
  Yb  Yb5  1  0.998358  0.166688  0.409234  1
  Yb  Yb6  1  0.498092  0.333610  0.409085  1
  Yb  Yb7  1  0.502052  0.666530  0.590956  1
  Si  Si8  1  0.035388  0.123803  0.750000  1
  Si  Si9  1  0.963717  0.874538  0.250000  1
  Si  Si10  1  0.464028  0.625303  0.250000  1
  Si  Si11  1  0.536386  0.375353  0.750000  1
  Si  Si12  1  0.301058  0.866469  0.750000  1
  Si  Si13  1  0.698633  0.131801  0.250000  1
  Si  Si14  1  0.198512  0.368339  0.250000  1
  Si  Si15  1  0.801631  0.633019  0.750000  1
  Si  Si16  1  0.158777  0.457138  0.545382  1
  Si  Si17  1  0.841849  0.543561  0.454894  1
  Si  Si18  1  0.341794  0.956535  0.454872  1
  Si  Si19  1  0.841849  0.543561  0.045106  1
  Si  Si20  1  0.658201  0.043658  0.545090  1
  Si  Si21  1  0.158777  0.457138  0.954618  1
  Si  Si22  1  0.658201  0.043658  0.954910  1
  Si  Si23  1  0.341794  0.956535  0.045128  1
  Mo  Mo24  1  0.838230  0.509279  0.250000  1
  Mo  Mo25  1  0.338141  0.990539  0.250000  1
  Mo  Mo26  1  0.661360  0.009691  0.750000  1
  Mo  Mo27  1  0.335802  0.169113  0.628322  1
  Mo  Mo28  1  0.663733  0.830606  0.371921  1
  Mo  Mo29  1  0.163900  0.669527  0.371832  1
  Mo  Mo30  1  0.663733  0.830606  0.128079  1
  Mo  Mo31  1  0.836524  0.330878  0.628252  1
  Mo  Mo32  1  0.335802  0.169113  0.871678  1
  Mo  Mo33  1  0.836524  0.330878  0.871748  1
  Mo  Mo34  1  0.163900  0.669527  0.128168  1
  W  W35  1  0.161287  0.489346  0.750000  1
