# generated using pymatgen
data_Hf8Cu7Hg4Rh
_symmetry_space_group_name_H-M   'P 1'
_cell_length_a   7.22073488
_cell_length_b   7.22073382
_cell_length_c   6.74511810
_cell_angle_alpha   90.17379557
_cell_angle_beta   90.17379930
_cell_angle_gamma   90.10289422
_symmetry_Int_Tables_number   1
_chemical_formula_structural   Hf8Cu7Hg4Rh
_chemical_formula_sum   'Hf8 Cu7 Hg4 Rh1'
_cell_volume   351.67993382
_cell_formula_units_Z   1
loop_
 _symmetry_equiv_pos_site_id
 _symmetry_equiv_pos_as_xyz
  1  'x, y, z'
loop_
 _atom_site_type_symbol
 _atom_site_label
 _atom_site_symmetry_multiplicity
 _atom_site_fract_x
 _atom_site_fract_y
 _atom_site_fract_z
 _atom_site_occupancy
  Hf  Hf0  1  0.153707  0.153707  0.003951  1
  Hf  Hf1  1  0.853972  0.853972  0.995451  1
  Hf  Hf2  1  0.649328  0.348232  0.494413  1
  Hf  Hf3  1  0.348232  0.649328  0.494413  1
  Hf  Hf4  1  0.687347  0.306488  0.002988  1
  Hf  Hf5  1  0.306488  0.687347  0.002988  1
  Hf  Hf6  1  0.808399  0.808399  0.502252  1
  Hf  Hf7  1  0.191777  0.191777  0.498226  1
  Cu  Cu8  1  0.623042  0.623042  0.793550  1
  Cu  Cu9  1  0.631710  0.631710  0.199395  1
  Cu  Cu10  1  0.876889  0.124639  0.705327  1
  Cu  Cu11  1  0.877062  0.121582  0.294718  1
  Cu  Cu12  1  0.376617  0.376617  0.790616  1
  Cu  Cu13  1  0.121582  0.877062  0.294718  1
  Cu  Cu14  1  0.124639  0.876889  0.705327  1
  Hg  Hg15  1  0.502285  0.992124  0.248402  1
  Hg  Hg16  1  0.498605  0.999223  0.751214  1
  Hg  Hg17  1  0.992124  0.502285  0.248402  1
  Hg  Hg18  1  0.999223  0.498605  0.751214  1
  Rh  Rh19  1  0.376970  0.376970  0.222437  1
