# generated using pymatgen
data_TbYNb2(SnPt)4
_symmetry_space_group_name_H-M   'P 1'
_cell_length_a   6.46801300
_cell_length_b   4.55413100
_cell_length_c   9.12317100
_cell_angle_alpha   90.00000000
_cell_angle_beta   90.00260219
_cell_angle_gamma   90.00000000
_symmetry_Int_Tables_number   1
_chemical_formula_structural   TbYNb2(SnPt)4
_chemical_formula_sum   'Tb1 Y1 Nb2 Sn4 Pt4'
_cell_volume   268.73375343
_cell_formula_units_Z   1
loop_
 _symmetry_equiv_pos_site_id
 _symmetry_equiv_pos_as_xyz
  1  'x, y, z'
loop_
 _atom_site_type_symbol
 _atom_site_label
 _atom_site_symmetry_multiplicity
 _atom_site_fract_x
 _atom_site_fract_y
 _atom_site_fract_z
 _atom_site_occupancy
  Tb  Tb0  1  0.003718  0.000000  0.375885  1
  Y  Y1  1  0.503814  0.499999  0.624040  1
  Nb  Nb2  1  0.497241  0.499999  0.123274  1
  Nb  Nb3  1  0.997242  0.000000  0.876758  1
  Sn  Sn4  1  0.985382  0.499999  0.124146  1
  Sn  Sn5  1  0.510549  0.000000  0.372094  1
  Sn  Sn6  1  0.010509  0.499999  0.628164  1
  Sn  Sn7  1  0.485298  0.000000  0.875616  1
  Pt  Pt8  1  0.736232  0.000000  0.111614  1
  Pt  Pt9  1  0.266867  0.499999  0.356784  1
  Pt  Pt10  1  0.766939  0.000000  0.643216  1
  Pt  Pt11  1  0.236205  0.499999  0.888402  1
