# generated using pymatgen
data_Ho8Mg2Zn3NiBi2
_symmetry_space_group_name_H-M   'P 1'
_cell_length_a   8.56746539
_cell_length_b   8.56746513
_cell_length_c   8.63358638
_cell_angle_alpha   126.32950702
_cell_angle_beta   126.32949003
_cell_angle_gamma   78.81398897
_symmetry_Int_Tables_number   1
_chemical_formula_structural   Ho8Mg2Zn3NiBi2
_chemical_formula_sum   'Ho8 Mg2 Zn3 Ni1 Bi2'
_cell_volume   399.08991358
_cell_formula_units_Z   1
loop_
 _symmetry_equiv_pos_site_id
 _symmetry_equiv_pos_as_xyz
  1  'x, y, z'
loop_
 _atom_site_type_symbol
 _atom_site_label
 _atom_site_symmetry_multiplicity
 _atom_site_fract_x
 _atom_site_fract_y
 _atom_site_fract_z
 _atom_site_occupancy
  Ho  Ho0  1  0.027563  0.512548  0.813343  1
  Ho  Ho1  1  0.714217  0.199206  0.186659  1
  Ho  Ho2  1  0.519986  0.701520  0.499998  1
  Ho  Ho3  1  0.192034  0.038905  0.499997  1
  Ho  Ho4  1  0.987453  0.472439  0.186657  1
  Ho  Ho5  1  0.300791  0.785777  0.813340  1
  Ho  Ho6  1  0.461099  0.307963  0.500001  1
  Ho  Ho7  1  0.798477  0.980010  0.499995  1
  Mg  Mg8  1  0.000085  0.998439  0.998523  1
  Mg  Mg9  1  0.501601  0.499910  0.001503  1
  Zn  Zn10  1  0.365018  0.869202  0.234220  1
  Zn  Zn11  1  0.630798  0.134980  0.765777  1
  Zn  Zn12  1  0.869434  0.630563  0.499999  1
  Ni  Ni13  1  0.119609  0.380380  0.499996  1
  Bi  Bi14  1  0.755917  0.744079  0.999997  1
  Bi  Bi15  1  0.255917  0.244078  0.999996  1
