# generated using pymatgen
data_Tm12MnTc3
_symmetry_space_group_name_H-M   'P 1'
_cell_length_a   6.15922023
_cell_length_b   7.38367926
_cell_length_c   9.04548400
_cell_angle_alpha   90.00000000
_cell_angle_beta   90.00000000
_cell_angle_gamma   90.17957096
_symmetry_Int_Tables_number   1
_chemical_formula_structural   Tm12MnTc3
_chemical_formula_sum   'Tm12 Mn1 Tc3'
_cell_volume   411.36584806
_cell_formula_units_Z   1
loop_
 _symmetry_equiv_pos_site_id
 _symmetry_equiv_pos_as_xyz
  1  'x, y, z'
loop_
 _atom_site_type_symbol
 _atom_site_label
 _atom_site_symmetry_multiplicity
 _atom_site_fract_x
 _atom_site_fract_y
 _atom_site_fract_z
 _atom_site_occupancy
  Tm  Tm0  1  0.622558  0.041969  0.250000  1
  Tm  Tm1  1  0.373372  0.959990  0.750000  1
  Tm  Tm2  1  0.125344  0.459584  0.750000  1
  Tm  Tm3  1  0.875700  0.538912  0.250000  1
  Tm  Tm4  1  0.160557  0.179239  0.059531  1
  Tm  Tm5  1  0.838953  0.823995  0.935371  1
  Tm  Tm6  1  0.660621  0.323519  0.937869  1
  Tm  Tm7  1  0.838953  0.823995  0.564629  1
  Tm  Tm8  1  0.343573  0.673307  0.060111  1
  Tm  Tm9  1  0.160557  0.179239  0.440469  1
  Tm  Tm10  1  0.343573  0.673307  0.439889  1
  Tm  Tm11  1  0.660621  0.323519  0.562131  1
  Mn  Mn12  1  0.044573  0.884361  0.250000  1
  Tc  Tc13  1  0.453626  0.384264  0.250000  1
  Tc  Tc14  1  0.541241  0.614921  0.750000  1
  Tc  Tc15  1  0.956178  0.115877  0.750000  1
