# generated using pymatgen
data_Eu5Co16(P4Ru)3
_symmetry_space_group_name_H-M   'P 1'
_cell_length_a   12.19104500
_cell_length_b   12.19104690
_cell_length_c   3.72657400
_cell_angle_alpha   90.00000000
_cell_angle_beta   90.00000000
_cell_angle_gamma   120.00000298
_symmetry_Int_Tables_number   1
_chemical_formula_structural   Eu5Co16(P4Ru)3
_chemical_formula_sum   'Eu5 Co16 P12 Ru3'
_cell_volume   479.64763206
_cell_formula_units_Z   1
loop_
 _symmetry_equiv_pos_site_id
 _symmetry_equiv_pos_as_xyz
  1  'x, y, z'
loop_
 _atom_site_type_symbol
 _atom_site_label
 _atom_site_symmetry_multiplicity
 _atom_site_fract_x
 _atom_site_fract_y
 _atom_site_fract_z
 _atom_site_occupancy
  Eu  Eu0  1  0.666667  0.333333  0.000000  1
  Eu  Eu1  1  0.333333  0.666667  0.000000  1
  Eu  Eu2  1  0.816916  0.816916  0.500000  1
  Eu  Eu3  1  0.183084  0.000000  0.500000  1
  Eu  Eu4  1  0.000000  0.183084  0.500000  1
  Co  Co5  1  0.876614  0.357926  0.500000  1
  Co  Co6  1  0.642074  0.518689  0.500000  1
  Co  Co7  1  0.481311  0.123386  0.500000  1
  Co  Co8  1  0.357926  0.876614  0.500000  1
  Co  Co9  1  0.518689  0.642074  0.500000  1
  Co  Co10  1  0.123386  0.481311  0.500000  1
  Co  Co11  1  0.801894  0.179470  0.000000  1
  Co  Co12  1  0.820530  0.622422  0.000000  1
  Co  Co13  1  0.377578  0.198106  0.000000  1
  Co  Co14  1  0.179470  0.801894  0.000000  1
  Co  Co15  1  0.622422  0.820530  0.000000  1
  Co  Co16  1  0.198106  0.377578  0.000000  1
  Co  Co17  1  0.285535  0.285535  0.500000  1
  Co  Co18  1  0.714465  0.000000  0.500000  1
  Co  Co19  1  0.000000  0.714465  0.500000  1
  Co  Co20  1  0.000000  0.000000  0.000000  1
  P  P21  1  0.687285  0.165003  0.500000  1
  P  P22  1  0.834997  0.522281  0.500000  1
  P  P23  1  0.477719  0.312715  0.500000  1
  P  P24  1  0.165003  0.687285  0.500000  1
  P  P25  1  0.522281  0.834997  0.500000  1
  P  P26  1  0.312715  0.477719  0.500000  1
  P  P27  1  0.183830  0.183830  0.000000  1
  P  P28  1  0.816170  0.000000  0.000000  1
  P  P29  1  0.000000  0.816170  0.000000  1
  P  P30  1  0.634677  0.634677  0.000000  1
  P  P31  1  0.365323  0.000000  0.000000  1
  P  P32  1  0.000000  0.365323  0.000000  1
  Ru  Ru33  1  0.446859  0.446859  0.000000  1
  Ru  Ru34  1  0.553141  0.000000  0.000000  1
  Ru  Ru35  1  0.000000  0.553141  0.000000  1
