# generated using pymatgen
data_Tm20(Pt3Rh)3
_symmetry_space_group_name_H-M   'P 1'
_cell_length_a   10.92142800
_cell_length_b   10.92142800
_cell_length_c   6.31167500
_cell_angle_alpha   90.00000000
_cell_angle_beta   90.00000000
_cell_angle_gamma   90.00000000
_symmetry_Int_Tables_number   1
_chemical_formula_structural   Tm20(Pt3Rh)3
_chemical_formula_sum   'Tm20 Pt9 Rh3'
_cell_volume   752.84138008
_cell_formula_units_Z   1
loop_
 _symmetry_equiv_pos_site_id
 _symmetry_equiv_pos_as_xyz
  1  'x, y, z'
loop_
 _atom_site_type_symbol
 _atom_site_label
 _atom_site_symmetry_multiplicity
 _atom_site_fract_x
 _atom_site_fract_y
 _atom_site_fract_z
 _atom_site_occupancy
  Tm  Tm0  1  0.294740  0.087328  0.375422  1
  Tm  Tm1  1  0.295038  0.912582  0.875867  1
  Tm  Tm2  1  0.704962  0.087418  0.875867  1
  Tm  Tm3  1  0.705260  0.912672  0.375422  1
  Tm  Tm4  1  0.587418  0.795038  0.875867  1
  Tm  Tm5  1  0.587328  0.205260  0.375422  1
  Tm  Tm6  1  0.412672  0.794740  0.375422  1
  Tm  Tm7  1  0.412582  0.204962  0.875867  1
  Tm  Tm8  1  0.207122  0.411964  0.625852  1
  Tm  Tm9  1  0.206859  0.588251  0.122605  1
  Tm  Tm10  1  0.793141  0.411749  0.122605  1
  Tm  Tm11  1  0.792878  0.588036  0.625852  1
  Tm  Tm12  1  0.911749  0.706859  0.122605  1
  Tm  Tm13  1  0.911964  0.292878  0.625852  1
  Tm  Tm14  1  0.088036  0.707122  0.625852  1
  Tm  Tm15  1  0.088251  0.293141  0.122605  1
  Tm  Tm16  1  0.000000  0.000000  0.499574  1
  Tm  Tm17  1  0.000000  0.000000  0.999522  1
  Tm  Tm18  1  0.500000  0.500000  0.999522  1
  Tm  Tm19  1  0.500000  0.500000  0.499574  1
  Pt  Pt20  1  0.845706  0.154439  0.249867  1
  Pt  Pt21  1  0.845528  0.845750  0.749674  1
  Pt  Pt22  1  0.154472  0.154250  0.749674  1
  Pt  Pt23  1  0.154294  0.845561  0.249867  1
  Pt  Pt24  1  0.654250  0.345528  0.749674  1
  Pt  Pt25  1  0.654439  0.654294  0.249867  1
  Pt  Pt26  1  0.345561  0.345706  0.249867  1
  Pt  Pt27  1  0.345750  0.654472  0.749674  1
  Pt  Pt28  1  0.000000  0.500000  0.380774  1
  Rh  Rh29  1  0.500000  0.000000  0.121191  1
  Rh  Rh30  1  0.500000  0.000000  0.620868  1
  Rh  Rh31  1  0.000000  0.500000  0.881827  1
