# generated using pymatgen
data_Ca8Nb4Fe2SbMoO24
_symmetry_space_group_name_H-M   'P 1'
_cell_length_a   5.51614641
_cell_length_b   9.72882582
_cell_length_c   9.75467100
_cell_angle_alpha   71.77403500
_cell_angle_beta   90.37699603
_cell_angle_gamma   90.47293161
_symmetry_Int_Tables_number   1
_chemical_formula_structural   Ca8Nb4Fe2SbMoO24
_chemical_formula_sum   'Ca8 Nb4 Fe2 Sb1 Mo1 O24'
_cell_volume   497.20589256
_cell_formula_units_Z   1
loop_
 _symmetry_equiv_pos_site_id
 _symmetry_equiv_pos_as_xyz
  1  'x, y, z'
loop_
 _atom_site_type_symbol
 _atom_site_label
 _atom_site_symmetry_multiplicity
 _atom_site_fract_x
 _atom_site_fract_y
 _atom_site_fract_z
 _atom_site_occupancy
  Ca  Ca0  1  0.019921  0.337413  0.898878  1
  Ca  Ca1  1  0.011476  0.845207  0.399628  1
  Ca  Ca2  1  0.980076  0.662586  0.101122  1
  Ca  Ca3  1  0.988525  0.154792  0.600372  1
  Ca  Ca4  1  0.488784  0.599102  0.653514  1
  Ca  Ca5  1  0.483615  0.093250  0.146140  1
  Ca  Ca6  1  0.511215  0.400898  0.346486  1
  Ca  Ca7  1  0.516385  0.906749  0.853861  1
  Nb  Nb8  1  0.003204  0.258088  0.240403  1
  Nb  Nb9  1  0.996797  0.741912  0.759596  1
  Nb  Nb10  1  0.509702  0.253282  0.755498  1
  Nb  Nb11  1  0.490299  0.746719  0.244501  1
  Fe  Fe12  1  0.000001  0.000000  0.000000  1
  Fe  Fe13  1  0.500000  0.500000  0.000000  1
  Sb  Sb14  1  0.500000  0.000000  0.500000  1
  Mo  Mo15  1  0.000000  0.500000  0.500000  1
  O  O16  1  0.895975  0.143640  0.116771  1
  O  O17  1  0.899226  0.650042  0.608571  1
  O  O18  1  0.104021  0.856359  0.883229  1
  O  O19  1  0.100776  0.349958  0.391429  1
  O  O20  1  0.608252  0.389928  0.855308  1
  O  O21  1  0.599730  0.896344  0.361077  1
  O  O22  1  0.391749  0.610073  0.144691  1
  O  O23  1  0.400271  0.103657  0.638923  1
  O  O24  1  0.206541  0.368601  0.677187  1
  O  O25  1  0.206844  0.870509  0.180485  1
  O  O26  1  0.793460  0.631399  0.322814  1
  O  O27  1  0.793155  0.129490  0.819515  1
  O  O28  1  0.295144  0.316297  0.130032  1
  O  O29  1  0.301896  0.828279  0.617286  1
  O  O30  1  0.704855  0.683704  0.869968  1
  O  O31  1  0.698104  0.171721  0.382714  1
  O  O32  1  0.311005  0.130450  0.917714  1
  O  O33  1  0.313579  0.631146  0.424789  1
  O  O34  1  0.688995  0.869551  0.082286  1
  O  O35  1  0.686422  0.368854  0.575211  1
  O  O36  1  0.187553  0.576062  0.862544  1
  O  O37  1  0.205308  0.070685  0.375522  1
  O  O38  1  0.812448  0.423938  0.137456  1
  O  O39  1  0.794693  0.929314  0.624477  1
