# generated using pymatgen
data_Pr(ZrAu2)2
_symmetry_space_group_name_H-M   'P 1'
_cell_length_a   5.89863965
_cell_length_b   5.89863772
_cell_length_c   5.89864017
_cell_angle_alpha   102.81970967
_cell_angle_beta   102.81973561
_cell_angle_gamma   123.79559953
_symmetry_Int_Tables_number   1
_chemical_formula_structural   Pr(ZrAu2)2
_chemical_formula_sum   'Pr1 Zr2 Au4'
_cell_volume   150.45022547
_cell_formula_units_Z   1
loop_
 _symmetry_equiv_pos_site_id
 _symmetry_equiv_pos_as_xyz
  1  'x, y, z'
loop_
 _atom_site_type_symbol
 _atom_site_label
 _atom_site_symmetry_multiplicity
 _atom_site_fract_x
 _atom_site_fract_y
 _atom_site_fract_z
 _atom_site_occupancy
  Pr  Pr0  1  0.000000  0.000000  0.000000  1
  Zr  Zr1  1  0.250000  0.750000  0.500000  1
  Zr  Zr2  1  0.750000  0.250000  0.500000  1
  Au  Au3  1  0.303462  0.303462  0.606924  1
  Au  Au4  1  0.696538  0.696538  0.393076  1
  Au  Au5  1  0.696538  0.303462  0.000000  1
  Au  Au6  1  0.303462  0.696538  0.000000  1
