# generated using pymatgen
data_Tb3Ho2Co16(MoP4)3
_symmetry_space_group_name_H-M   'P 1'
_cell_length_a   12.09582714
_cell_length_b   12.09582747
_cell_length_c   3.71180100
_cell_angle_alpha   90.00000000
_cell_angle_beta   90.00000000
_cell_angle_gamma   119.98253765
_symmetry_Int_Tables_number   1
_chemical_formula_structural   Tb3Ho2Co16(MoP4)3
_chemical_formula_sum   'Tb3 Ho2 Co16 Mo3 P12'
_cell_volume   470.39518097
_cell_formula_units_Z   1
loop_
 _symmetry_equiv_pos_site_id
 _symmetry_equiv_pos_as_xyz
  1  'x, y, z'
loop_
 _atom_site_type_symbol
 _atom_site_label
 _atom_site_symmetry_multiplicity
 _atom_site_fract_x
 _atom_site_fract_y
 _atom_site_fract_z
 _atom_site_occupancy
  Tb  Tb0  1  0.666510  0.333300  0.000000  1
  Tb  Tb1  1  0.333300  0.666510  0.000000  1
  Tb  Tb2  1  0.815015  0.815015  0.500000  1
  Ho  Ho3  1  0.185294  0.000233  0.500000  1
  Ho  Ho4  1  0.000233  0.185294  0.500000  1
  Co  Co5  1  0.873387  0.355141  0.500000  1
  Co  Co6  1  0.644661  0.517935  0.500000  1
  Co  Co7  1  0.481658  0.126637  0.500000  1
  Co  Co8  1  0.355141  0.873387  0.500000  1
  Co  Co9  1  0.517935  0.644661  0.500000  1
  Co  Co10  1  0.126637  0.481658  0.500000  1
  Co  Co11  1  0.802435  0.177220  0.000000  1
  Co  Co12  1  0.823102  0.624950  0.000000  1
  Co  Co13  1  0.374559  0.197427  0.000000  1
  Co  Co14  1  0.177220  0.802435  0.000000  1
  Co  Co15  1  0.624950  0.823102  0.000000  1
  Co  Co16  1  0.197427  0.374559  0.000000  1
  Co  Co17  1  0.279906  0.279906  0.500000  1
  Co  Co18  1  0.719893  0.000409  0.500000  1
  Co  Co19  1  0.000409  0.719893  0.500000  1
  Co  Co20  1  0.000565  0.000565  0.000000  1
  Mo  Mo21  1  0.445887  0.445887  0.000000  1
  Mo  Mo22  1  0.553816  0.000164  0.000000  1
  Mo  Mo23  1  0.000164  0.553816  0.000000  1
  P  P24  1  0.686193  0.165297  0.500000  1
  P  P25  1  0.834821  0.521113  0.500000  1
  P  P26  1  0.478842  0.313599  0.500000  1
  P  P27  1  0.165297  0.686193  0.500000  1
  P  P28  1  0.521113  0.834821  0.500000  1
  P  P29  1  0.313599  0.478842  0.500000  1
  P  P30  1  0.178097  0.178097  0.000000  1
  P  P31  1  0.822029  0.000782  0.000000  1
  P  P32  1  0.000782  0.822029  0.000000  1
  P  P33  1  0.638637  0.638637  0.000000  1
  P  P34  1  0.360490  0.999994  0.000000  1
  P  P35  1  0.999994  0.360490  0.000000  1
