# generated using pymatgen
data_Ba2DyHo(SbAu)4
_symmetry_space_group_name_H-M   'P 1'
_cell_length_a   4.65196600
_cell_length_b   4.65196636
_cell_length_c   18.09351000
_cell_angle_alpha   90.00000000
_cell_angle_beta   90.00000000
_cell_angle_gamma   120.00002585
_symmetry_Int_Tables_number   1
_chemical_formula_structural   Ba2DyHo(SbAu)4
_chemical_formula_sum   'Ba2 Dy1 Ho1 Sb4 Au4'
_cell_volume   339.09894706
_cell_formula_units_Z   1
loop_
 _symmetry_equiv_pos_site_id
 _symmetry_equiv_pos_as_xyz
  1  'x, y, z'
loop_
 _atom_site_type_symbol
 _atom_site_label
 _atom_site_symmetry_multiplicity
 _atom_site_fract_x
 _atom_site_fract_y
 _atom_site_fract_z
 _atom_site_occupancy
  Ba  Ba0  1  0.000000  0.000000  0.500098  1
  Ba  Ba1  1  0.000000  0.000000  0.999902  1
  Dy  Dy2  1  0.000000  0.000000  0.250000  1
  Ho  Ho3  1  0.000000  0.000000  0.750000  1
  Sb  Sb4  1  0.333333  0.666667  0.372603  1
  Sb  Sb5  1  0.666667  0.333333  0.627539  1
  Sb  Sb6  1  0.666667  0.333333  0.872461  1
  Sb  Sb7  1  0.333333  0.666667  0.127397  1
  Au  Au8  1  0.666667  0.333333  0.332990  1
  Au  Au9  1  0.333333  0.666667  0.667687  1
  Au  Au10  1  0.333333  0.666667  0.832313  1
  Au  Au11  1  0.666667  0.333333  0.167010  1
