# generated using pymatgen
data_Ta6V3Co3N2
_symmetry_space_group_name_H-M   'P 1'
_cell_length_a   8.08996628
_cell_length_b   8.08996747
_cell_length_c   8.08996687
_cell_angle_alpha   120.02139237
_cell_angle_beta   119.93697631
_cell_angle_gamma   90.03607507
_symmetry_Int_Tables_number   1
_chemical_formula_structural   Ta6V3Co3N2
_chemical_formula_sum   'Ta12 V6 Co6 N4'
_cell_volume   374.50830837
_cell_formula_units_Z   2
loop_
 _symmetry_equiv_pos_site_id
 _symmetry_equiv_pos_as_xyz
  1  'x, y, z'
loop_
 _atom_site_type_symbol
 _atom_site_label
 _atom_site_symmetry_multiplicity
 _atom_site_fract_x
 _atom_site_fract_y
 _atom_site_fract_z
 _atom_site_occupancy
  Ta  Ta0  1  0.071618  0.571618  0.500000  1
  Ta  Ta1  1  0.684597  0.184597  0.500000  1
  Ta  Ta2  1  0.065665  0.181021  0.499705  1
  Ta  Ta3  1  0.681315  0.565959  0.500295  1
  Ta  Ta4  1  0.681315  0.181021  0.115356  1
  Ta  Ta5  1  0.065665  0.565959  0.884644  1
  Ta  Ta6  1  0.434777  0.434777  0.000000  1
  Ta  Ta7  1  0.820123  0.820123  0.000000  1
  Ta  Ta8  1  0.431746  0.816435  0.000126  1
  Ta  Ta9  1  0.816309  0.431620  0.999874  1
  Ta  Ta10  1  0.816309  0.816435  0.384688  1
  Ta  Ta11  1  0.431746  0.431620  0.615312  1
  V  V12  1  0.753671  0.006213  0.747458  1
  V  V13  1  0.258755  0.006213  0.252542  1
  V  V14  1  0.251178  0.491312  0.240134  1
  V  V15  1  0.251178  0.011044  0.759866  1
  V  V16  1  0.132459  0.794531  0.337928  1
  V  V17  1  0.456602  0.794531  0.662072  1
  Co  Co18  1  0.453997  0.110316  0.656319  1
  Co  Co19  1  0.453997  0.797677  0.343681  1
  Co  Co20  1  0.353131  0.200435  0.152696  1
  Co  Co21  1  0.047739  0.200435  0.847304  1
  Co  Co22  1  0.045007  0.885830  0.840823  1
  Co  Co23  1  0.045007  0.204186  0.159177  1
  N  N24  1  0.250884  0.499542  0.751343  1
  N  N25  1  0.748200  0.499542  0.248657  1
  N  N26  1  0.748506  0.998032  0.249527  1
  N  N27  1  0.748506  0.498979  0.750473  1
