# generated using pymatgen
data_Ca3Ce(NiH6)2
_symmetry_space_group_name_H-M   'P 1'
_cell_length_a   7.02578477
_cell_length_b   7.02578375
_cell_length_c   5.13182633
_cell_angle_alpha   90.00070358
_cell_angle_beta   90.00069197
_cell_angle_gamma   137.88005031
_symmetry_Int_Tables_number   1
_chemical_formula_structural   Ca3Ce(NiH6)2
_chemical_formula_sum   'Ca3 Ce1 Ni2 H12'
_cell_volume   169.89481119
_cell_formula_units_Z   1
loop_
 _symmetry_equiv_pos_site_id
 _symmetry_equiv_pos_as_xyz
  1  'x, y, z'
loop_
 _atom_site_type_symbol
 _atom_site_label
 _atom_site_symmetry_multiplicity
 _atom_site_fract_x
 _atom_site_fract_y
 _atom_site_fract_z
 _atom_site_occupancy
  Ca  Ca0  1  0.646422  0.353578  0.000000  1
  Ca  Ca1  1  0.854878  0.145122  0.500000  1
  Ca  Ca2  1  0.358656  0.641344  0.000000  1
  Ce  Ce3  1  0.138956  0.861044  0.500000  1
  Ni  Ni4  1  0.501425  0.498575  0.500000  1
  Ni  Ni5  1  0.000540  0.999460  0.000000  1
  H  H6  1  0.003356  0.508075  0.746374  1
  H  H7  1  0.491925  0.996644  0.253626  1
  H  H8  1  0.003306  0.507984  0.253641  1
  H  H9  1  0.492016  0.996694  0.746359  1
  H  H10  1  0.380429  0.619571  0.500000  1
  H  H11  1  0.879705  0.120295  0.000000  1
  H  H12  1  0.622480  0.377520  0.500000  1
  H  H13  1  0.120790  0.879210  0.000000  1
  H  H14  1  0.248830  0.246284  0.746165  1
  H  H15  1  0.753716  0.751170  0.253835  1
  H  H16  1  0.247914  0.245342  0.252900  1
  H  H17  1  0.754658  0.752086  0.747100  1
