# generated using pymatgen
data_Pr8Sc12Tl15Bi
_symmetry_space_group_name_H-M   'P 1'
_cell_length_a   7.87033761
_cell_length_b   8.14688119
_cell_length_c   15.39442700
_cell_angle_alpha   90.11601394
_cell_angle_beta   89.18428153
_cell_angle_gamma   90.25788946
_symmetry_Int_Tables_number   1
_chemical_formula_structural   Pr8Sc12Tl15Bi
_chemical_formula_sum   'Pr8 Sc12 Tl15 Bi1'
_cell_volume   986.95880120
_cell_formula_units_Z   1
loop_
 _symmetry_equiv_pos_site_id
 _symmetry_equiv_pos_as_xyz
  1  'x, y, z'
loop_
 _atom_site_type_symbol
 _atom_site_label
 _atom_site_symmetry_multiplicity
 _atom_site_fract_x
 _atom_site_fract_y
 _atom_site_fract_z
 _atom_site_occupancy
  Pr  Pr0  1  0.000245  0.175039  0.403378  1
  Pr  Pr1  1  0.503352  0.318549  0.403590  1
  Pr  Pr2  1  0.497686  0.677501  0.906029  1
  Pr  Pr3  1  0.503319  0.679761  0.597104  1
  Pr  Pr4  1  0.996740  0.824905  0.595383  1
  Pr  Pr5  1  0.995674  0.822223  0.905800  1
  Pr  Pr6  1  0.503561  0.321360  0.094559  1
  Pr  Pr7  1  0.004905  0.179506  0.094753  1
  Sc  Sc8  1  0.338392  0.157792  0.626821  1
  Sc  Sc9  1  0.663661  0.839425  0.373736  1
  Sc  Sc10  1  0.665701  0.004663  0.751302  1
  Sc  Sc11  1  0.166214  0.669908  0.372933  1
  Sc  Sc12  1  0.832418  0.335631  0.876226  1
  Sc  Sc13  1  0.828999  0.334178  0.625681  1
  Sc  Sc14  1  0.835245  0.504211  0.248902  1
  Sc  Sc15  1  0.334429  0.997002  0.249753  1
  Sc  Sc16  1  0.328646  0.163724  0.876039  1
  Sc  Sc17  1  0.170144  0.662773  0.124153  1
  Sc  Sc18  1  0.668937  0.835779  0.123268  1
  Sc  Sc19  1  0.166704  0.496554  0.753289  1
  Tl  Tl20  1  0.298437  0.863062  0.751099  1
  Tl  Tl21  1  0.474755  0.629508  0.250204  1
  Tl  Tl22  1  0.026684  0.131220  0.748535  1
  Tl  Tl23  1  0.526088  0.369844  0.751549  1
  Tl  Tl24  1  0.972805  0.869633  0.247638  1
  Tl  Tl25  1  0.701036  0.133864  0.248484  1
  Tl  Tl26  1  0.827591  0.542031  0.043195  1
  Tl  Tl27  1  0.327923  0.956407  0.043271  1
  Tl  Tl28  1  0.172306  0.457941  0.957400  1
  Tl  Tl29  1  0.674176  0.043677  0.541385  1
  Tl  Tl30  1  0.325495  0.957148  0.458534  1
  Tl  Tl31  1  0.818791  0.546067  0.455086  1
  Tl  Tl32  1  0.801999  0.633926  0.749766  1
  Tl  Tl33  1  0.199836  0.366337  0.251373  1
  Tl  Tl34  1  0.671387  0.043737  0.956776  1
  Bi  Bi35  1  0.175716  0.455112  0.543010  1
