# generated using pymatgen
data_Pr3Hg3RhAu2
_symmetry_space_group_name_H-M   'P 1'
_cell_length_a   8.07912600
_cell_length_b   8.07912519
_cell_length_c   3.89876100
_cell_angle_alpha   90.00000000
_cell_angle_beta   90.00000000
_cell_angle_gamma   119.99999512
_symmetry_Int_Tables_number   1
_chemical_formula_structural   Pr3Hg3RhAu2
_chemical_formula_sum   'Pr3 Hg3 Rh1 Au2'
_cell_volume   220.38700618
_cell_formula_units_Z   1
loop_
 _symmetry_equiv_pos_site_id
 _symmetry_equiv_pos_as_xyz
  1  'x, y, z'
loop_
 _atom_site_type_symbol
 _atom_site_label
 _atom_site_symmetry_multiplicity
 _atom_site_fract_x
 _atom_site_fract_y
 _atom_site_fract_z
 _atom_site_occupancy
  Pr  Pr0  1  0.588811  0.979333  0.000000  1
  Pr  Pr1  1  0.020667  0.609478  0.000000  1
  Pr  Pr2  1  0.390522  0.411189  0.000000  1
  Hg  Hg3  1  0.270806  0.997335  0.500000  1
  Hg  Hg4  1  0.002665  0.273471  0.500000  1
  Hg  Hg5  1  0.726529  0.729194  0.500000  1
  Rh  Rh6  1  0.333333  0.666667  0.500000  1
  Au  Au7  1  0.666667  0.333333  0.500000  1
  Au  Au8  1  0.000000  0.000000  0.000000  1
