# generated using pymatgen
data_Y12Si8(PtRh3)3
_symmetry_space_group_name_H-M   'P 1'
_cell_length_a   5.57065707
_cell_length_b   7.58331109
_cell_length_c   14.89401900
_cell_angle_alpha   90.00000000
_cell_angle_beta   90.00000000
_cell_angle_gamma   90.01787062
_symmetry_Int_Tables_number   1
_chemical_formula_structural   Y12Si8(PtRh3)3
_chemical_formula_sum   'Y12 Si8 Pt3 Rh9'
_cell_volume   629.18328832
_cell_formula_units_Z   1
loop_
 _symmetry_equiv_pos_site_id
 _symmetry_equiv_pos_as_xyz
  1  'x, y, z'
loop_
 _atom_site_type_symbol
 _atom_site_label
 _atom_site_symmetry_multiplicity
 _atom_site_fract_x
 _atom_site_fract_y
 _atom_site_fract_z
 _atom_site_occupancy
  Y  Y0  1  0.893202  0.832069  0.750000  1
  Y  Y1  1  0.866602  0.527402  0.393602  1
  Y  Y2  1  0.365828  0.973472  0.607329  1
  Y  Y3  1  0.132715  0.471872  0.891715  1
  Y  Y4  1  0.633568  0.026659  0.106452  1
  Y  Y5  1  0.106113  0.171341  0.250000  1
  Y  Y6  1  0.132715  0.471872  0.608285  1
  Y  Y7  1  0.633568  0.026659  0.393548  1
  Y  Y8  1  0.393679  0.671882  0.250000  1
  Y  Y9  1  0.365828  0.973472  0.892671  1
  Y  Y10  1  0.613494  0.328134  0.750000  1
  Y  Y11  1  0.866602  0.527402  0.106398  1
  Si  Si12  1  0.629981  0.623095  0.898465  1
  Si  Si13  1  0.872914  0.123516  0.602729  1
  Si  Si14  1  0.130168  0.876851  0.101345  1
  Si  Si15  1  0.130168  0.876851  0.398655  1
  Si  Si16  1  0.629981  0.623095  0.601535  1
  Si  Si17  1  0.872914  0.123516  0.897271  1
  Si  Si18  1  0.369636  0.376948  0.101214  1
  Si  Si19  1  0.369636  0.376948  0.398786  1
  Pt  Pt20  1  0.403497  0.682936  0.750000  1
  Pt  Pt21  1  0.594935  0.317173  0.250000  1
  Pt  Pt22  1  0.902938  0.816552  0.250000  1
  Rh  Rh23  1  0.597976  0.331240  0.961911  1
  Rh  Rh24  1  0.096927  0.168305  0.461834  1
  Rh  Rh25  1  0.096927  0.168305  0.038166  1
  Rh  Rh26  1  0.901161  0.832224  0.962204  1
  Rh  Rh27  1  0.901161  0.832224  0.537796  1
  Rh  Rh28  1  0.597976  0.331240  0.538089  1
  Rh  Rh29  1  0.402240  0.667960  0.462037  1
  Rh  Rh30  1  0.092711  0.180827  0.750000  1
  Rh  Rh31  1  0.402240  0.667960  0.037963  1
