# generated using pymatgen
data_Y4Lu4B24Ru3W
_symmetry_space_group_name_H-M   'P 1'
_cell_length_a   3.61421100
_cell_length_b   9.11493806
_cell_length_c   11.52078805
_cell_angle_alpha   89.86316909
_cell_angle_beta   90.00000000
_cell_angle_gamma   90.00000000
_symmetry_Int_Tables_number   1
_chemical_formula_structural   Y4Lu4B24Ru3W
_chemical_formula_sum   'Y4 Lu4 B24 Ru3 W1'
_cell_volume   379.53180307
_cell_formula_units_Z   1
loop_
 _symmetry_equiv_pos_site_id
 _symmetry_equiv_pos_as_xyz
  1  'x, y, z'
loop_
 _atom_site_type_symbol
 _atom_site_label
 _atom_site_symmetry_multiplicity
 _atom_site_fract_x
 _atom_site_fract_y
 _atom_site_fract_z
 _atom_site_occupancy
  Y  Y0  1  0.000000  0.320744  0.413683  1
  Y  Y1  1  0.000000  0.678616  0.585363  1
  Y  Y2  1  0.000000  0.819957  0.086476  1
  Y  Y3  1  0.000000  0.177525  0.914782  1
  Lu  Lu4  1  0.000000  0.946413  0.373212  1
  Lu  Lu5  1  0.000000  0.057658  0.628871  1
  Lu  Lu6  1  0.000000  0.442535  0.125948  1
  Lu  Lu7  1  0.000000  0.556612  0.870986  1
  B  B8  1  0.500000  0.550370  0.436262  1
  B  B9  1  0.500000  0.445282  0.568969  1
  B  B10  1  0.500000  0.054387  0.067130  1
  B  B11  1  0.500000  0.945530  0.932750  1
  B  B12  1  0.500000  0.753863  0.421849  1
  B  B13  1  0.500000  0.250343  0.582012  1
  B  B14  1  0.500000  0.249495  0.080404  1
  B  B15  1  0.500000  0.749972  0.918407  1
  B  B16  1  0.500000  0.796426  0.264087  1
  B  B17  1  0.500000  0.208170  0.734620  1
  B  B18  1  0.500000  0.290713  0.232450  1
  B  B19  1  0.500000  0.708911  0.765658  1
  B  B20  1  0.500000  0.630673  0.181331  1
  B  B21  1  0.500000  0.369048  0.815597  1
  B  B22  1  0.500000  0.130757  0.314682  1
  B  B23  1  0.500000  0.870461  0.684997  1
  B  B24  1  0.500000  0.983811  0.213185  1
  B  B25  1  0.500000  0.017255  0.787568  1
  B  B26  1  0.500000  0.476588  0.285444  1
  B  B27  1  0.500000  0.516679  0.713761  1
  B  B28  1  0.500000  0.602741  0.026387  1
  B  B29  1  0.500000  0.395960  0.970484  1
  B  B30  1  0.500000  0.104469  0.472315  1
  B  B31  1  0.500000  0.899556  0.529776  1
  Ru  Ru32  1  0.000000  0.360665  0.681219  1
  Ru  Ru33  1  0.000000  0.138274  0.178947  1
  Ru  Ru34  1  0.000000  0.861349  0.819711  1
  W  W35  1  0.000000  0.638195  0.320671  1
