# generated using pymatgen
data_Te2Cl15
_symmetry_space_group_name_H-M   'P 1'
_cell_length_a   7.71127568
_cell_length_b   14.09173918
_cell_length_c   14.66072503
_cell_angle_alpha   101.95337672
_cell_angle_beta   106.98741116
_cell_angle_gamma   106.16928267
_symmetry_Int_Tables_number   1
_chemical_formula_structural   Te2Cl15
_chemical_formula_sum   'Te4 Cl30'
_cell_volume   1389.29385641
_cell_formula_units_Z   2
loop_
 _symmetry_equiv_pos_site_id
 _symmetry_equiv_pos_as_xyz
  1  'x, y, z'
loop_
 _atom_site_type_symbol
 _atom_site_label
 _atom_site_symmetry_multiplicity
 _atom_site_fract_x
 _atom_site_fract_y
 _atom_site_fract_z
 _atom_site_occupancy
  Te  Te0  1  0.707222  0.264368  0.280582  1
  Te  Te1  1  0.292778  0.735632  0.719418  1
  Te  Te2  1  0.871977  0.589834  0.414436  1
  Te  Te3  1  0.128023  0.410166  0.585564  1
  Cl  Cl4  1  0.740441  0.928656  0.501638  1
  Cl  Cl5  1  0.259559  0.071344  0.498362  1
  Cl  Cl6  1  0.334071  0.734684  0.121685  1
  Cl  Cl7  1  0.665929  0.265316  0.878315  1
  Cl  Cl8  1  0.120236  0.975592  0.165345  1
  Cl  Cl9  1  0.879764  0.024408  0.834655  1
  Cl  Cl10  1  0.844898  0.897662  0.069702  1
  Cl  Cl11  1  0.155102  0.102338  0.930298  1
  Cl  Cl12  1  0.047925  0.652904  0.067585  1
  Cl  Cl13  1  0.952075  0.347096  0.932415  1
  Cl  Cl14  1  0.434587  0.463201  0.038866  1
  Cl  Cl15  1  0.565413  0.536799  0.961134  1
  Cl  Cl16  1  0.542943  0.158393  0.566421  1
  Cl  Cl17  1  0.457057  0.841607  0.433579  1
  Cl  Cl18  1  0.751634  0.186636  0.134110  1
  Cl  Cl19  1  0.248366  0.813364  0.865890  1
  Cl  Cl20  1  0.397358  0.267548  0.198723  1
  Cl  Cl21  1  0.602642  0.732452  0.801277  1
  Cl  Cl22  1  0.868233  0.462228  0.255576  1
  Cl  Cl23  1  0.131767  0.537772  0.744424  1
  Cl  Cl24  1  0.897857  0.709428  0.578078  1
  Cl  Cl25  1  0.102143  0.290572  0.421922  1
  Cl  Cl26  1  0.738306  0.402270  0.468889  1
  Cl  Cl27  1  0.261694  0.597730  0.531111  1
  Cl  Cl28  1  0.546371  0.573136  0.336267  1
  Cl  Cl29  1  0.453629  0.426864  0.663733  1
  Cl  Cl30  1  0.997067  0.730508  0.357586  1
  Cl  Cl31  1  0.002933  0.269492  0.642414  1
  Cl  Cl32  1  0.421869  0.896099  0.690949  1
  Cl  Cl33  1  0.578131  0.103901  0.309051  1
