# generated using pymatgen
data_La18TbErGa12
_symmetry_space_group_name_H-M   'P 1'
_cell_length_a   7.94521400
_cell_length_b   7.94521400
_cell_length_c   15.05016400
_cell_angle_alpha   90.00000000
_cell_angle_beta   90.00000000
_cell_angle_gamma   90.00000000
_symmetry_Int_Tables_number   1
_chemical_formula_structural   La18TbErGa12
_chemical_formula_sum   'La18 Tb1 Er1 Ga12'
_cell_volume   950.06305660
_cell_formula_units_Z   1
loop_
 _symmetry_equiv_pos_site_id
 _symmetry_equiv_pos_as_xyz
  1  'x, y, z'
loop_
 _atom_site_type_symbol
 _atom_site_label
 _atom_site_symmetry_multiplicity
 _atom_site_fract_x
 _atom_site_fract_y
 _atom_site_fract_z
 _atom_site_occupancy
  La  La0  1  0.338075  0.311527  0.104336  1
  La  La1  1  0.838453  0.811317  0.895764  1
  La  La2  1  0.840081  0.183440  0.396403  1
  La  La3  1  0.161547  0.188683  0.895764  1
  La  La4  1  0.661925  0.688473  0.104336  1
  La  La5  1  0.000000  0.500000  0.706938  1
  La  La6  1  0.816699  0.840083  0.603453  1
  La  La7  1  0.316560  0.340081  0.396403  1
  La  La8  1  0.188473  0.838075  0.104336  1
  La  La9  1  0.183301  0.159917  0.603453  1
  La  La10  1  0.811527  0.161925  0.104336  1
  La  La11  1  0.340083  0.683301  0.603453  1
  La  La12  1  0.500000  0.000000  0.293008  1
  La  La13  1  0.688683  0.338453  0.895764  1
  La  La14  1  0.659917  0.316699  0.603453  1
  La  La15  1  0.311317  0.661547  0.895764  1
  La  La16  1  0.159919  0.816560  0.396403  1
  La  La17  1  0.683440  0.659919  0.396403  1
  Tb  Tb18  1  0.500000  0.000000  0.775112  1
  Er  Er19  1  0.000000  0.500000  0.225416  1
  Ga  Ga20  1  0.623961  0.383819  0.248914  1
  Ga  Ga21  1  0.876744  0.116313  0.750938  1
  Ga  Ga22  1  0.500000  0.000000  0.498936  1
  Ga  Ga23  1  0.883819  0.876039  0.248914  1
  Ga  Ga24  1  0.000000  0.500000  0.019638  1
  Ga  Ga25  1  0.123256  0.883687  0.750938  1
  Ga  Ga26  1  0.383687  0.376744  0.750938  1
  Ga  Ga27  1  0.116181  0.123961  0.248914  1
  Ga  Ga28  1  0.376039  0.616181  0.248914  1
  Ga  Ga29  1  0.616313  0.623256  0.750938  1
  Ga  Ga30  1  0.500000  0.000000  0.980778  1
  Ga  Ga31  1  0.000000  0.500000  0.500943  1
