# generated using pymatgen
data_LiTi4MoIr2
_symmetry_space_group_name_H-M   'P 1'
_cell_length_a   6.24695700
_cell_length_b   4.39498200
_cell_length_c   8.82374100
_cell_angle_alpha   90.00000000
_cell_angle_beta   89.99617023
_cell_angle_gamma   90.00000000
_symmetry_Int_Tables_number   1
_chemical_formula_structural   LiTi4MoIr2
_chemical_formula_sum   'Li2 Ti8 Mo2 Ir4'
_cell_volume   242.25813456
_cell_formula_units_Z   2
loop_
 _symmetry_equiv_pos_site_id
 _symmetry_equiv_pos_as_xyz
  1  'x, y, z'
loop_
 _atom_site_type_symbol
 _atom_site_label
 _atom_site_symmetry_multiplicity
 _atom_site_fract_x
 _atom_site_fract_y
 _atom_site_fract_z
 _atom_site_occupancy
  Li  Li0  1  0.750106  0.249999  0.125380  1
  Li  Li1  1  0.249854  0.749999  0.374612  1
  Ti  Ti2  1  0.002693  0.749999  0.122389  1
  Ti  Ti3  1  0.497291  0.749999  0.122381  1
  Ti  Ti4  1  0.997310  0.249999  0.377625  1
  Ti  Ti5  1  0.502654  0.249999  0.377581  1
  Ti  Ti6  1  0.500528  0.749999  0.627222  1
  Ti  Ti7  1  0.999458  0.749999  0.627223  1
  Ti  Ti8  1  0.499478  0.249999  0.872793  1
  Ti  Ti9  1  0.000563  0.249999  0.872770  1
  Mo  Mo10  1  0.750093  0.249999  0.623353  1
  Mo  Mo11  1  0.249979  0.749999  0.876677  1
  Ir  Ir12  1  0.249932  0.249999  0.130570  1
  Ir  Ir13  1  0.750100  0.749999  0.369402  1
  Ir  Ir14  1  0.249948  0.249999  0.618358  1
  Ir  Ir15  1  0.750013  0.749999  0.881663  1
