# generated using pymatgen
data_Hf7Zr2Nb(Sn3P)2
_symmetry_space_group_name_H-M   'P 1'
_cell_length_a   8.54134943
_cell_length_b   8.54187957
_cell_length_c   5.85535600
_cell_angle_alpha   89.99860118
_cell_angle_beta   89.99680950
_cell_angle_gamma   120.06408832
_symmetry_Int_Tables_number   1
_chemical_formula_structural   Hf7Zr2Nb(Sn3P)2
_chemical_formula_sum   'Hf7 Zr2 Nb1 Sn6 P2'
_cell_volume   369.72859510
_cell_formula_units_Z   1
loop_
 _symmetry_equiv_pos_site_id
 _symmetry_equiv_pos_as_xyz
  1  'x, y, z'
loop_
 _atom_site_type_symbol
 _atom_site_label
 _atom_site_symmetry_multiplicity
 _atom_site_fract_x
 _atom_site_fract_y
 _atom_site_fract_z
 _atom_site_occupancy
  Hf  Hf0  1  0.333184  0.666293  0.999861  1
  Hf  Hf1  1  0.333198  0.666259  0.500146  1
  Hf  Hf2  1  0.666369  0.333208  0.500182  1
  Hf  Hf3  1  0.748490  0.748090  0.749956  1
  Hf  Hf4  1  0.252435  0.000736  0.749909  1
  Hf  Hf5  1  0.000031  0.252147  0.749971  1
  Hf  Hf6  1  0.251504  0.251130  0.250114  1
  Zr  Zr7  1  0.747947  0.000352  0.250115  1
  Zr  Zr8  1  0.999469  0.747486  0.250104  1
  Nb  Nb9  1  0.666249  0.333170  0.999865  1
  Sn  Sn10  1  0.400889  0.398838  0.752452  1
  Sn  Sn11  1  0.601018  0.002009  0.752438  1
  Sn  Sn12  1  0.997931  0.599016  0.752423  1
  Sn  Sn13  1  0.600488  0.598405  0.247457  1
  Sn  Sn14  1  0.400730  0.002323  0.247505  1
  Sn  Sn15  1  0.998203  0.398660  0.247487  1
  P  P16  1  0.000978  0.000958  0.998010  1
  P  P17  1  0.000886  0.000920  0.502005  1
