# generated using pymatgen
data_CsRb14In27
_symmetry_space_group_name_H-M   'P 1'
_cell_length_a   10.31018508
_cell_length_b   10.31018504
_cell_length_c   17.97079100
_cell_angle_alpha   90.00000000
_cell_angle_beta   90.00000000
_cell_angle_gamma   119.98585247
_symmetry_Int_Tables_number   1
_chemical_formula_structural   CsRb14In27
_chemical_formula_sum   'Cs1 Rb14 In27'
_cell_volume   1654.59855919
_cell_formula_units_Z   1
loop_
 _symmetry_equiv_pos_site_id
 _symmetry_equiv_pos_as_xyz
  1  'x, y, z'
loop_
 _atom_site_type_symbol
 _atom_site_label
 _atom_site_symmetry_multiplicity
 _atom_site_fract_x
 _atom_site_fract_y
 _atom_site_fract_z
 _atom_site_occupancy
  Cs  Cs0  1  0.999883  0.999883  0.500000  1
  Rb  Rb1  1  0.666700  0.333382  0.000000  1
  Rb  Rb2  1  0.333382  0.666700  0.000000  1
  Rb  Rb3  1  0.610418  0.999940  0.185387  1
  Rb  Rb4  1  0.999940  0.610418  0.185387  1
  Rb  Rb5  1  0.389615  0.389615  0.185346  1
  Rb  Rb6  1  0.268362  0.999973  0.310475  1
  Rb  Rb7  1  0.999973  0.268362  0.310475  1
  Rb  Rb8  1  0.731547  0.731547  0.310483  1
  Rb  Rb9  1  0.731547  0.731547  0.689516  1
  Rb  Rb10  1  0.268362  0.999973  0.689525  1
  Rb  Rb11  1  0.999973  0.268362  0.689525  1
  Rb  Rb12  1  0.389615  0.389615  0.814654  1
  Rb  Rb13  1  0.610418  0.999940  0.814613  1
  Rb  Rb14  1  0.999940  0.610418  0.814613  1
  In  In15  1  0.792922  0.000226  0.000000  1
  In  In16  1  0.207189  0.207189  0.000000  1
  In  In17  1  0.000226  0.792922  0.000000  1
  In  In18  1  0.281156  0.999888  0.087598  1
  In  In19  1  0.999888  0.281157  0.087598  1
  In  In20  1  0.719013  0.719013  0.087583  1
  In  In21  1  0.999868  0.999868  0.143857  1
  In  In22  1  0.666900  0.333262  0.350804  1
  In  In23  1  0.333262  0.666899  0.350804  1
  In  In24  1  0.612313  0.999971  0.405502  1
  In  In25  1  0.999971  0.612313  0.405502  1
  In  In26  1  0.387851  0.387851  0.405476  1
  In  In27  1  0.466090  0.170754  0.500000  1
  In  In28  1  0.829077  0.295357  0.500000  1
  In  In29  1  0.170754  0.466090  0.500000  1
  In  In30  1  0.704671  0.533682  0.500000  1
  In  In31  1  0.533682  0.704671  0.500000  1
  In  In32  1  0.295356  0.829077  0.500000  1
  In  In33  1  0.387851  0.387851  0.594525  1
  In  In34  1  0.612313  0.999971  0.594499  1
  In  In35  1  0.999971  0.612313  0.594499  1
  In  In36  1  0.666900  0.333262  0.649196  1
  In  In37  1  0.333262  0.666899  0.649196  1
  In  In38  1  0.999868  0.999868  0.856142  1
  In  In39  1  0.281156  0.999888  0.912402  1
  In  In40  1  0.999888  0.281157  0.912402  1
  In  In41  1  0.719013  0.719013  0.912417  1
