# generated using pymatgen
data_Tm3PuCo4(SnH)4
_symmetry_space_group_name_H-M   'P 1'
_cell_length_a   4.22303300
_cell_length_b   7.04668501
_cell_length_c   8.18188639
_cell_angle_alpha   89.66600415
_cell_angle_beta   90.00000000
_cell_angle_gamma   90.00000000
_symmetry_Int_Tables_number   1
_chemical_formula_structural   Tm3PuCo4(SnH)4
_chemical_formula_sum   'Tm3 Pu1 Co4 Sn4 H4'
_cell_volume   243.47557481
_cell_formula_units_Z   1
loop_
 _symmetry_equiv_pos_site_id
 _symmetry_equiv_pos_as_xyz
  1  'x, y, z'
loop_
 _atom_site_type_symbol
 _atom_site_label
 _atom_site_symmetry_multiplicity
 _atom_site_fract_x
 _atom_site_fract_y
 _atom_site_fract_z
 _atom_site_occupancy
  Tm  Tm0  1  0.750000  0.013048  0.686470  1
  Tm  Tm1  1  0.250000  0.984786  0.315344  1
  Tm  Tm2  1  0.250000  0.487014  0.184365  1
  Pu  Pu3  1  0.750000  0.508015  0.809013  1
  Co  Co4  1  0.750000  0.772255  0.107056  1
  Co  Co5  1  0.250000  0.234000  0.891605  1
  Co  Co6  1  0.250000  0.726064  0.611537  1
  Co  Co7  1  0.750000  0.270782  0.395785  1
  Sn  Sn8  1  0.750000  0.657478  0.424785  1
  Sn  Sn9  1  0.250000  0.341528  0.566336  1
  Sn  Sn10  1  0.250000  0.845489  0.929212  1
  Sn  Sn11  1  0.750000  0.155036  0.076120  1
  H  H12  1  0.250000  0.457692  0.920412  1
  H  H13  1  0.750000  0.549674  0.081194  1
  H  H14  1  0.750000  0.049120  0.421310  1
  H  H15  1  0.250000  0.948018  0.579456  1
