# generated using pymatgen
data_SrYb2(AgSn)3
_symmetry_space_group_name_H-M   'P 1'
_cell_length_a   4.84642100
_cell_length_b   4.84642014
_cell_length_c   11.48732800
_cell_angle_alpha   90.00000000
_cell_angle_beta   90.00000000
_cell_angle_gamma   119.99999904
_symmetry_Int_Tables_number   1
_chemical_formula_structural   SrYb2(AgSn)3
_chemical_formula_sum   'Sr1 Yb2 Ag3 Sn3'
_cell_volume   233.66402657
_cell_formula_units_Z   1
loop_
 _symmetry_equiv_pos_site_id
 _symmetry_equiv_pos_as_xyz
  1  'x, y, z'
loop_
 _atom_site_type_symbol
 _atom_site_label
 _atom_site_symmetry_multiplicity
 _atom_site_fract_x
 _atom_site_fract_y
 _atom_site_fract_z
 _atom_site_occupancy
  Sr  Sr0  1  0.666667  0.333333  0.666581  1
  Yb  Yb1  1  0.666667  0.333333  0.006896  1
  Yb  Yb2  1  0.666667  0.333333  0.321836  1
  Ag  Ag3  1  0.000000  0.000000  0.845929  1
  Ag  Ag4  1  0.000000  0.000000  0.194959  1
  Ag  Ag5  1  0.333333  0.666667  0.475526  1
  Sn  Sn6  1  0.333333  0.666667  0.868988  1
  Sn  Sn7  1  0.000000  0.000000  0.474081  1
  Sn  Sn8  1  0.333333  0.666667  0.145205  1
