# generated using pymatgen
data_HoTm3(Sc4Bi3)4
_symmetry_space_group_name_H-M   'P 1'
_cell_length_a   7.86807701
_cell_length_b   9.05586700
_cell_length_c   11.53646401
_cell_angle_alpha   90.00000000
_cell_angle_beta   90.00560966
_cell_angle_gamma   90.00000000
_symmetry_Int_Tables_number   1
_chemical_formula_structural   HoTm3(Sc4Bi3)4
_chemical_formula_sum   'Ho1 Tm3 Sc16 Bi12'
_cell_volume   821.99911726
_cell_formula_units_Z   1
loop_
 _symmetry_equiv_pos_site_id
 _symmetry_equiv_pos_as_xyz
  1  'x, y, z'
loop_
 _atom_site_type_symbol
 _atom_site_label
 _atom_site_symmetry_multiplicity
 _atom_site_fract_x
 _atom_site_fract_y
 _atom_site_fract_z
 _atom_site_occupancy
  Ho  Ho0  1  0.184115  0.750000  0.718575  1
  Tm  Tm1  1  0.315718  0.250000  0.218404  1
  Tm  Tm2  1  0.815716  0.250000  0.281618  1
  Tm  Tm3  1  0.684219  0.750000  0.781629  1
  Sc  Sc4  1  0.350147  0.750000  0.220247  1
  Sc  Sc5  1  0.850014  0.750000  0.279812  1
  Sc  Sc6  1  0.649908  0.250000  0.779822  1
  Sc  Sc7  1  0.150026  0.250000  0.720149  1
  Sc  Sc8  1  0.693085  0.567467  0.061714  1
  Sc  Sc9  1  0.193051  0.932546  0.438184  1
  Sc  Sc10  1  0.306926  0.067587  0.938385  1
  Sc  Sc11  1  0.806968  0.432471  0.561689  1
  Sc  Sc12  1  0.306926  0.432413  0.938385  1
  Sc  Sc13  1  0.806968  0.067529  0.561689  1
  Sc  Sc14  1  0.693085  0.932533  0.061714  1
  Sc  Sc15  1  0.193051  0.567454  0.438184  1
  Sc  Sc16  1  0.481714  0.250000  0.488792  1
  Sc  Sc17  1  0.981655  0.250000  0.011240  1
  Sc  Sc18  1  0.518498  0.750000  0.511032  1
  Sc  Sc19  1  0.018181  0.750000  0.988962  1
  Bi  Bi20  1  0.402607  0.750000  0.965826  1
  Bi  Bi21  1  0.901939  0.750000  0.533965  1
  Bi  Bi22  1  0.597662  0.250000  0.034370  1
  Bi  Bi23  1  0.097719  0.250000  0.465627  1
  Bi  Bi24  1  0.564550  0.991220  0.327828  1
  Bi  Bi25  1  0.064617  0.508774  0.172126  1
  Bi  Bi26  1  0.435835  0.490773  0.672008  1
  Bi  Bi27  1  0.935049  0.009094  0.828032  1
  Bi  Bi28  1  0.435835  0.009227  0.672008  1
  Bi  Bi29  1  0.935049  0.490906  0.828032  1
  Bi  Bi30  1  0.564550  0.508780  0.327828  1
  Bi  Bi31  1  0.064617  0.991226  0.172126  1
