# generated using pymatgen
data_Ho4Tm4Cu3Si12Pd
_symmetry_space_group_name_H-M   'P 1'
_cell_length_a   8.01766235
_cell_length_b   8.01766169
_cell_length_c   8.01059501
_cell_angle_alpha   90.00503461
_cell_angle_beta   89.99496728
_cell_angle_gamma   119.99300529
_symmetry_Int_Tables_number   1
_chemical_formula_structural   Ho4Tm4Cu3Si12Pd
_chemical_formula_sum   'Ho4 Tm4 Cu3 Si12 Pd1'
_cell_volume   445.98628283
_cell_formula_units_Z   1
loop_
 _symmetry_equiv_pos_site_id
 _symmetry_equiv_pos_as_xyz
  1  'x, y, z'
loop_
 _atom_site_type_symbol
 _atom_site_label
 _atom_site_symmetry_multiplicity
 _atom_site_fract_x
 _atom_site_fract_y
 _atom_site_fract_z
 _atom_site_occupancy
  Ho  Ho0  1  0.500735  0.001160  0.249311  1
  Ho  Ho1  1  0.500766  0.001200  0.750730  1
  Ho  Ho2  1  0.998840  0.499265  0.249311  1
  Ho  Ho3  1  0.998800  0.499234  0.750730  1
  Tm  Tm4  1  0.500504  0.499496  0.249429  1
  Tm  Tm5  1  0.500503  0.499497  0.750601  1
  Tm  Tm6  1  0.000118  0.999882  0.249264  1
  Tm  Tm7  1  0.000114  0.999886  0.751063  1
  Cu  Cu8  1  0.333778  0.666222  0.999333  1
  Cu  Cu9  1  0.666400  0.333600  0.998565  1
  Cu  Cu10  1  0.665802  0.334198  0.499180  1
  Si  Si11  1  0.169628  0.338529  0.000105  1
  Si  Si12  1  0.830975  0.662370  0.000119  1
  Si  Si13  1  0.661471  0.830372  0.000105  1
  Si  Si14  1  0.831555  0.662985  0.500071  1
  Si  Si15  1  0.337630  0.169025  0.000119  1
  Si  Si16  1  0.165872  0.331349  0.500102  1
  Si  Si17  1  0.169175  0.830825  0.000117  1
  Si  Si18  1  0.337015  0.168445  0.500071  1
  Si  Si19  1  0.831422  0.168578  0.000149  1
  Si  Si20  1  0.668651  0.834128  0.500102  1
  Si  Si21  1  0.831061  0.168939  0.500084  1
  Si  Si22  1  0.165718  0.834282  0.500130  1
  Pd  Pd23  1  0.333471  0.666529  0.501207  1
