# generated using pymatgen
data_YbY3IrPd3O14
_symmetry_space_group_name_H-M   'P 1'
_cell_length_a   7.23190572
_cell_length_b   7.25751308
_cell_length_c   7.27855361
_cell_angle_alpha   60.09558377
_cell_angle_beta   60.02680820
_cell_angle_gamma   59.88280573
_symmetry_Int_Tables_number   1
_chemical_formula_structural   YbY3IrPd3O14
_chemical_formula_sum   'Yb1 Y3 Ir1 Pd3 O14'
_cell_volume   270.13733593
_cell_formula_units_Z   1
loop_
 _symmetry_equiv_pos_site_id
 _symmetry_equiv_pos_as_xyz
  1  'x, y, z'
loop_
 _atom_site_type_symbol
 _atom_site_label
 _atom_site_symmetry_multiplicity
 _atom_site_fract_x
 _atom_site_fract_y
 _atom_site_fract_z
 _atom_site_occupancy
  Yb  Yb0  1  0.625000  0.125000  0.125000  1
  Y  Y1  1  0.125000  0.625000  0.125000  1
  Y  Y2  1  0.125000  0.125000  0.625000  1
  Y  Y3  1  0.125000  0.125000  0.125000  1
  Ir  Ir4  1  0.625000  0.625000  0.125000  1
  Pd  Pd5  1  0.125000  0.625000  0.625000  1
  Pd  Pd6  1  0.625000  0.125000  0.625000  1
  Pd  Pd7  1  0.625000  0.625000  0.625000  1
  O  O8  1  0.709131  0.704304  0.288817  1
  O  O9  1  0.283993  0.285184  0.718413  1
  O  O10  1  0.714790  0.284849  0.715512  1
  O  O11  1  0.294458  0.708442  0.288657  1
  O  O12  1  0.283993  0.712410  0.718413  1
  O  O13  1  0.709131  0.297748  0.288817  1
  O  O14  1  0.540869  0.545696  0.961183  1
  O  O15  1  0.966007  0.964816  0.531587  1
  O  O16  1  0.535210  0.965151  0.534488  1
  O  O17  1  0.955542  0.541558  0.961343  1
  O  O18  1  0.966007  0.537590  0.531587  1
  O  O19  1  0.540869  0.952252  0.961183  1
  O  O20  1  0.243432  0.253669  0.249229  1
  O  O21  1  0.006568  0.996331  0.000771  1
