# generated using pymatgen
data_Ca7Sc13Sn16
_symmetry_space_group_name_H-M   'P 1'
_cell_length_a   7.62990130
_cell_length_b   8.05080079
_cell_length_c   15.06622500
_cell_angle_alpha   89.93239057
_cell_angle_beta   90.08452554
_cell_angle_gamma   89.73808062
_symmetry_Int_Tables_number   1
_chemical_formula_structural   Ca7Sc13Sn16
_chemical_formula_sum   'Ca7 Sc13 Sn16'
_cell_volume   925.45889361
_cell_formula_units_Z   1
loop_
 _symmetry_equiv_pos_site_id
 _symmetry_equiv_pos_as_xyz
  1  'x, y, z'
loop_
 _atom_site_type_symbol
 _atom_site_label
 _atom_site_symmetry_multiplicity
 _atom_site_fract_x
 _atom_site_fract_y
 _atom_site_fract_z
 _atom_site_occupancy
  Ca  Ca0  1  0.994570  0.820857  0.905242  1
  Ca  Ca1  1  0.504999  0.320806  0.091517  1
  Ca  Ca2  1  0.004178  0.180843  0.410181  1
  Ca  Ca3  1  0.504757  0.320347  0.409755  1
  Ca  Ca4  1  0.004774  0.179305  0.091527  1
  Ca  Ca5  1  0.494011  0.678466  0.907066  1
  Ca  Ca6  1  0.993436  0.820943  0.592414  1
  Sc  Sc7  1  0.669136  0.159598  0.626077  1
  Sc  Sc8  1  0.168594  0.339104  0.872932  1
  Sc  Sc9  1  0.331892  0.840334  0.125152  1
  Sc  Sc10  1  0.833189  0.659292  0.375562  1
  Sc  Sc11  1  0.333812  0.839044  0.374957  1
  Sc  Sc12  1  0.832411  0.660581  0.124971  1
  Sc  Sc13  1  0.669122  0.159598  0.872113  1
  Sc  Sc14  1  0.166829  0.340205  0.625211  1
  Sc  Sc15  1  0.495758  0.686884  0.596529  1
  Sc  Sc16  1  0.834188  0.501184  0.749397  1
  Sc  Sc17  1  0.333746  0.998187  0.749040  1
  Sc  Sc18  1  0.167503  0.498519  0.250476  1
  Sc  Sc19  1  0.665632  0.000711  0.250098  1
  Sn  Sn20  1  0.671343  0.952874  0.459777  1
  Sn  Sn21  1  0.172262  0.542172  0.043139  1
  Sn  Sn22  1  0.328409  0.041255  0.955241  1
  Sn  Sn23  1  0.816684  0.465064  0.546174  1
  Sn  Sn24  1  0.329296  0.033107  0.545880  1
  Sn  Sn25  1  0.828055  0.458493  0.955346  1
  Sn  Sn26  1  0.672588  0.959087  0.042882  1
  Sn  Sn27  1  0.179934  0.545891  0.460080  1
  Sn  Sn28  1  0.473753  0.374891  0.747980  1
  Sn  Sn29  1  0.973963  0.130037  0.748724  1
  Sn  Sn30  1  0.528465  0.629267  0.249774  1
  Sn  Sn31  1  0.027303  0.869064  0.250648  1
  Sn  Sn32  1  0.689444  0.850847  0.746466  1
  Sn  Sn33  1  0.200001  0.642644  0.746084  1
  Sn  Sn34  1  0.302314  0.142168  0.250639  1
  Sn  Sn35  1  0.803649  0.358330  0.250954  1
