# generated using pymatgen
data_RbLu(CO3)2
_symmetry_space_group_name_H-M   'P 1'
_cell_length_a   7.27144558
_cell_length_b   7.27144512
_cell_length_c   7.27144400
_cell_angle_alpha   42.80244051
_cell_angle_beta   42.80243278
_cell_angle_gamma   42.80243391
_symmetry_Int_Tables_number   1
_chemical_formula_structural   RbLu(CO3)2
_chemical_formula_sum   'Rb1 Lu1 C2 O6'
_cell_volume   160.82430165
_cell_formula_units_Z   1
loop_
 _symmetry_equiv_pos_site_id
 _symmetry_equiv_pos_as_xyz
  1  'x, y, z'
loop_
 _atom_site_type_symbol
 _atom_site_label
 _atom_site_symmetry_multiplicity
 _atom_site_fract_x
 _atom_site_fract_y
 _atom_site_fract_z
 _atom_site_occupancy
  Rb  Rb0  1  0.000000  0.000000  0.000000  1
  Lu  Lu1  1  0.500000  0.500000  0.500000  1
  C  C2  1  0.768699  0.768699  0.768699  1
  C  C3  1  0.231301  0.231301  0.231301  1
  O  O4  1  0.626712  0.049412  0.626712  1
  O  O5  1  0.049412  0.626712  0.626712  1
  O  O6  1  0.373288  0.373288  0.950588  1
  O  O7  1  0.373288  0.950588  0.373288  1
  O  O8  1  0.950588  0.373288  0.373288  1
  O  O9  1  0.626712  0.626712  0.049412  1
