# generated using pymatgen
data_Lu2ZnB2Ir5
_symmetry_space_group_name_H-M   'P 1'
_cell_length_a   9.55192200
_cell_length_b   9.55192200
_cell_length_c   3.10994600
_cell_angle_alpha   90.00000000
_cell_angle_beta   90.00000000
_cell_angle_gamma   90.00000000
_symmetry_Int_Tables_number   1
_chemical_formula_structural   Lu2ZnB2Ir5
_chemical_formula_sum   'Lu4 Zn2 B4 Ir10'
_cell_volume   283.74902829
_cell_formula_units_Z   2
loop_
 _symmetry_equiv_pos_site_id
 _symmetry_equiv_pos_as_xyz
  1  'x, y, z'
loop_
 _atom_site_type_symbol
 _atom_site_label
 _atom_site_symmetry_multiplicity
 _atom_site_fract_x
 _atom_site_fract_y
 _atom_site_fract_z
 _atom_site_occupancy
  Lu  Lu0  1  0.676914  0.176914  0.000000  1
  Lu  Lu1  1  0.323086  0.823086  0.000000  1
  Lu  Lu2  1  0.176914  0.323086  0.000000  1
  Lu  Lu3  1  0.823086  0.676914  0.000000  1
  Zn  Zn4  1  0.000000  0.000000  0.000000  1
  Zn  Zn5  1  0.500000  0.500000  0.000000  1
  B  B6  1  0.125692  0.625692  0.000000  1
  B  B7  1  0.874308  0.374308  0.000000  1
  B  B8  1  0.625692  0.874308  0.000000  1
  B  B9  1  0.374308  0.125692  0.000000  1
  Ir  Ir10  1  0.218789  0.068533  0.500000  1
  Ir  Ir11  1  0.781211  0.931467  0.500000  1
  Ir  Ir12  1  0.068533  0.781211  0.500000  1
  Ir  Ir13  1  0.718789  0.431467  0.500000  1
  Ir  Ir14  1  0.931467  0.218789  0.500000  1
  Ir  Ir15  1  0.281211  0.568533  0.500000  1
  Ir  Ir16  1  0.568533  0.718789  0.500000  1
  Ir  Ir17  1  0.431467  0.281211  0.500000  1
  Ir  Ir18  1  0.500000  0.000000  0.500000  1
  Ir  Ir19  1  0.000000  0.500000  0.500000  1
