# generated using pymatgen
data_LiHo5Se6
_symmetry_space_group_name_H-M   'P 1'
_cell_length_a   7.01957804
_cell_length_b   7.00833634
_cell_length_c   7.02039900
_cell_angle_alpha   70.50937282
_cell_angle_beta   99.43662538
_cell_angle_gamma   119.87915782
_symmetry_Int_Tables_number   1
_chemical_formula_structural   LiHo5Se6
_chemical_formula_sum   'Li1 Ho5 Se6'
_cell_volume   282.30330387
_cell_formula_units_Z   1
loop_
 _symmetry_equiv_pos_site_id
 _symmetry_equiv_pos_as_xyz
  1  'x, y, z'
loop_
 _atom_site_type_symbol
 _atom_site_label
 _atom_site_symmetry_multiplicity
 _atom_site_fract_x
 _atom_site_fract_y
 _atom_site_fract_z
 _atom_site_occupancy
  Li  Li0  1  0.230422  0.821921  0.392506  1
  Ho  Ho1  1  0.562662  0.490255  0.381838  1
  Ho  Ho2  1  0.228441  0.322861  0.883745  1
  Ho  Ho3  1  0.896688  0.656285  0.883949  1
  Ho  Ho4  1  0.560832  0.988174  0.883050  1
  Ho  Ho5  1  0.894650  0.155843  0.381163  1
  Se  Se6  1  0.903256  0.904145  0.136224  1
  Se  Se7  1  0.228654  0.581044  0.142409  1
  Se  Se8  1  0.228776  0.066049  0.623950  1
  Se  Se9  1  0.553715  0.229481  0.136350  1
  Se  Se10  1  0.555208  0.740808  0.629568  1
  Se  Se11  1  0.902486  0.414772  0.629192  1
