# generated using pymatgen
data_Y3AuO7
_symmetry_space_group_name_H-M   'P 1'
_cell_length_a   6.51738147
_cell_length_b   6.51738186
_cell_length_c   7.46653500
_cell_angle_alpha   90.00000000
_cell_angle_beta   90.00000000
_cell_angle_gamma   108.91440840
_symmetry_Int_Tables_number   1
_chemical_formula_structural   Y3AuO7
_chemical_formula_sum   'Y6 Au2 O14'
_cell_volume   300.02561070
_cell_formula_units_Z   2
loop_
 _symmetry_equiv_pos_site_id
 _symmetry_equiv_pos_as_xyz
  1  'x, y, z'
loop_
 _atom_site_type_symbol
 _atom_site_label
 _atom_site_symmetry_multiplicity
 _atom_site_fract_x
 _atom_site_fract_y
 _atom_site_fract_z
 _atom_site_occupancy
  Y  Y0  1  0.500000  0.500000  0.500000  1
  Y  Y1  1  0.500000  0.500000  0.000000  1
  Y  Y2  1  0.528141  0.997864  0.750000  1
  Y  Y3  1  0.997864  0.528141  0.250000  1
  Y  Y4  1  0.471859  0.002136  0.250000  1
  Y  Y5  1  0.002136  0.471859  0.750000  1
  Au  Au6  1  0.000000  0.000000  0.500000  1
  Au  Au7  1  0.000000  0.000000  0.000000  1
  O  O8  1  0.670947  0.918551  0.475590  1
  O  O9  1  0.918551  0.670947  0.524410  1
  O  O10  1  0.670947  0.918551  0.024410  1
  O  O11  1  0.918551  0.670947  0.975590  1
  O  O12  1  0.329053  0.081449  0.524410  1
  O  O13  1  0.081449  0.329053  0.475590  1
  O  O14  1  0.329053  0.081449  0.975590  1
  O  O15  1  0.081449  0.329053  0.024410  1
  O  O16  1  0.921572  0.078428  0.750000  1
  O  O17  1  0.078428  0.921572  0.250000  1
  O  O18  1  0.368235  0.631765  0.750000  1
  O  O19  1  0.631765  0.368235  0.250000  1
  O  O20  1  0.638967  0.361033  0.750000  1
  O  O21  1  0.361033  0.638967  0.250000  1
