# generated using pymatgen
data_Ho5Er(Tm2Si3)2
_symmetry_space_group_name_H-M   'P 1'
_cell_length_a   8.37435316
_cell_length_b   8.37716961
_cell_length_c   6.27122400
_cell_angle_alpha   90.00000000
_cell_angle_beta   90.00000000
_cell_angle_gamma   120.01113424
_symmetry_Int_Tables_number   1
_chemical_formula_structural   Ho5Er(Tm2Si3)2
_chemical_formula_sum   'Ho5 Er1 Tm4 Si6'
_cell_volume   380.96299140
_cell_formula_units_Z   1
loop_
 _symmetry_equiv_pos_site_id
 _symmetry_equiv_pos_as_xyz
  1  'x, y, z'
loop_
 _atom_site_type_symbol
 _atom_site_label
 _atom_site_symmetry_multiplicity
 _atom_site_fract_x
 _atom_site_fract_y
 _atom_site_fract_z
 _atom_site_occupancy
  Ho  Ho0  1  0.756777  0.756646  0.250000  1
  Ho  Ho1  1  0.243223  0.999869  0.250000  1
  Ho  Ho2  1  0.000000  0.243499  0.250000  1
  Ho  Ho3  1  0.243308  0.243264  0.750000  1
  Ho  Ho4  1  0.756692  0.999957  0.750000  1
  Er  Er5  1  0.000000  0.756540  0.750000  1
  Tm  Tm6  1  0.666753  0.333430  0.500040  1
  Tm  Tm7  1  0.333247  0.666678  0.500040  1
  Tm  Tm8  1  0.333247  0.666678  0.999960  1
  Tm  Tm9  1  0.666753  0.333430  0.999960  1
  Si  Si10  1  0.394398  0.394370  0.250000  1
  Si  Si11  1  0.605602  0.999972  0.250000  1
  Si  Si12  1  0.000000  0.605564  0.250000  1
  Si  Si13  1  0.605961  0.605726  0.750000  1
  Si  Si14  1  0.394039  0.999765  0.750000  1
  Si  Si15  1  0.000000  0.394613  0.750000  1
