# generated using pymatgen
data_Nd16NiHg4Ru3
_symmetry_space_group_name_H-M   'P 1'
_cell_length_a   9.84913825
_cell_length_b   9.91182812
_cell_length_c   9.91182700
_cell_angle_alpha   60.00000040
_cell_angle_beta   59.78922322
_cell_angle_gamma   59.78922236
_symmetry_Int_Tables_number   1
_chemical_formula_structural   Nd16NiHg4Ru3
_chemical_formula_sum   'Nd16 Ni1 Hg4 Ru3'
_cell_volume   682.02410375
_cell_formula_units_Z   1
loop_
 _symmetry_equiv_pos_site_id
 _symmetry_equiv_pos_as_xyz
  1  'x, y, z'
loop_
 _atom_site_type_symbol
 _atom_site_label
 _atom_site_symmetry_multiplicity
 _atom_site_fract_x
 _atom_site_fract_y
 _atom_site_fract_z
 _atom_site_occupancy
  Nd  Nd0  1  0.599589  0.597729  0.597729  1
  Nd  Nd1  1  0.599589  0.597729  0.204952  1
  Nd  Nd2  1  0.599589  0.204952  0.597729  1
  Nd  Nd3  1  0.204198  0.598601  0.598601  1
  Nd  Nd4  1  0.060398  0.440351  0.440351  1
  Nd  Nd5  1  0.440055  0.060104  0.060104  1
  Nd  Nd6  1  0.440055  0.060104  0.439737  1
  Nd  Nd7  1  0.060398  0.440351  0.058902  1
  Nd  Nd8  1  0.440055  0.439737  0.060104  1
  Nd  Nd9  1  0.060398  0.058902  0.440351  1
  Nd  Nd10  1  0.188643  0.811213  0.811213  1
  Nd  Nd11  1  0.808408  0.187915  0.187915  1
  Nd  Nd12  1  0.808408  0.187915  0.815762  1
  Nd  Nd13  1  0.188643  0.811213  0.188931  1
  Nd  Nd14  1  0.808408  0.815762  0.187915  1
  Nd  Nd15  1  0.188643  0.188931  0.811213  1
  Ni  Ni16  1  0.827882  0.390706  0.390706  1
  Hg  Hg17  1  0.832469  0.833487  0.833487  1
  Hg  Hg18  1  0.832469  0.833487  0.500558  1
  Hg  Hg19  1  0.832469  0.500558  0.833487  1
  Hg  Hg20  1  0.502181  0.832606  0.832606  1
  Ru  Ru21  1  0.392352  0.388313  0.388313  1
  Ru  Ru22  1  0.392352  0.388313  0.831022  1
  Ru  Ru23  1  0.392352  0.831022  0.388313  1
