# generated using pymatgen
data_Na(LaB8)3
_symmetry_space_group_name_H-M   'P 1'
_cell_length_a   7.19619094
_cell_length_b   7.19619148
_cell_length_c   5.88158400
_cell_angle_alpha   90.00000000
_cell_angle_beta   90.00000000
_cell_angle_gamma   109.44622437
_symmetry_Int_Tables_number   1
_chemical_formula_structural   Na(LaB8)3
_chemical_formula_sum   'Na1 La3 B24'
_cell_volume   287.20392609
_cell_formula_units_Z   1
loop_
 _symmetry_equiv_pos_site_id
 _symmetry_equiv_pos_as_xyz
  1  'x, y, z'
loop_
 _atom_site_type_symbol
 _atom_site_label
 _atom_site_symmetry_multiplicity
 _atom_site_fract_x
 _atom_site_fract_y
 _atom_site_fract_z
 _atom_site_occupancy
  Na  Na0  1  0.000000  0.000000  0.000000  1
  La  La1  1  0.750911  0.249089  0.500000  1
  La  La2  1  0.500000  0.500000  0.000000  1
  La  La3  1  0.249089  0.750911  0.500000  1
  B  B4  1  0.175154  0.324382  0.649906  1
  B  B5  1  0.925209  0.575107  0.149223  1
  B  B6  1  0.675618  0.824846  0.649906  1
  B  B7  1  0.424893  0.074791  0.149223  1
  B  B8  1  0.175154  0.324382  0.350094  1
  B  B9  1  0.925209  0.575107  0.850777  1
  B  B10  1  0.675618  0.824846  0.350094  1
  B  B11  1  0.424893  0.074791  0.850777  1
  B  B12  1  0.399714  0.399714  0.500000  1
  B  B13  1  0.148771  0.650489  0.000000  1
  B  B14  1  0.899682  0.899682  0.500000  1
  B  B15  1  0.650489  0.148771  0.000000  1
  B  B16  1  0.324382  0.175154  0.649906  1
  B  B17  1  0.074791  0.424893  0.149223  1
  B  B18  1  0.824846  0.675618  0.649906  1
  B  B19  1  0.575107  0.925209  0.149223  1
  B  B20  1  0.100318  0.100318  0.500000  1
  B  B21  1  0.851229  0.349511  0.000000  1
  B  B22  1  0.600286  0.600286  0.500000  1
  B  B23  1  0.349511  0.851229  0.000000  1
  B  B24  1  0.324382  0.175154  0.350094  1
  B  B25  1  0.074791  0.424893  0.850777  1
  B  B26  1  0.824846  0.675618  0.350094  1
  B  B27  1  0.575107  0.925209  0.850777  1
