# generated using pymatgen
data_Zr2Si7(NiRu3)3
_symmetry_space_group_name_H-M   'P 1'
_cell_length_a   9.45956000
_cell_length_b   9.45956027
_cell_length_c   3.78495700
_cell_angle_alpha   90.00000000
_cell_angle_beta   90.00000000
_cell_angle_gamma   120.00000606
_symmetry_Int_Tables_number   1
_chemical_formula_structural   Zr2Si7(NiRu3)3
_chemical_formula_sum   'Zr2 Si7 Ni3 Ru9'
_cell_volume   293.31443714
_cell_formula_units_Z   1
loop_
 _symmetry_equiv_pos_site_id
 _symmetry_equiv_pos_as_xyz
  1  'x, y, z'
loop_
 _atom_site_type_symbol
 _atom_site_label
 _atom_site_symmetry_multiplicity
 _atom_site_fract_x
 _atom_site_fract_y
 _atom_site_fract_z
 _atom_site_occupancy
  Zr  Zr0  1  0.333333  0.666667  0.000000  1
  Zr  Zr1  1  0.666667  0.333333  0.500000  1
  Si  Si2  1  0.110488  0.398243  0.500000  1
  Si  Si3  1  0.601757  0.712245  0.500000  1
  Si  Si4  1  0.287755  0.889512  0.500000  1
  Si  Si5  1  0.000000  0.000000  0.000000  1
  Si  Si6  1  0.405933  0.293330  0.000000  1
  Si  Si7  1  0.706670  0.112603  0.000000  1
  Si  Si8  1  0.887397  0.594067  0.000000  1
  Ni  Ni9  1  0.153778  0.277075  0.000000  1
  Ni  Ni10  1  0.722925  0.876702  0.000000  1
  Ni  Ni11  1  0.123298  0.846222  0.000000  1
  Ru  Ru12  1  0.431744  0.061744  0.000000  1
  Ru  Ru13  1  0.938256  0.370001  0.000000  1
  Ru  Ru14  1  0.629999  0.568256  0.000000  1
  Ru  Ru15  1  0.379273  0.438296  0.500000  1
  Ru  Ru16  1  0.561704  0.940976  0.500000  1
  Ru  Ru17  1  0.059024  0.620727  0.500000  1
  Ru  Ru18  1  0.208017  0.096923  0.500000  1
  Ru  Ru19  1  0.903077  0.111093  0.500000  1
  Ru  Ru20  1  0.888907  0.791983  0.500000  1
