# generated using pymatgen
data_Sc6AsC2Se
_symmetry_space_group_name_H-M   'P 1'
_cell_length_a   5.92195710
_cell_length_b   5.92195550
_cell_length_c   8.70134600
_cell_angle_alpha   90.00000000
_cell_angle_beta   90.00000000
_cell_angle_gamma   145.14393185
_symmetry_Int_Tables_number   1
_chemical_formula_structural   Sc6AsC2Se
_chemical_formula_sum   'Sc6 As1 C2 Se1'
_cell_volume   174.39975634
_cell_formula_units_Z   1
loop_
 _symmetry_equiv_pos_site_id
 _symmetry_equiv_pos_as_xyz
  1  'x, y, z'
loop_
 _atom_site_type_symbol
 _atom_site_label
 _atom_site_symmetry_multiplicity
 _atom_site_fract_x
 _atom_site_fract_y
 _atom_site_fract_z
 _atom_site_occupancy
  Sc  Sc0  1  0.875306  0.124692  0.047557  1
  Sc  Sc1  1  0.557712  0.442286  0.250000  1
  Sc  Sc2  1  0.875306  0.124692  0.452444  1
  Sc  Sc3  1  0.127667  0.872331  0.553941  1
  Sc  Sc4  1  0.440563  0.559435  0.750000  1
  Sc  Sc5  1  0.127667  0.872331  0.946059  1
  As  As6  1  0.751102  0.248896  0.750000  1
  C  C7  1  0.499314  0.500684  0.001815  1
  C  C8  1  0.499314  0.500684  0.498185  1
  Se  Se9  1  0.246039  0.753959  0.250000  1
