# generated using pymatgen
data_OsICl8
_symmetry_space_group_name_H-M   'P 1'
_cell_length_a   7.31018200
_cell_length_b   7.31018200
_cell_length_c   24.65299800
_cell_angle_alpha   90.00000000
_cell_angle_beta   90.00000000
_cell_angle_gamma   90.00000000
_symmetry_Int_Tables_number   1
_chemical_formula_structural   OsICl8
_chemical_formula_sum   'Os4 I4 Cl32'
_cell_volume   1317.42566493
_cell_formula_units_Z   4
loop_
 _symmetry_equiv_pos_site_id
 _symmetry_equiv_pos_as_xyz
  1  'x, y, z'
loop_
 _atom_site_type_symbol
 _atom_site_label
 _atom_site_symmetry_multiplicity
 _atom_site_fract_x
 _atom_site_fract_y
 _atom_site_fract_z
 _atom_site_occupancy
  Os  Os0  1  0.775259  0.001593  0.501009  1
  Os  Os1  1  0.001593  0.224741  0.251009  1
  Os  Os2  1  0.224741  0.998407  0.001009  1
  Os  Os3  1  0.998407  0.775259  0.751009  1
  I  I4  1  0.135025  0.769810  0.372074  1
  I  I5  1  0.230190  0.135025  0.622074  1
  I  I6  1  0.864975  0.230190  0.872074  1
  I  I7  1  0.769810  0.864975  0.122074  1
  Cl  Cl8  1  0.226567  0.264914  0.313033  1
  Cl  Cl9  1  0.909663  0.944646  0.295233  1
  Cl  Cl10  1  0.609316  0.222440  0.812425  1
  Cl  Cl11  1  0.072089  0.485063  0.205537  1
  Cl  Cl12  1  0.777560  0.609316  0.062425  1
  Cl  Cl13  1  0.829696  0.749464  0.439040  1
  Cl  Cl14  1  0.090337  0.055354  0.795233  1
  Cl  Cl15  1  0.814656  0.945719  0.695365  1
  Cl  Cl16  1  0.749464  0.170304  0.189040  1
  Cl  Cl17  1  0.485063  0.927911  0.955537  1
  Cl  Cl18  1  0.408847  0.295733  0.687154  1
  Cl  Cl19  1  0.591153  0.704267  0.187154  1
  Cl  Cl20  1  0.170304  0.250536  0.939040  1
  Cl  Cl21  1  0.390684  0.777560  0.312425  1
  Cl  Cl22  1  0.945719  0.185344  0.445365  1
  Cl  Cl23  1  0.773433  0.735086  0.813033  1
  Cl  Cl24  1  0.055354  0.909663  0.545233  1
  Cl  Cl25  1  0.944646  0.090337  0.045233  1
  Cl  Cl26  1  0.208412  0.623104  0.803630  1
  Cl  Cl27  1  0.222440  0.390684  0.562425  1
  Cl  Cl28  1  0.250536  0.829696  0.689040  1
  Cl  Cl29  1  0.185344  0.054281  0.195365  1
  Cl  Cl30  1  0.623104  0.791588  0.553630  1
  Cl  Cl31  1  0.735086  0.226567  0.563033  1
  Cl  Cl32  1  0.927911  0.514937  0.705537  1
  Cl  Cl33  1  0.376896  0.208412  0.053630  1
  Cl  Cl34  1  0.295733  0.591153  0.437154  1
  Cl  Cl35  1  0.264914  0.773433  0.063033  1
  Cl  Cl36  1  0.704267  0.408847  0.937154  1
  Cl  Cl37  1  0.791588  0.376896  0.303630  1
  Cl  Cl38  1  0.514937  0.072089  0.455537  1
  Cl  Cl39  1  0.054281  0.814656  0.945365  1
