# generated using pymatgen
data_Er9Lu(Bi3C)2
_symmetry_space_group_name_H-M   'P 1'
_cell_length_a   9.07908331
_cell_length_b   9.07908337
_cell_length_c   6.43085200
_cell_angle_alpha   90.00000000
_cell_angle_beta   90.00000000
_cell_angle_gamma   120.02992646
_symmetry_Int_Tables_number   1
_chemical_formula_structural   Er9Lu(Bi3C)2
_chemical_formula_sum   'Er9 Lu1 Bi6 C2'
_cell_volume   458.93598021
_cell_formula_units_Z   1
loop_
 _symmetry_equiv_pos_site_id
 _symmetry_equiv_pos_as_xyz
  1  'x, y, z'
loop_
 _atom_site_type_symbol
 _atom_site_label
 _atom_site_symmetry_multiplicity
 _atom_site_fract_x
 _atom_site_fract_y
 _atom_site_fract_z
 _atom_site_occupancy
  Er  Er0  1  0.666631  0.333300  0.000045  1
  Er  Er1  1  0.333300  0.666631  0.000045  1
  Er  Er2  1  0.333300  0.666631  0.499955  1
  Er  Er3  1  0.666631  0.333300  0.499955  1
  Er  Er4  1  0.206887  0.999861  0.750000  1
  Er  Er5  1  0.999861  0.206887  0.750000  1
  Er  Er6  1  0.206665  0.206665  0.250000  1
  Er  Er7  1  0.792544  0.999416  0.250000  1
  Er  Er8  1  0.999416  0.792544  0.250000  1
  Lu  Lu9  1  0.797395  0.797395  0.750000  1
  Bi  Bi10  1  0.401913  0.401913  0.750000  1
  Bi  Bi11  1  0.598793  0.999248  0.750000  1
  Bi  Bi12  1  0.999248  0.598793  0.750000  1
  Bi  Bi13  1  0.598454  0.598454  0.250000  1
  Bi  Bi14  1  0.401257  0.000079  0.250000  1
  Bi  Bi15  1  0.000079  0.401257  0.250000  1
  C  C16  1  0.998813  0.998813  0.998976  1
  C  C17  1  0.998813  0.998813  0.501024  1
