# generated using pymatgen
data_Tm3Al12(TcPt)2
_symmetry_space_group_name_H-M   'P 1'
_cell_length_a   8.88501548
_cell_length_b   8.77342766
_cell_length_c   9.55020500
_cell_angle_alpha   90.00000000
_cell_angle_beta   90.00000000
_cell_angle_gamma   119.58540508
_symmetry_Int_Tables_number   1
_chemical_formula_structural   Tm3Al12(TcPt)2
_chemical_formula_sum   'Tm6 Al24 Tc4 Pt4'
_cell_volume   647.39607579
_cell_formula_units_Z   2
loop_
 _symmetry_equiv_pos_site_id
 _symmetry_equiv_pos_as_xyz
  1  'x, y, z'
loop_
 _atom_site_type_symbol
 _atom_site_label
 _atom_site_symmetry_multiplicity
 _atom_site_fract_x
 _atom_site_fract_y
 _atom_site_fract_z
 _atom_site_occupancy
  Tm  Tm0  1  0.186302  0.387967  0.250000  1
  Tm  Tm1  1  0.813698  0.612033  0.750000  1
  Tm  Tm2  1  0.619210  0.809605  0.250000  1
  Tm  Tm3  1  0.380790  0.190395  0.750000  1
  Tm  Tm4  1  0.186302  0.798335  0.250000  1
  Tm  Tm5  1  0.813698  0.201665  0.750000  1
  Al  Al6  1  0.328831  0.664416  0.029525  1
  Al  Al7  1  0.671169  0.335584  0.970475  1
  Al  Al8  1  0.671169  0.335584  0.529525  1
  Al  Al9  1  0.328831  0.664416  0.470475  1
  Al  Al10  1  0.159771  0.325734  0.577768  1
  Al  Al11  1  0.840229  0.674266  0.422232  1
  Al  Al12  1  0.678089  0.839044  0.578600  1
  Al  Al13  1  0.840229  0.674266  0.077768  1
  Al  Al14  1  0.321911  0.160956  0.421400  1
  Al  Al15  1  0.159771  0.325734  0.922232  1
  Al  Al16  1  0.159771  0.834037  0.577768  1
  Al  Al17  1  0.321911  0.160956  0.078600  1
  Al  Al18  1  0.840229  0.165963  0.422232  1
  Al  Al19  1  0.678089  0.839044  0.921400  1
  Al  Al20  1  0.840229  0.165963  0.077768  1
  Al  Al21  1  0.159771  0.834037  0.922232  1
  Al  Al22  1  0.563395  0.126160  0.250000  1
  Al  Al23  1  0.436605  0.873840  0.750000  1
  Al  Al24  1  0.873179  0.436589  0.250000  1
  Al  Al25  1  0.126821  0.563411  0.750000  1
  Al  Al26  1  0.563395  0.437236  0.250000  1
  Al  Al27  1  0.436605  0.562764  0.750000  1
  Al  Al28  1  0.997482  0.998742  0.250000  1
  Al  Al29  1  0.002518  0.001258  0.750000  1
  Tc  Tc30  1  0.000000  0.500000  0.000000  1
  Tc  Tc31  1  0.000000  0.500000  0.500000  1
  Tc  Tc32  1  0.000000  0.000000  0.000000  1
  Tc  Tc33  1  0.000000  0.000000  0.500000  1
  Pt  Pt34  1  0.500000  0.000000  0.000000  1
  Pt  Pt35  1  0.500000  0.000000  0.500000  1
  Pt  Pt36  1  0.500000  0.500000  0.000000  1
  Pt  Pt37  1  0.500000  0.500000  0.500000  1
