# generated using pymatgen
data_TaTiH2C
_symmetry_space_group_name_H-M   'P 1'
_cell_length_a   3.15950400
_cell_length_b   3.15950424
_cell_length_c   5.11320600
_cell_angle_alpha   90.00000000
_cell_angle_beta   90.00000000
_cell_angle_gamma   119.99999753
_symmetry_Int_Tables_number   1
_chemical_formula_structural   TaTiH2C
_chemical_formula_sum   'Ta1 Ti1 H2 C1'
_cell_volume   44.20402175
_cell_formula_units_Z   1
loop_
 _symmetry_equiv_pos_site_id
 _symmetry_equiv_pos_as_xyz
  1  'x, y, z'
loop_
 _atom_site_type_symbol
 _atom_site_label
 _atom_site_symmetry_multiplicity
 _atom_site_fract_x
 _atom_site_fract_y
 _atom_site_fract_z
 _atom_site_occupancy
  Ta  Ta0  1  0.333334  0.666668  0.232566  1
  Ti  Ti1  1  0.666667  0.333334  0.772571  1
  H  H2  1  0.666667  0.333334  0.389667  1
  H  H3  1  0.333334  0.666668  0.611898  1
  C  C4  1  0.000000  0.000000  0.993298  1
