# generated using pymatgen
data_Hf18TiRe7AsAu
_symmetry_space_group_name_H-M   'P 1'
_cell_length_a   8.68392900
_cell_length_b   8.68392828
_cell_length_c   8.60779000
_cell_angle_alpha   90.00000000
_cell_angle_beta   90.00000000
_cell_angle_gamma   120.00000655
_symmetry_Int_Tables_number   1
_chemical_formula_structural   Hf18TiRe7AsAu
_chemical_formula_sum   'Hf18 Ti1 Re7 As1 Au1'
_cell_volume   562.15329201
_cell_formula_units_Z   1
loop_
 _symmetry_equiv_pos_site_id
 _symmetry_equiv_pos_as_xyz
  1  'x, y, z'
loop_
 _atom_site_type_symbol
 _atom_site_label
 _atom_site_symmetry_multiplicity
 _atom_site_fract_x
 _atom_site_fract_y
 _atom_site_fract_z
 _atom_site_occupancy
  Hf  Hf0  1  0.193007  0.806993  0.450179  1
  Hf  Hf1  1  0.193007  0.386015  0.450179  1
  Hf  Hf2  1  0.613985  0.806993  0.450179  1
  Hf  Hf3  1  0.805525  0.194475  0.547676  1
  Hf  Hf4  1  0.805525  0.611052  0.547676  1
  Hf  Hf5  1  0.388948  0.194475  0.547676  1
  Hf  Hf6  1  0.807832  0.192168  0.951349  1
  Hf  Hf7  1  0.807832  0.615666  0.951349  1
  Hf  Hf8  1  0.384334  0.192168  0.951349  1
  Hf  Hf9  1  0.191330  0.808670  0.050953  1
  Hf  Hf10  1  0.191330  0.382660  0.050953  1
  Hf  Hf11  1  0.617340  0.808670  0.050953  1
  Hf  Hf12  1  0.542977  0.457023  0.248414  1
  Hf  Hf13  1  0.542977  0.085953  0.248414  1
  Hf  Hf14  1  0.914047  0.457023  0.248414  1
  Hf  Hf15  1  0.457113  0.542887  0.750789  1
  Hf  Hf16  1  0.457113  0.914227  0.750789  1
  Hf  Hf17  1  0.085773  0.542887  0.750789  1
  Ti  Ti18  1  0.000000  0.000000  0.499626  1
  Re  Re19  1  0.888988  0.111012  0.252768  1
  Re  Re20  1  0.888988  0.777975  0.252768  1
  Re  Re21  1  0.222025  0.111012  0.252768  1
  Re  Re22  1  0.110099  0.889901  0.747996  1
  Re  Re23  1  0.110099  0.220197  0.747996  1
  Re  Re24  1  0.779803  0.889901  0.747996  1
  Re  Re25  1  0.000000  0.000000  0.000433  1
  As  As26  1  0.666667  0.333333  0.752418  1
  Au  Au27  1  0.333333  0.666667  0.247153  1
