# generated using pymatgen
data_Gd2MnN3
_symmetry_space_group_name_H-M   'P 1'
_cell_length_a   3.45459549
_cell_length_b   3.66848115
_cell_length_c   6.73531721
_cell_angle_alpha   105.80286675
_cell_angle_beta   104.86027862
_cell_angle_gamma   89.99912133
_symmetry_Int_Tables_number   1
_chemical_formula_structural   Gd2MnN3
_chemical_formula_sum   'Gd2 Mn1 N3'
_cell_volume   79.16031188
_cell_formula_units_Z   1
loop_
 _symmetry_equiv_pos_site_id
 _symmetry_equiv_pos_as_xyz
  1  'x, y, z'
loop_
 _atom_site_type_symbol
 _atom_site_label
 _atom_site_symmetry_multiplicity
 _atom_site_fract_x
 _atom_site_fract_y
 _atom_site_fract_z
 _atom_site_occupancy
  Gd  Gd0  1  0.350164  0.350163  0.700322  1
  Gd  Gd1  1  0.649836  0.649837  0.299678  1
  Mn  Mn2  1  0.000000  0.000000  0.000000  1
  N  N3  1  0.161894  0.161876  0.323782  1
  N  N4  1  0.838105  0.838124  0.676218  1
  N  N5  1  0.000000  0.500000  0.000000  1
