# generated using pymatgen
data_ErTm3AlPt
_symmetry_space_group_name_H-M   'P 1'
_cell_length_a   9.50613000
_cell_length_b   9.50500339
_cell_length_c   9.50500400
_cell_angle_alpha   60.00784203
_cell_angle_beta   59.99608164
_cell_angle_gamma   59.99607623
_symmetry_Int_Tables_number   1
_chemical_formula_structural   ErTm3AlPt
_chemical_formula_sum   'Er4 Tm12 Al4 Pt4'
_cell_volume   607.28606915
_cell_formula_units_Z   4
loop_
 _symmetry_equiv_pos_site_id
 _symmetry_equiv_pos_as_xyz
  1  'x, y, z'
loop_
 _atom_site_type_symbol
 _atom_site_label
 _atom_site_symmetry_multiplicity
 _atom_site_fract_x
 _atom_site_fract_y
 _atom_site_fract_z
 _atom_site_occupancy
  Er  Er0  1  0.564582  0.935418  0.564582  1
  Er  Er1  1  0.935418  0.564582  0.935418  1
  Er  Er2  1  0.564582  0.564582  0.935418  1
  Er  Er3  1  0.935418  0.935418  0.564582  1
  Tm  Tm4  1  0.354863  0.353511  0.353511  1
  Tm  Tm5  1  0.353511  0.354863  0.938114  1
  Tm  Tm6  1  0.353511  0.938114  0.354863  1
  Tm  Tm7  1  0.938114  0.353511  0.353511  1
  Tm  Tm8  1  0.807915  0.192085  0.192085  1
  Tm  Tm9  1  0.192085  0.807915  0.807915  1
  Tm  Tm10  1  0.192126  0.807874  0.192126  1
  Tm  Tm11  1  0.807874  0.192126  0.807874  1
  Tm  Tm12  1  0.192126  0.192126  0.807874  1
  Tm  Tm13  1  0.807874  0.807874  0.192126  1
  Tm  Tm14  1  0.937897  0.562103  0.562103  1
  Tm  Tm15  1  0.562103  0.937897  0.937897  1
  Al  Al16  1  0.578151  0.577688  0.577688  1
  Al  Al17  1  0.577688  0.578151  0.266472  1
  Al  Al18  1  0.577688  0.266472  0.578151  1
  Al  Al19  1  0.266472  0.577688  0.577688  1
  Pt  Pt20  1  0.144347  0.142905  0.142905  1
  Pt  Pt21  1  0.142905  0.144347  0.569843  1
  Pt  Pt22  1  0.142905  0.569843  0.144347  1
  Pt  Pt23  1  0.569843  0.142905  0.142905  1
