# generated using pymatgen
data_Cs4Th6PI18
_symmetry_space_group_name_H-M   'P 1'
_cell_length_a   12.59605164
_cell_length_b   12.59604098
_cell_length_c   12.19069800
_cell_angle_alpha   77.06180470
_cell_angle_beta   77.06182518
_cell_angle_gamma   117.45496674
_symmetry_Int_Tables_number   1
_chemical_formula_structural   Cs4Th6PI18
_chemical_formula_sum   'Cs4 Th6 P1 I18'
_cell_volume   1548.48485221
_cell_formula_units_Z   1
loop_
 _symmetry_equiv_pos_site_id
 _symmetry_equiv_pos_as_xyz
  1  'x, y, z'
loop_
 _atom_site_type_symbol
 _atom_site_label
 _atom_site_symmetry_multiplicity
 _atom_site_fract_x
 _atom_site_fract_y
 _atom_site_fract_z
 _atom_site_occupancy
  Cs  Cs0  1  0.766962  0.445119  0.682669  1
  Cs  Cs1  1  0.554878  0.233037  0.317332  1
  Cs  Cs2  1  0.233038  0.554880  0.317330  1
  Cs  Cs3  1  0.445118  0.766962  0.682670  1
  Th  Th4  1  0.121901  0.121901  0.140641  1
  Th  Th5  1  0.878100  0.878099  0.859360  1
  Th  Th6  1  0.948666  0.765444  0.149310  1
  Th  Th7  1  0.234558  0.051334  0.850689  1
  Th  Th8  1  0.051332  0.234556  0.850688  1
  Th  Th9  1  0.765445  0.948667  0.149310  1
  P  P10  1  0.000002  0.000000  0.000001  1
  I  I11  1  0.805913  0.596790  0.010191  1
  I  I12  1  0.403209  0.194086  0.989809  1
  I  I13  1  0.194085  0.403209  0.989808  1
  I  I14  1  0.596791  0.805915  0.010191  1
  I  I15  1  0.207524  0.792480  0.000002  1
  I  I16  1  0.792481  0.207525  0.000001  1
  I  I17  1  0.324305  0.324306  0.664427  1
  I  I18  1  0.675694  0.675694  0.335569  1
  I  I19  1  0.888659  0.493935  0.326093  1
  I  I20  1  0.506065  0.111341  0.673907  1
  I  I21  1  0.111341  0.506065  0.673907  1
  I  I22  1  0.493936  0.888659  0.326093  1
  I  I23  1  0.261073  0.261073  0.300446  1
  I  I24  1  0.738926  0.738927  0.699555  1
  I  I25  1  0.079065  0.871959  0.325061  1
  I  I26  1  0.128041  0.920935  0.674940  1
  I  I27  1  0.920934  0.128040  0.674939  1
  I  I28  1  0.871960  0.079065  0.325060  1
