# generated using pymatgen
data_Tb18TlCdIr12
_symmetry_space_group_name_H-M   'P 1'
_cell_length_a   10.87265200
_cell_length_b   10.87265200
_cell_length_c   6.28110100
_cell_angle_alpha   90.00000000
_cell_angle_beta   90.00000000
_cell_angle_gamma   90.00000000
_symmetry_Int_Tables_number   1
_chemical_formula_structural   Tb18TlCdIr12
_chemical_formula_sum   'Tb18 Tl1 Cd1 Ir12'
_cell_volume   742.51760053
_cell_formula_units_Z   1
loop_
 _symmetry_equiv_pos_site_id
 _symmetry_equiv_pos_as_xyz
  1  'x, y, z'
loop_
 _atom_site_type_symbol
 _atom_site_label
 _atom_site_symmetry_multiplicity
 _atom_site_fract_x
 _atom_site_fract_y
 _atom_site_fract_z
 _atom_site_occupancy
  Tb  Tb0  1  0.282079  0.085260  0.379066  1
  Tb  Tb1  1  0.292405  0.913764  0.874618  1
  Tb  Tb2  1  0.707595  0.086236  0.874618  1
  Tb  Tb3  1  0.717921  0.914740  0.379066  1
  Tb  Tb4  1  0.584460  0.782444  0.878491  1
  Tb  Tb5  1  0.587838  0.206262  0.374857  1
  Tb  Tb6  1  0.412162  0.793738  0.374857  1
  Tb  Tb7  1  0.415540  0.217556  0.878491  1
  Tb  Tb8  1  0.206262  0.412162  0.625143  1
  Tb  Tb9  1  0.217556  0.584460  0.121509  1
  Tb  Tb10  1  0.782444  0.415540  0.121509  1
  Tb  Tb11  1  0.793738  0.587838  0.625143  1
  Tb  Tb12  1  0.913764  0.707595  0.125382  1
  Tb  Tb13  1  0.914740  0.282079  0.620934  1
  Tb  Tb14  1  0.085260  0.717921  0.620934  1
  Tb  Tb15  1  0.086236  0.292405  0.125382  1
  Tb  Tb16  1  0.000000  0.000000  0.000000  1
  Tb  Tb17  1  0.500000  0.500000  0.500000  1
  Tl  Tl18  1  0.500000  0.500000  0.000000  1
  Cd  Cd19  1  0.000000  0.000000  0.500000  1
  Ir  Ir20  1  0.844886  0.160446  0.235389  1
  Ir  Ir21  1  0.839554  0.844886  0.764611  1
  Ir  Ir22  1  0.160446  0.155114  0.764611  1
  Ir  Ir23  1  0.155114  0.839554  0.235389  1
  Ir  Ir24  1  0.660895  0.344015  0.735080  1
  Ir  Ir25  1  0.655985  0.660895  0.264920  1
  Ir  Ir26  1  0.344015  0.339105  0.264920  1
  Ir  Ir27  1  0.339105  0.655985  0.735080  1
  Ir  Ir28  1  0.500000  0.000000  0.117429  1
  Ir  Ir29  1  0.500000  0.000000  0.618293  1
  Ir  Ir30  1  0.000000  0.500000  0.882571  1
  Ir  Ir31  1  0.000000  0.500000  0.381707  1
