# generated using pymatgen
data_Cs3Ho10C4Cl21
_symmetry_space_group_name_H-M   'P 1'
_cell_length_a   13.02851670
_cell_length_b   13.02851766
_cell_length_c   14.89833100
_cell_angle_alpha   82.81813037
_cell_angle_beta   82.81812983
_cell_angle_gamma   56.49180526
_symmetry_Int_Tables_number   1
_chemical_formula_structural   Cs3Ho10C4Cl21
_chemical_formula_sum   'Cs6 Ho20 C8 Cl42'
_cell_volume   2087.25210458
_cell_formula_units_Z   2
loop_
 _symmetry_equiv_pos_site_id
 _symmetry_equiv_pos_as_xyz
  1  'x, y, z'
loop_
 _atom_site_type_symbol
 _atom_site_label
 _atom_site_symmetry_multiplicity
 _atom_site_fract_x
 _atom_site_fract_y
 _atom_site_fract_z
 _atom_site_occupancy
  Cs  Cs0  1  0.971861  0.028139  0.250000  1
  Cs  Cs1  1  0.028139  0.971861  0.750000  1
  Cs  Cs2  1  0.350139  0.860841  0.452339  1
  Cs  Cs3  1  0.139159  0.649861  0.047661  1
  Cs  Cs4  1  0.649861  0.139159  0.547661  1
  Cs  Cs5  1  0.860841  0.350139  0.952339  1
  Ho  Ho6  1  0.754945  0.503087  0.371084  1
  Ho  Ho7  1  0.232204  0.959662  0.983500  1
  Ho  Ho8  1  0.649202  0.917083  0.202082  1
  Ho  Ho9  1  0.750029  0.495201  0.619786  1
  Ho  Ho10  1  0.627027  0.900438  0.958903  1
  Ho  Ho11  1  0.900438  0.627027  0.458903  1
  Ho  Ho12  1  0.503087  0.754945  0.871084  1
  Ho  Ho13  1  0.249971  0.504799  0.380214  1
  Ho  Ho14  1  0.082917  0.350798  0.297918  1
  Ho  Ho15  1  0.767796  0.040338  0.016500  1
  Ho  Ho16  1  0.495201  0.750029  0.119786  1
  Ho  Ho17  1  0.372973  0.099562  0.041097  1
  Ho  Ho18  1  0.504799  0.249971  0.880214  1
  Ho  Ho19  1  0.245055  0.496913  0.628916  1
  Ho  Ho20  1  0.350798  0.082917  0.797918  1
  Ho  Ho21  1  0.040338  0.767796  0.516500  1
  Ho  Ho22  1  0.959662  0.232204  0.483500  1
  Ho  Ho23  1  0.917083  0.649202  0.702082  1
  Ho  Ho24  1  0.099562  0.372973  0.541097  1
  Ho  Ho25  1  0.496913  0.245055  0.128916  1
  C  C26  1  0.548295  0.120733  0.001146  1
  C  C27  1  0.033052  0.591507  0.577652  1
  C  C28  1  0.408493  0.966948  0.922348  1
  C  C29  1  0.966948  0.408493  0.422348  1
  C  C30  1  0.591507  0.033052  0.077652  1
  C  C31  1  0.120733  0.548295  0.501146  1
  C  C32  1  0.451705  0.879267  0.998854  1
  C  C33  1  0.879267  0.451705  0.498854  1
  Cl  Cl34  1  0.721455  0.722131  0.102360  1
  Cl  Cl35  1  0.775365  0.287257  0.385461  1
  Cl  Cl36  1  0.261543  0.811079  0.135829  1
  Cl  Cl37  1  0.944324  0.424341  0.724043  1
  Cl  Cl38  1  0.811079  0.261543  0.635829  1
  Cl  Cl39  1  0.287257  0.775365  0.885461  1
  Cl  Cl40  1  0.872087  0.874838  0.162579  1
  Cl  Cl41  1  0.575659  0.055676  0.775957  1
  Cl  Cl42  1  0.712743  0.224635  0.114539  1
  Cl  Cl43  1  0.430996  0.888443  0.707193  1
  Cl  Cl44  1  0.264814  0.295539  0.146667  1
  Cl  Cl45  1  0.278545  0.277869  0.897640  1
  Cl  Cl46  1  0.575574  0.574246  0.511031  1
  Cl  Cl47  1  0.138343  0.151051  0.080383  1
  Cl  Cl48  1  0.609420  0.550650  0.778543  1
  Cl  Cl49  1  0.574246  0.575574  0.011031  1
  Cl  Cl50  1  0.188921  0.738457  0.364171  1
  Cl  Cl51  1  0.735186  0.704461  0.853333  1
  Cl  Cl52  1  0.224635  0.712743  0.614539  1
  Cl  Cl53  1  0.111557  0.569004  0.792807  1
  Cl  Cl54  1  0.127913  0.125162  0.837421  1
  Cl  Cl55  1  0.295539  0.264814  0.646667  1
  Cl  Cl56  1  0.424341  0.944324  0.224043  1
  Cl  Cl57  1  0.888443  0.430996  0.207193  1
  Cl  Cl58  1  0.449350  0.390580  0.721457  1
  Cl  Cl59  1  0.704461  0.735186  0.353333  1
  Cl  Cl60  1  0.874838  0.872087  0.662579  1
  Cl  Cl61  1  0.000000  0.000000  0.000000  1
  Cl  Cl62  1  0.861657  0.848949  0.919617  1
  Cl  Cl63  1  0.424426  0.425754  0.488969  1
  Cl  Cl64  1  0.425754  0.424426  0.988969  1
  Cl  Cl65  1  0.055676  0.575659  0.275957  1
  Cl  Cl66  1  0.550650  0.609420  0.278543  1
  Cl  Cl67  1  0.569004  0.111557  0.292807  1
  Cl  Cl68  1  0.848949  0.861657  0.419617  1
  Cl  Cl69  1  0.722131  0.721455  0.602360  1
  Cl  Cl70  1  0.125162  0.127913  0.337421  1
  Cl  Cl71  1  0.738457  0.188921  0.864171  1
  Cl  Cl72  1  0.277869  0.278545  0.397640  1
  Cl  Cl73  1  0.390580  0.449350  0.221457  1
  Cl  Cl74  1  0.151051  0.138343  0.580383  1
  Cl  Cl75  1  0.000000  0.000000  0.500000  1
