# generated using pymatgen
data_LaGd2AuO7
_symmetry_space_group_name_H-M   'P 1'
_cell_length_a   6.62978035
_cell_length_b   6.62977969
_cell_length_c   7.66008400
_cell_angle_alpha   90.00000000
_cell_angle_beta   90.00000000
_cell_angle_gamma   108.95206654
_symmetry_Int_Tables_number   1
_chemical_formula_structural   LaGd2AuO7
_chemical_formula_sum   'La2 Gd4 Au2 O14'
_cell_volume   318.43937953
_cell_formula_units_Z   2
loop_
 _symmetry_equiv_pos_site_id
 _symmetry_equiv_pos_as_xyz
  1  'x, y, z'
loop_
 _atom_site_type_symbol
 _atom_site_label
 _atom_site_symmetry_multiplicity
 _atom_site_fract_x
 _atom_site_fract_y
 _atom_site_fract_z
 _atom_site_occupancy
  La  La0  1  0.500000  0.500000  0.500000  1
  La  La1  1  0.500000  0.500000  0.000000  1
  Gd  Gd2  1  0.527661  0.998833  0.750000  1
  Gd  Gd3  1  0.998833  0.527661  0.250000  1
  Gd  Gd4  1  0.472339  0.001167  0.250000  1
  Gd  Gd5  1  0.001167  0.472339  0.750000  1
  Au  Au6  1  0.000000  0.000000  0.500000  1
  Au  Au7  1  0.000000  0.000000  0.000000  1
  O  O8  1  0.675721  0.928298  0.475870  1
  O  O9  1  0.928298  0.675721  0.524130  1
  O  O10  1  0.675721  0.928298  0.024130  1
  O  O11  1  0.928298  0.675721  0.975870  1
  O  O12  1  0.324279  0.071702  0.524130  1
  O  O13  1  0.071702  0.324279  0.475870  1
  O  O14  1  0.324279  0.071702  0.975870  1
  O  O15  1  0.071702  0.324279  0.024130  1
  O  O16  1  0.364030  0.635970  0.750000  1
  O  O17  1  0.635970  0.364030  0.250000  1
  O  O18  1  0.642721  0.357279  0.750000  1
  O  O19  1  0.357279  0.642721  0.250000  1
  O  O20  1  0.925369  0.074631  0.750000  1
  O  O21  1  0.074631  0.925369  0.250000  1
