# generated using pymatgen
data_Li2Dy3Y(ScSi2)4
_symmetry_space_group_name_H-M   'P 1'
_cell_length_a   6.90008002
_cell_length_b   7.40340801
_cell_length_c   14.07944802
_cell_angle_alpha   89.99965867
_cell_angle_beta   90.00552829
_cell_angle_gamma   90.00642525
_symmetry_Int_Tables_number   1
_chemical_formula_structural   Li2Dy3Y(ScSi2)4
_chemical_formula_sum   'Li4 Dy6 Y2 Sc8 Si16'
_cell_volume   719.23603085
_cell_formula_units_Z   2
loop_
 _symmetry_equiv_pos_site_id
 _symmetry_equiv_pos_as_xyz
  1  'x, y, z'
loop_
 _atom_site_type_symbol
 _atom_site_label
 _atom_site_symmetry_multiplicity
 _atom_site_fract_x
 _atom_site_fract_y
 _atom_site_fract_z
 _atom_site_occupancy
  Li  Li0  1  0.159239  0.505042  0.749993  1
  Li  Li1  1  0.840761  0.494958  0.250007  1
  Li  Li2  1  0.340758  0.005059  0.250000  1
  Li  Li3  1  0.659242  0.994941  0.750000  1
  Dy  Dy4  1  0.486225  0.681685  0.900739  1
  Dy  Dy5  1  0.986223  0.818263  0.599240  1
  Dy  Dy6  1  0.513775  0.318315  0.099261  1
  Dy  Dy7  1  0.013777  0.181737  0.400760  1
  Dy  Dy8  1  0.513772  0.318268  0.400752  1
  Dy  Dy9  1  0.486228  0.681732  0.599248  1
  Y  Y10  1  0.013738  0.181635  0.099220  1
  Y  Y11  1  0.986262  0.818365  0.900780  1
  Sc  Sc12  1  0.330255  0.179100  0.626428  1
  Sc  Sc13  1  0.669745  0.820900  0.373572  1
  Sc  Sc14  1  0.169747  0.679106  0.373589  1
  Sc  Sc15  1  0.669707  0.820830  0.126427  1
  Sc  Sc16  1  0.830253  0.320894  0.626411  1
  Sc  Sc17  1  0.330293  0.179170  0.873573  1
  Sc  Sc18  1  0.830192  0.320864  0.873567  1
  Sc  Sc19  1  0.169808  0.679136  0.126433  1
  Si  Si20  1  0.031671  0.104689  0.749962  1
  Si  Si21  1  0.968329  0.895311  0.250038  1
  Si  Si22  1  0.468363  0.604606  0.249989  1
  Si  Si23  1  0.531637  0.395394  0.750011  1
  Si  Si24  1  0.282233  0.881555  0.749962  1
  Si  Si25  1  0.717767  0.118445  0.250038  1
  Si  Si26  1  0.218009  0.381667  0.250099  1
  Si  Si27  1  0.781991  0.618333  0.749901  1
  Si  Si28  1  0.158005  0.463134  0.535330  1
  Si  Si29  1  0.841995  0.536866  0.464670  1
  Si  Si30  1  0.341995  0.963115  0.464675  1
  Si  Si31  1  0.841889  0.536930  0.035350  1
  Si  Si32  1  0.658005  0.036885  0.535325  1
  Si  Si33  1  0.158111  0.463070  0.964650  1
  Si  Si34  1  0.657808  0.036942  0.964680  1
  Si  Si35  1  0.342192  0.963058  0.035320  1
