# generated using pymatgen
data_Ho16Cd3CoHgRu3
_symmetry_space_group_name_H-M   'P 1'
_cell_length_a   9.58796166
_cell_length_b   9.58796161
_cell_length_c   9.49675741
_cell_angle_alpha   59.68180401
_cell_angle_beta   59.68179702
_cell_angle_gamma   60.00000649
_symmetry_Int_Tables_number   1
_chemical_formula_structural   Ho16Cd3CoHgRu3
_chemical_formula_sum   'Ho16 Cd3 Co1 Hg1 Ru3'
_cell_volume   614.33793976
_cell_formula_units_Z   1
loop_
 _symmetry_equiv_pos_site_id
 _symmetry_equiv_pos_as_xyz
  1  'x, y, z'
loop_
 _atom_site_type_symbol
 _atom_site_label
 _atom_site_symmetry_multiplicity
 _atom_site_fract_x
 _atom_site_fract_y
 _atom_site_fract_z
 _atom_site_occupancy
  Ho  Ho0  1  0.937380  0.937380  0.561117  1
  Ho  Ho1  1  0.811063  0.190635  0.187240  1
  Ho  Ho2  1  0.937380  0.564124  0.561117  1
  Ho  Ho3  1  0.937132  0.561817  0.939232  1
  Ho  Ho4  1  0.811063  0.811063  0.187240  1
  Ho  Ho5  1  0.344367  0.344367  0.351675  1
  Ho  Ho6  1  0.561817  0.937132  0.939232  1
  Ho  Ho7  1  0.564124  0.937380  0.561117  1
  Ho  Ho8  1  0.188371  0.816086  0.807171  1
  Ho  Ho9  1  0.188371  0.188371  0.807171  1
  Ho  Ho10  1  0.345563  0.345563  0.963312  1
  Ho  Ho11  1  0.344367  0.959591  0.351675  1
  Ho  Ho12  1  0.816086  0.188371  0.807171  1
  Ho  Ho13  1  0.561817  0.561817  0.939232  1
  Ho  Ho14  1  0.190635  0.811063  0.187240  1
  Ho  Ho15  1  0.959591  0.344367  0.351675  1
  Cd  Cd16  1  0.260341  0.579919  0.579824  1
  Cd  Cd17  1  0.579919  0.579919  0.579824  1
  Cd  Cd18  1  0.579919  0.260341  0.579824  1
  Co  Co19  1  0.140113  0.140113  0.579662  1
  Hg  Hg20  1  0.584045  0.584045  0.247867  1
  Ru  Ru21  1  0.580478  0.138031  0.143461  1
  Ru  Ru22  1  0.138031  0.138031  0.143461  1
  Ru  Ru23  1  0.138031  0.580478  0.143461  1
