# generated using pymatgen
data_InHg2(Pd2Au)3
_symmetry_space_group_name_H-M   'P 1'
_cell_length_a   4.29993800
_cell_length_b   7.49603900
_cell_length_c   12.89895700
_cell_angle_alpha   89.99997139
_cell_angle_beta   89.99997335
_cell_angle_gamma   89.99997903
_symmetry_Int_Tables_number   1
_chemical_formula_structural   InHg2(Pd2Au)3
_chemical_formula_sum   'In2 Hg4 Pd12 Au6'
_cell_volume   415.76566950
_cell_formula_units_Z   2
loop_
 _symmetry_equiv_pos_site_id
 _symmetry_equiv_pos_as_xyz
  1  'x, y, z'
loop_
 _atom_site_type_symbol
 _atom_site_label
 _atom_site_symmetry_multiplicity
 _atom_site_fract_x
 _atom_site_fract_y
 _atom_site_fract_z
 _atom_site_occupancy
  In  In0  1  0.999958  0.500000  0.668474  1
  In  In1  1  0.500075  0.000000  0.831490  1
  Hg  Hg2  1  0.999973  0.500000  0.999409  1
  Hg  Hg3  1  0.499986  0.000000  0.167042  1
  Hg  Hg4  1  0.999980  0.500000  0.332947  1
  Hg  Hg5  1  0.499971  0.000000  0.500599  1
  Pd  Pd6  1  0.499995  0.245962  0.996881  1
  Pd  Pd7  1  0.499995  0.754037  0.996881  1
  Pd  Pd8  1  0.999989  0.250493  0.166415  1
  Pd  Pd9  1  0.999989  0.749508  0.166415  1
  Pd  Pd10  1  0.499992  0.249516  0.333626  1
  Pd  Pd11  1  0.499992  0.750484  0.333626  1
  Pd  Pd12  1  0.999980  0.254001  0.503126  1
  Pd  Pd13  1  0.999980  0.745999  0.503126  1
  Pd  Pd14  1  0.500016  0.254921  0.668821  1
  Pd  Pd15  1  0.500016  0.745078  0.668821  1
  Pd  Pd16  1  0.000061  0.245101  0.831151  1
  Pd  Pd17  1  0.000061  0.754900  0.831151  1
  Au  Au18  1  0.000018  0.000000  0.000583  1
  Au  Au19  1  0.500008  0.500000  0.165309  1
  Au  Au20  1  0.000024  0.000000  0.334697  1
  Au  Au21  1  0.500004  0.500000  0.499423  1
  Au  Au22  1  0.999956  0.000000  0.665090  1
  Au  Au23  1  0.499981  0.500000  0.834899  1
