# generated using pymatgen
data_Ho10CdIn4Hg3Pd4
_symmetry_space_group_name_H-M   'P 1'
_cell_length_a   3.61327200
_cell_length_b   8.03315301
_cell_length_c   18.30449502
_cell_angle_alpha   89.99443653
_cell_angle_beta   90.00000000
_cell_angle_gamma   90.00000000
_symmetry_Int_Tables_number   1
_chemical_formula_structural   Ho10CdIn4Hg3Pd4
_chemical_formula_sum   'Ho10 Cd1 In4 Hg3 Pd4'
_cell_volume   531.30566303
_cell_formula_units_Z   1
loop_
 _symmetry_equiv_pos_site_id
 _symmetry_equiv_pos_as_xyz
  1  'x, y, z'
loop_
 _atom_site_type_symbol
 _atom_site_label
 _atom_site_symmetry_multiplicity
 _atom_site_fract_x
 _atom_site_fract_y
 _atom_site_fract_z
 _atom_site_occupancy
  Ho  Ho0  1  0.000000  0.499883  0.499972  1
  Ho  Ho1  1  0.000000  0.003783  0.001145  1
  Ho  Ho2  1  0.000000  0.743370  0.283682  1
  Ho  Ho3  1  0.000000  0.256576  0.716424  1
  Ho  Ho4  1  0.000000  0.756411  0.782242  1
  Ho  Ho5  1  0.000000  0.243156  0.216296  1
  Ho  Ho6  1  0.000000  0.608572  0.083803  1
  Ho  Ho7  1  0.000000  0.387708  0.916381  1
  Ho  Ho8  1  0.000000  0.890928  0.583314  1
  Ho  Ho9  1  0.000000  0.108770  0.416574  1
  Cd  Cd10  1  0.500000  0.713368  0.932214  1
  In  In11  1  0.500000  0.579293  0.648475  1
  In  In12  1  0.500000  0.420626  0.351467  1
  In  In13  1  0.500000  0.920333  0.148499  1
  In  In14  1  0.500000  0.078193  0.851520  1
  Hg  Hg15  1  0.500000  0.287831  0.067168  1
  Hg  Hg16  1  0.500000  0.786413  0.432899  1
  Hg  Hg17  1  0.500000  0.213425  0.567235  1
  Pd  Pd18  1  0.500000  0.529434  0.197835  1
  Pd  Pd19  1  0.500000  0.471772  0.802969  1
  Pd  Pd20  1  0.500000  0.970586  0.697565  1
  Pd  Pd21  1  0.500000  0.029570  0.302321  1
