# generated using pymatgen
data_Ba4FeNi3P4
_symmetry_space_group_name_H-M   'P 1'
_cell_length_a   6.24347460
_cell_length_b   6.23017130
_cell_length_c   7.44996755
_cell_angle_alpha   89.56995148
_cell_angle_beta   89.75366139
_cell_angle_gamma   106.20563848
_symmetry_Int_Tables_number   1
_chemical_formula_structural   Ba4FeNi3P4
_chemical_formula_sum   'Ba4 Fe1 Ni3 P4'
_cell_volume   278.25982647
_cell_formula_units_Z   1
loop_
 _symmetry_equiv_pos_site_id
 _symmetry_equiv_pos_as_xyz
  1  'x, y, z'
loop_
 _atom_site_type_symbol
 _atom_site_label
 _atom_site_symmetry_multiplicity
 _atom_site_fract_x
 _atom_site_fract_y
 _atom_site_fract_z
 _atom_site_occupancy
  Ba  Ba0  1  0.185855  0.813677  0.509427  1
  Ba  Ba1  1  0.680029  0.312996  0.989192  1
  Ba  Ba2  1  0.816818  0.187449  0.487353  1
  Ba  Ba3  1  0.313783  0.683068  0.010285  1
  Fe  Fe4  1  0.880579  0.884733  0.880613  1
  Ni  Ni5  1  0.380756  0.385946  0.619725  1
  Ni  Ni6  1  0.619870  0.616233  0.381758  1
  Ni  Ni7  1  0.120592  0.117209  0.121129  1
  P  P8  1  0.164015  0.181744  0.826479  1
  P  P9  1  0.666465  0.685553  0.674195  1
  P  P10  1  0.833815  0.816733  0.171878  1
  P  P11  1  0.337423  0.314656  0.327967  1
