# generated using pymatgen
data_HoVI18
_symmetry_space_group_name_H-M   'P 1'
_cell_length_a   10.23676714
_cell_length_b   10.27690675
_cell_length_c   10.25067650
_cell_angle_alpha   89.25368108
_cell_angle_beta   89.27058478
_cell_angle_gamma   89.09520203
_symmetry_Int_Tables_number   1
_chemical_formula_structural   HoVI18
_chemical_formula_sum   'Ho1 V1 I18'
_cell_volume   1078.08422065
_cell_formula_units_Z   1
loop_
 _symmetry_equiv_pos_site_id
 _symmetry_equiv_pos_as_xyz
  1  'x, y, z'
loop_
 _atom_site_type_symbol
 _atom_site_label
 _atom_site_symmetry_multiplicity
 _atom_site_fract_x
 _atom_site_fract_y
 _atom_site_fract_z
 _atom_site_occupancy
  Ho  Ho0  1  0.000000  0.000000  0.000000  1
  V  V1  1  0.500000  0.500000  0.500000  1
  I  I2  1  0.767936  0.476060  0.502055  1
  I  I3  1  0.501195  0.766792  0.475784  1
  I  I4  1  0.476321  0.502220  0.767802  1
  I  I5  1  0.232064  0.523940  0.497945  1
  I  I6  1  0.498805  0.233208  0.524216  1
  I  I7  1  0.523679  0.497780  0.232198  1
  I  I8  1  0.882529  0.380382  0.745440  1
  I  I9  1  0.744023  0.881635  0.380487  1
  I  I10  1  0.380970  0.744912  0.882851  1
  I  I11  1  0.117471  0.619618  0.254560  1
  I  I12  1  0.255977  0.118365  0.619513  1
  I  I13  1  0.619030  0.255088  0.117149  1
  I  I14  1  0.021075  0.972840  0.705804  1
  I  I15  1  0.705797  0.020632  0.970924  1
  I  I16  1  0.972009  0.706714  0.018958  1
  I  I17  1  0.978925  0.027160  0.294196  1
  I  I18  1  0.294203  0.979368  0.029076  1
  I  I19  1  0.027991  0.293286  0.981042  1
