# generated using pymatgen
data_Dy3HoPa(FeB3)2
_symmetry_space_group_name_H-M   'P 1'
_cell_length_a   5.43465518
_cell_length_b   5.43465420
_cell_length_c   7.92800992
_cell_angle_alpha   69.95547783
_cell_angle_beta   69.95547718
_cell_angle_gamma   59.99998299
_symmetry_Int_Tables_number   1
_chemical_formula_structural   Dy3HoPa(FeB3)2
_chemical_formula_sum   'Dy3 Ho1 Pa1 Fe2 B6'
_cell_volume   186.22841124
_cell_formula_units_Z   1
loop_
 _symmetry_equiv_pos_site_id
 _symmetry_equiv_pos_as_xyz
  1  'x, y, z'
loop_
 _atom_site_type_symbol
 _atom_site_label
 _atom_site_symmetry_multiplicity
 _atom_site_fract_x
 _atom_site_fract_y
 _atom_site_fract_z
 _atom_site_occupancy
  Dy  Dy0  1  0.745720  0.745720  0.762839  1
  Dy  Dy1  1  0.412723  0.412723  0.761829  1
  Dy  Dy2  1  0.587245  0.587245  0.238265  1
  Ho  Ho3  1  0.253931  0.253931  0.238208  1
  Pa  Pa4  1  0.999654  0.999654  0.001037  1
  Fe  Fe5  1  0.108533  0.108533  0.674404  1
  Fe  Fe6  1  0.891525  0.891525  0.325422  1
  B  B7  1  0.167299  0.833127  0.499666  1
  B  B8  1  0.833127  0.499908  0.499666  1
  B  B9  1  0.499908  0.167299  0.499666  1
  B  B10  1  0.167299  0.499908  0.499666  1
  B  B11  1  0.499908  0.833127  0.499666  1
  B  B12  1  0.833127  0.167299  0.499666  1
