# generated using pymatgen
data_Dy7ErTi9Si16Tc3
_symmetry_space_group_name_H-M   'P 1'
_cell_length_a   6.97843828
_cell_length_b   6.97734086
_cell_length_c   12.80491840
_cell_angle_alpha   90.10117365
_cell_angle_beta   89.93384839
_cell_angle_gamma   90.05105816
_symmetry_Int_Tables_number   1
_chemical_formula_structural   Dy7ErTi9Si16Tc3
_chemical_formula_sum   'Dy7 Er1 Ti9 Si16 Tc3'
_cell_volume   623.48191232
_cell_formula_units_Z   1
loop_
 _symmetry_equiv_pos_site_id
 _symmetry_equiv_pos_as_xyz
  1  'x, y, z'
loop_
 _atom_site_type_symbol
 _atom_site_label
 _atom_site_symmetry_multiplicity
 _atom_site_fract_x
 _atom_site_fract_y
 _atom_site_fract_z
 _atom_site_occupancy
  Dy  Dy0  1  0.340358  0.001584  0.467313  1
  Dy  Dy1  1  0.498849  0.841380  0.719590  1
  Dy  Dy2  1  0.500305  0.158979  0.217661  1
  Dy  Dy3  1  0.841457  0.498848  0.280407  1
  Dy  Dy4  1  0.158834  0.500416  0.782314  1
  Dy  Dy5  1  0.659232  0.999309  0.968608  1
  Dy  Dy6  1  0.001613  0.340377  0.532664  1
  Er  Er7  1  0.999962  0.658909  0.031379  1
  Ti  Ti8  1  0.673903  0.673888  0.499997  1
  Ti  Ti9  1  0.151659  0.006053  0.877262  1
  Ti  Ti10  1  0.494128  0.653395  0.124170  1
  Ti  Ti11  1  0.505356  0.347857  0.627418  1
  Ti  Ti12  1  0.653524  0.494290  0.875935  1
  Ti  Ti13  1  0.347802  0.505352  0.372546  1
  Ti  Ti14  1  0.847335  0.991675  0.375762  1
  Ti  Ti15  1  0.006054  0.151681  0.122832  1
  Ti  Ti16  1  0.991802  0.847372  0.624266  1
  Si  Si17  1  0.200196  0.128983  0.684257  1
  Si  Si18  1  0.369924  0.700555  0.933526  1
  Si  Si19  1  0.630850  0.296967  0.434482  1
  Si  Si20  1  0.701444  0.371366  0.066779  1
  Si  Si21  1  0.296972  0.630804  0.565470  1
  Si  Si22  1  0.799689  0.869827  0.183251  1
  Si  Si23  1  0.128918  0.200196  0.315729  1
  Si  Si24  1  0.870567  0.798795  0.816605  1
  Si  Si25  1  0.289934  0.951174  0.066582  1
  Si  Si26  1  0.547388  0.789860  0.315515  1
  Si  Si27  1  0.452162  0.210865  0.816674  1
  Si  Si28  1  0.789941  0.547138  0.684482  1
  Si  Si29  1  0.210334  0.452677  0.183040  1
  Si  Si30  1  0.708298  0.049410  0.567483  1
  Si  Si31  1  0.952073  0.291347  0.933686  1
  Si  Si32  1  0.049380  0.708289  0.432488  1
  Tc  Tc33  1  0.327608  0.328267  0.000031  1
  Tc  Tc34  1  0.173813  0.828032  0.248443  1
  Tc  Tc35  1  0.828337  0.174084  0.751350  1
