# generated using pymatgen
data_Yb2PrEr5(B6Ru)4
_symmetry_space_group_name_H-M   'P 1'
_cell_length_a   3.65551600
_cell_length_b   9.14172021
_cell_length_c   11.55019038
_cell_angle_alpha   90.00729183
_cell_angle_beta   90.00000000
_cell_angle_gamma   90.00000000
_symmetry_Int_Tables_number   1
_chemical_formula_structural   Yb2PrEr5(B6Ru)4
_chemical_formula_sum   'Yb2 Pr1 Er5 B24 Ru4'
_cell_volume   385.98084579
_cell_formula_units_Z   1
loop_
 _symmetry_equiv_pos_site_id
 _symmetry_equiv_pos_as_xyz
  1  'x, y, z'
loop_
 _atom_site_type_symbol
 _atom_site_label
 _atom_site_symmetry_multiplicity
 _atom_site_fract_x
 _atom_site_fract_y
 _atom_site_fract_z
 _atom_site_occupancy
  Yb  Yb0  1  0.000000  0.677003  0.586040  1
  Yb  Yb1  1  0.000000  0.823188  0.084985  1
  Pr  Pr2  1  0.000000  0.324213  0.414781  1
  Er  Er3  1  0.000000  0.175497  0.914978  1
  Er  Er4  1  0.000000  0.940362  0.368038  1
  Er  Er5  1  0.000000  0.055750  0.631466  1
  Er  Er6  1  0.000000  0.443825  0.129386  1
  Er  Er7  1  0.000000  0.559440  0.869624  1
  B  B8  1  0.500000  0.557300  0.432474  1
  B  B9  1  0.500000  0.446380  0.570928  1
  B  B10  1  0.500000  0.053790  0.066598  1
  B  B11  1  0.500000  0.945962  0.932961  1
  B  B12  1  0.500000  0.749164  0.417648  1
  B  B13  1  0.500000  0.250673  0.585612  1
  B  B14  1  0.500000  0.248792  0.080375  1
  B  B15  1  0.500000  0.752191  0.917886  1
  B  B16  1  0.500000  0.790542  0.264151  1
  B  B17  1  0.500000  0.208139  0.737114  1
  B  B18  1  0.500000  0.289820  0.232070  1
  B  B19  1  0.500000  0.710308  0.765381  1
  B  B20  1  0.500000  0.631602  0.184386  1
  B  B21  1  0.500000  0.368995  0.815992  1
  B  B22  1  0.500000  0.128788  0.312086  1
  B  B23  1  0.500000  0.869220  0.685772  1
  B  B24  1  0.500000  0.982624  0.210436  1
  B  B25  1  0.500000  0.016594  0.789013  1
  B  B26  1  0.500000  0.486530  0.286729  1
  B  B27  1  0.500000  0.516825  0.713235  1
  B  B28  1  0.500000  0.601008  0.027152  1
  B  B29  1  0.500000  0.398306  0.971743  1
  B  B30  1  0.500000  0.096418  0.473177  1
  B  B31  1  0.500000  0.900049  0.527122  1
  Ru  Ru32  1  0.000000  0.639707  0.319155  1
  Ru  Ru33  1  0.000000  0.359494  0.682707  1
  Ru  Ru34  1  0.000000  0.138533  0.178158  1
  Ru  Ru35  1  0.000000  0.862969  0.820639  1
