# generated using pymatgen
data_Ce3Dy5Tc2(B12Os)2
_symmetry_space_group_name_H-M   'P 1'
_cell_length_a   3.70730400
_cell_length_b   9.20025092
_cell_length_c   11.57169059
_cell_angle_alpha   89.96541634
_cell_angle_beta   90.00000000
_cell_angle_gamma   90.00000000
_symmetry_Int_Tables_number   1
_chemical_formula_structural   Ce3Dy5Tc2(B12Os)2
_chemical_formula_sum   'Ce3 Dy5 Tc2 B24 Os2'
_cell_volume   394.68862091
_cell_formula_units_Z   1
loop_
 _symmetry_equiv_pos_site_id
 _symmetry_equiv_pos_as_xyz
  1  'x, y, z'
loop_
 _atom_site_type_symbol
 _atom_site_label
 _atom_site_symmetry_multiplicity
 _atom_site_fract_x
 _atom_site_fract_y
 _atom_site_fract_z
 _atom_site_occupancy
  Ce  Ce0  1  0.000000  0.323939  0.414895  1
  Ce  Ce1  1  0.000000  0.675531  0.585841  1
  Ce  Ce2  1  0.000000  0.821985  0.086942  1
  Dy  Dy3  1  0.000000  0.179373  0.912757  1
  Dy  Dy4  1  0.000000  0.943544  0.373465  1
  Dy  Dy5  1  0.000000  0.056963  0.627173  1
  Dy  Dy6  1  0.000000  0.444779  0.126610  1
  Dy  Dy7  1  0.000000  0.553488  0.872850  1
  Tc  Tc8  1  0.000000  0.638931  0.320520  1
  Tc  Tc9  1  0.000000  0.361752  0.678567  1
  B  B10  1  0.500000  0.554265  0.431399  1
  B  B11  1  0.500000  0.445691  0.568495  1
  B  B12  1  0.500000  0.054678  0.067566  1
  B  B13  1  0.500000  0.946109  0.932160  1
  B  B14  1  0.500000  0.747754  0.419004  1
  B  B15  1  0.500000  0.252227  0.581567  1
  B  B16  1  0.500000  0.248510  0.079669  1
  B  B17  1  0.500000  0.752006  0.919257  1
  B  B18  1  0.500000  0.791419  0.266013  1
  B  B19  1  0.500000  0.208088  0.734493  1
  B  B20  1  0.500000  0.290596  0.232488  1
  B  B21  1  0.500000  0.709418  0.766910  1
  B  B22  1  0.500000  0.632521  0.185234  1
  B  B23  1  0.500000  0.366896  0.815005  1
  B  B24  1  0.500000  0.131977  0.314067  1
  B  B25  1  0.500000  0.868585  0.686406  1
  B  B26  1  0.500000  0.984628  0.212658  1
  B  B27  1  0.500000  0.016893  0.787245  1
  B  B28  1  0.500000  0.484321  0.286207  1
  B  B29  1  0.500000  0.515001  0.713976  1
  B  B30  1  0.500000  0.608990  0.029639  1
  B  B31  1  0.500000  0.389355  0.969890  1
  B  B32  1  0.500000  0.108740  0.469719  1
  B  B33  1  0.500000  0.891307  0.530637  1
  Os  Os34  1  0.000000  0.137906  0.178903  1
  Os  Os35  1  0.000000  0.861834  0.821770  1
