# generated using pymatgen
data_Ho4Ga18Pd2Ru3Pt
_symmetry_space_group_name_H-M   'P 1'
_cell_length_a   7.60827433
_cell_length_b   7.60827515
_cell_length_c   9.56783608
_cell_angle_alpha   89.91848679
_cell_angle_beta   89.91849007
_cell_angle_gamma   119.90889841
_symmetry_Int_Tables_number   1
_chemical_formula_structural   Ho4Ga18Pd2Ru3Pt
_chemical_formula_sum   'Ho4 Ga18 Pd2 Ru3 Pt1'
_cell_volume   480.07924386
_cell_formula_units_Z   1
loop_
 _symmetry_equiv_pos_site_id
 _symmetry_equiv_pos_as_xyz
  1  'x, y, z'
loop_
 _atom_site_type_symbol
 _atom_site_label
 _atom_site_symmetry_multiplicity
 _atom_site_fract_x
 _atom_site_fract_y
 _atom_site_fract_z
 _atom_site_occupancy
  Ho  Ho0  1  0.997472  0.668993  0.251109  1
  Ho  Ho1  1  0.002841  0.331391  0.748706  1
  Ho  Ho2  1  0.668609  0.997159  0.251294  1
  Ho  Ho3  1  0.331007  0.002528  0.748891  1
  Ga  Ga4  1  0.129498  0.127584  0.250044  1
  Ga  Ga5  1  0.872416  0.870502  0.749956  1
  Ga  Ga6  1  0.005711  0.338460  0.080895  1
  Ga  Ga7  1  0.002926  0.665533  0.919214  1
  Ga  Ga8  1  0.999202  0.661336  0.578609  1
  Ga  Ga9  1  0.338664  0.000798  0.421391  1
  Ga  Ga10  1  0.001462  0.338804  0.420229  1
  Ga  Ga11  1  0.661196  0.998538  0.579771  1
  Ga  Ga12  1  0.661540  0.994289  0.919105  1
  Ga  Ga13  1  0.334467  0.997074  0.080786  1
  Ga  Ga14  1  0.339956  0.339454  0.563870  1
  Ga  Ga15  1  0.660546  0.660044  0.436130  1
  Ga  Ga16  1  0.660578  0.666021  0.067022  1
  Ga  Ga17  1  0.333979  0.339422  0.932978  1
  Ga  Ga18  1  0.337187  0.550756  0.250464  1
  Ga  Ga19  1  0.664322  0.453197  0.746252  1
  Ga  Ga20  1  0.546803  0.335678  0.253748  1
  Ga  Ga21  1  0.449244  0.662813  0.749536  1
  Pd  Pd22  1  0.000456  0.999544  0.000000  1
  Pd  Pd23  1  0.999672  0.000328  0.500000  1
  Ru  Ru24  1  0.327196  0.672804  0.000000  1
  Ru  Ru25  1  0.327100  0.672900  0.500000  1
  Ru  Ru26  1  0.673496  0.326504  0.500000  1
  Pt  Pt27  1  0.672453  0.327547  0.000000  1
