# generated using pymatgen
data_Sr4YbEr(WO6)2
_symmetry_space_group_name_H-M   'P 1'
_cell_length_a   5.84417282
_cell_length_b   5.94028116
_cell_length_c   8.23923546
_cell_angle_alpha   89.92499318
_cell_angle_beta   90.07197180
_cell_angle_gamma   89.96790317
_symmetry_Int_Tables_number   1
_chemical_formula_structural   Sr4YbEr(WO6)2
_chemical_formula_sum   'Sr4 Yb1 Er1 W2 O12'
_cell_volume   286.03302699
_cell_formula_units_Z   1
loop_
 _symmetry_equiv_pos_site_id
 _symmetry_equiv_pos_as_xyz
  1  'x, y, z'
loop_
 _atom_site_type_symbol
 _atom_site_label
 _atom_site_symmetry_multiplicity
 _atom_site_fract_x
 _atom_site_fract_y
 _atom_site_fract_z
 _atom_site_occupancy
  Sr  Sr0  1  0.010474  0.041079  0.248010  1
  Sr  Sr1  1  0.490437  0.536193  0.247433  1
  Sr  Sr2  1  0.509563  0.463807  0.752567  1
  Sr  Sr3  1  0.989526  0.958921  0.751990  1
  Yb  Yb4  1  0.999999  0.500001  0.500000  1
  Er  Er5  1  0.500000  0.000000  0.999999  1
  W  W6  1  0.000000  0.500001  0.000000  1
  W  W7  1  0.499999  0.000000  0.500001  1
  O  O8  1  0.279502  0.297306  0.041733  1
  O  O9  1  0.200093  0.779387  0.045642  1
  O  O10  1  0.919705  0.478118  0.229435  1
  O  O11  1  0.578736  0.978667  0.267635  1
  O  O12  1  0.312666  0.267680  0.457006  1
  O  O13  1  0.232719  0.809706  0.461013  1
  O  O14  1  0.767282  0.190293  0.538986  1
  O  O15  1  0.687335  0.732320  0.542996  1
  O  O16  1  0.421262  0.021333  0.732365  1
  O  O17  1  0.080296  0.521882  0.770565  1
  O  O18  1  0.799908  0.220613  0.954358  1
  O  O19  1  0.720497  0.702693  0.958267  1
