# generated using pymatgen
data_EuY(CoB)8
_symmetry_space_group_name_H-M   'P 1'
_cell_length_a   6.98255500
_cell_length_b   6.98255500
_cell_length_c   3.80118000
_cell_angle_alpha   90.00000000
_cell_angle_beta   90.00000000
_cell_angle_gamma   90.00000000
_symmetry_Int_Tables_number   1
_chemical_formula_structural   EuY(CoB)8
_chemical_formula_sum   'Eu1 Y1 Co8 B8'
_cell_volume   185.33061461
_cell_formula_units_Z   1
loop_
 _symmetry_equiv_pos_site_id
 _symmetry_equiv_pos_as_xyz
  1  'x, y, z'
loop_
 _atom_site_type_symbol
 _atom_site_label
 _atom_site_symmetry_multiplicity
 _atom_site_fract_x
 _atom_site_fract_y
 _atom_site_fract_z
 _atom_site_occupancy
  Eu  Eu0  1  0.500000  0.500000  0.500000  1
  Y  Y1  1  0.000000  0.000000  0.000000  1
  Co  Co2  1  0.356974  0.883801  0.391066  1
  Co  Co3  1  0.619154  0.862882  0.890754  1
  Co  Co4  1  0.643026  0.116199  0.391066  1
  Co  Co5  1  0.137118  0.619154  0.109246  1
  Co  Co6  1  0.883801  0.643026  0.608934  1
  Co  Co7  1  0.862882  0.380846  0.109246  1
  Co  Co8  1  0.380846  0.137118  0.890754  1
  Co  Co9  1  0.116199  0.356974  0.608934  1
  B  B10  1  0.837786  0.296631  0.606582  1
  B  B11  1  0.162214  0.703369  0.606582  1
  B  B12  1  0.802202  0.663615  0.104796  1
  B  B13  1  0.336385  0.802202  0.895204  1
  B  B14  1  0.663615  0.197798  0.895204  1
  B  B15  1  0.296631  0.162214  0.393418  1
  B  B16  1  0.703369  0.837786  0.393418  1
  B  B17  1  0.197798  0.336385  0.104796  1
