# generated using pymatgen
data_Tb15DyTl2Cd2Ru3Rh
_symmetry_space_group_name_H-M   'P 1'
_cell_length_a   9.62254168
_cell_length_b   9.71202494
_cell_length_c   9.71202600
_cell_angle_alpha   59.99999639
_cell_angle_beta   59.69189700
_cell_angle_gamma   59.69189466
_symmetry_Int_Tables_number   1
_chemical_formula_structural   Tb15DyTl2Cd2Ru3Rh
_chemical_formula_sum   'Tb15 Dy1 Tl2 Cd2 Ru3 Rh1'
_cell_volume   638.78709504
_cell_formula_units_Z   1
loop_
 _symmetry_equiv_pos_site_id
 _symmetry_equiv_pos_as_xyz
  1  'x, y, z'
loop_
 _atom_site_type_symbol
 _atom_site_label
 _atom_site_symmetry_multiplicity
 _atom_site_fract_x
 _atom_site_fract_y
 _atom_site_fract_z
 _atom_site_occupancy
  Tb  Tb0  1  0.691005  0.312838  0.686141  1
  Tb  Tb1  1  0.314549  0.688671  0.308839  1
  Tb  Tb2  1  0.061922  0.438923  0.439115  1
  Tb  Tb3  1  0.691005  0.312838  0.310013  1
  Tb  Tb4  1  0.437583  0.059906  0.441470  1
  Tb  Tb5  1  0.437583  0.059906  0.061041  1
  Tb  Tb6  1  0.903356  0.901354  0.900747  1
  Tb  Tb7  1  0.061922  0.438923  0.060040  1
  Tb  Tb8  1  0.902762  0.294632  0.901304  1
  Tb  Tb9  1  0.314549  0.688671  0.687941  1
  Tb  Tb10  1  0.903356  0.901354  0.294545  1
  Tb  Tb11  1  0.436955  0.440459  0.061293  1
  Tb  Tb12  1  0.312654  0.310361  0.688492  1
  Tb  Tb13  1  0.690621  0.686682  0.311348  1
  Tb  Tb14  1  0.061358  0.058808  0.439917  1
  Dy  Dy15  1  0.287212  0.904435  0.904176  1
  Tl  Tl16  1  0.998006  0.665188  0.668403  1
  Tl  Tl17  1  0.665217  0.995988  0.669397  1
  Cd  Cd18  1  0.667595  0.668579  0.992446  1
  Cd  Cd19  1  0.667595  0.668579  0.671380  1
  Ru  Ru20  1  0.106912  0.111272  0.670915  1
  Ru  Ru21  1  0.106419  0.671334  0.111124  1
  Ru  Ru22  1  0.106912  0.111272  0.110902  1
  Rh  Rh23  1  0.672954  0.109025  0.109012  1
