# generated using pymatgen
data_Er6Tm2Re(B8Ru)3
_symmetry_space_group_name_H-M   'P 1'
_cell_length_a   3.63953000
_cell_length_b   9.09464767
_cell_length_c   11.47586104
_cell_angle_alpha   90.12968880
_cell_angle_beta   90.00000000
_cell_angle_gamma   90.00000000
_symmetry_Int_Tables_number   1
_chemical_formula_structural   Er6Tm2Re(B8Ru)3
_chemical_formula_sum   'Er6 Tm2 Re1 B24 Ru3'
_cell_volume   379.85281642
_cell_formula_units_Z   1
loop_
 _symmetry_equiv_pos_site_id
 _symmetry_equiv_pos_as_xyz
  1  'x, y, z'
loop_
 _atom_site_type_symbol
 _atom_site_label
 _atom_site_symmetry_multiplicity
 _atom_site_fract_x
 _atom_site_fract_y
 _atom_site_fract_z
 _atom_site_occupancy
  Er  Er0  1  0.000000  0.322495  0.415109  1
  Er  Er1  1  0.000000  0.680410  0.588073  1
  Er  Er2  1  0.000000  0.822263  0.083399  1
  Er  Er3  1  0.000000  0.176516  0.913481  1
  Er  Er4  1  0.000000  0.943165  0.371152  1
  Er  Er5  1  0.000000  0.056383  0.627684  1
  Tm  Tm6  1  0.000000  0.442747  0.128453  1
  Tm  Tm7  1  0.000000  0.555889  0.872555  1
  Re  Re8  1  0.000000  0.862029  0.821202  1
  B  B9  1  0.500000  0.553954  0.433514  1
  B  B10  1  0.500000  0.446348  0.566785  1
  B  B11  1  0.500000  0.053762  0.067210  1
  B  B12  1  0.500000  0.947175  0.933587  1
  B  B13  1  0.500000  0.748720  0.419616  1
  B  B14  1  0.500000  0.251610  0.580135  1
  B  B15  1  0.500000  0.248787  0.080562  1
  B  B16  1  0.500000  0.750511  0.919603  1
  B  B17  1  0.500000  0.790638  0.265399  1
  B  B18  1  0.500000  0.209019  0.733589  1
  B  B19  1  0.500000  0.291447  0.234539  1
  B  B20  1  0.500000  0.707643  0.765602  1
  B  B21  1  0.500000  0.630538  0.184726  1
  B  B22  1  0.500000  0.368772  0.814911  1
  B  B23  1  0.500000  0.131628  0.315223  1
  B  B24  1  0.500000  0.868905  0.685025  1
  B  B25  1  0.500000  0.982963  0.212393  1
  B  B26  1  0.500000  0.018428  0.787393  1
  B  B27  1  0.500000  0.482527  0.287840  1
  B  B28  1  0.500000  0.517381  0.712729  1
  B  B29  1  0.500000  0.604091  0.029591  1
  B  B30  1  0.500000  0.393829  0.971243  1
  B  B31  1  0.500000  0.106644  0.470097  1
  B  B32  1  0.500000  0.894215  0.528524  1
  Ru  Ru33  1  0.000000  0.637500  0.320860  1
  Ru  Ru34  1  0.000000  0.362644  0.678706  1
  Ru  Ru35  1  0.000000  0.138420  0.179489  1
