# generated using pymatgen
data_Ba2SrPuO6
_symmetry_space_group_name_H-M   'P 1'
_cell_length_a   6.24246273
_cell_length_b   6.24246256
_cell_length_c   6.32971097
_cell_angle_alpha   60.32616689
_cell_angle_beta   60.32616902
_cell_angle_gamma   60.05613442
_symmetry_Int_Tables_number   1
_chemical_formula_structural   Ba2SrPuO6
_chemical_formula_sum   'Ba2 Sr1 Pu1 O6'
_cell_volume   175.34366018
_cell_formula_units_Z   1
loop_
 _symmetry_equiv_pos_site_id
 _symmetry_equiv_pos_as_xyz
  1  'x, y, z'
loop_
 _atom_site_type_symbol
 _atom_site_label
 _atom_site_symmetry_multiplicity
 _atom_site_fract_x
 _atom_site_fract_y
 _atom_site_fract_z
 _atom_site_occupancy
  Ba  Ba0  1  0.752117  0.752117  0.235957  1
  Ba  Ba1  1  0.247883  0.247883  0.764043  1
  Sr  Sr2  1  0.000000  0.000000  0.500000  1
  Pu  Pu3  1  0.500000  0.500000  0.000000  1
  O  O4  1  0.318774  0.782411  0.173349  1
  O  O5  1  0.217589  0.681226  0.826651  1
  O  O6  1  0.681226  0.217589  0.826651  1
  O  O7  1  0.782411  0.318774  0.173349  1
  O  O8  1  0.275567  0.275567  0.313580  1
  O  O9  1  0.724433  0.724433  0.686420  1
