# generated using pymatgen
data_Ba2SI
_symmetry_space_group_name_H-M   'P 1'
_cell_length_a   4.66162800
_cell_length_b   4.66162832
_cell_length_c   16.50319774
_cell_angle_alpha   81.88073159
_cell_angle_beta   90.00000000
_cell_angle_gamma   119.99999776
_symmetry_Int_Tables_number   1
_chemical_formula_structural   Ba2SI
_chemical_formula_sum   'Ba4 S2 I2'
_cell_volume   306.42242032
_cell_formula_units_Z   2
loop_
 _symmetry_equiv_pos_site_id
 _symmetry_equiv_pos_as_xyz
  1  'x, y, z'
loop_
 _atom_site_type_symbol
 _atom_site_label
 _atom_site_symmetry_multiplicity
 _atom_site_fract_x
 _atom_site_fract_y
 _atom_site_fract_z
 _atom_site_occupancy
  Ba  Ba0  1  0.616976  0.233950  0.149074  1
  Ba  Ba1  1  0.117914  0.235828  0.646257  1
  Ba  Ba2  1  0.882086  0.764172  0.353743  1
  Ba  Ba3  1  0.383024  0.766050  0.850926  1
  S  S4  1  0.249316  0.498632  0.252052  1
  S  S5  1  0.750684  0.501368  0.747948  1
  I  I6  1  0.500000  0.000000  0.500000  1
  I  I7  1  0.000000  0.000000  0.000000  1
