# generated using pymatgen
data_Yb2Mg2ScSi7Pt9
_symmetry_space_group_name_H-M   'P 1'
_cell_length_a   10.04993400
_cell_length_b   10.04512384
_cell_length_c   3.95856500
_cell_angle_alpha   90.00000000
_cell_angle_beta   90.00000000
_cell_angle_gamma   119.87159276
_symmetry_Int_Tables_number   1
_chemical_formula_structural   Yb2Mg2ScSi7Pt9
_chemical_formula_sum   'Yb2 Mg2 Sc1 Si7 Pt9'
_cell_volume   346.53523947
_cell_formula_units_Z   1
loop_
 _symmetry_equiv_pos_site_id
 _symmetry_equiv_pos_as_xyz
  1  'x, y, z'
loop_
 _atom_site_type_symbol
 _atom_site_label
 _atom_site_symmetry_multiplicity
 _atom_site_fract_x
 _atom_site_fract_y
 _atom_site_fract_z
 _atom_site_occupancy
  Yb  Yb0  1  0.997842  0.996619  0.000000  1
  Yb  Yb1  1  0.333844  0.667239  0.500000  1
  Mg  Mg2  1  0.894410  0.453499  0.500000  1
  Mg  Mg3  1  0.558278  0.105391  0.500000  1
  Sc  Sc4  1  0.546905  0.437307  0.500000  1
  Si  Si5  1  0.249548  0.203204  0.500000  1
  Si  Si6  1  0.795020  0.048679  0.500000  1
  Si  Si7  1  0.954589  0.745957  0.500000  1
  Si  Si8  1  0.555521  0.647826  0.000000  1
  Si  Si9  1  0.352786  0.907776  0.000000  1
  Si  Si10  1  0.091341  0.447244  0.000000  1
  Si  Si11  1  0.668107  0.331828  0.000000  1
  Pt  Pt12  1  0.219959  0.942714  0.500000  1
  Pt  Pt13  1  0.060173  0.280732  0.500000  1
  Pt  Pt14  1  0.722689  0.781535  0.500000  1
  Pt  Pt15  1  0.311205  0.409411  0.000000  1
  Pt  Pt16  1  0.590036  0.903839  0.000000  1
  Pt  Pt17  1  0.097494  0.689252  0.000000  1
  Pt  Pt18  1  0.387962  0.173395  0.000000  1
  Pt  Pt19  1  0.828756  0.216122  0.000000  1
  Pt  Pt20  1  0.783531  0.610434  0.000000  1
