# generated using pymatgen
data_Dy17Lu3Ir7Ru5
_symmetry_space_group_name_H-M   'P 1'
_cell_length_a   10.80820555
_cell_length_b   10.80708857
_cell_length_c   6.38052515
_cell_angle_alpha   89.98178743
_cell_angle_beta   89.98280559
_cell_angle_gamma   90.03237964
_symmetry_Int_Tables_number   1
_chemical_formula_structural   Dy17Lu3Ir7Ru5
_chemical_formula_sum   'Dy17 Lu3 Ir7 Ru5'
_cell_volume   745.27854752
_cell_formula_units_Z   1
loop_
 _symmetry_equiv_pos_site_id
 _symmetry_equiv_pos_as_xyz
  1  'x, y, z'
loop_
 _atom_site_type_symbol
 _atom_site_label
 _atom_site_symmetry_multiplicity
 _atom_site_fract_x
 _atom_site_fract_y
 _atom_site_fract_z
 _atom_site_occupancy
  Dy  Dy0  1  0.292265  0.086456  0.378687  1
  Dy  Dy1  1  0.292159  0.913373  0.878718  1
  Dy  Dy2  1  0.708343  0.086783  0.879089  1
  Dy  Dy3  1  0.708101  0.913766  0.378086  1
  Dy  Dy4  1  0.586587  0.793027  0.878791  1
  Dy  Dy5  1  0.587562  0.206665  0.378431  1
  Dy  Dy6  1  0.413023  0.793558  0.378478  1
  Dy  Dy7  1  0.413110  0.206852  0.878279  1
  Dy  Dy8  1  0.206478  0.413156  0.621402  1
  Dy  Dy9  1  0.206975  0.586749  0.121363  1
  Dy  Dy10  1  0.792799  0.412686  0.121410  1
  Dy  Dy11  1  0.793670  0.587109  0.621941  1
  Dy  Dy12  1  0.913538  0.707633  0.121318  1
  Dy  Dy13  1  0.913236  0.291563  0.620855  1
  Dy  Dy14  1  0.086606  0.707969  0.621277  1
  Dy  Dy15  1  0.086246  0.291963  0.121921  1
  Dy  Dy16  1  0.499944  0.499855  0.500035  1
  Lu  Lu17  1  0.999687  0.000627  0.499249  1
  Lu  Lu18  1  0.999399  0.000308  0.000696  1
  Lu  Lu19  1  0.500128  0.500011  0.000023  1
  Ir  Ir20  1  0.849370  0.848961  0.749912  1
  Ir  Ir21  1  0.150947  0.150725  0.750077  1
  Ir  Ir22  1  0.150828  0.849216  0.249972  1
  Ir  Ir23  1  0.651248  0.348703  0.752245  1
  Ir  Ir24  1  0.651898  0.651713  0.247641  1
  Ir  Ir25  1  0.348197  0.348215  0.247860  1
  Ir  Ir26  1  0.348373  0.651711  0.752252  1
  Ru  Ru27  1  0.849396  0.150540  0.250015  1
  Ru  Ru28  1  0.500050  0.999979  0.123690  1
  Ru  Ru29  1  0.499796  0.999964  0.623811  1
  Ru  Ru30  1  0.000036  0.500225  0.876241  1
  Ru  Ru31  1  0.000004  0.499941  0.376237  1
