# generated using pymatgen
data_NaMn(NbS2)8
_symmetry_space_group_name_H-M   'P 1'
_cell_length_a   6.74347200
_cell_length_b   6.74347195
_cell_length_c   13.49581700
_cell_angle_alpha   90.00000000
_cell_angle_beta   90.00000000
_cell_angle_gamma   120.00000026
_symmetry_Int_Tables_number   1
_chemical_formula_structural   NaMn(NbS2)8
_chemical_formula_sum   'Na1 Mn1 Nb8 S16'
_cell_volume   531.49223625
_cell_formula_units_Z   1
loop_
 _symmetry_equiv_pos_site_id
 _symmetry_equiv_pos_as_xyz
  1  'x, y, z'
loop_
 _atom_site_type_symbol
 _atom_site_label
 _atom_site_symmetry_multiplicity
 _atom_site_fract_x
 _atom_site_fract_y
 _atom_site_fract_z
 _atom_site_occupancy
  Na  Na0  1  0.000000  0.000000  0.000000  1
  Mn  Mn1  1  0.000000  0.000000  0.500000  1
  Nb  Nb2  1  0.989430  0.494715  0.274242  1
  Nb  Nb3  1  0.010570  0.505285  0.725758  1
  Nb  Nb4  1  0.494715  0.505285  0.725758  1
  Nb  Nb5  1  0.505285  0.010570  0.274242  1
  Nb  Nb6  1  0.000000  0.000000  0.726063  1
  Nb  Nb7  1  0.000000  0.000000  0.273937  1
  Nb  Nb8  1  0.505285  0.494715  0.274242  1
  Nb  Nb9  1  0.494715  0.989430  0.725758  1
  S  S10  1  0.333333  0.666667  0.608428  1
  S  S11  1  0.666667  0.333333  0.155357  1
  S  S12  1  0.666667  0.333333  0.391572  1
  S  S13  1  0.333333  0.666667  0.844643  1
  S  S14  1  0.167490  0.334981  0.389327  1
  S  S15  1  0.832608  0.167392  0.840445  1
  S  S16  1  0.334786  0.167392  0.840445  1
  S  S17  1  0.665019  0.832510  0.389327  1
  S  S18  1  0.167490  0.832510  0.389327  1
  S  S19  1  0.832608  0.665214  0.840445  1
  S  S20  1  0.167392  0.334786  0.159555  1
  S  S21  1  0.832510  0.167490  0.610673  1
  S  S22  1  0.334981  0.167490  0.610673  1
  S  S23  1  0.665214  0.832608  0.159555  1
  S  S24  1  0.167392  0.832608  0.159555  1
  S  S25  1  0.832510  0.665019  0.610673  1
