# generated using pymatgen
data_Sm6YSI12
_symmetry_space_group_name_H-M   'P 1'
_cell_length_a   9.82733962
_cell_length_b   9.82733919
_cell_length_c   9.82733885
_cell_angle_alpha   108.09658483
_cell_angle_beta   108.09657483
_cell_angle_gamma   108.09656767
_symmetry_Int_Tables_number   1
_chemical_formula_structural   Sm6YSI12
_chemical_formula_sum   'Sm6 Y1 S1 I12'
_cell_volume   765.53842528
_cell_formula_units_Z   1
loop_
 _symmetry_equiv_pos_site_id
 _symmetry_equiv_pos_as_xyz
  1  'x, y, z'
loop_
 _atom_site_type_symbol
 _atom_site_label
 _atom_site_symmetry_multiplicity
 _atom_site_fract_x
 _atom_site_fract_y
 _atom_site_fract_z
 _atom_site_occupancy
  Sm  Sm0  1  0.697461  0.965515  0.896605  1
  Sm  Sm1  1  0.965515  0.896605  0.697461  1
  Sm  Sm2  1  0.103395  0.302539  0.034485  1
  Sm  Sm3  1  0.302539  0.034485  0.103395  1
  Sm  Sm4  1  0.896605  0.697461  0.965515  1
  Sm  Sm5  1  0.034485  0.103395  0.302539  1
  Y  Y6  1  0.500000  0.500000  0.500000  1
  S  S7  1  0.000000  0.000000  0.000000  1
  I  I8  1  0.076276  0.225837  0.686545  1
  I  I9  1  0.390319  0.156661  0.469948  1
  I  I10  1  0.609681  0.843339  0.530052  1
  I  I11  1  0.225837  0.686545  0.076276  1
  I  I12  1  0.774163  0.313455  0.923724  1
  I  I13  1  0.686545  0.076276  0.225837  1
  I  I14  1  0.530052  0.609681  0.843339  1
  I  I15  1  0.843339  0.530052  0.609681  1
  I  I16  1  0.923724  0.774163  0.313455  1
  I  I17  1  0.313455  0.923724  0.774163  1
  I  I18  1  0.469948  0.390319  0.156661  1
  I  I19  1  0.156661  0.469948  0.390319  1
