# generated using pymatgen
data_Li4La3(SnGe)2
_symmetry_space_group_name_H-M   'P 1'
_cell_length_a   4.66297394
_cell_length_b   7.05791776
_cell_length_c   8.82659021
_cell_angle_alpha   113.56630580
_cell_angle_beta   105.31608607
_cell_angle_gamma   89.99998993
_symmetry_Int_Tables_number   1
_chemical_formula_structural   Li4La3(SnGe)2
_chemical_formula_sum   'Li4 La3 Sn2 Ge2'
_cell_volume   254.96762481
_cell_formula_units_Z   1
loop_
 _symmetry_equiv_pos_site_id
 _symmetry_equiv_pos_as_xyz
  1  'x, y, z'
loop_
 _atom_site_type_symbol
 _atom_site_label
 _atom_site_symmetry_multiplicity
 _atom_site_fract_x
 _atom_site_fract_y
 _atom_site_fract_z
 _atom_site_occupancy
  Li  Li0  1  0.667282  0.973747  0.334562  1
  Li  Li1  1  0.332718  0.026253  0.665438  1
  Li  Li2  1  0.332718  0.639186  0.665438  1
  Li  Li3  1  0.667282  0.360814  0.334562  1
  La  La4  1  0.000000  0.000000  0.000000  1
  La  La5  1  0.125632  0.625632  0.251264  1
  La  La6  1  0.874368  0.374368  0.748736  1
  Sn  Sn7  1  0.786841  0.786841  0.573681  1
  Sn  Sn8  1  0.213159  0.213159  0.426319  1
  Ge  Ge9  1  0.500000  0.682945  0.000000  1
  Ge  Ge10  1  0.500000  0.317055  0.000000  1
