# generated using pymatgen
data_Li3Lu4AlIrPt3
_symmetry_space_group_name_H-M   'P 1'
_cell_length_a   3.97884300
_cell_length_b   6.89242272
_cell_length_c   8.25368421
_cell_angle_alpha   90.39900776
_cell_angle_beta   90.00000000
_cell_angle_gamma   90.00000000
_symmetry_Int_Tables_number   1
_chemical_formula_structural   Li3Lu4AlIrPt3
_chemical_formula_sum   'Li3 Lu4 Al1 Ir1 Pt3'
_cell_volume   226.34245687
_cell_formula_units_Z   1
loop_
 _symmetry_equiv_pos_site_id
 _symmetry_equiv_pos_as_xyz
  1  'x, y, z'
loop_
 _atom_site_type_symbol
 _atom_site_label
 _atom_site_symmetry_multiplicity
 _atom_site_fract_x
 _atom_site_fract_y
 _atom_site_fract_z
 _atom_site_occupancy
  Li  Li0  1  0.250000  0.130984  0.059586  1
  Li  Li1  1  0.250000  0.631706  0.439615  1
  Li  Li2  1  0.750000  0.873327  0.941357  1
  Lu  Lu3  1  0.250000  0.045014  0.675768  1
  Lu  Lu4  1  0.250000  0.543498  0.821822  1
  Lu  Lu5  1  0.750000  0.960686  0.321900  1
  Lu  Lu6  1  0.750000  0.451070  0.183331  1
  Al  Al7  1  0.750000  0.370890  0.554268  1
  Ir  Ir8  1  0.250000  0.251162  0.387528  1
  Pt  Pt9  1  0.250000  0.743122  0.125754  1
  Pt  Pt10  1  0.750000  0.743639  0.624519  1
  Pt  Pt11  1  0.750000  0.254901  0.864552  1
