# generated using pymatgen
data_Hf4Zr2CoBiTe
_symmetry_space_group_name_H-M   'P 1'
_cell_length_a   7.83622744
_cell_length_b   7.82184723
_cell_length_c   3.61327700
_cell_angle_alpha   90.00000000
_cell_angle_beta   90.00000000
_cell_angle_gamma   119.89242942
_symmetry_Int_Tables_number   1
_chemical_formula_structural   Hf4Zr2CoBiTe
_chemical_formula_sum   'Hf4 Zr2 Co1 Bi1 Te1'
_cell_volume   192.00740824
_cell_formula_units_Z   1
loop_
 _symmetry_equiv_pos_site_id
 _symmetry_equiv_pos_as_xyz
  1  'x, y, z'
loop_
 _atom_site_type_symbol
 _atom_site_label
 _atom_site_symmetry_multiplicity
 _atom_site_fract_x
 _atom_site_fract_y
 _atom_site_fract_z
 _atom_site_occupancy
  Hf  Hf0  1  0.007576  0.610456  0.500000  1
  Hf  Hf1  1  0.234020  0.998267  0.000000  1
  Hf  Hf2  1  0.766208  0.764958  0.000000  1
  Hf  Hf3  1  0.000456  0.235045  0.000000  1
  Zr  Zr4  1  0.598727  0.992109  0.500000  1
  Zr  Zr5  1  0.393474  0.401376  0.500000  1
  Co  Co6  1  0.999987  0.997957  0.500000  1
  Bi  Bi7  1  0.667448  0.333610  0.000000  1
  Te  Te8  1  0.332104  0.666222  0.000000  1
