# generated using pymatgen
data_Rb6TbDyF12
_symmetry_space_group_name_H-M   'P 1'
_cell_length_a   6.91496276
_cell_length_b   6.66226647
_cell_length_c   11.56028574
_cell_angle_alpha   55.29428288
_cell_angle_beta   90.11313553
_cell_angle_gamma   90.02733997
_symmetry_Int_Tables_number   1
_chemical_formula_structural   Rb6TbDyF12
_chemical_formula_sum   'Rb6 Tb1 Dy1 F12'
_cell_volume   437.82175371
_cell_formula_units_Z   1
loop_
 _symmetry_equiv_pos_site_id
 _symmetry_equiv_pos_as_xyz
  1  'x, y, z'
loop_
 _atom_site_type_symbol
 _atom_site_label
 _atom_site_symmetry_multiplicity
 _atom_site_fract_x
 _atom_site_fract_y
 _atom_site_fract_z
 _atom_site_occupancy
  Rb  Rb0  1  0.500000  0.500000  0.000000  1
  Rb  Rb1  1  0.000000  0.500000  0.500000  1
  Rb  Rb2  1  0.051229  0.729846  0.756213  1
  Rb  Rb3  1  0.948771  0.270154  0.243787  1
  Rb  Rb4  1  0.551337  0.266174  0.748530  1
  Rb  Rb5  1  0.448663  0.733826  0.251470  1
  Tb  Tb6  1  0.000000  0.000000  0.000000  1
  Dy  Dy7  1  0.500000  0.000000  0.500000  1
  F  F8  1  0.763631  0.772923  0.568314  1
  F  F9  1  0.236369  0.227077  0.431686  1
  F  F10  1  0.263375  0.229709  0.933820  1
  F  F11  1  0.736625  0.770291  0.066180  1
  F  F12  1  0.445633  0.892585  0.716016  1
  F  F13  1  0.554367  0.107415  0.283984  1
  F  F14  1  0.945946  0.108381  0.782987  1
  F  F15  1  0.054054  0.891619  0.217013  1
  F  F16  1  0.332250  0.680152  0.549027  1
  F  F17  1  0.667750  0.319848  0.450973  1
  F  F18  1  0.827517  0.317306  0.952902  1
  F  F19  1  0.172483  0.682694  0.047098  1
