# generated using pymatgen
data_Ca5Ho(Si3Ru)8
_symmetry_space_group_name_H-M   'P 1'
_cell_length_a   10.17878197
_cell_length_b   10.17878200
_cell_length_c   8.17618719
_cell_angle_alpha   89.98997613
_cell_angle_beta   89.98997418
_cell_angle_gamma   132.62624496
_symmetry_Int_Tables_number   1
_chemical_formula_structural   Ca5Ho(Si3Ru)8
_chemical_formula_sum   'Ca5 Ho1 Si24 Ru8'
_cell_volume   623.29622492
_cell_formula_units_Z   1
loop_
 _symmetry_equiv_pos_site_id
 _symmetry_equiv_pos_as_xyz
  1  'x, y, z'
loop_
 _atom_site_type_symbol
 _atom_site_label
 _atom_site_symmetry_multiplicity
 _atom_site_fract_x
 _atom_site_fract_y
 _atom_site_fract_z
 _atom_site_occupancy
  Ca  Ca0  1  0.500000  0.500000  0.500000  1
  Ca  Ca1  1  0.501585  0.001495  0.749923  1
  Ca  Ca2  1  0.998505  0.498415  0.250077  1
  Ca  Ca3  1  0.498415  0.998505  0.250077  1
  Ca  Ca4  1  0.001495  0.501585  0.749923  1
  Ho  Ho5  1  0.000000  0.000000  0.000000  1
  Si  Si6  1  0.793895  0.206105  0.500000  1
  Si  Si7  1  0.293732  0.706268  0.000000  1
  Si  Si8  1  0.206105  0.793895  0.500000  1
  Si  Si9  1  0.706268  0.293732  0.000000  1
  Si  Si10  1  0.335085  0.335085  0.831659  1
  Si  Si11  1  0.664915  0.664915  0.168341  1
  Si  Si12  1  0.167137  0.167137  0.334035  1
  Si  Si13  1  0.832863  0.832863  0.665965  1
  Si  Si14  1  0.124490  0.891383  0.728451  1
  Si  Si15  1  0.108617  0.875510  0.271549  1
  Si  Si16  1  0.608488  0.375918  0.229594  1
  Si  Si17  1  0.624082  0.391512  0.770406  1
  Si  Si18  1  0.875510  0.108617  0.271549  1
  Si  Si19  1  0.891383  0.124490  0.728451  1
  Si  Si20  1  0.391512  0.624082  0.770406  1
  Si  Si21  1  0.375918  0.608488  0.229594  1
  Si  Si22  1  0.346266  0.113595  0.507361  1
  Si  Si23  1  0.886405  0.653734  0.492639  1
  Si  Si24  1  0.389154  0.155428  0.006653  1
  Si  Si25  1  0.844572  0.610846  0.993347  1
  Si  Si26  1  0.653734  0.886405  0.492639  1
  Si  Si27  1  0.113595  0.346266  0.507361  1
  Si  Si28  1  0.610846  0.844572  0.993347  1
  Si  Si29  1  0.155428  0.389154  0.006653  1
  Ru  Ru30  1  0.668764  0.331236  0.500000  1
  Ru  Ru31  1  0.167628  0.832372  0.000000  1
  Ru  Ru32  1  0.331236  0.668764  0.500000  1
  Ru  Ru33  1  0.832372  0.167628  0.000000  1
  Ru  Ru34  1  0.125136  0.125136  0.627119  1
  Ru  Ru35  1  0.874864  0.874864  0.372881  1
  Ru  Ru36  1  0.371357  0.371357  0.123656  1
  Ru  Ru37  1  0.628643  0.628643  0.876344  1
