# generated using pymatgen
data_RhBr13
_symmetry_space_group_name_H-M   'P 1'
_cell_length_a   11.44114354
_cell_length_b   9.79941668
_cell_length_c   13.19106324
_cell_angle_alpha   118.50046888
_cell_angle_beta   89.47730849
_cell_angle_gamma   105.19543473
_symmetry_Int_Tables_number   1
_chemical_formula_structural   RhBr13
_chemical_formula_sum   'Rh2 Br26'
_cell_volume   1242.49002143
_cell_formula_units_Z   2
loop_
 _symmetry_equiv_pos_site_id
 _symmetry_equiv_pos_as_xyz
  1  'x, y, z'
loop_
 _atom_site_type_symbol
 _atom_site_label
 _atom_site_symmetry_multiplicity
 _atom_site_fract_x
 _atom_site_fract_y
 _atom_site_fract_z
 _atom_site_occupancy
  Rh  Rh0  1  0.339471  0.873902  0.929704  1
  Rh  Rh1  1  0.660529  0.126098  0.070296  1
  Br  Br2  1  0.372996  0.665178  0.970408  1
  Br  Br3  1  0.627004  0.334822  0.029592  1
  Br  Br4  1  0.583250  0.814280  0.394665  1
  Br  Br5  1  0.416750  0.185720  0.605335  1
  Br  Br6  1  0.722771  0.685648  0.000223  1
  Br  Br7  1  0.277229  0.314352  0.999777  1
  Br  Br8  1  0.696168  0.943956  0.142966  1
  Br  Br9  1  0.303832  0.056044  0.857034  1
  Br  Br10  1  0.444241  0.093750  0.128467  1
  Br  Br11  1  0.555759  0.906250  0.871533  1
  Br  Br12  1  0.240514  0.663548  0.724265  1
  Br  Br13  1  0.759486  0.336452  0.275735  1
  Br  Br14  1  0.133324  0.845570  0.992558  1
  Br  Br15  1  0.866676  0.154430  0.007442  1
  Br  Br16  1  0.105979  0.086102  0.207994  1
  Br  Br17  1  0.894021  0.913898  0.792006  1
  Br  Br18  1  0.273380  0.912728  0.458533  1
  Br  Br19  1  0.726620  0.087272  0.541467  1
  Br  Br20  1  0.325887  0.421550  0.658658  1
  Br  Br21  1  0.674113  0.578450  0.341342  1
  Br  Br22  1  0.853723  0.375879  0.697091  1
  Br  Br23  1  0.146277  0.624121  0.302909  1
  Br  Br24  1  0.952862  0.726694  0.613491  1
  Br  Br25  1  0.047138  0.273306  0.386509  1
  Br  Br26  1  0.250940  0.635481  0.130773  1
  Br  Br27  1  0.749060  0.364519  0.869227  1
