# generated using pymatgen
data_PmBe2SiAu
_symmetry_space_group_name_H-M   'P 1'
_cell_length_a   5.84780083
_cell_length_b   5.84780238
_cell_length_c   5.84780139
_cell_angle_alpha   140.11541389
_cell_angle_beta   140.11541493
_cell_angle_gamma   57.67810655
_symmetry_Int_Tables_number   1
_chemical_formula_structural   PmBe2SiAu
_chemical_formula_sum   'Pm1 Be2 Si1 Au1'
_cell_volume   81.51305138
_cell_formula_units_Z   1
loop_
 _symmetry_equiv_pos_site_id
 _symmetry_equiv_pos_as_xyz
  1  'x, y, z'
loop_
 _atom_site_type_symbol
 _atom_site_label
 _atom_site_symmetry_multiplicity
 _atom_site_fract_x
 _atom_site_fract_y
 _atom_site_fract_z
 _atom_site_occupancy
  Pm  Pm0  1  0.023857  0.023857  0.000000  1
  Be  Be1  1  0.743262  0.243262  0.500000  1
  Be  Be2  1  0.243262  0.743262  0.500000  1
  Si  Si3  1  0.620729  0.620729  0.000000  1
  Au  Au4  1  0.368889  0.368889  0.000000  1
