# generated using pymatgen
data_Ho2Sc3S7
_symmetry_space_group_name_H-M   'P 1'
_cell_length_a   6.37989701
_cell_length_b   6.37989617
_cell_length_c   11.25998168
_cell_angle_alpha   76.20679917
_cell_angle_beta   76.20679989
_cell_angle_gamma   33.59047084
_symmetry_Int_Tables_number   1
_chemical_formula_structural   Ho2Sc3S7
_chemical_formula_sum   'Ho2 Sc3 S7'
_cell_volume   245.57557037
_cell_formula_units_Z   1
loop_
 _symmetry_equiv_pos_site_id
 _symmetry_equiv_pos_as_xyz
  1  'x, y, z'
loop_
 _atom_site_type_symbol
 _atom_site_label
 _atom_site_symmetry_multiplicity
 _atom_site_fract_x
 _atom_site_fract_y
 _atom_site_fract_z
 _atom_site_occupancy
  Ho  Ho0  1  0.299188  0.299188  0.810042  1
  Ho  Ho1  1  0.700812  0.700812  0.189958  1
  Sc  Sc2  1  0.000000  0.000000  0.000000  1
  Sc  Sc3  1  0.110976  0.110976  0.575470  1
  Sc  Sc4  1  0.889024  0.889024  0.424530  1
  S  S5  1  0.500000  0.500000  0.500000  1
  S  S6  1  0.653705  0.653705  0.950975  1
  S  S7  1  0.346295  0.346295  0.049025  1
  S  S8  1  0.967742  0.967742  0.783810  1
  S  S9  1  0.032258  0.032258  0.216190  1
  S  S10  1  0.261594  0.261594  0.359428  1
  S  S11  1  0.738406  0.738406  0.640572  1
