# generated using pymatgen
data_Cs3Mn2O4
_symmetry_space_group_name_H-M   'P 1'
_cell_length_a   6.76096500
_cell_length_b   11.39401400
_cell_length_c   10.81392300
_cell_angle_alpha   90.00000000
_cell_angle_beta   90.00000000
_cell_angle_gamma   90.00000000
_symmetry_Int_Tables_number   1
_chemical_formula_structural   Cs3Mn2O4
_chemical_formula_sum   'Cs12 Mn8 O16'
_cell_volume   833.04547429
_cell_formula_units_Z   4
loop_
 _symmetry_equiv_pos_site_id
 _symmetry_equiv_pos_as_xyz
  1  'x, y, z'
loop_
 _atom_site_type_symbol
 _atom_site_label
 _atom_site_symmetry_multiplicity
 _atom_site_fract_x
 _atom_site_fract_y
 _atom_site_fract_z
 _atom_site_occupancy
  Cs  Cs0  1  0.628298  0.155171  0.405910  1
  Cs  Cs1  1  0.871702  0.844829  0.405910  1
  Cs  Cs2  1  0.628298  0.344829  0.094090  1
  Cs  Cs3  1  0.871702  0.655171  0.094090  1
  Cs  Cs4  1  0.371702  0.844829  0.594090  1
  Cs  Cs5  1  0.128298  0.155171  0.594090  1
  Cs  Cs6  1  0.371702  0.655171  0.905910  1
  Cs  Cs7  1  0.128298  0.344829  0.905910  1
  Cs  Cs8  1  0.750000  0.500000  0.408715  1
  Cs  Cs9  1  0.750000  0.000000  0.091285  1
  Cs  Cs10  1  0.250000  0.500000  0.591285  1
  Cs  Cs11  1  0.250000  0.000000  0.908715  1
  Mn  Mn12  1  0.750000  0.500000  0.739832  1
  Mn  Mn13  1  0.750000  0.000000  0.760168  1
  Mn  Mn14  1  0.250000  0.500000  0.260168  1
  Mn  Mn15  1  0.250000  0.000000  0.239832  1
  Mn  Mn16  1  0.678821  0.250000  0.750000  1
  Mn  Mn17  1  0.821179  0.750000  0.750000  1
  Mn  Mn18  1  0.321179  0.750000  0.250000  1
  Mn  Mn19  1  0.178821  0.250000  0.250000  1
  O  O20  1  0.883374  0.366853  0.668495  1
  O  O21  1  0.616626  0.633147  0.668495  1
  O  O22  1  0.883374  0.133147  0.831505  1
  O  O23  1  0.616626  0.866853  0.831505  1
  O  O24  1  0.116626  0.633147  0.331505  1
  O  O25  1  0.383374  0.366853  0.331505  1
  O  O26  1  0.116626  0.866853  0.168495  1
  O  O27  1  0.383374  0.133147  0.168495  1
  O  O28  1  0.537334  0.403447  0.807314  1
  O  O29  1  0.962666  0.596553  0.807314  1
  O  O30  1  0.537334  0.096553  0.692686  1
  O  O31  1  0.962666  0.903447  0.692686  1
  O  O32  1  0.462666  0.596553  0.192686  1
  O  O33  1  0.037334  0.403447  0.192686  1
  O  O34  1  0.462666  0.903447  0.307314  1
  O  O35  1  0.037334  0.096553  0.307314  1
