# generated using pymatgen
data_Rb2GaCu3F10
_symmetry_space_group_name_H-M   'P 1'
_cell_length_a   6.53405605
_cell_length_b   6.54827745
_cell_length_c   7.22633118
_cell_angle_alpha   64.23128454
_cell_angle_beta   63.85481174
_cell_angle_gamma   68.82709850
_symmetry_Int_Tables_number   1
_chemical_formula_structural   Rb2GaCu3F10
_chemical_formula_sum   'Rb2 Ga1 Cu3 F10'
_cell_volume   244.39045311
_cell_formula_units_Z   1
loop_
 _symmetry_equiv_pos_site_id
 _symmetry_equiv_pos_as_xyz
  1  'x, y, z'
loop_
 _atom_site_type_symbol
 _atom_site_label
 _atom_site_symmetry_multiplicity
 _atom_site_fract_x
 _atom_site_fract_y
 _atom_site_fract_z
 _atom_site_occupancy
  Rb  Rb0  1  0.615352  0.606839  0.642241  1
  Rb  Rb1  1  0.384648  0.393161  0.357759  1
  Ga  Ga2  1  0.000000  0.000000  0.500000  1
  Cu  Cu3  1  0.000000  0.000000  0.000000  1
  Cu  Cu4  1  0.000000  0.500000  0.000000  1
  Cu  Cu5  1  0.500000  0.000000  0.000000  1
  F  F6  1  0.276866  0.272088  0.904130  1
  F  F7  1  0.723134  0.727912  0.095870  1
  F  F8  1  0.077195  0.088657  0.678872  1
  F  F9  1  0.922805  0.911343  0.321128  1
  F  F10  1  0.051705  0.677164  0.670775  1
  F  F11  1  0.326824  0.960413  0.323238  1
  F  F12  1  0.948295  0.322836  0.329225  1
  F  F13  1  0.673176  0.039587  0.676762  1
  F  F14  1  0.769334  0.280434  0.000444  1
  F  F15  1  0.230666  0.719566  0.999556  1
