# generated using pymatgen
data_Hf5Zr(CuN)2
_symmetry_space_group_name_H-M   'P 1'
_cell_length_a   8.83636200
_cell_length_b   5.77940345
_cell_length_c   5.77940304
_cell_angle_alpha   33.08825106
_cell_angle_beta   90.00000000
_cell_angle_gamma   90.00000000
_symmetry_Int_Tables_number   1
_chemical_formula_structural   Hf5Zr(CuN)2
_chemical_formula_sum   'Hf5 Zr1 Cu2 N2'
_cell_volume   161.13006741
_cell_formula_units_Z   1
loop_
 _symmetry_equiv_pos_site_id
 _symmetry_equiv_pos_as_xyz
  1  'x, y, z'
loop_
 _atom_site_type_symbol
 _atom_site_label
 _atom_site_symmetry_multiplicity
 _atom_site_fract_x
 _atom_site_fract_y
 _atom_site_fract_z
 _atom_site_occupancy
  Hf  Hf0  1  0.301082  0.370032  0.370032  1
  Hf  Hf1  1  0.698918  0.370032  0.370032  1
  Hf  Hf2  1  0.196701  0.629242  0.629242  1
  Hf  Hf3  1  0.803299  0.629242  0.629242  1
  Hf  Hf4  1  0.000000  0.944750  0.944750  1
  Zr  Zr5  1  0.500000  0.055332  0.055332  1
  Cu  Cu6  1  0.000000  0.249101  0.249101  1
  Cu  Cu7  1  0.500000  0.753713  0.753713  1
  N  N8  1  0.247051  0.999218  0.999218  1
  N  N9  1  0.752950  0.999218  0.999218  1
