# generated using pymatgen
data_Np2UFe2Si7
_symmetry_space_group_name_H-M   'P 1'
_cell_length_a   12.16180670
_cell_length_b   12.16180671
_cell_length_c   4.06278900
_cell_angle_alpha   90.00000000
_cell_angle_beta   90.00000000
_cell_angle_gamma   160.85642158
_symmetry_Int_Tables_number   1
_chemical_formula_structural   Np2UFe2Si7
_chemical_formula_sum   'Np2 U1 Fe2 Si7'
_cell_volume   197.06533909
_cell_formula_units_Z   1
loop_
 _symmetry_equiv_pos_site_id
 _symmetry_equiv_pos_as_xyz
  1  'x, y, z'
loop_
 _atom_site_type_symbol
 _atom_site_label
 _atom_site_symmetry_multiplicity
 _atom_site_fract_x
 _atom_site_fract_y
 _atom_site_fract_z
 _atom_site_occupancy
  Np  Np0  1  0.314760  0.685240  0.000000  1
  Np  Np1  1  0.685240  0.314760  0.000000  1
  U  U2  1  0.000000  0.000000  0.500000  1
  Fe  Fe3  1  0.125651  0.874349  0.500000  1
  Fe  Fe4  1  0.874349  0.125651  0.500000  1
  Si  Si5  1  0.221720  0.778280  0.500000  1
  Si  Si6  1  0.778280  0.221720  0.500000  1
  Si  Si7  1  0.086507  0.913493  0.000000  1
  Si  Si8  1  0.913493  0.086507  0.000000  1
  Si  Si9  1  0.413531  0.586469  0.500000  1
  Si  Si10  1  0.500000  0.500000  0.000000  1
  Si  Si11  1  0.586469  0.413531  0.500000  1
