# generated using pymatgen
data_NaCa2(SnAs)6
_symmetry_space_group_name_H-M   'P 1'
_cell_length_a   7.17280191
_cell_length_b   7.17280261
_cell_length_c   9.33494583
_cell_angle_alpha   82.57554554
_cell_angle_beta   82.57554607
_cell_angle_gamma   119.99539071
_symmetry_Int_Tables_number   1
_chemical_formula_structural   NaCa2(SnAs)6
_chemical_formula_sum   'Na1 Ca2 Sn6 As6'
_cell_volume   401.82057474
_cell_formula_units_Z   1
loop_
 _symmetry_equiv_pos_site_id
 _symmetry_equiv_pos_as_xyz
  1  'x, y, z'
loop_
 _atom_site_type_symbol
 _atom_site_label
 _atom_site_symmetry_multiplicity
 _atom_site_fract_x
 _atom_site_fract_y
 _atom_site_fract_z
 _atom_site_occupancy
  Na  Na0  1  0.000000  0.000000  0.000000  1
  Ca  Ca1  1  0.666628  0.333372  0.000000  1
  Ca  Ca2  1  0.333372  0.666628  0.000000  1
  Sn  Sn3  1  0.543002  0.877018  0.367024  1
  Sn  Sn4  1  0.211438  0.211438  0.368635  1
  Sn  Sn5  1  0.877018  0.543002  0.367024  1
  Sn  Sn6  1  0.456998  0.122982  0.632976  1
  Sn  Sn7  1  0.122982  0.456998  0.632976  1
  Sn  Sn8  1  0.788562  0.788562  0.631365  1
  As  As9  1  0.405532  0.405532  0.788167  1
  As  As10  1  0.070394  0.735597  0.788285  1
  As  As11  1  0.735597  0.070394  0.788285  1
  As  As12  1  0.594468  0.594468  0.211833  1
  As  As13  1  0.264403  0.929606  0.211715  1
  As  As14  1  0.929606  0.264403  0.211715  1
