# generated using pymatgen
data_Pr3Nd(NCl3)2
_symmetry_space_group_name_H-M   'P 1'
_cell_length_a   6.32359400
_cell_length_b   6.94721982
_cell_length_c   13.63378461
_cell_angle_alpha   89.94419941
_cell_angle_beta   90.00000000
_cell_angle_gamma   90.00000000
_symmetry_Int_Tables_number   1
_chemical_formula_structural   Pr3Nd(NCl3)2
_chemical_formula_sum   'Pr6 Nd2 N4 Cl12'
_cell_volume   598.95092864
_cell_formula_units_Z   2
loop_
 _symmetry_equiv_pos_site_id
 _symmetry_equiv_pos_as_xyz
  1  'x, y, z'
loop_
 _atom_site_type_symbol
 _atom_site_label
 _atom_site_symmetry_multiplicity
 _atom_site_fract_x
 _atom_site_fract_y
 _atom_site_fract_z
 _atom_site_occupancy
  Pr  Pr0  1  0.006329  0.324391  0.407516  1
  Pr  Pr1  1  0.506329  0.175609  0.092484  1
  Pr  Pr2  1  0.493703  0.324341  0.592267  1
  Pr  Pr3  1  0.993703  0.175659  0.907733  1
  Pr  Pr4  1  0.993684  0.675916  0.592249  1
  Pr  Pr5  1  0.493684  0.824084  0.907751  1
  Nd  Nd6  1  0.506452  0.674030  0.408095  1
  Nd  Nd7  1  0.006452  0.825970  0.091905  1
  N  N8  1  0.749228  0.493229  0.499642  1
  N  N9  1  0.249228  0.006771  0.000358  1
  N  N10  1  0.250762  0.508234  0.499649  1
  N  N11  1  0.750762  0.991766  0.000351  1
  Cl  Cl12  1  0.103749  0.361532  0.717831  1
  Cl  Cl13  1  0.603749  0.138468  0.782169  1
  Cl  Cl14  1  0.396523  0.362195  0.282390  1
  Cl  Cl15  1  0.896523  0.137805  0.217610  1
  Cl  Cl16  1  0.750297  0.501885  0.000115  1
  Cl  Cl17  1  0.250297  0.998115  0.499885  1
  Cl  Cl18  1  0.249659  0.498837  0.000144  1
  Cl  Cl19  1  0.749659  0.001163  0.499856  1
  Cl  Cl20  1  0.103769  0.861537  0.782121  1
  Cl  Cl21  1  0.603769  0.638463  0.717879  1
  Cl  Cl22  1  0.395845  0.861106  0.218097  1
  Cl  Cl23  1  0.895845  0.638894  0.281903  1
