# generated using pymatgen
data_Sm2Er6Be3Si12Au
_symmetry_space_group_name_H-M   'P 1'
_cell_length_a   7.94303500
_cell_length_b   7.94303740
_cell_length_c   8.09911000
_cell_angle_alpha   90.00000000
_cell_angle_beta   90.00000000
_cell_angle_gamma   120.00000249
_symmetry_Int_Tables_number   1
_chemical_formula_structural   Sm2Er6Be3Si12Au
_chemical_formula_sum   'Sm2 Er6 Be3 Si12 Au1'
_cell_volume   442.52825174
_cell_formula_units_Z   1
loop_
 _symmetry_equiv_pos_site_id
 _symmetry_equiv_pos_as_xyz
  1  'x, y, z'
loop_
 _atom_site_type_symbol
 _atom_site_label
 _atom_site_symmetry_multiplicity
 _atom_site_fract_x
 _atom_site_fract_y
 _atom_site_fract_z
 _atom_site_occupancy
  Sm  Sm0  1  0.000000  0.000000  0.247544  1
  Sm  Sm1  1  0.000000  0.000000  0.752546  1
  Er  Er2  1  0.501711  0.498289  0.246842  1
  Er  Er3  1  0.501711  0.003422  0.246842  1
  Er  Er4  1  0.996578  0.498289  0.246842  1
  Er  Er5  1  0.503400  0.496600  0.753391  1
  Er  Er6  1  0.993200  0.496600  0.753391  1
  Er  Er7  1  0.503400  0.006800  0.753391  1
  Be  Be8  1  0.666667  0.333333  0.498115  1
  Be  Be9  1  0.666667  0.333333  0.002135  1
  Be  Be10  1  0.333333  0.666667  0.995994  1
  Si  Si11  1  0.825484  0.174516  0.499030  1
  Si  Si12  1  0.825484  0.650967  0.499030  1
  Si  Si13  1  0.349033  0.174516  0.499030  1
  Si  Si14  1  0.825785  0.174215  0.000467  1
  Si  Si15  1  0.825785  0.651572  0.000467  1
  Si  Si16  1  0.348428  0.174215  0.000467  1
  Si  Si17  1  0.173054  0.826946  0.999790  1
  Si  Si18  1  0.653891  0.826946  0.999790  1
  Si  Si19  1  0.173054  0.346109  0.999790  1
  Si  Si20  1  0.162330  0.837670  0.500461  1
  Si  Si21  1  0.675341  0.837670  0.500461  1
  Si  Si22  1  0.162330  0.324659  0.500461  1
  Au  Au23  1  0.333333  0.666667  0.503724  1
