# generated using pymatgen
data_Li2TbY4P12Ru17
_symmetry_space_group_name_H-M   'P 1'
_cell_length_a   12.72928937
_cell_length_b   12.53749610
_cell_length_c   3.96497400
_cell_angle_alpha   90.00000000
_cell_angle_beta   90.00000000
_cell_angle_gamma   120.55027175
_symmetry_Int_Tables_number   1
_chemical_formula_structural   Li2TbY4P12Ru17
_chemical_formula_sum   'Li2 Tb1 Y4 P12 Ru17'
_cell_volume   544.94292659
_cell_formula_units_Z   1
loop_
 _symmetry_equiv_pos_site_id
 _symmetry_equiv_pos_as_xyz
  1  'x, y, z'
loop_
 _atom_site_type_symbol
 _atom_site_label
 _atom_site_symmetry_multiplicity
 _atom_site_fract_x
 _atom_site_fract_y
 _atom_site_fract_z
 _atom_site_occupancy
  Li  Li0  1  0.000367  0.562467  0.000000  1
  Li  Li1  1  0.438079  0.437363  0.000000  1
  Tb  Tb2  1  0.001279  0.182163  0.500000  1
  Y  Y3  1  0.819149  0.817727  0.500000  1
  Y  Y4  1  0.183118  0.000176  0.500000  1
  Y  Y5  1  0.662934  0.324811  0.000000  1
  Y  Y6  1  0.337646  0.675022  0.000000  1
  P  P7  1  0.997972  0.808585  0.000000  1
  P  P8  1  0.189358  0.191585  0.000000  1
  P  P9  1  0.819123  0.999813  0.000000  1
  P  P10  1  0.692139  0.168954  0.500000  1
  P  P11  1  0.816301  0.514915  0.500000  1
  P  P12  1  0.476668  0.300377  0.500000  1
  P  P13  1  0.175835  0.699242  0.500000  1
  P  P14  1  0.522808  0.831330  0.500000  1
  P  P15  1  0.301667  0.485223  0.500000  1
  P  P16  1  0.002241  0.371208  0.000000  1
  P  P17  1  0.631048  0.629130  0.000000  1
  P  P18  1  0.376867  0.000027  0.000000  1
  Ru  Ru19  1  0.557276  0.999634  0.000000  1
  Ru  Ru20  1  0.997473  0.711275  0.500000  1
  Ru  Ru21  1  0.286538  0.288930  0.500000  1
  Ru  Ru22  1  0.719084  0.999926  0.500000  1
  Ru  Ru23  1  0.809546  0.185452  0.000000  1
  Ru  Ru24  1  0.811222  0.614302  0.000000  1
  Ru  Ru25  1  0.376474  0.190921  0.000000  1
  Ru  Ru26  1  0.185553  0.808942  0.000000  1
  Ru  Ru27  1  0.623793  0.814346  0.000000  1
  Ru  Ru28  1  0.197343  0.385927  0.000000  1
  Ru  Ru29  1  0.873612  0.366207  0.500000  1
  Ru  Ru30  1  0.627796  0.509359  0.500000  1
  Ru  Ru31  1  0.491706  0.123760  0.500000  1
  Ru  Ru32  1  0.367290  0.875950  0.500000  1
  Ru  Ru33  1  0.507419  0.634251  0.500000  1
  Ru  Ru34  1  0.119029  0.490761  0.500000  1
  Ru  Ru35  1  0.004247  0.999941  0.000000  1
