# generated using pymatgen
data_Ga2SnAu2
_symmetry_space_group_name_H-M   'P 1'
_cell_length_a   4.40416800
_cell_length_b   4.40416855
_cell_length_c   12.89445800
_cell_angle_alpha   90.00000000
_cell_angle_beta   90.00000000
_cell_angle_gamma   119.99999591
_symmetry_Int_Tables_number   1
_chemical_formula_structural   Ga2SnAu2
_chemical_formula_sum   'Ga4 Sn2 Au4'
_cell_volume   216.60154468
_cell_formula_units_Z   2
loop_
 _symmetry_equiv_pos_site_id
 _symmetry_equiv_pos_as_xyz
  1  'x, y, z'
loop_
 _atom_site_type_symbol
 _atom_site_label
 _atom_site_symmetry_multiplicity
 _atom_site_fract_x
 _atom_site_fract_y
 _atom_site_fract_z
 _atom_site_occupancy
  Ga  Ga0  1  0.333333  0.666667  0.929940  1
  Ga  Ga1  1  0.666667  0.333333  0.070060  1
  Ga  Ga2  1  0.666667  0.333333  0.429940  1
  Ga  Ga3  1  0.333333  0.666667  0.570060  1
  Sn  Sn4  1  0.000000  0.000000  0.250000  1
  Sn  Sn5  1  0.000000  0.000000  0.750000  1
  Au  Au6  1  0.333333  0.666667  0.364759  1
  Au  Au7  1  0.666667  0.333333  0.635241  1
  Au  Au8  1  0.666667  0.333333  0.864759  1
  Au  Au9  1  0.333333  0.666667  0.135241  1
