# generated using pymatgen
data_Sm3Dy13(ErPb4)4
_symmetry_space_group_name_H-M   'P 1'
_cell_length_a   8.21548146
_cell_length_b   8.29382929
_cell_length_c   15.67098212
_cell_angle_alpha   90.01483988
_cell_angle_beta   90.29278350
_cell_angle_gamma   89.85597426
_symmetry_Int_Tables_number   1
_chemical_formula_structural   Sm3Dy13(ErPb4)4
_chemical_formula_sum   'Sm3 Dy13 Er4 Pb16'
_cell_volume   1067.76891027
_cell_formula_units_Z   1
loop_
 _symmetry_equiv_pos_site_id
 _symmetry_equiv_pos_as_xyz
  1  'x, y, z'
loop_
 _atom_site_type_symbol
 _atom_site_label
 _atom_site_symmetry_multiplicity
 _atom_site_fract_x
 _atom_site_fract_y
 _atom_site_fract_z
 _atom_site_occupancy
  Sm  Sm0  1  0.031189  0.177576  0.098456  1
  Sm  Sm1  1  0.469486  0.677035  0.902648  1
  Sm  Sm2  1  0.966754  0.823021  0.597913  1
  Dy  Dy3  1  0.623543  0.158572  0.620626  1
  Dy  Dy4  1  0.126427  0.341790  0.878544  1
  Dy  Dy5  1  0.373861  0.842808  0.122470  1
  Dy  Dy6  1  0.875267  0.658009  0.378896  1
  Dy  Dy7  1  0.376943  0.842592  0.378837  1
  Dy  Dy8  1  0.874900  0.657655  0.121939  1
  Dy  Dy9  1  0.624332  0.157423  0.878202  1
  Dy  Dy10  1  0.122259  0.342033  0.620988  1
  Dy  Dy11  1  0.461513  0.674306  0.600664  1
  Dy  Dy12  1  0.963832  0.823642  0.899887  1
  Dy  Dy13  1  0.535460  0.324469  0.100070  1
  Dy  Dy14  1  0.038458  0.176154  0.398878  1
  Dy  Dy15  1  0.536227  0.324784  0.400417  1
  Er  Er16  1  0.791960  0.495112  0.749691  1
  Er  Er17  1  0.292166  0.004703  0.749402  1
  Er  Er18  1  0.207901  0.504249  0.251178  1
  Er  Er19  1  0.707607  0.995318  0.250084  1
  Pb  Pb20  1  0.718368  0.970438  0.455058  1
  Pb  Pb21  1  0.216971  0.534949  0.044357  1
  Pb  Pb22  1  0.282234  0.033173  0.956077  1
  Pb  Pb23  1  0.779361  0.466437  0.542864  1
  Pb  Pb24  1  0.284797  0.036942  0.542095  1
  Pb  Pb25  1  0.787270  0.460471  0.958141  1
  Pb  Pb26  1  0.712780  0.961223  0.042054  1
  Pb  Pb27  1  0.217842  0.534672  0.457393  1
  Pb  Pb28  1  0.428936  0.373884  0.749623  1
  Pb  Pb29  1  0.929156  0.126110  0.749905  1
  Pb  Pb30  1  0.570246  0.625421  0.250360  1
  Pb  Pb31  1  0.070456  0.873632  0.250576  1
  Pb  Pb32  1  0.653786  0.845967  0.748806  1
  Pb  Pb33  1  0.153986  0.653677  0.751328  1
  Pb  Pb34  1  0.348281  0.155436  0.250174  1
  Pb  Pb35  1  0.845447  0.346315  0.251397  1
