# generated using pymatgen
data_Pr3TmMg2Ir3
_symmetry_space_group_name_H-M   'P 1'
_cell_length_a   7.59186900
_cell_length_b   7.60928264
_cell_length_c   4.19663500
_cell_angle_alpha   90.00000000
_cell_angle_beta   90.00000000
_cell_angle_gamma   119.92433110
_symmetry_Int_Tables_number   1
_chemical_formula_structural   Pr3TmMg2Ir3
_chemical_formula_sum   'Pr3 Tm1 Mg2 Ir3'
_cell_volume   210.11395216
_cell_formula_units_Z   1
loop_
 _symmetry_equiv_pos_site_id
 _symmetry_equiv_pos_as_xyz
  1  'x, y, z'
loop_
 _atom_site_type_symbol
 _atom_site_label
 _atom_site_symmetry_multiplicity
 _atom_site_fract_x
 _atom_site_fract_y
 _atom_site_fract_z
 _atom_site_occupancy
  Pr  Pr0  1  0.394458  0.000000  0.500000  1
  Pr  Pr1  1  0.015367  0.431190  0.500000  1
  Pr  Pr2  1  0.584175  0.568810  0.500000  1
  Tm  Tm3  1  0.754202  0.000000  0.000000  1
  Mg  Mg4  1  0.241991  0.243843  0.000000  1
  Mg  Mg5  1  0.998149  0.756156  0.000000  1
  Ir  Ir6  1  0.671401  0.327656  0.000000  1
  Ir  Ir7  1  0.343745  0.672344  0.000000  1
  Ir  Ir8  1  0.996512  0.000000  0.500000  1
