# generated using pymatgen
data_Dy11Ho9Ir11Ru
_symmetry_space_group_name_H-M   'P 1'
_cell_length_a   10.85284701
_cell_length_b   10.85097001
_cell_length_c   6.38782301
_cell_angle_alpha   89.99607141
_cell_angle_beta   90.00395675
_cell_angle_gamma   90.00093987
_symmetry_Int_Tables_number   1
_chemical_formula_structural   Dy11Ho9Ir11Ru
_chemical_formula_sum   'Dy11 Ho9 Ir11 Ru1'
_cell_volume   752.25505710
_cell_formula_units_Z   1
loop_
 _symmetry_equiv_pos_site_id
 _symmetry_equiv_pos_as_xyz
  1  'x, y, z'
loop_
 _atom_site_type_symbol
 _atom_site_label
 _atom_site_symmetry_multiplicity
 _atom_site_fract_x
 _atom_site_fract_y
 _atom_site_fract_z
 _atom_site_occupancy
  Dy  Dy0  1  0.292127  0.087199  0.376674  1
  Dy  Dy1  1  0.292434  0.912753  0.879448  1
  Dy  Dy2  1  0.707565  0.087238  0.879454  1
  Dy  Dy3  1  0.707879  0.912771  0.376709  1
  Dy  Dy4  1  0.587256  0.792430  0.879485  1
  Dy  Dy5  1  0.587151  0.207843  0.376802  1
  Dy  Dy6  1  0.412857  0.792155  0.376774  1
  Dy  Dy7  1  0.412804  0.207523  0.879551  1
  Dy  Dy8  1  0.209065  0.411839  0.622020  1
  Dy  Dy9  1  0.209070  0.588021  0.121698  1
  Dy  Dy10  1  0.790929  0.412030  0.121668  1
  Ho  Ho11  1  0.791116  0.588142  0.621825  1
  Ho  Ho12  1  0.911997  0.709001  0.121493  1
  Ho  Ho13  1  0.911891  0.291031  0.621850  1
  Ho  Ho14  1  0.087969  0.709031  0.621834  1
  Ho  Ho15  1  0.087928  0.290963  0.121507  1
  Ho  Ho16  1  0.999984  0.999997  0.499486  1
  Ho  Ho17  1  0.000007  0.999994  0.999416  1
  Ho  Ho18  1  0.500020  0.500008  0.999382  1
  Ho  Ho19  1  0.500105  0.500044  0.499506  1
  Ir  Ir20  1  0.847443  0.153637  0.250289  1
  Ir  Ir21  1  0.847489  0.846536  0.749953  1
  Ir  Ir22  1  0.152479  0.153295  0.750028  1
  Ir  Ir23  1  0.152557  0.846361  0.250301  1
  Ir  Ir24  1  0.653360  0.347408  0.749631  1
  Ir  Ir25  1  0.653755  0.652733  0.250275  1
  Ir  Ir26  1  0.346354  0.347196  0.249951  1
  Ir  Ir27  1  0.346696  0.652701  0.749697  1
  Ir  Ir28  1  0.500001  0.999996  0.622609  1
  Ir  Ir29  1  0.999872  0.500061  0.878590  1
  Ir  Ir30  1  0.999848  0.500056  0.379030  1
  Ru  Ru31  1  0.499992  0.000005  0.123069  1
