# generated using pymatgen
data_Tm2Ti2Si2Ge2Mo
_symmetry_space_group_name_H-M   'P 1'
_cell_length_a   6.97267700
_cell_length_b   6.80404457
_cell_length_c   7.06234276
_cell_angle_alpha   71.00228629
_cell_angle_beta   90.00000000
_cell_angle_gamma   90.00000000
_symmetry_Int_Tables_number   1
_chemical_formula_structural   Tm2Ti2Si2Ge2Mo
_chemical_formula_sum   'Tm4 Ti4 Si4 Ge4 Mo2'
_cell_volume   316.80463069
_cell_formula_units_Z   2
loop_
 _symmetry_equiv_pos_site_id
 _symmetry_equiv_pos_as_xyz
  1  'x, y, z'
loop_
 _atom_site_type_symbol
 _atom_site_label
 _atom_site_symmetry_multiplicity
 _atom_site_fract_x
 _atom_site_fract_y
 _atom_site_fract_z
 _atom_site_occupancy
  Tm  Tm0  1  0.327142  0.563436  0.803619  1
  Tm  Tm1  1  0.827142  0.936564  0.196381  1
  Tm  Tm2  1  0.672858  0.436564  0.196381  1
  Tm  Tm3  1  0.172858  0.063436  0.803619  1
  Ti  Ti4  1  0.825439  0.749060  0.739469  1
  Ti  Ti5  1  0.325439  0.750940  0.260531  1
  Ti  Ti6  1  0.174561  0.250940  0.260531  1
  Ti  Ti7  1  0.674561  0.249060  0.739469  1
  Si  Si8  1  0.125506  0.868804  0.503519  1
  Si  Si9  1  0.625506  0.631196  0.496481  1
  Si  Si10  1  0.874494  0.131196  0.496481  1
  Si  Si11  1  0.374494  0.368804  0.503519  1
  Ge  Ge12  1  0.542246  0.856992  0.917085  1
  Ge  Ge13  1  0.042246  0.643008  0.082915  1
  Ge  Ge14  1  0.457754  0.143008  0.082915  1
  Ge  Ge15  1  0.957754  0.356992  0.917085  1
  Mo  Mo16  1  0.500000  0.000000  0.500000  1
  Mo  Mo17  1  0.000000  0.500000  0.500000  1
