# generated using pymatgen
data_Dy5Y5(GePb3)2
_symmetry_space_group_name_H-M   'P 1'
_cell_length_a   9.35376000
_cell_length_b   9.34937411
_cell_length_c   6.56705100
_cell_angle_alpha   90.00000000
_cell_angle_beta   90.00000000
_cell_angle_gamma   120.01551925
_symmetry_Int_Tables_number   1
_chemical_formula_structural   Dy5Y5(GePb3)2
_chemical_formula_sum   'Dy5 Y5 Ge2 Pb6'
_cell_volume   497.28097518
_cell_formula_units_Z   1
loop_
 _symmetry_equiv_pos_site_id
 _symmetry_equiv_pos_as_xyz
  1  'x, y, z'
loop_
 _atom_site_type_symbol
 _atom_site_label
 _atom_site_symmetry_multiplicity
 _atom_site_fract_x
 _atom_site_fract_y
 _atom_site_fract_z
 _atom_site_occupancy
  Dy  Dy0  1  0.748586  0.000000  0.750000  1
  Dy  Dy1  1  0.000012  0.251427  0.250000  1
  Dy  Dy2  1  0.999969  0.748531  0.750000  1
  Dy  Dy3  1  0.748585  0.748573  0.250000  1
  Dy  Dy4  1  0.251439  0.251469  0.750000  1
  Y  Y5  1  0.251600  0.000000  0.250000  1
  Y  Y6  1  0.333341  0.666661  0.999982  1
  Y  Y7  1  0.666680  0.333339  0.999982  1
  Y  Y8  1  0.666680  0.333339  0.500018  1
  Y  Y9  1  0.333341  0.666661  0.500018  1
  Ge  Ge10  1  0.999820  0.000000  0.999881  1
  Ge  Ge11  1  0.999820  0.000000  0.500119  1
  Pb  Pb12  1  0.608127  0.000000  0.250000  1
  Pb  Pb13  1  0.392020  0.000000  0.750000  1
  Pb  Pb14  1  0.999933  0.607961  0.250000  1
  Pb  Pb15  1  0.000007  0.391937  0.750000  1
  Pb  Pb16  1  0.391972  0.392039  0.250000  1
  Pb  Pb17  1  0.608070  0.608063  0.750000  1
