# generated using pymatgen
data_Be7Fe5(W6C)2
_symmetry_space_group_name_H-M   'P 1'
_cell_length_a   7.60055279
_cell_length_b   7.60055319
_cell_length_c   7.60055288
_cell_angle_alpha   59.97908483
_cell_angle_beta   59.97908290
_cell_angle_gamma   59.97908275
_symmetry_Int_Tables_number   1
_chemical_formula_structural   Be7Fe5(W6C)2
_chemical_formula_sum   'Be7 Fe5 W12 C2'
_cell_volume   310.32340936
_cell_formula_units_Z   1
loop_
 _symmetry_equiv_pos_site_id
 _symmetry_equiv_pos_as_xyz
  1  'x, y, z'
loop_
 _atom_site_type_symbol
 _atom_site_label
 _atom_site_symmetry_multiplicity
 _atom_site_fract_x
 _atom_site_fract_y
 _atom_site_fract_z
 _atom_site_occupancy
  Be  Be0  1  0.421845  0.421845  0.737645  1
  Be  Be1  1  0.421845  0.737645  0.421845  1
  Be  Be2  1  0.737645  0.421845  0.421845  1
  Be  Be3  1  0.418986  0.418986  0.418986  1
  Be  Be4  1  0.828787  0.828787  0.511516  1
  Be  Be5  1  0.828787  0.511516  0.828787  1
  Be  Be6  1  0.511516  0.828787  0.828787  1
  Fe  Fe7  1  0.826215  0.826215  0.826215  1
  Fe  Fe8  1  0.623543  0.623543  0.127423  1
  Fe  Fe9  1  0.623543  0.127423  0.623543  1
  Fe  Fe10  1  0.127423  0.623543  0.623543  1
  Fe  Fe11  1  0.624874  0.624874  0.624874  1
  W  W12  1  0.050735  0.050735  0.447554  1
  W  W13  1  0.451479  0.047412  0.451479  1
  W  W14  1  0.047412  0.451479  0.451479  1
  W  W15  1  0.451479  0.451479  0.047412  1
  W  W16  1  0.050735  0.447554  0.050735  1
  W  W17  1  0.447554  0.050735  0.050735  1
  W  W18  1  0.202076  0.202076  0.798899  1
  W  W19  1  0.798880  0.203874  0.798880  1
  W  W20  1  0.203874  0.798880  0.798880  1
  W  W21  1  0.798880  0.798880  0.203874  1
  W  W22  1  0.202076  0.798899  0.202076  1
  W  W23  1  0.798899  0.202076  0.202076  1
  C  C24  1  0.250720  0.250720  0.250720  1
  C  C25  1  0.000195  0.000195  0.000195  1
