# generated using pymatgen
data_Al6V6IrRu11
_symmetry_space_group_name_H-M   'P 1'
_cell_length_a   4.23612111
_cell_length_b   5.98683004
_cell_length_c   12.68261700
_cell_angle_alpha   89.99323380
_cell_angle_beta   90.01332265
_cell_angle_gamma   90.00099688
_symmetry_Int_Tables_number   1
_chemical_formula_structural   Al6V6IrRu11
_chemical_formula_sum   'Al6 V6 Ir1 Ru11'
_cell_volume   321.64304168
_cell_formula_units_Z   1
loop_
 _symmetry_equiv_pos_site_id
 _symmetry_equiv_pos_as_xyz
  1  'x, y, z'
loop_
 _atom_site_type_symbol
 _atom_site_label
 _atom_site_symmetry_multiplicity
 _atom_site_fract_x
 _atom_site_fract_y
 _atom_site_fract_z
 _atom_site_occupancy
  Al  Al0  1  0.000001  0.501033  0.000007  1
  Al  Al1  1  0.499924  0.999756  0.167371  1
  Al  Al2  1  0.999912  0.499608  0.333577  1
  Al  Al3  1  0.500001  0.000328  0.500013  1
  Al  Al4  1  0.000096  0.499607  0.666417  1
  Al  Al5  1  0.500071  0.999758  0.832622  1
  V  V6  1  0.000003  0.993208  0.999995  1
  V  V7  1  0.499893  0.502702  0.169962  1
  V  V8  1  0.999907  0.000231  0.333950  1
  V  V9  1  0.499997  0.499924  0.500002  1
  V  V10  1  0.000096  0.000253  0.666055  1
  V  V11  1  0.500099  0.502694  0.830020  1
  Ir  Ir12  1  0.499999  0.249838  0.000007  1
  Ru  Ru13  1  0.499989  0.750573  0.000020  1
  Ru  Ru14  1  0.999912  0.250315  0.165676  1
  Ru  Ru15  1  0.999953  0.749776  0.166412  1
  Ru  Ru16  1  0.499915  0.250155  0.332775  1
  Ru  Ru17  1  0.499923  0.750003  0.333155  1
  Ru  Ru18  1  0.999996  0.249977  0.500019  1
  Ru  Ru19  1  0.000012  0.750016  0.500016  1
  Ru  Ru20  1  0.500081  0.250105  0.667217  1
  Ru  Ru21  1  0.500078  0.750068  0.666832  1
  Ru  Ru22  1  0.000085  0.250244  0.834307  1
  Ru  Ru23  1  0.000043  0.749830  0.833573  1
