# generated using pymatgen
data_Tm3Zn3Hg2Ru
_symmetry_space_group_name_H-M   'P 1'
_cell_length_a   7.68525800
_cell_length_b   7.68525643
_cell_length_c   3.69322000
_cell_angle_alpha   90.00000000
_cell_angle_beta   90.00000000
_cell_angle_gamma   119.99998956
_symmetry_Int_Tables_number   1
_chemical_formula_structural   Tm3Zn3Hg2Ru
_chemical_formula_sum   'Tm3 Zn3 Hg2 Ru1'
_cell_volume   188.90900935
_cell_formula_units_Z   1
loop_
 _symmetry_equiv_pos_site_id
 _symmetry_equiv_pos_as_xyz
  1  'x, y, z'
loop_
 _atom_site_type_symbol
 _atom_site_label
 _atom_site_symmetry_multiplicity
 _atom_site_fract_x
 _atom_site_fract_y
 _atom_site_fract_z
 _atom_site_occupancy
  Tm  Tm0  1  0.384980  0.418422  0.000000  1
  Tm  Tm1  1  0.581578  0.966558  0.000000  1
  Tm  Tm2  1  0.033442  0.615020  0.000000  1
  Zn  Zn3  1  0.712774  0.725225  0.500000  1
  Zn  Zn4  1  0.274775  0.987549  0.500000  1
  Zn  Zn5  1  0.012451  0.287226  0.500000  1
  Hg  Hg6  1  0.000000  0.000000  0.000000  1
  Hg  Hg7  1  0.666667  0.333333  0.500000  1
  Ru  Ru8  1  0.333333  0.666667  0.500000  1
