# generated using pymatgen
data_TbHo11Si11Ni
_symmetry_space_group_name_H-M   'P 1'
_cell_length_a   3.84193900
_cell_length_b   5.68020334
_cell_length_c   23.65664932
_cell_angle_alpha   82.76051799
_cell_angle_beta   90.00000000
_cell_angle_gamma   90.00000000
_symmetry_Int_Tables_number   1
_chemical_formula_structural   TbHo11Si11Ni
_chemical_formula_sum   'Tb1 Ho11 Si11 Ni1'
_cell_volume   512.14336856
_cell_formula_units_Z   1
loop_
 _symmetry_equiv_pos_site_id
 _symmetry_equiv_pos_as_xyz
  1  'x, y, z'
loop_
 _atom_site_type_symbol
 _atom_site_label
 _atom_site_symmetry_multiplicity
 _atom_site_fract_x
 _atom_site_fract_y
 _atom_site_fract_z
 _atom_site_occupancy
  Tb  Tb0  1  0.750000  0.171218  0.893528  1
  Ho  Ho1  1  0.750000  0.357857  0.066070  1
  Ho  Ho2  1  0.250000  0.662499  0.940482  1
  Ho  Ho3  1  0.750000  0.521100  0.221115  1
  Ho  Ho4  1  0.250000  0.469273  0.773035  1
  Ho  Ho5  1  0.750000  0.168239  0.392931  1
  Ho  Ho6  1  0.250000  0.826535  0.606338  1
  Ho  Ho7  1  0.750000  0.351477  0.559277  1
  Ho  Ho8  1  0.250000  0.643477  0.439453  1
  Ho  Ho9  1  0.750000  0.994928  0.726201  1
  Ho  Ho10  1  0.250000  0.995987  0.272709  1
  Ho  Ho11  1  0.250000  0.837011  0.108744  1
  Si  Si12  1  0.750000  0.876156  0.014075  1
  Si  Si13  1  0.250000  0.150025  0.989661  1
  Si  Si14  1  0.750000  0.052480  0.179363  1
  Si  Si15  1  0.250000  0.956651  0.820611  1
  Si  Si16  1  0.750000  0.703990  0.345030  1
  Si  Si17  1  0.250000  0.288458  0.653509  1
  Si  Si18  1  0.750000  0.861968  0.511952  1
  Si  Si19  1  0.250000  0.133402  0.486767  1
  Si  Si20  1  0.750000  0.533316  0.678980  1
  Si  Si21  1  0.250000  0.461473  0.318712  1
  Si  Si22  1  0.750000  0.682836  0.845697  1
  Ni  Ni23  1  0.250000  0.299645  0.155756  1
