# generated using pymatgen
data_Sr2Er3Pb4
_symmetry_space_group_name_H-M   'P 1'
_cell_length_a   8.15587600
_cell_length_b   8.65290500
_cell_length_c   16.25214800
_cell_angle_alpha   90.00000000
_cell_angle_beta   90.00000000
_cell_angle_gamma   90.00000000
_symmetry_Int_Tables_number   1
_chemical_formula_structural   Sr2Er3Pb4
_chemical_formula_sum   'Sr8 Er12 Pb16'
_cell_volume   1146.94691727
_cell_formula_units_Z   4
loop_
 _symmetry_equiv_pos_site_id
 _symmetry_equiv_pos_as_xyz
  1  'x, y, z'
loop_
 _atom_site_type_symbol
 _atom_site_label
 _atom_site_symmetry_multiplicity
 _atom_site_fract_x
 _atom_site_fract_y
 _atom_site_fract_z
 _atom_site_occupancy
  Sr  Sr0  1  0.009578  0.180107  0.091500  1
  Sr  Sr1  1  0.509578  0.319893  0.408500  1
  Sr  Sr2  1  0.490422  0.680107  0.908500  1
  Sr  Sr3  1  0.990422  0.819893  0.591500  1
  Sr  Sr4  1  0.990422  0.819893  0.908500  1
  Sr  Sr5  1  0.490422  0.680107  0.591500  1
  Sr  Sr6  1  0.509578  0.319893  0.091500  1
  Sr  Sr7  1  0.009578  0.180107  0.408500  1
  Er  Er8  1  0.835834  0.656666  0.124368  1
  Er  Er9  1  0.335834  0.843334  0.375632  1
  Er  Er10  1  0.664166  0.156666  0.875632  1
  Er  Er11  1  0.164166  0.343334  0.624368  1
  Er  Er12  1  0.164166  0.343334  0.875632  1
  Er  Er13  1  0.664166  0.156666  0.624368  1
  Er  Er14  1  0.335834  0.843334  0.124368  1
  Er  Er15  1  0.835834  0.656666  0.375632  1
  Er  Er16  1  0.676002  0.002914  0.250000  1
  Er  Er17  1  0.176002  0.497086  0.250000  1
  Er  Er18  1  0.823998  0.502914  0.750000  1
  Er  Er19  1  0.323998  0.997086  0.750000  1
  Pb  Pb20  1  0.034559  0.861506  0.250000  1
  Pb  Pb21  1  0.534559  0.638494  0.250000  1
  Pb  Pb22  1  0.465441  0.361506  0.750000  1
  Pb  Pb23  1  0.965441  0.138494  0.750000  1
  Pb  Pb24  1  0.811826  0.356548  0.250000  1
  Pb  Pb25  1  0.311826  0.143452  0.250000  1
  Pb  Pb26  1  0.688174  0.856548  0.750000  1
  Pb  Pb27  1  0.188174  0.643452  0.750000  1
  Pb  Pb28  1  0.822862  0.455880  0.955402  1
  Pb  Pb29  1  0.322862  0.044120  0.544598  1
  Pb  Pb30  1  0.677138  0.955880  0.044598  1
  Pb  Pb31  1  0.177138  0.544120  0.455402  1
  Pb  Pb32  1  0.177138  0.544120  0.044598  1
  Pb  Pb33  1  0.677138  0.955880  0.455402  1
  Pb  Pb34  1  0.322862  0.044120  0.955402  1
  Pb  Pb35  1  0.822862  0.455880  0.544598  1
