# generated using pymatgen
data_Tb2Yb(MnC3)2
_symmetry_space_group_name_H-M   'P 1'
_cell_length_a   8.10068102
_cell_length_b   8.07585488
_cell_length_c   4.99623700
_cell_angle_alpha   90.00000000
_cell_angle_beta   90.00000000
_cell_angle_gamma   120.10927703
_symmetry_Int_Tables_number   1
_chemical_formula_structural   Tb2Yb(MnC3)2
_chemical_formula_sum   'Tb4 Yb2 Mn4 C12'
_cell_volume   282.75117867
_cell_formula_units_Z   2
loop_
 _symmetry_equiv_pos_site_id
 _symmetry_equiv_pos_as_xyz
  1  'x, y, z'
loop_
 _atom_site_type_symbol
 _atom_site_label
 _atom_site_symmetry_multiplicity
 _atom_site_fract_x
 _atom_site_fract_y
 _atom_site_fract_z
 _atom_site_occupancy
  Tb  Tb0  1  0.685567  0.068150  0.250000  1
  Tb  Tb1  1  0.310769  0.931500  0.750000  1
  Tb  Tb2  1  0.067351  0.383787  0.750000  1
  Tb  Tb3  1  0.381972  0.315667  0.250000  1
  Yb  Yb4  1  0.613327  0.683149  0.750000  1
  Yb  Yb5  1  0.928269  0.614347  0.250000  1
  Mn  Mn6  1  0.996865  0.996253  0.500393  1
  Mn  Mn7  1  0.996865  0.996253  0.999607  1
  Mn  Mn8  1  0.666635  0.329929  0.750000  1
  Mn  Mn9  1  0.337011  0.668173  0.250000  1
  C  C10  1  0.957321  0.771657  0.750000  1
  C  C11  1  0.190079  0.961675  0.250000  1
  C  C12  1  0.776957  0.819680  0.250000  1
  C  C13  1  0.229467  0.193918  0.750000  1
  C  C14  1  0.817899  0.039877  0.750000  1
  C  C15  1  0.036392  0.228908  0.250000  1
  C  C16  1  0.857757  0.577474  0.750000  1
  C  C17  1  0.281315  0.859073  0.250000  1
  C  C18  1  0.583163  0.719357  0.250000  1
  C  C19  1  0.423891  0.282522  0.750000  1
  C  C20  1  0.142440  0.423901  0.250000  1
  C  C21  1  0.718688  0.134750  0.750000  1
