# generated using pymatgen
data_YbEr2Ga9Pd2
_symmetry_space_group_name_H-M   'P 1'
_cell_length_a   8.13972677
_cell_length_b   8.13972648
_cell_length_c   8.13972617
_cell_angle_alpha   149.17965552
_cell_angle_beta   108.94102430
_cell_angle_gamma   79.43372368
_symmetry_Int_Tables_number   1
_chemical_formula_structural   YbEr2Ga9Pd2
_chemical_formula_sum   'Yb1 Er2 Ga9 Pd2'
_cell_volume   256.23507244
_cell_formula_units_Z   1
loop_
 _symmetry_equiv_pos_site_id
 _symmetry_equiv_pos_as_xyz
  1  'x, y, z'
loop_
 _atom_site_type_symbol
 _atom_site_label
 _atom_site_symmetry_multiplicity
 _atom_site_fract_x
 _atom_site_fract_y
 _atom_site_fract_z
 _atom_site_occupancy
  Yb  Yb0  1  0.500000  0.500000  0.000000  1
  Er  Er1  1  0.202402  0.202402  0.000000  1
  Er  Er2  1  0.797598  0.797598  0.000000  1
  Ga  Ga3  1  0.077334  0.359530  0.717804  1
  Ga  Ga4  1  0.922666  0.640470  0.282196  1
  Ga  Ga5  1  0.641726  0.359530  0.282196  1
  Ga  Ga6  1  0.358274  0.640470  0.717804  1
  Ga  Ga7  1  0.789840  0.155596  0.634244  1
  Ga  Ga8  1  0.210160  0.844404  0.365756  1
  Ga  Ga9  1  0.521351  0.155596  0.365756  1
  Ga  Ga10  1  0.478649  0.844404  0.634244  1
  Ga  Ga11  1  0.000000  0.500000  0.500000  1
  Pd  Pd12  1  0.820943  0.000000  0.820943  1
  Pd  Pd13  1  0.179057  0.000000  0.179057  1
