# generated using pymatgen
data_Cs2Sr(SeO3)2
_symmetry_space_group_name_H-M   'P 1'
_cell_length_a   8.06366351
_cell_length_b   8.06366420
_cell_length_c   8.06366302
_cell_angle_alpha   44.99890841
_cell_angle_beta   44.99890410
_cell_angle_gamma   44.99890024
_symmetry_Int_Tables_number   1
_chemical_formula_structural   Cs2Sr(SeO3)2
_chemical_formula_sum   'Cs2 Sr1 Se2 O6'
_cell_volume   238.60346240
_cell_formula_units_Z   1
loop_
 _symmetry_equiv_pos_site_id
 _symmetry_equiv_pos_as_xyz
  1  'x, y, z'
loop_
 _atom_site_type_symbol
 _atom_site_label
 _atom_site_symmetry_multiplicity
 _atom_site_fract_x
 _atom_site_fract_y
 _atom_site_fract_z
 _atom_site_occupancy
  Cs  Cs0  1  0.201329  0.201329  0.201329  1
  Cs  Cs1  1  0.798671  0.798671  0.798671  1
  Sr  Sr2  1  0.000000  0.000000  0.000000  1
  Se  Se3  1  0.375331  0.375331  0.375331  1
  Se  Se4  1  0.624669  0.624669  0.624669  1
  O  O5  1  0.703031  0.259865  0.259866  1
  O  O6  1  0.259865  0.703031  0.259866  1
  O  O7  1  0.740134  0.740134  0.296968  1
  O  O8  1  0.259865  0.259865  0.703032  1
  O  O9  1  0.740135  0.296969  0.740133  1
  O  O10  1  0.296969  0.740135  0.740133  1
