# generated using pymatgen
data_SrCaHgAs2
_symmetry_space_group_name_H-M   'P 1'
_cell_length_a   8.89886766
_cell_length_b   8.89886720
_cell_length_c   7.12785700
_cell_angle_alpha   90.00000000
_cell_angle_beta   90.00000000
_cell_angle_gamma   151.14248879
_symmetry_Int_Tables_number   1
_chemical_formula_structural   SrCaHgAs2
_chemical_formula_sum   'Sr2 Ca2 Hg2 As4'
_cell_volume   272.42408152
_cell_formula_units_Z   2
loop_
 _symmetry_equiv_pos_site_id
 _symmetry_equiv_pos_as_xyz
  1  'x, y, z'
loop_
 _atom_site_type_symbol
 _atom_site_label
 _atom_site_symmetry_multiplicity
 _atom_site_fract_x
 _atom_site_fract_y
 _atom_site_fract_z
 _atom_site_occupancy
  Sr  Sr0  1  0.300463  0.699537  0.938062  1
  Sr  Sr1  1  0.699537  0.300463  0.438062  1
  Ca  Ca2  1  0.471740  0.528260  0.273813  1
  Ca  Ca3  1  0.528260  0.471740  0.773813  1
  Hg  Hg4  1  0.098127  0.901873  0.104936  1
  Hg  Hg5  1  0.901873  0.098127  0.604936  1
  As  As6  1  0.062240  0.937760  0.489536  1
  As  As7  1  0.937760  0.062240  0.989536  1
  As  As8  1  0.324219  0.675781  0.482322  1
  As  As9  1  0.675781  0.324219  0.982322  1
