# generated using pymatgen
data_Dy15YIn3HgRh4
_symmetry_space_group_name_H-M   'P 1'
_cell_length_a   9.63708135
_cell_length_b   9.63708193
_cell_length_c   9.63721906
_cell_angle_alpha   60.02808671
_cell_angle_beta   60.02808466
_cell_angle_gamma   60.02734210
_symmetry_Int_Tables_number   1
_chemical_formula_structural   Dy15YIn3HgRh4
_chemical_formula_sum   'Dy15 Y1 In3 Hg1 Rh4'
_cell_volume   633.28876090
_cell_formula_units_Z   1
loop_
 _symmetry_equiv_pos_site_id
 _symmetry_equiv_pos_as_xyz
  1  'x, y, z'
loop_
 _atom_site_type_symbol
 _atom_site_label
 _atom_site_symmetry_multiplicity
 _atom_site_fract_x
 _atom_site_fract_y
 _atom_site_fract_z
 _atom_site_occupancy
  Dy  Dy0  1  0.601865  0.601865  0.197993  1
  Dy  Dy1  1  0.439780  0.059544  0.439302  1
  Dy  Dy2  1  0.439625  0.439625  0.059502  1
  Dy  Dy3  1  0.813049  0.184747  0.813445  1
  Dy  Dy4  1  0.188350  0.811468  0.188461  1
  Dy  Dy5  1  0.436644  0.061057  0.061225  1
  Dy  Dy6  1  0.184747  0.813049  0.813445  1
  Dy  Dy7  1  0.061057  0.436644  0.061225  1
  Dy  Dy8  1  0.813570  0.813570  0.184465  1
  Dy  Dy9  1  0.198047  0.601981  0.601848  1
  Dy  Dy10  1  0.059544  0.439780  0.439302  1
  Dy  Dy11  1  0.061240  0.061240  0.436269  1
  Dy  Dy12  1  0.811468  0.188350  0.188461  1
  Dy  Dy13  1  0.601981  0.198047  0.601848  1
  Dy  Dy14  1  0.598367  0.598367  0.598395  1
  Y  Y15  1  0.188013  0.188013  0.812025  1
  In  In16  1  0.831853  0.831853  0.503405  1
  In  In17  1  0.503249  0.831876  0.831965  1
  In  In18  1  0.831876  0.503249  0.831965  1
  Hg  Hg19  1  0.835904  0.835904  0.835973  1
  Rh  Rh20  1  0.391679  0.822803  0.391691  1
  Rh  Rh21  1  0.393488  0.393488  0.393164  1
  Rh  Rh22  1  0.822803  0.391679  0.391691  1
  Rh  Rh23  1  0.391805  0.391805  0.822939  1
