# generated using pymatgen
data_Tb3YTm4(ReC2)4
_symmetry_space_group_name_H-M   'P 1'
_cell_length_a   5.08728000
_cell_length_b   6.57961141
_cell_length_c   9.80824462
_cell_angle_alpha   89.95939895
_cell_angle_beta   90.00000000
_cell_angle_gamma   90.00000000
_symmetry_Int_Tables_number   1
_chemical_formula_structural   Tb3YTm4(ReC2)4
_chemical_formula_sum   'Tb3 Y1 Tm4 Re4 C8'
_cell_volume   328.30467441
_cell_formula_units_Z   1
loop_
 _symmetry_equiv_pos_site_id
 _symmetry_equiv_pos_as_xyz
  1  'x, y, z'
loop_
 _atom_site_type_symbol
 _atom_site_label
 _atom_site_symmetry_multiplicity
 _atom_site_fract_x
 _atom_site_fract_y
 _atom_site_fract_z
 _atom_site_occupancy
  Tb  Tb0  1  0.250000  0.033103  0.285265  1
  Tb  Tb1  1  0.750000  0.966809  0.714790  1
  Tb  Tb2  1  0.250000  0.533082  0.214836  1
  Y  Y3  1  0.750000  0.466589  0.784966  1
  Tm  Tm4  1  0.750000  0.823932  0.057417  1
  Tm  Tm5  1  0.250000  0.676192  0.557622  1
  Tm  Tm6  1  0.750000  0.323653  0.442487  1
  Tm  Tm7  1  0.250000  0.176424  0.942373  1
  Re  Re8  1  0.750000  0.278153  0.133545  1
  Re  Re9  1  0.250000  0.222056  0.633605  1
  Re  Re10  1  0.750000  0.777885  0.366470  1
  Re  Re11  1  0.250000  0.721886  0.866488  1
  C  C12  1  0.750000  0.172889  0.950355  1
  C  C13  1  0.250000  0.827574  0.049536  1
  C  C14  1  0.750000  0.672367  0.549693  1
  C  C15  1  0.250000  0.327542  0.450386  1
  C  C16  1  0.750000  0.045929  0.259906  1
  C  C17  1  0.250000  0.453986  0.760071  1
  C  C18  1  0.750000  0.545994  0.240090  1
  C  C19  1  0.250000  0.953956  0.740100  1
