# generated using pymatgen
data_Pr8YLuPb8
_symmetry_space_group_name_H-M   'P 1'
_cell_length_a   8.40452100
_cell_length_b   8.52220400
_cell_length_c   16.26206000
_cell_angle_alpha   90.00000000
_cell_angle_beta   90.00000000
_cell_angle_gamma   90.00000000
_symmetry_Int_Tables_number   1
_chemical_formula_structural   Pr8YLuPb8
_chemical_formula_sum   'Pr16 Y2 Lu2 Pb16'
_cell_volume   1164.77073838
_cell_formula_units_Z   2
loop_
 _symmetry_equiv_pos_site_id
 _symmetry_equiv_pos_as_xyz
  1  'x, y, z'
loop_
 _atom_site_type_symbol
 _atom_site_label
 _atom_site_symmetry_multiplicity
 _atom_site_fract_x
 _atom_site_fract_y
 _atom_site_fract_z
 _atom_site_occupancy
  Pr  Pr0  1  0.468743  0.822706  0.400107  1
  Pr  Pr1  1  0.031257  0.322706  0.900107  1
  Pr  Pr2  1  0.031257  0.322706  0.599893  1
  Pr  Pr3  1  0.875499  0.840578  0.880157  1
  Pr  Pr4  1  0.468743  0.822706  0.099893  1
  Pr  Pr5  1  0.376726  0.658343  0.879828  1
  Pr  Pr6  1  0.624501  0.340578  0.119843  1
  Pr  Pr7  1  0.624501  0.340578  0.380157  1
  Pr  Pr8  1  0.531999  0.178397  0.599561  1
  Pr  Pr9  1  0.376726  0.658343  0.620172  1
  Pr  Pr10  1  0.531999  0.178397  0.900439  1
  Pr  Pr11  1  0.968001  0.678397  0.400439  1
  Pr  Pr12  1  0.968001  0.678397  0.099561  1
  Pr  Pr13  1  0.123274  0.158343  0.120172  1
  Pr  Pr14  1  0.875499  0.840578  0.619843  1
  Pr  Pr15  1  0.123274  0.158343  0.379828  1
  Y  Y16  1  0.292558  0.497183  0.250000  1
  Y  Y17  1  0.207442  0.997183  0.750000  1
  Lu  Lu18  1  0.791591  0.003497  0.250000  1
  Lu  Lu19  1  0.708409  0.503497  0.750000  1
  Pb  Pb20  1  0.841614  0.154751  0.750000  1
  Pb  Pb21  1  0.717184  0.531781  0.545324  1
  Pb  Pb22  1  0.928773  0.375917  0.250000  1
  Pb  Pb23  1  0.217340  0.967611  0.955323  1
  Pb  Pb24  1  0.282660  0.467611  0.044677  1
  Pb  Pb25  1  0.571227  0.875917  0.750000  1
  Pb  Pb26  1  0.343016  0.346911  0.750000  1
  Pb  Pb27  1  0.069299  0.622911  0.750000  1
  Pb  Pb28  1  0.782816  0.031781  0.454676  1
  Pb  Pb29  1  0.282660  0.467611  0.455323  1
  Pb  Pb30  1  0.156984  0.846911  0.250000  1
  Pb  Pb31  1  0.217340  0.967611  0.544677  1
  Pb  Pb32  1  0.782816  0.031781  0.045324  1
  Pb  Pb33  1  0.658386  0.654751  0.250000  1
  Pb  Pb34  1  0.717184  0.531781  0.954676  1
  Pb  Pb35  1  0.430701  0.122911  0.250000  1
