# generated using pymatgen
data_TbHoPa2(Al3Ir)6
_symmetry_space_group_name_H-M   'P 1'
_cell_length_a   7.59706100
_cell_length_b   7.60016802
_cell_length_c   9.36800400
_cell_angle_alpha   90.00000000
_cell_angle_beta   90.00000000
_cell_angle_gamma   119.69826217
_symmetry_Int_Tables_number   1
_chemical_formula_structural   TbHoPa2(Al3Ir)6
_chemical_formula_sum   'Tb1 Ho1 Pa2 Al18 Ir6'
_cell_volume   469.84971716
_cell_formula_units_Z   1
loop_
 _symmetry_equiv_pos_site_id
 _symmetry_equiv_pos_as_xyz
  1  'x, y, z'
loop_
 _atom_site_type_symbol
 _atom_site_label
 _atom_site_symmetry_multiplicity
 _atom_site_fract_x
 _atom_site_fract_y
 _atom_site_fract_z
 _atom_site_occupancy
  Tb  Tb0  1  0.330632  0.006276  0.750000  1
  Ho  Ho1  1  0.669434  0.993720  0.250000  1
  Pa  Pa2  1  0.997480  0.670953  0.250000  1
  Pa  Pa3  1  0.002524  0.329068  0.750000  1
  Al  Al4  1  0.130015  0.127282  0.250000  1
  Al  Al5  1  0.869835  0.872663  0.750000  1
  Al  Al6  1  0.000480  0.331647  0.077303  1
  Al  Al7  1  0.999361  0.668202  0.922783  1
  Al  Al8  1  0.999361  0.668202  0.577217  1
  Al  Al9  1  0.337907  0.003157  0.425440  1
  Al  Al10  1  0.000480  0.331647  0.422697  1
  Al  Al11  1  0.662237  0.996849  0.574344  1
  Al  Al12  1  0.662237  0.996849  0.925656  1
  Al  Al13  1  0.337907  0.003157  0.074560  1
  Al  Al14  1  0.335320  0.333492  0.553453  1
  Al  Al15  1  0.664684  0.666632  0.446446  1
  Al  Al16  1  0.664684  0.666632  0.053554  1
  Al  Al17  1  0.335320  0.333492  0.946547  1
  Al  Al18  1  0.340456  0.547857  0.250000  1
  Al  Al19  1  0.659665  0.452321  0.750000  1
  Al  Al20  1  0.548307  0.340805  0.250000  1
  Al  Al21  1  0.451742  0.659132  0.750000  1
  Ir  Ir22  1  0.676138  0.330050  0.999816  1
  Ir  Ir23  1  0.323936  0.669939  0.000309  1
  Ir  Ir24  1  0.323936  0.669939  0.499691  1
  Ir  Ir25  1  0.676138  0.330050  0.500184  1
  Ir  Ir26  1  0.999892  0.999994  0.000077  1
  Ir  Ir27  1  0.999892  0.999994  0.499923  1
