# generated using pymatgen
data_Ho6Zn6Pd5Pt
_symmetry_space_group_name_H-M   'P 1'
_cell_length_a   7.37049900
_cell_length_b   7.37049979
_cell_length_c   7.66249300
_cell_angle_alpha   90.00000000
_cell_angle_beta   90.00000000
_cell_angle_gamma   120.00000093
_symmetry_Int_Tables_number   1
_chemical_formula_structural   Ho6Zn6Pd5Pt
_chemical_formula_sum   'Ho6 Zn6 Pd5 Pt1'
_cell_volume   360.49110107
_cell_formula_units_Z   1
loop_
 _symmetry_equiv_pos_site_id
 _symmetry_equiv_pos_as_xyz
  1  'x, y, z'
loop_
 _atom_site_type_symbol
 _atom_site_label
 _atom_site_symmetry_multiplicity
 _atom_site_fract_x
 _atom_site_fract_y
 _atom_site_fract_z
 _atom_site_occupancy
  Ho  Ho0  1  0.406210  0.999363  0.246561  1
  Ho  Ho1  1  0.593155  0.593790  0.246561  1
  Ho  Ho2  1  0.000637  0.406845  0.246561  1
  Ho  Ho3  1  0.404525  0.996836  0.753447  1
  Ho  Ho4  1  0.592310  0.595475  0.753447  1
  Ho  Ho5  1  0.003164  0.407690  0.753447  1
  Zn  Zn6  1  0.747191  0.000559  0.000025  1
  Zn  Zn7  1  0.254361  0.254192  0.499993  1
  Zn  Zn8  1  0.999831  0.745639  0.499993  1
  Zn  Zn9  1  0.999441  0.746633  0.000025  1
  Zn  Zn10  1  0.253367  0.252809  0.000025  1
  Zn  Zn11  1  0.745808  0.000169  0.499993  1
  Pd  Pd12  1  0.333333  0.666667  0.498273  1
  Pd  Pd13  1  0.666667  0.333333  0.998017  1
  Pd  Pd14  1  0.666667  0.333333  0.502020  1
  Pd  Pd15  1  0.000000  0.000000  0.251710  1
  Pd  Pd16  1  0.000000  0.000000  0.748397  1
  Pt  Pt17  1  0.333333  0.666667  0.001507  1
