# generated using pymatgen
data_Dy10Ir3Os
_symmetry_space_group_name_H-M   'P 1'
_cell_length_a   6.45882242
_cell_length_b   7.25021269
_cell_length_c   8.52744056
_cell_angle_alpha   96.63464792
_cell_angle_beta   112.46563867
_cell_angle_gamma   90.02396419
_symmetry_Int_Tables_number   1
_chemical_formula_structural   Dy10Ir3Os
_chemical_formula_sum   'Dy10 Ir3 Os1'
_cell_volume   366.11303061
_cell_formula_units_Z   1
loop_
 _symmetry_equiv_pos_site_id
 _symmetry_equiv_pos_as_xyz
  1  'x, y, z'
loop_
 _atom_site_type_symbol
 _atom_site_label
 _atom_site_symmetry_multiplicity
 _atom_site_fract_x
 _atom_site_fract_y
 _atom_site_fract_z
 _atom_site_occupancy
  Dy  Dy0  1  0.790628  0.084252  0.814830  1
  Dy  Dy1  1  0.973392  0.416875  0.180650  1
  Dy  Dy2  1  0.208143  0.916325  0.183918  1
  Dy  Dy3  1  0.022849  0.582480  0.814781  1
  Dy  Dy4  1  0.213870  0.184898  0.561595  1
  Dy  Dy5  1  0.649026  0.316107  0.440844  1
  Dy  Dy6  1  0.789064  0.816105  0.439037  1
  Dy  Dy7  1  0.350975  0.683289  0.562221  1
  Dy  Dy8  1  0.427408  0.250416  0.999651  1
  Dy  Dy9  1  0.573123  0.748481  0.999193  1
  Ir  Ir10  1  0.824812  0.073686  0.222148  1
  Ir  Ir11  1  0.396282  0.575255  0.220914  1
  Ir  Ir12  1  0.174344  0.925700  0.777946  1
  Os  Os13  1  0.606082  0.426132  0.782272  1
