# generated using pymatgen
data_Dy3(FeCo3)2
_symmetry_space_group_name_H-M   'P 1'
_cell_length_a   7.60425231
_cell_length_b   7.60446694
_cell_length_c   7.60459804
_cell_angle_alpha   109.48361765
_cell_angle_beta   109.46612322
_cell_angle_gamma   109.46541436
_symmetry_Int_Tables_number   1
_chemical_formula_structural   Dy3(FeCo3)2
_chemical_formula_sum   'Dy6 Fe4 Co12'
_cell_volume   338.51011647
_cell_formula_units_Z   2
loop_
 _symmetry_equiv_pos_site_id
 _symmetry_equiv_pos_as_xyz
  1  'x, y, z'
loop_
 _atom_site_type_symbol
 _atom_site_label
 _atom_site_symmetry_multiplicity
 _atom_site_fract_x
 _atom_site_fract_y
 _atom_site_fract_z
 _atom_site_occupancy
  Dy  Dy0  1  0.716621  0.716639  0.999962  1
  Dy  Dy1  1  0.283379  0.000018  0.283340  1
  Dy  Dy2  1  0.000000  0.283432  0.283412  1
  Dy  Dy3  1  0.283379  0.283361  0.000038  1
  Dy  Dy4  1  0.716621  0.999982  0.716660  1
  Dy  Dy5  1  0.000000  0.716568  0.716588  1
  Fe  Fe6  1  0.000000  0.000000  0.500000  1
  Fe  Fe7  1  0.000000  0.500000  0.000000  1
  Fe  Fe8  1  0.500000  0.000000  0.000000  1
  Fe  Fe9  1  0.500000  0.500000  0.500000  1
  Co  Co10  1  0.335708  0.335727  0.671434  1
  Co  Co11  1  0.664292  0.000020  0.335726  1
  Co  Co12  1  0.000000  0.664262  0.335736  1
  Co  Co13  1  0.664289  0.335730  0.000020  1
  Co  Co14  1  0.335711  0.671442  0.335731  1
  Co  Co15  1  0.000000  0.335738  0.664264  1
  Co  Co16  1  0.335711  0.664270  0.999980  1
  Co  Co17  1  0.335708  0.999980  0.664274  1
  Co  Co18  1  0.671492  0.335745  0.335745  1
  Co  Co19  1  0.664292  0.664273  0.328566  1
  Co  Co20  1  0.664289  0.328558  0.664269  1
  Co  Co21  1  0.328508  0.664255  0.664255  1
