# generated using pymatgen
data_KBa3Sn3PPt4
_symmetry_space_group_name_H-M   'P 1'
_cell_length_a   7.04600119
_cell_length_b   7.04600018
_cell_length_c   7.04600003
_cell_angle_alpha   91.48786630
_cell_angle_beta   91.48787002
_cell_angle_gamma   91.48786964
_symmetry_Int_Tables_number   1
_chemical_formula_structural   KBa3Sn3PPt4
_chemical_formula_sum   'K1 Ba3 Sn3 P1 Pt4'
_cell_volume   349.44653677
_cell_formula_units_Z   1
loop_
 _symmetry_equiv_pos_site_id
 _symmetry_equiv_pos_as_xyz
  1  'x, y, z'
loop_
 _atom_site_type_symbol
 _atom_site_label
 _atom_site_symmetry_multiplicity
 _atom_site_fract_x
 _atom_site_fract_y
 _atom_site_fract_z
 _atom_site_occupancy
  K  K0  1  0.117040  0.117040  0.117040  1
  Ba  Ba1  1  0.600176  0.390011  0.881164  1
  Ba  Ba2  1  0.390011  0.881164  0.600176  1
  Ba  Ba3  1  0.881164  0.600176  0.390011  1
  Sn  Sn4  1  0.587086  0.911471  0.093376  1
  Sn  Sn5  1  0.093376  0.587086  0.911471  1
  Sn  Sn6  1  0.911471  0.093376  0.587086  1
  P  P7  1  0.416689  0.416689  0.416689  1
  Pt  Pt8  1  0.188603  0.350794  0.632086  1
  Pt  Pt9  1  0.632086  0.188603  0.350794  1
  Pt  Pt10  1  0.831505  0.831505  0.831505  1
  Pt  Pt11  1  0.350794  0.632086  0.188603  1
