# generated using pymatgen
data_Yb4HgGePd10
_symmetry_space_group_name_H-M   'P 1'
_cell_length_a   4.22857300
_cell_length_b   5.76943776
_cell_length_c   11.37305700
_cell_angle_alpha   88.17024616
_cell_angle_beta   90.00000000
_cell_angle_gamma   90.00000000
_symmetry_Int_Tables_number   1
_chemical_formula_structural   Yb4HgGePd10
_chemical_formula_sum   'Yb4 Hg1 Ge1 Pd10'
_cell_volume   277.32118247
_cell_formula_units_Z   1
loop_
 _symmetry_equiv_pos_site_id
 _symmetry_equiv_pos_as_xyz
  1  'x, y, z'
loop_
 _atom_site_type_symbol
 _atom_site_label
 _atom_site_symmetry_multiplicity
 _atom_site_fract_x
 _atom_site_fract_y
 _atom_site_fract_z
 _atom_site_occupancy
  Yb  Yb0  1  0.500000  0.190833  0.363063  1
  Yb  Yb1  1  0.500000  0.809167  0.636937  1
  Yb  Yb2  1  0.500000  0.705053  0.136657  1
  Yb  Yb3  1  0.500000  0.294947  0.863343  1
  Hg  Hg4  1  0.000000  0.000000  0.000000  1
  Ge  Ge5  1  0.000000  0.500000  0.500000  1
  Pd  Pd6  1  0.500000  0.219271  0.121567  1
  Pd  Pd7  1  0.500000  0.780729  0.878433  1
  Pd  Pd8  1  0.500000  0.688491  0.395754  1
  Pd  Pd9  1  0.500000  0.311509  0.604246  1
  Pd  Pd10  1  0.000000  0.000000  0.500000  1
  Pd  Pd11  1  0.000000  0.500000  0.000000  1
  Pd  Pd12  1  0.000000  0.946644  0.253568  1
  Pd  Pd13  1  0.000000  0.053356  0.746432  1
  Pd  Pd14  1  0.000000  0.450540  0.261106  1
  Pd  Pd15  1  0.000000  0.549460  0.738894  1
