# generated using pymatgen
data_Ho11Er(TcIr)2
_symmetry_space_group_name_H-M   'P 1'
_cell_length_a   6.30104577
_cell_length_b   7.30886720
_cell_length_c   9.12678278
_cell_angle_alpha   90.02606890
_cell_angle_beta   90.08566245
_cell_angle_gamma   90.00499026
_symmetry_Int_Tables_number   1
_chemical_formula_structural   Ho11Er(TcIr)2
_chemical_formula_sum   'Ho11 Er1 Tc2 Ir2'
_cell_volume   420.31983735
_cell_formula_units_Z   1
loop_
 _symmetry_equiv_pos_site_id
 _symmetry_equiv_pos_as_xyz
  1  'x, y, z'
loop_
 _atom_site_type_symbol
 _atom_site_label
 _atom_site_symmetry_multiplicity
 _atom_site_fract_x
 _atom_site_fract_y
 _atom_site_fract_z
 _atom_site_occupancy
  Ho  Ho0  1  0.329120  0.676981  0.065308  1
  Ho  Ho1  1  0.170671  0.176991  0.434386  1
  Ho  Ho2  1  0.668460  0.323420  0.560578  1
  Ho  Ho3  1  0.831819  0.823623  0.939538  1
  Ho  Ho4  1  0.668157  0.323412  0.939427  1
  Ho  Ho5  1  0.831900  0.823543  0.560668  1
  Ho  Ho6  1  0.329391  0.676816  0.434574  1
  Ho  Ho7  1  0.873413  0.537474  0.249880  1
  Ho  Ho8  1  0.626613  0.037748  0.249884  1
  Ho  Ho9  1  0.133185  0.460492  0.750180  1
  Ho  Ho10  1  0.366691  0.960676  0.750087  1
  Er  Er11  1  0.170360  0.176676  0.065466  1
  Tc  Tc12  1  0.036095  0.886164  0.249888  1
  Tc  Tc13  1  0.463912  0.385835  0.249827  1
  Ir  Ir14  1  0.955988  0.115164  0.750472  1
  Ir  Ir15  1  0.544225  0.614981  0.749837  1
