# generated using pymatgen
data_Nd4DyP12Ru6Rh13
_symmetry_space_group_name_H-M   'P 1'
_cell_length_a   12.73075614
_cell_length_b   12.74437194
_cell_length_c   3.97014900
_cell_angle_alpha   90.00000000
_cell_angle_beta   90.00000000
_cell_angle_gamma   120.12495544
_symmetry_Int_Tables_number   1
_chemical_formula_structural   Nd4DyP12Ru6Rh13
_chemical_formula_sum   'Nd4 Dy1 P12 Ru6 Rh13'
_cell_volume   557.13682045
_cell_formula_units_Z   1
loop_
 _symmetry_equiv_pos_site_id
 _symmetry_equiv_pos_as_xyz
  1  'x, y, z'
loop_
 _atom_site_type_symbol
 _atom_site_label
 _atom_site_symmetry_multiplicity
 _atom_site_fract_x
 _atom_site_fract_y
 _atom_site_fract_z
 _atom_site_occupancy
  Nd  Nd0  1  0.668183  0.332114  0.000000  1
  Nd  Nd1  1  0.814045  0.000820  0.500000  1
  Nd  Nd2  1  0.185418  0.187033  0.500000  1
  Nd  Nd3  1  0.999147  0.812416  0.500000  1
  Dy  Dy4  1  0.332759  0.667530  0.000000  1
  P  P5  1  0.633782  0.999843  0.000000  1
  P  P6  1  0.366681  0.367060  0.000000  1
  P  P7  1  0.000335  0.631179  0.000000  1
  P  P8  1  0.688197  0.520125  0.500000  1
  P  P9  1  0.832931  0.309527  0.500000  1
  P  P10  1  0.315390  0.831907  0.500000  1
  P  P11  1  0.517294  0.692077  0.500000  1
  P  P12  1  0.183229  0.998945  0.000000  1
  P  P13  1  0.815172  0.815623  0.000000  1
  P  P14  1  0.997835  0.182556  0.000000  1
  P  P15  1  0.477848  0.166961  0.500000  1
  P  P16  1  0.166983  0.481263  0.500000  1
  Ru  Ru17  1  0.512053  0.873538  0.500000  1
  Ru  Ru18  1  0.711216  0.712273  0.500000  1
  Ru  Ru19  1  0.001710  0.288121  0.500000  1
  Ru  Ru20  1  0.004552  0.452384  0.000000  1
  Ru  Ru21  1  0.819317  0.197688  0.000000  1
  Ru  Ru22  1  0.284322  0.998011  0.500000  1
  Rh  Rh23  1  0.620292  0.802081  0.000000  1
  Rh  Rh24  1  0.182973  0.378689  0.000000  1
  Rh  Rh25  1  0.377032  0.181332  0.000000  1
  Rh  Rh26  1  0.197587  0.816904  0.000000  1
  Rh  Rh27  1  0.801191  0.619523  0.000000  1
  Rh  Rh28  1  0.875142  0.511642  0.500000  1
  Rh  Rh29  1  0.489281  0.360577  0.500000  1
  Rh  Rh30  1  0.637031  0.127747  0.500000  1
  Rh  Rh31  1  0.130473  0.639802  0.500000  1
  Rh  Rh32  1  0.359620  0.494285  0.500000  1
  Rh  Rh33  1  0.999573  0.998752  0.000000  1
  Rh  Rh34  1  0.454080  0.001691  0.000000  1
  Rh  Rh35  1  0.547328  0.547981  0.000000  1
