# generated using pymatgen
data_Ba4Mn(IN2)2
_symmetry_space_group_name_H-M   'P 1'
_cell_length_a   6.11037100
_cell_length_b   8.47682580
_cell_length_c   11.76873164
_cell_angle_alpha   85.60082015
_cell_angle_beta   90.00000000
_cell_angle_gamma   90.00000000
_symmetry_Int_Tables_number   1
_chemical_formula_structural   Ba4Mn(IN2)2
_chemical_formula_sum   'Ba8 Mn2 I4 N8'
_cell_volume   607.78379033
_cell_formula_units_Z   2
loop_
 _symmetry_equiv_pos_site_id
 _symmetry_equiv_pos_as_xyz
  1  'x, y, z'
loop_
 _atom_site_type_symbol
 _atom_site_label
 _atom_site_symmetry_multiplicity
 _atom_site_fract_x
 _atom_site_fract_y
 _atom_site_fract_z
 _atom_site_occupancy
  Ba  Ba0  1  0.750000  0.260214  0.310005  1
  Ba  Ba1  1  0.750000  0.015154  0.615833  1
  Ba  Ba2  1  0.750000  0.455081  0.593631  1
  Ba  Ba3  1  0.750000  0.746974  0.146844  1
  Ba  Ba4  1  0.250000  0.984846  0.384167  1
  Ba  Ba5  1  0.250000  0.544919  0.406369  1
  Ba  Ba6  1  0.250000  0.253026  0.853156  1
  Ba  Ba7  1  0.250000  0.739786  0.689995  1
  Mn  Mn8  1  0.750000  0.764580  0.420442  1
  Mn  Mn9  1  0.250000  0.235420  0.579558  1
  I  I10  1  0.250000  0.365099  0.147841  1
  I  I11  1  0.750000  0.634901  0.852159  1
  I  I12  1  0.250000  0.881356  0.077936  1
  I  I13  1  0.750000  0.118644  0.922064  1
  N  N14  1  0.250000  0.073477  0.677772  1
  N  N15  1  0.018869  0.234144  0.491158  1
  N  N16  1  0.518869  0.765856  0.508842  1
  N  N17  1  0.981131  0.765856  0.508842  1
  N  N18  1  0.750000  0.588762  0.349747  1
  N  N19  1  0.750000  0.926523  0.322228  1
  N  N20  1  0.481131  0.234144  0.491158  1
  N  N21  1  0.250000  0.411238  0.650253  1
