# generated using pymatgen
data_PrPRh2
_symmetry_space_group_name_H-M   'P 1'
_cell_length_a   9.28779272
_cell_length_b   9.28779354
_cell_length_c   4.03588700
_cell_angle_alpha   90.00000000
_cell_angle_beta   90.00000000
_cell_angle_gamma   154.94788796
_symmetry_Int_Tables_number   1
_chemical_formula_structural   PrPRh2
_chemical_formula_sum   'Pr2 P2 Rh4'
_cell_volume   147.42067848
_cell_formula_units_Z   2
loop_
 _symmetry_equiv_pos_site_id
 _symmetry_equiv_pos_as_xyz
  1  'x, y, z'
loop_
 _atom_site_type_symbol
 _atom_site_label
 _atom_site_symmetry_multiplicity
 _atom_site_fract_x
 _atom_site_fract_y
 _atom_site_fract_z
 _atom_site_occupancy
  Pr  Pr0  1  0.101479  0.898521  0.750000  1
  Pr  Pr1  1  0.898521  0.101479  0.250000  1
  P  P2  1  0.323932  0.676068  0.750000  1
  P  P3  1  0.676068  0.323932  0.250000  1
  Rh  Rh4  1  0.548285  0.451715  0.250000  1
  Rh  Rh5  1  0.451715  0.548285  0.750000  1
  Rh  Rh6  1  0.249917  0.750083  0.250000  1
  Rh  Rh7  1  0.750083  0.249917  0.750000  1
