# generated using pymatgen
data_LiTbFeWO6
_symmetry_space_group_name_H-M   'P 1'
_cell_length_a   5.37743850
_cell_length_b   5.61609100
_cell_length_c   7.87726297
_cell_angle_alpha   90.00000000
_cell_angle_beta   89.58405682
_cell_angle_gamma   90.00000000
_symmetry_Int_Tables_number   1
_chemical_formula_structural   LiTbFeWO6
_chemical_formula_sum   'Li2 Tb2 Fe2 W2 O12'
_cell_volume   237.88852218
_cell_formula_units_Z   2
loop_
 _symmetry_equiv_pos_site_id
 _symmetry_equiv_pos_as_xyz
  1  'x, y, z'
loop_
 _atom_site_type_symbol
 _atom_site_label
 _atom_site_symmetry_multiplicity
 _atom_site_fract_x
 _atom_site_fract_y
 _atom_site_fract_z
 _atom_site_occupancy
  Li  Li0  1  0.279461  0.326599  0.993019  1
  Li  Li1  1  0.720539  0.826599  0.006980  1
  Tb  Tb2  1  0.728442  0.777585  0.500634  1
  Tb  Tb3  1  0.271558  0.277585  0.499366  1
  Fe  Fe4  1  0.756295  0.231163  0.241231  1
  Fe  Fe5  1  0.243705  0.731163  0.758770  1
  W  W6  1  0.239563  0.714824  0.236255  1
  W  W7  1  0.760437  0.214824  0.763746  1
  O  O8  1  0.364361  0.728921  0.014634  1
  O  O9  1  0.098396  0.402667  0.205259  1
  O  O10  1  0.936180  0.882365  0.209821  1
  O  O11  1  0.536690  0.514768  0.320461  1
  O  O12  1  0.437549  0.984993  0.318040  1
  O  O13  1  0.133589  0.671712  0.489546  1
  O  O14  1  0.866411  0.171712  0.510454  1
  O  O15  1  0.562452  0.484993  0.681961  1
  O  O16  1  0.463311  0.014768  0.679540  1
  O  O17  1  0.063820  0.382365  0.790178  1
  O  O18  1  0.901604  0.902667  0.794741  1
  O  O19  1  0.635639  0.228921  0.985366  1
