# generated using pymatgen
data_Ac2Tb2YbSn4
_symmetry_space_group_name_H-M   'P 1'
_cell_length_a   8.24191700
_cell_length_b   8.59981400
_cell_length_c   16.14467000
_cell_angle_alpha   90.00000000
_cell_angle_beta   90.00000000
_cell_angle_gamma   90.00000000
_symmetry_Int_Tables_number   1
_chemical_formula_structural   Ac2Tb2YbSn4
_chemical_formula_sum   'Ac8 Tb8 Yb4 Sn16'
_cell_volume   1144.31730941
_cell_formula_units_Z   4
loop_
 _symmetry_equiv_pos_site_id
 _symmetry_equiv_pos_as_xyz
  1  'x, y, z'
loop_
 _atom_site_type_symbol
 _atom_site_label
 _atom_site_symmetry_multiplicity
 _atom_site_fract_x
 _atom_site_fract_y
 _atom_site_fract_z
 _atom_site_occupancy
  Ac  Ac0  1  0.505072  0.678874  0.595778  1
  Ac  Ac1  1  0.005072  0.821126  0.904222  1
  Ac  Ac2  1  0.494928  0.321126  0.095778  1
  Ac  Ac3  1  0.994928  0.178874  0.404222  1
  Ac  Ac4  1  0.494928  0.321126  0.404222  1
  Ac  Ac5  1  0.994928  0.178874  0.095778  1
  Ac  Ac6  1  0.505072  0.678874  0.904222  1
  Ac  Ac7  1  0.005072  0.821126  0.595778  1
  Tb  Tb8  1  0.666827  0.169947  0.624779  1
  Tb  Tb9  1  0.166827  0.330053  0.875221  1
  Tb  Tb10  1  0.333173  0.830053  0.124779  1
  Tb  Tb11  1  0.833173  0.669947  0.375221  1
  Tb  Tb12  1  0.333173  0.830053  0.375221  1
  Tb  Tb13  1  0.833173  0.669947  0.124779  1
  Tb  Tb14  1  0.666827  0.169947  0.875221  1
  Tb  Tb15  1  0.166827  0.330053  0.624779  1
  Yb  Yb16  1  0.830125  0.502817  0.750000  1
  Yb  Yb17  1  0.330125  0.997183  0.750000  1
  Yb  Yb18  1  0.169875  0.497183  0.250000  1
  Yb  Yb19  1  0.669875  0.002817  0.250000  1
  Sn  Sn20  1  0.671142  0.959630  0.460499  1
  Sn  Sn21  1  0.171142  0.540370  0.039501  1
  Sn  Sn22  1  0.328858  0.040370  0.960499  1
  Sn  Sn23  1  0.828858  0.459630  0.539501  1
  Sn  Sn24  1  0.328858  0.040370  0.539501  1
  Sn  Sn25  1  0.828858  0.459630  0.960499  1
  Sn  Sn26  1  0.671142  0.959630  0.039501  1
  Sn  Sn27  1  0.171142  0.540370  0.460499  1
  Sn  Sn28  1  0.467449  0.373469  0.750000  1
  Sn  Sn29  1  0.967449  0.126531  0.750000  1
  Sn  Sn30  1  0.532551  0.626531  0.250000  1
  Sn  Sn31  1  0.032551  0.873469  0.250000  1
  Sn  Sn32  1  0.705424  0.874264  0.750000  1
  Sn  Sn33  1  0.205424  0.625736  0.750000  1
  Sn  Sn34  1  0.294576  0.125736  0.250000  1
  Sn  Sn35  1  0.794576  0.374264  0.250000  1
