# generated using pymatgen
data_TbDy5(Sc2Pb3)2
_symmetry_space_group_name_H-M   'P 1'
_cell_length_a   8.91008821
_cell_length_b   8.91008912
_cell_length_c   6.37427900
_cell_angle_alpha   90.00000000
_cell_angle_beta   90.00000000
_cell_angle_gamma   120.02516676
_symmetry_Int_Tables_number   1
_chemical_formula_structural   TbDy5(Sc2Pb3)2
_chemical_formula_sum   'Tb1 Dy5 Sc4 Pb6'
_cell_volume   438.14268016
_cell_formula_units_Z   1
loop_
 _symmetry_equiv_pos_site_id
 _symmetry_equiv_pos_as_xyz
  1  'x, y, z'
loop_
 _atom_site_type_symbol
 _atom_site_label
 _atom_site_symmetry_multiplicity
 _atom_site_fract_x
 _atom_site_fract_y
 _atom_site_fract_z
 _atom_site_occupancy
  Tb  Tb0  1  0.239088  0.239088  0.750000  1
  Dy  Dy1  1  0.239139  0.999928  0.250000  1
  Dy  Dy2  1  0.999933  0.760789  0.750000  1
  Dy  Dy3  1  0.760969  0.760969  0.250000  1
  Dy  Dy4  1  0.999928  0.239139  0.250000  1
  Dy  Dy5  1  0.760789  0.999933  0.750000  1
  Sc  Sc6  1  0.333319  0.666710  0.000013  1
  Sc  Sc7  1  0.666710  0.333319  0.000013  1
  Sc  Sc8  1  0.333319  0.666710  0.499987  1
  Sc  Sc9  1  0.666710  0.333319  0.499987  1
  Pb  Pb10  1  0.999812  0.398725  0.750000  1
  Pb  Pb11  1  0.398619  0.398619  0.250000  1
  Pb  Pb12  1  0.601375  0.999995  0.250000  1
  Pb  Pb13  1  0.601570  0.601570  0.750000  1
  Pb  Pb14  1  0.398725  0.999812  0.750000  1
  Pb  Pb15  1  0.999995  0.601375  0.250000  1
