# generated using pymatgen
data_Zr2Sc2Co4Si7
_symmetry_space_group_name_H-M   'P 1'
_cell_length_a   9.51650370
_cell_length_b   9.51650223
_cell_length_c   9.51650288
_cell_angle_alpha   94.06212051
_cell_angle_beta   94.06211843
_cell_angle_gamma   149.12891837
_symmetry_Int_Tables_number   1
_chemical_formula_structural   Zr2Sc2Co4Si7
_chemical_formula_sum   'Zr4 Sc4 Co8 Si14'
_cell_volume   426.27195549
_cell_formula_units_Z   2
loop_
 _symmetry_equiv_pos_site_id
 _symmetry_equiv_pos_as_xyz
  1  'x, y, z'
loop_
 _atom_site_type_symbol
 _atom_site_label
 _atom_site_symmetry_multiplicity
 _atom_site_fract_x
 _atom_site_fract_y
 _atom_site_fract_z
 _atom_site_occupancy
  Zr  Zr0  1  0.500000  0.303248  0.803248  1
  Zr  Zr1  1  0.500000  0.696752  0.196752  1
  Zr  Zr2  1  0.696752  0.500000  0.196752  1
  Zr  Zr3  1  0.303248  0.500000  0.803248  1
  Sc  Sc4  1  0.138831  0.138831  0.277663  1
  Sc  Sc5  1  0.861169  0.861169  0.722337  1
  Sc  Sc6  1  0.861169  0.138831  0.000000  1
  Sc  Sc7  1  0.138831  0.861169  0.000000  1
  Co  Co8  1  0.397347  0.897347  0.794694  1
  Co  Co9  1  0.102653  0.602653  0.205306  1
  Co  Co10  1  0.102653  0.897347  0.500000  1
  Co  Co11  1  0.397347  0.602653  0.500000  1
  Co  Co12  1  0.602653  0.397347  0.500000  1
  Co  Co13  1  0.897347  0.102653  0.500000  1
  Co  Co14  1  0.897347  0.397347  0.794694  1
  Co  Co15  1  0.602653  0.102653  0.205306  1
  Si  Si16  1  0.500000  0.091531  0.591531  1
  Si  Si17  1  0.500000  0.908469  0.408469  1
  Si  Si18  1  0.908469  0.500000  0.408469  1
  Si  Si19  1  0.091531  0.500000  0.591531  1
  Si  Si20  1  0.748365  0.748365  0.000000  1
  Si  Si21  1  0.251635  0.251635  0.000000  1
  Si  Si22  1  0.289018  0.289018  0.578034  1
  Si  Si23  1  0.710982  0.710982  0.421966  1
  Si  Si24  1  0.710982  0.289018  0.000000  1
  Si  Si25  1  0.289018  0.710982  0.000000  1
  Si  Si26  1  0.000000  0.301137  0.301137  1
  Si  Si27  1  0.000000  0.698863  0.698863  1
  Si  Si28  1  0.698863  0.000000  0.698863  1
  Si  Si29  1  0.301137  0.000000  0.301137  1
