# generated using pymatgen
data_Tm8Ti5Si16Mo7
_symmetry_space_group_name_H-M   'P 1'
_cell_length_a   6.89873605
_cell_length_b   6.89020870
_cell_length_c   12.74695300
_cell_angle_alpha   89.88535454
_cell_angle_beta   90.00675322
_cell_angle_gamma   90.03142268
_symmetry_Int_Tables_number   1
_chemical_formula_structural   Tm8Ti5Si16Mo7
_chemical_formula_sum   'Tm8 Ti5 Si16 Mo7'
_cell_volume   605.90892950
_cell_formula_units_Z   1
loop_
 _symmetry_equiv_pos_site_id
 _symmetry_equiv_pos_as_xyz
  1  'x, y, z'
loop_
 _atom_site_type_symbol
 _atom_site_label
 _atom_site_symmetry_multiplicity
 _atom_site_fract_x
 _atom_site_fract_y
 _atom_site_fract_z
 _atom_site_occupancy
  Tm  Tm0  1  0.341006  0.002378  0.467415  1
  Tm  Tm1  1  0.498476  0.840741  0.718947  1
  Tm  Tm2  1  0.501012  0.159825  0.218886  1
  Tm  Tm3  1  0.839905  0.497523  0.280708  1
  Tm  Tm4  1  0.159774  0.501364  0.782549  1
  Tm  Tm5  1  0.659364  0.998325  0.968581  1
  Tm  Tm6  1  0.001968  0.339940  0.531674  1
  Tm  Tm7  1  0.997089  0.661112  0.030903  1
  Ti  Ti8  1  0.330070  0.330768  0.999508  1
  Ti  Ti9  1  0.168862  0.829597  0.250024  1
  Ti  Ti10  1  0.828741  0.171126  0.750367  1
  Ti  Ti11  1  0.669692  0.667072  0.499295  1
  Ti  Ti12  1  0.995018  0.841176  0.625972  1
  Si  Si13  1  0.203083  0.129985  0.682864  1
  Si  Si14  1  0.370746  0.702317  0.933069  1
  Si  Si15  1  0.631193  0.298623  0.433024  1
  Si  Si16  1  0.700121  0.369964  0.067237  1
  Si  Si17  1  0.299972  0.629889  0.566336  1
  Si  Si18  1  0.797961  0.870386  0.182805  1
  Si  Si19  1  0.128029  0.201188  0.317258  1
  Si  Si20  1  0.871697  0.799121  0.816867  1
  Si  Si21  1  0.290236  0.959462  0.063035  1
  Si  Si22  1  0.540155  0.789763  0.312802  1
  Si  Si23  1  0.458942  0.210070  0.812734  1
  Si  Si24  1  0.790812  0.542324  0.687544  1
  Si  Si25  1  0.209172  0.459129  0.186766  1
  Si  Si26  1  0.709887  0.041712  0.563384  1
  Si  Si27  1  0.958671  0.291049  0.937321  1
  Si  Si28  1  0.043000  0.709135  0.437213  1
  Mo  Mo29  1  0.160115  0.008152  0.875153  1
  Mo  Mo30  1  0.493112  0.658688  0.124114  1
  Mo  Mo31  1  0.506812  0.341194  0.623334  1
  Mo  Mo32  1  0.657688  0.492833  0.877738  1
  Mo  Mo33  1  0.342306  0.503492  0.374823  1
  Mo  Mo34  1  0.839851  0.991607  0.373164  1
  Mo  Mo35  1  0.005466  0.158972  0.126586  1
