# generated using pymatgen
data_La4Cd2CuRh3
_symmetry_space_group_name_H-M   'P 1'
_cell_length_a   7.77995278
_cell_length_b   7.77995278
_cell_length_c   3.96795900
_cell_angle_alpha   90.00000000
_cell_angle_beta   90.00000000
_cell_angle_gamma   90.26484385
_symmetry_Int_Tables_number   1
_chemical_formula_structural   La4Cd2CuRh3
_chemical_formula_sum   'La4 Cd2 Cu1 Rh3'
_cell_volume   240.16872823
_cell_formula_units_Z   1
loop_
 _symmetry_equiv_pos_site_id
 _symmetry_equiv_pos_as_xyz
  1  'x, y, z'
loop_
 _atom_site_type_symbol
 _atom_site_label
 _atom_site_symmetry_multiplicity
 _atom_site_fract_x
 _atom_site_fract_y
 _atom_site_fract_z
 _atom_site_occupancy
  La  La0  1  0.833775  0.686267  0.500000  1
  La  La1  1  0.324881  0.824881  0.500000  1
  La  La2  1  0.655554  0.155554  0.500000  1
  La  La3  1  0.186267  0.333775  0.500000  1
  Cd  Cd4  1  0.999572  0.008831  0.000000  1
  Cd  Cd5  1  0.508831  0.499572  0.000000  1
  Cu  Cu6  1  0.874216  0.374216  0.000000  1
  Rh  Rh7  1  0.361570  0.135459  0.000000  1
  Rh  Rh8  1  0.635459  0.861570  0.000000  1
  Rh  Rh9  1  0.119876  0.619876  0.000000  1
