# generated using pymatgen
data_Sr6CeSmSb6
_symmetry_space_group_name_H-M   'P 1'
_cell_length_a   8.65716984
_cell_length_b   8.53997234
_cell_length_c   8.59205714
_cell_angle_alpha   109.27682164
_cell_angle_beta   109.64159471
_cell_angle_gamma   109.63717251
_symmetry_Int_Tables_number   1
_chemical_formula_structural   Sr6CeSmSb6
_chemical_formula_sum   'Sr6 Ce1 Sm1 Sb6'
_cell_volume   488.13538548
_cell_formula_units_Z   1
loop_
 _symmetry_equiv_pos_site_id
 _symmetry_equiv_pos_as_xyz
  1  'x, y, z'
loop_
 _atom_site_type_symbol
 _atom_site_label
 _atom_site_symmetry_multiplicity
 _atom_site_fract_x
 _atom_site_fract_y
 _atom_site_fract_z
 _atom_site_occupancy
  Sr  Sr0  1  0.141688  0.502932  0.002229  1
  Sr  Sr1  1  0.639193  0.497017  0.000666  1
  Sr  Sr2  1  0.495483  0.999457  0.639245  1
  Sr  Sr3  1  0.365418  0.364844  0.361246  1
  Sr  Sr4  1  0.497328  0.000904  0.140616  1
  Sr  Sr5  1  0.001229  0.635061  0.496018  1
  Ce  Ce6  1  0.860013  0.860193  0.858675  1
  Sm  Sm7  1  0.999869  0.136772  0.498532  1
  Sb  Sb8  1  0.375920  0.618837  0.747636  1
  Sb  Sb9  1  0.876440  0.234773  0.126286  1
  Sb  Sb10  1  0.643774  0.768056  0.390144  1
  Sb  Sb11  1  0.113774  0.882242  0.247645  1
  Sb  Sb12  1  0.232257  0.119918  0.862875  1
  Sb  Sb13  1  0.757612  0.378994  0.628187  1
