# generated using pymatgen
data_DyLu15(In3Cu)2
_symmetry_space_group_name_H-M   'P 1'
_cell_length_a   10.32881300
_cell_length_b   10.32881200
_cell_length_c   6.74063300
_cell_angle_alpha   90.00000000
_cell_angle_beta   90.00000000
_cell_angle_gamma   120.00000642
_symmetry_Int_Tables_number   1
_chemical_formula_structural   DyLu15(In3Cu)2
_chemical_formula_sum   'Dy1 Lu15 In6 Cu2'
_cell_volume   622.77629435
_cell_formula_units_Z   1
loop_
 _symmetry_equiv_pos_site_id
 _symmetry_equiv_pos_as_xyz
  1  'x, y, z'
loop_
 _atom_site_type_symbol
 _atom_site_label
 _atom_site_symmetry_multiplicity
 _atom_site_fract_x
 _atom_site_fract_y
 _atom_site_fract_z
 _atom_site_occupancy
  Dy  Dy0  1  0.000000  0.000000  0.996782  1
  Lu  Lu1  1  0.525473  0.050945  0.517224  1
  Lu  Lu2  1  0.949055  0.474527  0.517224  1
  Lu  Lu3  1  0.525473  0.474527  0.517224  1
  Lu  Lu4  1  0.474464  0.948930  0.017331  1
  Lu  Lu5  1  0.051070  0.525536  0.017331  1
  Lu  Lu6  1  0.474464  0.525536  0.017331  1
  Lu  Lu7  1  0.176177  0.352354  0.727569  1
  Lu  Lu8  1  0.647646  0.823823  0.727569  1
  Lu  Lu9  1  0.176177  0.823823  0.727569  1
  Lu  Lu10  1  0.823734  0.647469  0.229421  1
  Lu  Lu11  1  0.352531  0.176266  0.229421  1
  Lu  Lu12  1  0.823734  0.176266  0.229421  1
  Lu  Lu13  1  0.666667  0.333333  0.889622  1
  Lu  Lu14  1  0.333333  0.666667  0.390378  1
  Lu  Lu15  1  0.000000  0.000000  0.496511  1
  In  In16  1  0.835575  0.671149  0.751162  1
  In  In17  1  0.328851  0.164425  0.751162  1
  In  In18  1  0.835575  0.164425  0.751162  1
  In  In19  1  0.164319  0.328638  0.253207  1
  In  In20  1  0.671362  0.835681  0.253207  1
  In  In21  1  0.164319  0.835681  0.253207  1
  Cu  Cu22  1  0.666667  0.333333  0.291220  1
  Cu  Cu23  1  0.333333  0.666667  0.791946  1
