# generated using pymatgen
data_TbTm2Ta3(B2Ru5)2
_symmetry_space_group_name_H-M   'P 1'
_cell_length_a   9.58636939
_cell_length_b   9.58760812
_cell_length_c   3.11538500
_cell_angle_alpha   90.00000000
_cell_angle_beta   90.00000000
_cell_angle_gamma   90.37038639
_symmetry_Int_Tables_number   1
_chemical_formula_structural   TbTm2Ta3(B2Ru5)2
_chemical_formula_sum   'Tb1 Tm2 Ta3 B4 Ru10'
_cell_volume   286.33015203
_cell_formula_units_Z   1
loop_
 _symmetry_equiv_pos_site_id
 _symmetry_equiv_pos_as_xyz
  1  'x, y, z'
loop_
 _atom_site_type_symbol
 _atom_site_label
 _atom_site_symmetry_multiplicity
 _atom_site_fract_x
 _atom_site_fract_y
 _atom_site_fract_z
 _atom_site_occupancy
  Tb  Tb0  1  0.824471  0.674760  0.000000  1
  Tm  Tm1  1  0.175603  0.323956  0.000000  1
  Tm  Tm2  1  0.325496  0.825751  0.000000  1
  Ta  Ta3  1  0.675633  0.175588  0.000000  1
  Ta  Ta4  1  0.497462  0.502570  0.000000  1
  Ta  Ta5  1  0.003118  0.998665  0.000000  1
  B  B6  1  0.621981  0.881629  0.000000  1
  B  B7  1  0.380201  0.123251  0.000000  1
  B  B8  1  0.120496  0.619119  0.000000  1
  B  B9  1  0.876935  0.375741  0.000000  1
  Ru  Ru10  1  0.569445  0.722429  0.500000  1
  Ru  Ru11  1  0.439717  0.280692  0.500000  1
  Ru  Ru12  1  0.071245  0.780991  0.500000  1
  Ru  Ru13  1  0.916627  0.213148  0.500000  1
  Ru  Ru14  1  0.281058  0.569446  0.500000  1
  Ru  Ru15  1  0.713124  0.415075  0.500000  1
  Ru  Ru16  1  0.221267  0.071545  0.500000  1
  Ru  Ru17  1  0.779906  0.941556  0.500000  1
  Ru  Ru18  1  0.508404  0.009363  0.500000  1
  Ru  Ru19  1  0.997812  0.494723  0.500000  1
