# generated using pymatgen
data_Ta6Al6TcOs11
_symmetry_space_group_name_H-M   'P 1'
_cell_length_a   4.40543800
_cell_length_b   6.24093700
_cell_length_c   13.22045900
_cell_angle_alpha   90.00000000
_cell_angle_beta   90.00194621
_cell_angle_gamma   90.00000000
_symmetry_Int_Tables_number   1
_chemical_formula_structural   Ta6Al6TcOs11
_chemical_formula_sum   'Ta6 Al6 Tc1 Os11'
_cell_volume   363.48410629
_cell_formula_units_Z   1
loop_
 _symmetry_equiv_pos_site_id
 _symmetry_equiv_pos_as_xyz
  1  'x, y, z'
loop_
 _atom_site_type_symbol
 _atom_site_label
 _atom_site_symmetry_multiplicity
 _atom_site_fract_x
 _atom_site_fract_y
 _atom_site_fract_z
 _atom_site_occupancy
  Ta  Ta0  1  0.000000  0.002403  0.000000  1
  Ta  Ta1  1  0.499757  0.498786  0.165349  1
  Ta  Ta2  1  0.999769  0.999823  0.333063  1
  Ta  Ta3  1  0.500000  0.500392  0.500000  1
  Ta  Ta4  1  0.000232  0.999823  0.666936  1
  Ta  Ta5  1  0.500242  0.498786  0.834651  1
  Al  Al6  1  0.000000  0.499083  0.000000  1
  Al  Al7  1  0.499793  0.000524  0.166075  1
  Al  Al8  1  0.999839  0.500063  0.333309  1
  Al  Al9  1  0.500000  0.999799  0.500000  1
  Al  Al10  1  0.000161  0.500063  0.666692  1
  Al  Al11  1  0.500206  0.000524  0.833926  1
  Tc  Tc12  1  0.500000  0.249564  0.000000  1
  Os  Os13  1  0.500000  0.750395  0.000000  1
  Os  Os14  1  0.999774  0.250496  0.167645  1
  Os  Os15  1  0.999771  0.749810  0.167344  1
  Os  Os16  1  0.499790  0.249721  0.334100  1
  Os  Os17  1  0.499788  0.750071  0.333611  1
  Os  Os18  1  0.000000  0.249924  0.500000  1
  Os  Os19  1  0.000000  0.749845  0.500000  1
  Os  Os20  1  0.500208  0.249721  0.665900  1
  Os  Os21  1  0.500210  0.750071  0.666389  1
  Os  Os22  1  0.000226  0.250496  0.832355  1
  Os  Os23  1  0.000229  0.749810  0.832656  1
