# generated using pymatgen
data_Nd8Cd2PdPt
_symmetry_space_group_name_H-M   'P 1'
_cell_length_a   10.03545018
_cell_length_b   10.03545025
_cell_length_c   10.00024400
_cell_angle_alpha   60.11597566
_cell_angle_beta   60.11597543
_cell_angle_gamma   60.32167405
_symmetry_Int_Tables_number   1
_chemical_formula_structural   Nd8Cd2PdPt
_chemical_formula_sum   'Nd16 Cd4 Pd2 Pt2'
_cell_volume   715.11649284
_cell_formula_units_Z   2
loop_
 _symmetry_equiv_pos_site_id
 _symmetry_equiv_pos_as_xyz
  1  'x, y, z'
loop_
 _atom_site_type_symbol
 _atom_site_label
 _atom_site_symmetry_multiplicity
 _atom_site_fract_x
 _atom_site_fract_y
 _atom_site_fract_z
 _atom_site_occupancy
  Nd  Nd0  1  0.350926  0.350926  0.349364  1
  Nd  Nd1  1  0.350926  0.350926  0.948783  1
  Nd  Nd2  1  0.352899  0.944443  0.351329  1
  Nd  Nd3  1  0.944443  0.352899  0.351329  1
  Nd  Nd4  1  0.807578  0.192249  0.191958  1
  Nd  Nd5  1  0.192249  0.807578  0.808215  1
  Nd  Nd6  1  0.192249  0.807578  0.191958  1
  Nd  Nd7  1  0.807578  0.192249  0.808215  1
  Nd  Nd8  1  0.192654  0.192654  0.807346  1
  Nd  Nd9  1  0.808065  0.808065  0.191935  1
  Nd  Nd10  1  0.937011  0.564607  0.564542  1
  Nd  Nd11  1  0.564607  0.937011  0.933839  1
  Nd  Nd12  1  0.564607  0.937011  0.564542  1
  Nd  Nd13  1  0.937011  0.564607  0.933839  1
  Nd  Nd14  1  0.563881  0.563881  0.936119  1
  Nd  Nd15  1  0.934559  0.934559  0.565441  1
  Cd  Cd16  1  0.580482  0.580482  0.580720  1
  Cd  Cd17  1  0.580482  0.580482  0.258317  1
  Cd  Cd18  1  0.580391  0.258074  0.580768  1
  Cd  Cd19  1  0.258074  0.580391  0.580768  1
  Pd  Pd20  1  0.143016  0.143016  0.144190  1
  Pd  Pd21  1  0.143016  0.143016  0.569778  1
  Pt  Pt22  1  0.142457  0.570838  0.143352  1
  Pt  Pt23  1  0.570838  0.142457  0.143352  1
