# generated using pymatgen
data_LiHf(U3As5)2
_symmetry_space_group_name_H-M   'P 1'
_cell_length_a   8.55842200
_cell_length_b   8.55842261
_cell_length_c   5.75707600
_cell_angle_alpha   90.00000000
_cell_angle_beta   90.00000000
_cell_angle_gamma   120.00000536
_symmetry_Int_Tables_number   1
_chemical_formula_structural   LiHf(U3As5)2
_chemical_formula_sum   'Li1 Hf1 U6 As10'
_cell_volume   365.19094114
_cell_formula_units_Z   1
loop_
 _symmetry_equiv_pos_site_id
 _symmetry_equiv_pos_as_xyz
  1  'x, y, z'
loop_
 _atom_site_type_symbol
 _atom_site_label
 _atom_site_symmetry_multiplicity
 _atom_site_fract_x
 _atom_site_fract_y
 _atom_site_fract_z
 _atom_site_occupancy
  Li  Li0  1  0.000000  0.000000  0.500000  1
  Hf  Hf1  1  0.000000  0.000000  0.000000  1
  U  U2  1  0.385933  0.000000  0.750374  1
  U  U3  1  0.385933  0.385933  0.249626  1
  U  U4  1  0.000000  0.614067  0.249626  1
  U  U5  1  0.000000  0.385933  0.750374  1
  U  U6  1  0.614067  0.614067  0.750374  1
  U  U7  1  0.614067  0.000000  0.249626  1
  As  As8  1  0.333333  0.666667  0.500000  1
  As  As9  1  0.666667  0.333333  0.000000  1
  As  As10  1  0.666667  0.333333  0.500000  1
  As  As11  1  0.333333  0.666667  0.000000  1
  As  As12  1  0.736426  0.000000  0.745421  1
  As  As13  1  0.736426  0.736426  0.254579  1
  As  As14  1  0.000000  0.263574  0.254579  1
  As  As15  1  0.000000  0.736426  0.745421  1
  As  As16  1  0.263574  0.000000  0.254579  1
  As  As17  1  0.263574  0.263574  0.745421  1
