# generated using pymatgen
data_MnNb2Fe2Ir
_symmetry_space_group_name_H-M   'P 1'
_cell_length_a   4.85210821
_cell_length_b   4.85210840
_cell_length_c   8.18246200
_cell_angle_alpha   90.00000000
_cell_angle_beta   90.00000000
_cell_angle_gamma   120.33076941
_symmetry_Int_Tables_number   1
_chemical_formula_structural   MnNb2Fe2Ir
_chemical_formula_sum   'Mn2 Nb4 Fe4 Ir2'
_cell_volume   166.27172578
_cell_formula_units_Z   2
loop_
 _symmetry_equiv_pos_site_id
 _symmetry_equiv_pos_as_xyz
  1  'x, y, z'
loop_
 _atom_site_type_symbol
 _atom_site_label
 _atom_site_symmetry_multiplicity
 _atom_site_fract_x
 _atom_site_fract_y
 _atom_site_fract_z
 _atom_site_occupancy
  Mn  Mn0  1  0.183166  0.356100  0.750000  1
  Mn  Mn1  1  0.643900  0.816834  0.750000  1
  Nb  Nb2  1  0.332232  0.667768  0.428910  1
  Nb  Nb3  1  0.666394  0.333606  0.568878  1
  Nb  Nb4  1  0.666394  0.333606  0.931122  1
  Nb  Nb5  1  0.332232  0.667768  0.071090  1
  Fe  Fe6  1  0.827008  0.172992  0.250000  1
  Fe  Fe7  1  0.826086  0.653090  0.250000  1
  Fe  Fe8  1  0.346910  0.173914  0.250000  1
  Fe  Fe9  1  0.175909  0.824091  0.750000  1
  Ir  Ir10  1  0.999884  0.000116  0.503634  1
  Ir  Ir11  1  0.999884  0.000116  0.996366  1
