# generated using pymatgen
data_Nd3DyHoP12Ru19
_symmetry_space_group_name_H-M   'P 1'
_cell_length_a   12.59464600
_cell_length_b   12.59464603
_cell_length_c   4.00627600
_cell_angle_alpha   90.00000000
_cell_angle_beta   90.00000000
_cell_angle_gamma   119.99999467
_symmetry_Int_Tables_number   1
_chemical_formula_structural   Nd3DyHoP12Ru19
_chemical_formula_sum   'Nd3 Dy1 Ho1 P12 Ru19'
_cell_volume   550.35567854
_cell_formula_units_Z   1
loop_
 _symmetry_equiv_pos_site_id
 _symmetry_equiv_pos_as_xyz
  1  'x, y, z'
loop_
 _atom_site_type_symbol
 _atom_site_label
 _atom_site_symmetry_multiplicity
 _atom_site_fract_x
 _atom_site_fract_y
 _atom_site_fract_z
 _atom_site_occupancy
  Nd  Nd0  1  0.999986  0.183818  0.500000  1
  Nd  Nd1  1  0.816182  0.816168  0.500000  1
  Nd  Nd2  1  0.183832  0.000014  0.500000  1
  Dy  Dy3  1  0.666667  0.333333  0.000000  1
  Ho  Ho4  1  0.333333  0.666667  0.000000  1
  P  P5  1  0.000006  0.812020  0.000000  1
  P  P6  1  0.187980  0.187986  0.000000  1
  P  P7  1  0.812014  0.999994  0.000000  1
  P  P8  1  0.694773  0.173468  0.500000  1
  P  P9  1  0.826532  0.521305  0.500000  1
  P  P10  1  0.478695  0.305227  0.500000  1
  P  P11  1  0.173561  0.694739  0.500000  1
  P  P12  1  0.521178  0.826439  0.500000  1
  P  P13  1  0.305261  0.478822  0.500000  1
  P  P14  1  0.999982  0.373903  0.000000  1
  P  P15  1  0.626097  0.626079  0.000000  1
  P  P16  1  0.373921  0.000018  0.000000  1
  Ru  Ru17  1  0.999986  0.553882  0.000000  1
  Ru  Ru18  1  0.446118  0.446104  0.000000  1
  Ru  Ru19  1  0.553896  0.000014  0.000000  1
  Ru  Ru20  1  0.999996  0.713351  0.500000  1
  Ru  Ru21  1  0.286649  0.286645  0.500000  1
  Ru  Ru22  1  0.713355  0.000004  0.500000  1
  Ru  Ru23  1  0.804529  0.185253  0.000000  1
  Ru  Ru24  1  0.814747  0.619277  0.000000  1
  Ru  Ru25  1  0.380723  0.195471  0.000000  1
  Ru  Ru26  1  0.185310  0.804464  0.000000  1
  Ru  Ru27  1  0.619155  0.814690  0.000000  1
  Ru  Ru28  1  0.195536  0.380845  0.000000  1
  Ru  Ru29  1  0.874238  0.367447  0.500000  1
  Ru  Ru30  1  0.632553  0.506791  0.500000  1
  Ru  Ru31  1  0.493209  0.125762  0.500000  1
  Ru  Ru32  1  0.367452  0.874067  0.500000  1
  Ru  Ru33  1  0.506615  0.632548  0.500000  1
  Ru  Ru34  1  0.125933  0.493385  0.500000  1
  Ru  Ru35  1  0.000000  0.000000  0.000000  1
