# generated using pymatgen
data_Y4Ga2Si8(IrRh)3
_symmetry_space_group_name_H-M   'P 1'
_cell_length_a   8.18639875
_cell_length_b   8.19624634
_cell_length_c   5.70905751
_cell_angle_alpha   71.58814129
_cell_angle_beta   71.49109942
_cell_angle_gamma   94.29605346
_symmetry_Int_Tables_number   1
_chemical_formula_structural   Y4Ga2Si8(IrRh)3
_chemical_formula_sum   'Y4 Ga2 Si8 Ir3 Rh3'
_cell_volume   338.06045397
_cell_formula_units_Z   1
loop_
 _symmetry_equiv_pos_site_id
 _symmetry_equiv_pos_as_xyz
  1  'x, y, z'
loop_
 _atom_site_type_symbol
 _atom_site_label
 _atom_site_symmetry_multiplicity
 _atom_site_fract_x
 _atom_site_fract_y
 _atom_site_fract_z
 _atom_site_occupancy
  Y  Y0  1  0.866608  0.597892  0.756093  1
  Y  Y1  1  0.133131  0.402416  0.243127  1
  Y  Y2  1  0.401520  0.133216  0.744310  1
  Y  Y3  1  0.598236  0.866894  0.256688  1
  Ga  Ga4  1  0.776558  0.224621  0.749557  1
  Ga  Ga5  1  0.222974  0.774936  0.253020  1
  Si  Si6  1  0.516566  0.483928  0.751250  1
  Si  Si7  1  0.483347  0.516102  0.248602  1
  Si  Si8  1  0.211881  0.787726  0.747616  1
  Si  Si9  1  0.789107  0.212375  0.248876  1
  Si  Si10  1  0.263165  0.061597  0.339875  1
  Si  Si11  1  0.736305  0.937540  0.661345  1
  Si  Si12  1  0.938674  0.735847  0.159942  1
  Si  Si13  1  0.063096  0.264658  0.838316  1
  Ir  Ir14  1  0.533706  0.260144  0.140052  1
  Ir  Ir15  1  0.738226  0.466129  0.360578  1
  Ir  Ir16  1  0.465452  0.739424  0.861077  1
  Rh  Rh17  1  0.262729  0.534394  0.638911  1
  Rh  Rh18  1  0.992016  0.007570  0.250305  1
  Rh  Rh19  1  0.006702  0.992591  0.750457  1
