# generated using pymatgen
data_Ho20Sn9Bi7
_symmetry_space_group_name_H-M   'P 1'
_cell_length_a   8.14664431
_cell_length_b   8.17335831
_cell_length_c   15.54949604
_cell_angle_alpha   90.07029052
_cell_angle_beta   89.61326019
_cell_angle_gamma   89.92018364
_symmetry_Int_Tables_number   1
_chemical_formula_structural   Ho20Sn9Bi7
_chemical_formula_sum   'Ho20 Sn9 Bi7'
_cell_volume   1035.34469952
_cell_formula_units_Z   1
loop_
 _symmetry_equiv_pos_site_id
 _symmetry_equiv_pos_as_xyz
  1  'x, y, z'
loop_
 _atom_site_type_symbol
 _atom_site_label
 _atom_site_symmetry_multiplicity
 _atom_site_fract_x
 _atom_site_fract_y
 _atom_site_fract_z
 _atom_site_occupancy
  Ho  Ho0  1  0.394409  0.837699  0.877454  1
  Ho  Ho1  1  0.897852  0.664184  0.621641  1
  Ho  Ho2  1  0.602296  0.162672  0.377769  1
  Ho  Ho3  1  0.101959  0.337892  0.121488  1
  Ho  Ho4  1  0.607447  0.167655  0.121544  1
  Ho  Ho5  1  0.102360  0.336223  0.377821  1
  Ho  Ho6  1  0.396582  0.837984  0.622795  1
  Ho  Ho7  1  0.891790  0.660785  0.880067  1
  Ho  Ho8  1  0.565224  0.333548  0.890064  1
  Ho  Ho9  1  0.065776  0.169502  0.614050  1
  Ho  Ho10  1  0.434845  0.668261  0.386349  1
  Ho  Ho11  1  0.937084  0.823381  0.111532  1
  Ho  Ho12  1  0.446236  0.665494  0.110260  1
  Ho  Ho13  1  0.934301  0.830501  0.385738  1
  Ho  Ho14  1  0.566127  0.331981  0.613697  1
  Ho  Ho15  1  0.056858  0.173902  0.889630  1
  Ho  Ho16  1  0.228394  0.500283  0.750754  1
  Ho  Ho17  1  0.728263  0.002084  0.750760  1
  Ho  Ho18  1  0.771889  0.499577  0.246203  1
  Ho  Ho19  1  0.271573  0.998104  0.248806  1
  Sn  Sn20  1  0.768779  0.480304  0.044322  1
  Sn  Sn21  1  0.594237  0.629574  0.749810  1
  Sn  Sn22  1  0.092503  0.872102  0.751066  1
  Sn  Sn23  1  0.404866  0.370530  0.250345  1
  Sn  Sn24  1  0.906147  0.127048  0.250032  1
  Sn  Sn25  1  0.366692  0.143554  0.751422  1
  Sn  Sn26  1  0.867134  0.359663  0.750240  1
  Sn  Sn27  1  0.633032  0.858472  0.249462  1
  Sn  Sn28  1  0.135053  0.640504  0.249651  1
  Bi  Bi29  1  0.265271  0.015808  0.044264  1
  Bi  Bi30  1  0.763646  0.486519  0.454307  1
  Bi  Bi31  1  0.736607  0.987450  0.544937  1
  Bi  Bi32  1  0.233275  0.518891  0.955781  1
  Bi  Bi33  1  0.731541  0.981850  0.955918  1
  Bi  Bi34  1  0.237236  0.513568  0.545019  1
  Bi  Bi35  1  0.262719  0.012449  0.455003  1
