# generated using pymatgen
data_Pr2BeB3IrRh4
_symmetry_space_group_name_H-M   'P 1'
_cell_length_a   7.68282966
_cell_length_b   6.45539475
_cell_length_c   5.70144677
_cell_angle_alpha   77.23297009
_cell_angle_beta   55.16883468
_cell_angle_gamma   46.59717214
_symmetry_Int_Tables_number   1
_chemical_formula_structural   Pr2BeB3IrRh4
_chemical_formula_sum   'Pr2 Be1 B3 Ir1 Rh4'
_cell_volume   161.51391884
_cell_formula_units_Z   1
loop_
 _symmetry_equiv_pos_site_id
 _symmetry_equiv_pos_as_xyz
  1  'x, y, z'
loop_
 _atom_site_type_symbol
 _atom_site_label
 _atom_site_symmetry_multiplicity
 _atom_site_fract_x
 _atom_site_fract_y
 _atom_site_fract_z
 _atom_site_occupancy
  Pr  Pr0  1  0.863844  0.861151  0.138624  1
  Pr  Pr1  1  0.145531  0.144800  0.854512  1
  Be  Be2  1  0.781427  0.482120  0.521441  1
  B  B3  1  0.200149  0.535283  0.471206  1
  B  B4  1  0.539737  0.204679  0.790185  1
  B  B5  1  0.473630  0.785213  0.207756  1
  Ir  Ir6  1  0.749451  0.755291  0.757635  1
  Rh  Rh7  1  0.496240  0.499058  0.005778  1
  Rh  Rh8  1  0.486656  0.492857  0.505833  1
  Rh  Rh9  1  0.004541  0.994196  0.498749  1
  Rh  Rh10  1  0.258791  0.245351  0.248283  1
