# generated using pymatgen
data_CaCd3(AsO2)8
_symmetry_space_group_name_H-M   'P 1'
_cell_length_a   5.48271016
_cell_length_b   4.72470331
_cell_length_c   18.61647300
_cell_angle_alpha   90.03419773
_cell_angle_beta   89.62703782
_cell_angle_gamma   90.21905968
_symmetry_Int_Tables_number   1
_chemical_formula_structural   CaCd3(AsO2)8
_chemical_formula_sum   'Ca1 Cd3 As8 O16'
_cell_volume   482.23062488
_cell_formula_units_Z   1
loop_
 _symmetry_equiv_pos_site_id
 _symmetry_equiv_pos_as_xyz
  1  'x, y, z'
loop_
 _atom_site_type_symbol
 _atom_site_label
 _atom_site_symmetry_multiplicity
 _atom_site_fract_x
 _atom_site_fract_y
 _atom_site_fract_z
 _atom_site_occupancy
  Ca  Ca0  1  0.994779  0.337467  0.759535  1
  Cd  Cd1  1  0.994718  0.740407  0.253344  1
  Cd  Cd2  1  0.497806  0.255176  0.247588  1
  Cd  Cd3  1  0.500124  0.808946  0.749498  1
  As  As4  1  0.280401  0.507779  0.411676  1
  As  As5  1  0.790622  0.494129  0.087328  1
  As  As6  1  0.664169  0.500824  0.589155  1
  As  As7  1  0.261280  0.478422  0.911989  1
  As  As8  1  0.687283  0.007862  0.409788  1
  As  As9  1  0.198009  0.997318  0.091589  1
  As  As10  1  0.256703  0.002379  0.595152  1
  As  As11  1  0.847310  0.965842  0.903084  1
  O  O12  1  0.230300  0.473491  0.317267  1
  O  O13  1  0.730901  0.526864  0.181340  1
  O  O14  1  0.729130  0.517872  0.682031  1
  O  O15  1  0.345509  0.466537  0.820098  1
  O  O16  1  0.726688  0.984764  0.314653  1
  O  O17  1  0.221460  0.022700  0.186630  1
  O  O18  1  0.227983  0.041463  0.690342  1
  O  O19  1  0.837595  0.915821  0.808151  1
  O  O20  1  0.367925  0.883146  0.416360  1
  O  O21  1  0.879882  0.120431  0.080936  1
  O  O22  1  0.574397  0.124582  0.583064  1
  O  O23  1  0.162798  0.849896  0.918624  1
  O  O24  1  0.940811  0.344519  0.896797  1
  O  O25  1  0.343191  0.626573  0.594267  1
  O  O26  1  0.109140  0.621594  0.088525  1
  O  O27  1  0.599090  0.383197  0.411188  1
