# generated using pymatgen
data_Ca2LaNdTi4O12
_symmetry_space_group_name_H-M   'P 1'
_cell_length_a   7.79866600
_cell_length_b   5.49920192
_cell_length_c   5.57815889
_cell_angle_alpha   89.98821547
_cell_angle_beta   90.00000000
_cell_angle_gamma   90.00000000
_symmetry_Int_Tables_number   1
_chemical_formula_structural   Ca2LaNdTi4O12
_chemical_formula_sum   'Ca2 La1 Nd1 Ti4 O12'
_cell_volume   239.22736613
_cell_formula_units_Z   1
loop_
 _symmetry_equiv_pos_site_id
 _symmetry_equiv_pos_as_xyz
  1  'x, y, z'
loop_
 _atom_site_type_symbol
 _atom_site_label
 _atom_site_symmetry_multiplicity
 _atom_site_fract_x
 _atom_site_fract_y
 _atom_site_fract_z
 _atom_site_occupancy
  Ca  Ca0  1  0.500000  0.490607  0.544562  1
  Ca  Ca1  1  0.000000  0.991451  0.958430  1
  La  La2  1  0.000000  0.507791  0.463476  1
  Nd  Nd3  1  0.500000  0.008867  0.043078  1
  Ti  Ti4  1  0.251568  0.999943  0.501290  1
  Ti  Ti5  1  0.749659  0.500998  0.999035  1
  Ti  Ti6  1  0.748432  0.999943  0.501290  1
  Ti  Ti7  1  0.250341  0.500998  0.999035  1
  O  O8  1  0.209847  0.791181  0.210380  1
  O  O9  1  0.787506  0.712523  0.713184  1
  O  O10  1  0.707288  0.211516  0.787606  1
  O  O11  1  0.292987  0.288546  0.287029  1
  O  O12  1  0.292712  0.211516  0.787606  1
  O  O13  1  0.707013  0.288546  0.287029  1
  O  O14  1  0.790153  0.791181  0.210380  1
  O  O15  1  0.212494  0.712523  0.713184  1
  O  O16  1  0.500000  0.920007  0.479064  1
  O  O17  1  0.500000  0.579249  0.980760  1
  O  O18  1  0.000000  0.070409  0.520654  1
  O  O19  1  0.000000  0.422202  0.012927  1
