# generated using pymatgen
data_Dy2Lu3Hf5(Si5Ir2)4
_symmetry_space_group_name_H-M   'P 1'
_cell_length_a   12.46460559
_cell_length_b   12.46415558
_cell_length_c   4.15383600
_cell_angle_alpha   90.00000000
_cell_angle_beta   90.00000000
_cell_angle_gamma   89.81879101
_symmetry_Int_Tables_number   1
_chemical_formula_structural   Dy2Lu3Hf5(Si5Ir2)4
_chemical_formula_sum   'Dy2 Lu3 Hf5 Si20 Ir8'
_cell_volume   645.33998712
_cell_formula_units_Z   1
loop_
 _symmetry_equiv_pos_site_id
 _symmetry_equiv_pos_as_xyz
  1  'x, y, z'
loop_
 _atom_site_type_symbol
 _atom_site_label
 _atom_site_symmetry_multiplicity
 _atom_site_fract_x
 _atom_site_fract_y
 _atom_site_fract_z
 _atom_site_occupancy
  Dy  Dy0  1  0.384607  0.115675  0.500000  1
  Dy  Dy1  1  0.615393  0.884325  0.500000  1
  Lu  Lu2  1  0.000000  0.000000  0.000000  1
  Lu  Lu3  1  0.884313  0.384481  0.500000  1
  Lu  Lu4  1  0.115687  0.615519  0.500000  1
  Hf  Hf5  1  0.500000  0.500000  0.000000  1
  Hf  Hf6  1  0.674177  0.175413  0.500000  1
  Hf  Hf7  1  0.325823  0.824587  0.500000  1
  Hf  Hf8  1  0.174829  0.326507  0.500000  1
  Hf  Hf9  1  0.825171  0.673493  0.500000  1
  Si  Si10  1  0.566131  0.067626  0.000000  1
  Si  Si11  1  0.433869  0.932374  0.000000  1
  Si  Si12  1  0.067189  0.434438  0.000000  1
  Si  Si13  1  0.932811  0.565562  0.000000  1
  Si  Si14  1  0.665502  0.701243  0.000000  1
  Si  Si15  1  0.334498  0.298757  0.000000  1
  Si  Si16  1  0.163657  0.800076  0.000000  1
  Si  Si17  1  0.836343  0.199924  0.000000  1
  Si  Si18  1  0.297963  0.665343  0.000000  1
  Si  Si19  1  0.702037  0.334657  0.000000  1
  Si  Si20  1  0.199216  0.163936  0.000000  1
  Si  Si21  1  0.800784  0.836064  0.000000  1
  Si  Si22  1  0.651356  0.507960  0.500000  1
  Si  Si23  1  0.348644  0.492040  0.500000  1
  Si  Si24  1  0.154400  0.992392  0.500000  1
  Si  Si25  1  0.845600  0.007608  0.500000  1
  Si  Si26  1  0.491906  0.650706  0.500000  1
  Si  Si27  1  0.508094  0.349294  0.500000  1
  Si  Si28  1  0.007376  0.155175  0.500000  1
  Si  Si29  1  0.992624  0.844825  0.500000  1
  Ir  Ir30  1  0.743434  0.520991  0.000000  1
  Ir  Ir31  1  0.256566  0.479009  0.000000  1
  Ir  Ir32  1  0.245018  0.977494  0.000000  1
  Ir  Ir33  1  0.754982  0.022506  0.000000  1
  Ir  Ir34  1  0.477829  0.741791  0.000000  1
  Ir  Ir35  1  0.522171  0.258209  0.000000  1
  Ir  Ir36  1  0.021297  0.246773  0.000000  1
  Ir  Ir37  1  0.978703  0.753227  0.000000  1
