# generated using pymatgen
data_PaBr11
_symmetry_space_group_name_H-M   'P 1'
_cell_length_a   7.98087979
_cell_length_b   8.54916818
_cell_length_c   8.75695304
_cell_angle_alpha   90.05767773
_cell_angle_beta   88.07317814
_cell_angle_gamma   111.94966614
_symmetry_Int_Tables_number   1
_chemical_formula_structural   PaBr11
_chemical_formula_sum   'Pa1 Br11'
_cell_volume   553.81926234
_cell_formula_units_Z   1
loop_
 _symmetry_equiv_pos_site_id
 _symmetry_equiv_pos_as_xyz
  1  'x, y, z'
loop_
 _atom_site_type_symbol
 _atom_site_label
 _atom_site_symmetry_multiplicity
 _atom_site_fract_x
 _atom_site_fract_y
 _atom_site_fract_z
 _atom_site_occupancy
  Pa  Pa0  1  0.000000  0.500000  0.500000  1
  Br  Br1  1  0.305841  0.203489  0.089861  1
  Br  Br2  1  0.000000  0.000000  0.000000  1
  Br  Br3  1  0.694159  0.796511  0.910139  1
  Br  Br4  1  0.485232  0.243056  0.846787  1
  Br  Br5  1  0.514768  0.756944  0.153213  1
  Br  Br6  1  0.880921  0.755113  0.525195  1
  Br  Br7  1  0.910316  0.463149  0.207101  1
  Br  Br8  1  0.119079  0.244887  0.474805  1
  Br  Br9  1  0.352191  0.737881  0.427752  1
  Br  Br10  1  0.647809  0.262119  0.572248  1
  Br  Br11  1  0.089684  0.536851  0.792899  1
