# generated using pymatgen
data_Tb3Hf3Ga6(PdPt2)2
_symmetry_space_group_name_H-M   'P 1'
_cell_length_a   7.32022200
_cell_length_b   7.32022095
_cell_length_c   7.30959500
_cell_angle_alpha   90.00000000
_cell_angle_beta   90.00000000
_cell_angle_gamma   120.00000475
_symmetry_Int_Tables_number   1
_chemical_formula_structural   Tb3Hf3Ga6(PdPt2)2
_chemical_formula_sum   'Tb3 Hf3 Ga6 Pd2 Pt4'
_cell_volume   339.21290609
_cell_formula_units_Z   1
loop_
 _symmetry_equiv_pos_site_id
 _symmetry_equiv_pos_as_xyz
  1  'x, y, z'
loop_
 _atom_site_type_symbol
 _atom_site_label
 _atom_site_symmetry_multiplicity
 _atom_site_fract_x
 _atom_site_fract_y
 _atom_site_fract_z
 _atom_site_occupancy
  Tb  Tb0  1  0.410405  0.409922  0.250000  1
  Tb  Tb1  1  0.999518  0.589595  0.250000  1
  Tb  Tb2  1  0.590078  0.000482  0.250000  1
  Hf  Hf3  1  0.606309  0.999159  0.750000  1
  Hf  Hf4  1  0.392850  0.393691  0.750000  1
  Hf  Hf5  1  0.000841  0.607150  0.750000  1
  Ga  Ga6  1  0.263686  0.000767  0.990109  1
  Ga  Ga7  1  0.263686  0.000767  0.509891  1
  Ga  Ga8  1  0.999233  0.262919  0.509891  1
  Ga  Ga9  1  0.999233  0.262919  0.990109  1
  Ga  Ga10  1  0.737081  0.736314  0.990109  1
  Ga  Ga11  1  0.737081  0.736314  0.509891  1
  Pd  Pd12  1  0.000000  0.000000  0.750000  1
  Pd  Pd13  1  0.000000  0.000000  0.250000  1
  Pt  Pt14  1  0.666667  0.333333  0.533236  1
  Pt  Pt15  1  0.666667  0.333333  0.966764  1
  Pt  Pt16  1  0.333333  0.666667  0.968761  1
  Pt  Pt17  1  0.333333  0.666667  0.531239  1
