# generated using pymatgen
data_SmDy7(C2Br3)2
_symmetry_space_group_name_H-M   'P 1'
_cell_length_a   3.70048900
_cell_length_b   10.77244367
_cell_length_c   20.54120802
_cell_angle_alpha   90.16566359
_cell_angle_beta   90.00000000
_cell_angle_gamma   90.00000000
_symmetry_Int_Tables_number   1
_chemical_formula_structural   SmDy7(C2Br3)2
_chemical_formula_sum   'Sm2 Dy14 C8 Br12'
_cell_volume   818.83710568
_cell_formula_units_Z   2
loop_
 _symmetry_equiv_pos_site_id
 _symmetry_equiv_pos_as_xyz
  1  'x, y, z'
loop_
 _atom_site_type_symbol
 _atom_site_label
 _atom_site_symmetry_multiplicity
 _atom_site_fract_x
 _atom_site_fract_y
 _atom_site_fract_z
 _atom_site_occupancy
  Sm  Sm0  1  0.250000  0.864476  0.578941  1
  Sm  Sm1  1  0.750000  0.135524  0.421059  1
  Dy  Dy2  1  0.750000  0.634510  0.080217  1
  Dy  Dy3  1  0.250000  0.365490  0.919783  1
  Dy  Dy4  1  0.250000  0.864956  0.744998  1
  Dy  Dy5  1  0.750000  0.135044  0.255002  1
  Dy  Dy6  1  0.750000  0.635241  0.243641  1
  Dy  Dy7  1  0.250000  0.364759  0.756359  1
  Dy  Dy8  1  0.250000  0.869004  0.168673  1
  Dy  Dy9  1  0.750000  0.130996  0.831327  1
  Dy  Dy10  1  0.750000  0.630286  0.670035  1
  Dy  Dy11  1  0.250000  0.369714  0.329965  1
  Dy  Dy12  1  0.250000  0.901175  0.327727  1
  Dy  Dy13  1  0.750000  0.098825  0.672273  1
  Dy  Dy14  1  0.750000  0.599235  0.829099  1
  Dy  Dy15  1  0.250000  0.400765  0.170901  1
  C  C16  1  0.250000  0.613227  0.751392  1
  C  C17  1  0.750000  0.386773  0.248608  1
  C  C18  1  0.750000  0.885859  0.249775  1
  C  C19  1  0.250000  0.114141  0.750225  1
  C  C20  1  0.250000  0.633639  0.155747  1
  C  C21  1  0.750000  0.366361  0.844253  1
  C  C22  1  0.750000  0.865353  0.658452  1
  C  C23  1  0.250000  0.134647  0.341548  1
  Br  Br24  1  0.250000  0.605754  0.556916  1
  Br  Br25  1  0.750000  0.394246  0.443084  1
  Br  Br26  1  0.750000  0.887576  0.055144  1
  Br  Br27  1  0.250000  0.112424  0.944856  1
  Br  Br28  1  0.250000  0.627276  0.953092  1
  Br  Br29  1  0.750000  0.372724  0.046908  1
  Br  Br30  1  0.750000  0.868888  0.450632  1
  Br  Br31  1  0.250000  0.131112  0.549368  1
  Br  Br32  1  0.250000  0.637162  0.355467  1
  Br  Br33  1  0.750000  0.362838  0.644533  1
  Br  Br34  1  0.750000  0.863691  0.857497  1
  Br  Br35  1  0.250000  0.136309  0.142503  1
