# generated using pymatgen
data_Dy2SiIrBr2
_symmetry_space_group_name_H-M   'P 1'
_cell_length_a   4.11952300
_cell_length_b   4.11952139
_cell_length_c   11.25761900
_cell_angle_alpha   90.00000000
_cell_angle_beta   90.00000000
_cell_angle_gamma   120.00000489
_symmetry_Int_Tables_number   1
_chemical_formula_structural   Dy2SiIrBr2
_chemical_formula_sum   'Dy2 Si1 Ir1 Br2'
_cell_volume   165.45155412
_cell_formula_units_Z   1
loop_
 _symmetry_equiv_pos_site_id
 _symmetry_equiv_pos_as_xyz
  1  'x, y, z'
loop_
 _atom_site_type_symbol
 _atom_site_label
 _atom_site_symmetry_multiplicity
 _atom_site_fract_x
 _atom_site_fract_y
 _atom_site_fract_z
 _atom_site_occupancy
  Dy  Dy0  1  0.000000  0.000000  0.831561  1
  Dy  Dy1  1  0.000000  0.000000  0.168723  1
  Si  Si2  1  0.666667  0.333333  0.005709  1
  Ir  Ir3  1  0.333333  0.666667  0.994362  1
  Br  Br4  1  0.333333  0.666667  0.331857  1
  Br  Br5  1  0.666667  0.333333  0.667787  1
