# generated using pymatgen
data_PaSi2Ni9
_symmetry_space_group_name_H-M   'P 1'
_cell_length_a   7.53786991
_cell_length_b   7.53787064
_cell_length_c   7.53786996
_cell_angle_alpha   99.54856880
_cell_angle_beta   99.54856561
_cell_angle_gamma   131.93082315
_symmetry_Int_Tables_number   1
_chemical_formula_structural   PaSi2Ni9
_chemical_formula_sum   'Pa2 Si4 Ni18'
_cell_volume   291.00758189
_cell_formula_units_Z   2
loop_
 _symmetry_equiv_pos_site_id
 _symmetry_equiv_pos_as_xyz
  1  'x, y, z'
loop_
 _atom_site_type_symbol
 _atom_site_label
 _atom_site_symmetry_multiplicity
 _atom_site_fract_x
 _atom_site_fract_y
 _atom_site_fract_z
 _atom_site_occupancy
  Pa  Pa0  1  0.500000  0.500000  0.000000  1
  Pa  Pa1  1  0.750000  0.250000  0.500000  1
  Si  Si2  1  0.625000  0.875000  0.750000  1
  Si  Si3  1  0.125000  0.375000  0.250000  1
  Si  Si4  1  0.125000  0.875000  0.750000  1
  Si  Si5  1  0.125000  0.875000  0.250000  1
  Ni  Ni6  1  0.250000  0.750000  0.500000  1
  Ni  Ni7  1  0.000000  0.000000  0.000000  1
  Ni  Ni8  1  0.686046  0.011321  0.078885  1
  Ni  Ni9  1  0.686046  0.607162  0.674725  1
  Ni  Ni10  1  0.261321  0.436046  0.578885  1
  Ni  Ni11  1  0.261321  0.682435  0.825275  1
  Ni  Ni12  1  0.932435  0.011321  0.325275  1
  Ni  Ni13  1  0.932435  0.607162  0.921115  1
  Ni  Ni14  1  0.857162  0.436046  0.174725  1
  Ni  Ni15  1  0.857162  0.682435  0.421115  1
  Ni  Ni16  1  0.563954  0.738679  0.421115  1
  Ni  Ni17  1  0.563954  0.142838  0.825275  1
  Ni  Ni18  1  0.988679  0.313954  0.921115  1
  Ni  Ni19  1  0.988679  0.067565  0.674725  1
  Ni  Ni20  1  0.317565  0.738679  0.174725  1
  Ni  Ni21  1  0.317565  0.142838  0.578885  1
  Ni  Ni22  1  0.392838  0.313954  0.325275  1
  Ni  Ni23  1  0.392838  0.067565  0.078885  1
