# generated using pymatgen
data_Tb3NiAg2Hg3
_symmetry_space_group_name_H-M   'P 1'
_cell_length_a   7.88753200
_cell_length_b   7.88753279
_cell_length_c   3.75309500
_cell_angle_alpha   90.00000000
_cell_angle_beta   90.00000000
_cell_angle_gamma   119.99999668
_symmetry_Int_Tables_number   1
_chemical_formula_structural   Tb3NiAg2Hg3
_chemical_formula_sum   'Tb3 Ni1 Ag2 Hg3'
_cell_volume   202.20994724
_cell_formula_units_Z   1
loop_
 _symmetry_equiv_pos_site_id
 _symmetry_equiv_pos_as_xyz
  1  'x, y, z'
loop_
 _atom_site_type_symbol
 _atom_site_label
 _atom_site_symmetry_multiplicity
 _atom_site_fract_x
 _atom_site_fract_y
 _atom_site_fract_z
 _atom_site_occupancy
  Tb  Tb0  1  0.419029  0.033938  0.000000  1
  Tb  Tb1  1  0.966062  0.385091  0.000000  1
  Tb  Tb2  1  0.614909  0.580971  0.000000  1
  Ni  Ni3  1  0.666667  0.333333  0.500001  1
  Ag  Ag4  1  0.000000  0.000000  0.000000  1
  Ag  Ag5  1  0.333333  0.666667  0.500001  1
  Hg  Hg6  1  0.721696  0.000832  0.500001  1
  Hg  Hg7  1  0.279136  0.278304  0.500001  1
  Hg  Hg8  1  0.999168  0.720864  0.500001  1
