# generated using pymatgen
data_Cs4NaAgBi2
_symmetry_space_group_name_H-M   'P 1'
_cell_length_a   7.56077256
_cell_length_b   7.56077191
_cell_length_c   6.98426356
_cell_angle_alpha   91.61597230
_cell_angle_beta   91.61597991
_cell_angle_gamma   103.51348178
_symmetry_Int_Tables_number   1
_chemical_formula_structural   Cs4NaAgBi2
_chemical_formula_sum   'Cs4 Na1 Ag1 Bi2'
_cell_volume   387.80083459
_cell_formula_units_Z   1
loop_
 _symmetry_equiv_pos_site_id
 _symmetry_equiv_pos_as_xyz
  1  'x, y, z'
loop_
 _atom_site_type_symbol
 _atom_site_label
 _atom_site_symmetry_multiplicity
 _atom_site_fract_x
 _atom_site_fract_y
 _atom_site_fract_z
 _atom_site_occupancy
  Cs  Cs0  1  0.471473  0.815464  0.242212  1
  Cs  Cs1  1  0.184536  0.528527  0.757788  1
  Cs  Cs2  1  0.528527  0.184536  0.757788  1
  Cs  Cs3  1  0.815464  0.471473  0.242212  1
  Na  Na4  1  0.000000  0.000000  0.500000  1
  Ag  Ag5  1  0.000000  0.000000  0.000000  1
  Bi  Bi6  1  0.255789  0.255789  0.237722  1
  Bi  Bi7  1  0.744211  0.744211  0.762278  1
