# generated using pymatgen
data_CaLa2Si4(AsPd10)2
_symmetry_space_group_name_H-M   'P 1'
_cell_length_a   8.85615503
_cell_length_b   8.85615565
_cell_length_c   8.77775300
_cell_angle_alpha   60.29242570
_cell_angle_beta   60.29242340
_cell_angle_gamma   59.41515190
_symmetry_Int_Tables_number   1
_chemical_formula_structural   CaLa2Si4(AsPd10)2
_chemical_formula_sum   'Ca1 La2 Si4 As2 Pd20'
_cell_volume   486.73360027
_cell_formula_units_Z   1
loop_
 _symmetry_equiv_pos_site_id
 _symmetry_equiv_pos_as_xyz
  1  'x, y, z'
loop_
 _atom_site_type_symbol
 _atom_site_label
 _atom_site_symmetry_multiplicity
 _atom_site_fract_x
 _atom_site_fract_y
 _atom_site_fract_z
 _atom_site_occupancy
  Ca  Ca0  1  0.000000  0.000000  0.000000  1
  La  La1  1  0.750000  0.750000  0.750000  1
  La  La2  1  0.250000  0.250000  0.250000  1
  Si  Si3  1  0.735846  0.264154  0.735846  1
  Si  Si4  1  0.264154  0.735846  0.264154  1
  Si  Si5  1  0.264154  0.735846  0.735846  1
  Si  Si6  1  0.735846  0.264154  0.264154  1
  As  As7  1  0.736877  0.736877  0.263123  1
  As  As8  1  0.263123  0.263123  0.736877  1
  Pd  Pd9  1  0.611878  0.611878  0.619527  1
  Pd  Pd10  1  0.388122  0.388122  0.380473  1
  Pd  Pd11  1  0.156716  0.619527  0.611878  1
  Pd  Pd12  1  0.619527  0.156716  0.611878  1
  Pd  Pd13  1  0.843284  0.380473  0.388122  1
  Pd  Pd14  1  0.380473  0.843284  0.388122  1
  Pd  Pd15  1  0.611878  0.611878  0.156716  1
  Pd  Pd16  1  0.388122  0.388122  0.843284  1
  Pd  Pd17  1  0.000000  0.000000  0.652662  1
  Pd  Pd18  1  0.000000  0.000000  0.347338  1
  Pd  Pd19  1  0.347338  0.652662  0.000000  1
  Pd  Pd20  1  0.652662  0.347338  0.000000  1
  Pd  Pd21  1  0.007710  0.651776  0.992290  1
  Pd  Pd22  1  0.651776  0.007710  0.348224  1
  Pd  Pd23  1  0.992290  0.348224  0.007710  1
  Pd  Pd24  1  0.348224  0.992290  0.651776  1
  Pd  Pd25  1  0.651776  0.007710  0.992290  1
  Pd  Pd26  1  0.348224  0.992290  0.007710  1
  Pd  Pd27  1  0.007710  0.651776  0.348224  1
  Pd  Pd28  1  0.992290  0.348224  0.651776  1
