# generated using pymatgen
data_Er5Tm2CoBr12
_symmetry_space_group_name_H-M   'P 1'
_cell_length_a   9.12690842
_cell_length_b   9.10774896
_cell_length_c   9.12246927
_cell_angle_alpha   106.68277286
_cell_angle_beta   106.74963741
_cell_angle_gamma   106.61570973
_symmetry_Int_Tables_number   1
_chemical_formula_structural   Er5Tm2CoBr12
_chemical_formula_sum   'Er5 Tm2 Co1 Br12'
_cell_volume   636.91477169
_cell_formula_units_Z   1
loop_
 _symmetry_equiv_pos_site_id
 _symmetry_equiv_pos_as_xyz
  1  'x, y, z'
loop_
 _atom_site_type_symbol
 _atom_site_label
 _atom_site_symmetry_multiplicity
 _atom_site_fract_x
 _atom_site_fract_y
 _atom_site_fract_z
 _atom_site_occupancy
  Er  Er0  1  0.298633  0.095964  0.019830  1
  Er  Er1  1  0.096529  0.019840  0.299022  1
  Er  Er2  1  0.019795  0.299616  0.096748  1
  Er  Er3  1  0.701096  0.903323  0.979857  1
  Er  Er4  1  0.903443  0.980292  0.700899  1
  Tm  Tm5  1  0.980207  0.702232  0.903777  1
  Tm  Tm6  1  0.500196  0.499715  0.500012  1
  Co  Co7  1  0.999909  0.000235  0.999982  1
  Br  Br8  1  0.220215  0.068952  0.674087  1
  Br  Br9  1  0.068974  0.673897  0.219375  1
  Br  Br10  1  0.673916  0.220684  0.068991  1
  Br  Br11  1  0.779721  0.930804  0.325767  1
  Br  Br12  1  0.931025  0.327297  0.779907  1
  Br  Br13  1  0.324944  0.778196  0.930756  1
  Br  Br14  1  0.386010  0.463335  0.168798  1
  Br  Br15  1  0.462691  0.167662  0.386314  1
  Br  Br16  1  0.169238  0.386925  0.463573  1
  Br  Br17  1  0.614808  0.536356  0.831276  1
  Br  Br18  1  0.537220  0.831731  0.613587  1
  Br  Br19  1  0.831430  0.612945  0.537442  1
