# generated using pymatgen
data_AcLa(InPd2)2
_symmetry_space_group_name_H-M   'P 1'
_cell_length_a   4.71900400
_cell_length_b   4.71900457
_cell_length_c   9.65984400
_cell_angle_alpha   90.00000000
_cell_angle_beta   90.00000000
_cell_angle_gamma   119.99999602
_symmetry_Int_Tables_number   1
_chemical_formula_structural   AcLa(InPd2)2
_chemical_formula_sum   'Ac1 La1 In2 Pd4'
_cell_volume   186.29513136
_cell_formula_units_Z   1
loop_
 _symmetry_equiv_pos_site_id
 _symmetry_equiv_pos_as_xyz
  1  'x, y, z'
loop_
 _atom_site_type_symbol
 _atom_site_label
 _atom_site_symmetry_multiplicity
 _atom_site_fract_x
 _atom_site_fract_y
 _atom_site_fract_z
 _atom_site_occupancy
  Ac  Ac0  1  0.666667  0.333333  0.750000  1
  La  La1  1  0.333333  0.666667  0.250000  1
  In  In2  1  0.000000  0.000000  0.011218  1
  In  In3  1  0.000000  0.000000  0.488782  1
  Pd  Pd4  1  0.333333  0.666667  0.936856  1
  Pd  Pd5  1  0.666667  0.333333  0.415856  1
  Pd  Pd6  1  0.333333  0.666667  0.563144  1
  Pd  Pd7  1  0.666667  0.333333  0.084144  1
