# generated using pymatgen
data_La2B4OsRh4
_symmetry_space_group_name_H-M   'P 1'
_cell_length_a   7.61163545
_cell_length_b   6.38926026
_cell_length_c   5.71887270
_cell_angle_alpha   77.68140111
_cell_angle_beta   55.09288852
_cell_angle_gamma   47.22571289
_symmetry_Int_Tables_number   1
_chemical_formula_structural   La2B4OsRh4
_chemical_formula_sum   'La2 B4 Os1 Rh4'
_cell_volume   160.16792006
_cell_formula_units_Z   1
loop_
 _symmetry_equiv_pos_site_id
 _symmetry_equiv_pos_as_xyz
  1  'x, y, z'
loop_
 _atom_site_type_symbol
 _atom_site_label
 _atom_site_symmetry_multiplicity
 _atom_site_fract_x
 _atom_site_fract_y
 _atom_site_fract_z
 _atom_site_occupancy
  La  La0  1  0.858170  0.858170  0.141830  1
  La  La1  1  0.141830  0.141830  0.858170  1
  B  B2  1  0.784635  0.477509  0.539311  1
  B  B3  1  0.198545  0.539311  0.477509  1
  B  B4  1  0.539311  0.198545  0.784635  1
  B  B5  1  0.477509  0.784635  0.198545  1
  Os  Os6  1  0.750000  0.750000  0.750000  1
  Rh  Rh7  1  0.498337  0.498337  0.001663  1
  Rh  Rh8  1  0.500000  0.500000  0.500000  1
  Rh  Rh9  1  0.001663  0.001663  0.498337  1
  Rh  Rh10  1  0.250000  0.250000  0.250000  1
