# generated using pymatgen
data_CeDyEr(Co3P2)3
_symmetry_space_group_name_H-M   'P 1'
_cell_length_a   3.70924100
_cell_length_b   10.55121400
_cell_length_c   12.17454200
_cell_angle_alpha   90.00000000
_cell_angle_beta   90.00000000
_cell_angle_gamma   90.00000000
_symmetry_Int_Tables_number   1
_chemical_formula_structural   CeDyEr(Co3P2)3
_chemical_formula_sum   'Ce2 Dy2 Er2 Co18 P12'
_cell_volume   476.47499630
_cell_formula_units_Z   2
loop_
 _symmetry_equiv_pos_site_id
 _symmetry_equiv_pos_as_xyz
  1  'x, y, z'
loop_
 _atom_site_type_symbol
 _atom_site_label
 _atom_site_symmetry_multiplicity
 _atom_site_fract_x
 _atom_site_fract_y
 _atom_site_fract_z
 _atom_site_occupancy
  Ce  Ce0  1  0.000000  0.500000  0.525935  1
  Ce  Ce1  1  0.500000  0.000000  0.473673  1
  Dy  Dy2  1  0.000000  0.684373  0.795560  1
  Dy  Dy3  1  0.000000  0.315627  0.795560  1
  Er  Er4  1  0.500000  0.815896  0.204539  1
  Er  Er5  1  0.500000  0.184104  0.204539  1
  Co  Co6  1  0.500000  0.500000  0.156962  1
  Co  Co7  1  0.000000  0.000000  0.842869  1
  Co  Co8  1  0.500000  0.500000  0.700773  1
  Co  Co9  1  0.000000  0.000000  0.298787  1
  Co  Co10  1  0.000000  0.500000  0.985819  1
  Co  Co11  1  0.500000  0.000000  0.015662  1
  Co  Co12  1  0.500000  0.333206  0.995032  1
  Co  Co13  1  0.500000  0.666794  0.995032  1
  Co  Co14  1  0.000000  0.165984  0.005967  1
  Co  Co15  1  0.000000  0.834016  0.005967  1
  Co  Co16  1  0.500000  0.298531  0.429542  1
  Co  Co17  1  0.500000  0.701469  0.429542  1
  Co  Co18  1  0.000000  0.200645  0.569657  1
  Co  Co19  1  0.000000  0.799355  0.569657  1
  Co  Co20  1  0.500000  0.880316  0.711914  1
  Co  Co21  1  0.500000  0.119684  0.711914  1
  Co  Co22  1  0.000000  0.620308  0.287697  1
  Co  Co23  1  0.000000  0.379692  0.287697  1
  P  P24  1  0.500000  0.500000  0.881843  1
  P  P25  1  0.000000  0.000000  0.119369  1
  P  P26  1  0.500000  0.500000  0.341292  1
  P  P27  1  0.000000  0.000000  0.658322  1
  P  P28  1  0.500000  0.306404  0.616720  1
  P  P29  1  0.500000  0.693596  0.616720  1
  P  P30  1  0.000000  0.192956  0.382206  1
  P  P31  1  0.000000  0.807044  0.382206  1
  P  P32  1  0.500000  0.847732  0.894844  1
  P  P33  1  0.500000  0.152268  0.894844  1
  P  P34  1  0.000000  0.653490  0.105667  1
  P  P35  1  0.000000  0.346510  0.105667  1
