# generated using pymatgen
data_Tb2ErZr7Sn6
_symmetry_space_group_name_H-M   'P 1'
_cell_length_a   8.60657222
_cell_length_b   8.75212367
_cell_length_c   5.96217400
_cell_angle_alpha   90.00000000
_cell_angle_beta   90.00000000
_cell_angle_gamma   119.81724275
_symmetry_Int_Tables_number   1
_chemical_formula_structural   Tb2ErZr7Sn6
_chemical_formula_sum   'Tb2 Er1 Zr7 Sn6'
_cell_volume   389.65099376
_cell_formula_units_Z   1
loop_
 _symmetry_equiv_pos_site_id
 _symmetry_equiv_pos_as_xyz
  1  'x, y, z'
loop_
 _atom_site_type_symbol
 _atom_site_label
 _atom_site_symmetry_multiplicity
 _atom_site_fract_x
 _atom_site_fract_y
 _atom_site_fract_z
 _atom_site_occupancy
  Tb  Tb0  1  0.764780  0.998794  0.750000  1
  Tb  Tb1  1  0.232414  0.999367  0.250000  1
  Er  Er2  1  0.243123  0.243093  0.750000  1
  Zr  Zr3  1  0.998399  0.746886  0.750000  1
  Zr  Zr4  1  0.998965  0.254764  0.250000  1
  Zr  Zr5  1  0.751674  0.751059  0.250000  1
  Zr  Zr6  1  0.335172  0.668338  0.499212  1
  Zr  Zr7  1  0.667853  0.333434  0.000843  1
  Zr  Zr8  1  0.667853  0.333434  0.499157  1
  Zr  Zr9  1  0.335172  0.668338  0.000788  1
  Sn  Sn10  1  0.392701  0.995717  0.750000  1
  Sn  Sn11  1  0.394827  0.398774  0.250000  1
  Sn  Sn12  1  0.997519  0.604366  0.250000  1
  Sn  Sn13  1  0.001788  0.400858  0.750000  1
  Sn  Sn14  1  0.607418  0.602885  0.750000  1
  Sn  Sn15  1  0.610342  0.999889  0.250000  1
