# generated using pymatgen
data_AlTlSiSe4
_symmetry_space_group_name_H-M   'P 1'
_cell_length_a   16.81697700
_cell_length_b   7.22644993
_cell_length_c   7.60729800
_cell_angle_alpha   69.48425580
_cell_angle_beta   90.00000000
_cell_angle_gamma   90.00000000
_symmetry_Int_Tables_number   1
_chemical_formula_structural   AlTlSiSe4
_chemical_formula_sum   'Al4 Tl4 Si4 Se16'
_cell_volume   865.85734509
_cell_formula_units_Z   4
loop_
 _symmetry_equiv_pos_site_id
 _symmetry_equiv_pos_as_xyz
  1  'x, y, z'
loop_
 _atom_site_type_symbol
 _atom_site_label
 _atom_site_symmetry_multiplicity
 _atom_site_fract_x
 _atom_site_fract_y
 _atom_site_fract_z
 _atom_site_occupancy
  Al  Al0  1  0.581486  0.161535  0.479084  1
  Al  Al1  1  0.081486  0.838465  0.520916  1
  Al  Al2  1  0.273346  0.589064  0.706790  1
  Al  Al3  1  0.773346  0.410936  0.293210  1
  Tl  Tl4  1  0.392174  0.973111  0.189647  1
  Tl  Tl5  1  0.892174  0.026889  0.810353  1
  Tl  Tl6  1  0.605803  0.510081  0.801822  1
  Tl  Tl7  1  0.105803  0.489919  0.198178  1
  Si  Si8  1  0.421963  0.326109  0.533198  1
  Si  Si9  1  0.921963  0.673891  0.466802  1
  Si  Si10  1  0.726323  0.911300  0.272222  1
  Si  Si11  1  0.226323  0.088700  0.727778  1
  Se  Se12  1  0.597686  0.877307  0.382862  1
  Se  Se13  1  0.097686  0.122693  0.617138  1
  Se  Se14  1  0.412129  0.602703  0.615412  1
  Se  Se15  1  0.912129  0.397297  0.384588  1
  Se  Se16  1  0.801155  0.780459  0.546335  1
  Se  Se17  1  0.301155  0.219541  0.453665  1
  Se  Se18  1  0.199940  0.723867  0.423765  1
  Se  Se19  1  0.699940  0.276133  0.576235  1
  Se  Se20  1  0.761901  0.224316  0.083520  1
  Se  Se21  1  0.261901  0.775684  0.916480  1
  Se  Se22  1  0.239032  0.263714  0.925934  1
  Se  Se23  1  0.739032  0.736286  0.074066  1
  Se  Se24  1  0.994811  0.912039  0.246874  1
  Se  Se25  1  0.494811  0.087961  0.753126  1
  Se  Se26  1  0.992249  0.605520  0.741182  1
  Se  Se27  1  0.492249  0.394480  0.258818  1
