# generated using pymatgen
data_Cs3Tb(TaS4)2
_symmetry_space_group_name_H-M   'P 1'
_cell_length_a   9.83274805
_cell_length_b   10.85213081
_cell_length_c   11.57478842
_cell_angle_alpha   107.46874020
_cell_angle_beta   103.79765789
_cell_angle_gamma   113.40275916
_symmetry_Int_Tables_number   1
_chemical_formula_structural   Cs3Tb(TaS4)2
_chemical_formula_sum   'Cs6 Tb2 Ta4 S16'
_cell_volume   986.82759980
_cell_formula_units_Z   2
loop_
 _symmetry_equiv_pos_site_id
 _symmetry_equiv_pos_as_xyz
  1  'x, y, z'
loop_
 _atom_site_type_symbol
 _atom_site_label
 _atom_site_symmetry_multiplicity
 _atom_site_fract_x
 _atom_site_fract_y
 _atom_site_fract_z
 _atom_site_occupancy
  Cs  Cs0  1  0.000001  0.500002  0.000001  1
  Cs  Cs1  1  0.500002  0.500002  0.000005  1
  Cs  Cs2  1  0.265612  0.015630  0.031174  1
  Cs  Cs3  1  0.483178  0.733174  0.466284  1
  Cs  Cs4  1  0.516826  0.266830  0.533723  1
  Cs  Cs5  1  0.734385  0.984369  0.968818  1
  Tb  Tb6  1  0.998912  0.248889  0.497858  1
  Tb  Tb7  1  0.001086  0.751110  0.502141  1
  Ta  Ta8  1  0.766420  0.356621  0.266429  1
  Ta  Ta9  1  0.999989  0.909776  0.266381  1
  Ta  Ta10  1  0.000013  0.090224  0.733617  1
  Ta  Ta11  1  0.233578  0.643377  0.733573  1
  S  S12  1  0.657302  0.275553  0.044189  1
  S  S13  1  0.886844  0.768585  0.044138  1
  S  S14  1  0.112339  0.159290  0.309765  1
  S  S15  1  0.697451  0.150474  0.309791  1
  S  S16  1  0.040457  0.502579  0.354103  1
  S  S17  1  0.813650  0.851571  0.354090  1
  S  S18  1  0.188267  0.858495  0.365554  1
  S  S19  1  0.677329  0.507139  0.365594  1
  S  S20  1  0.322666  0.492856  0.634406  1
  S  S21  1  0.811732  0.141503  0.634441  1
  S  S22  1  0.186350  0.148423  0.645906  1
  S  S23  1  0.959539  0.497422  0.645900  1
  S  S24  1  0.302547  0.849524  0.690208  1
  S  S25  1  0.887659  0.840708  0.690234  1
  S  S26  1  0.113158  0.231420  0.955862  1
  S  S27  1  0.342701  0.724448  0.955814  1
