# generated using pymatgen
data_Lu10Sn6As
_symmetry_space_group_name_H-M   'P 1'
_cell_length_a   6.42265500
_cell_length_b   8.89768493
_cell_length_c   8.89789800
_cell_angle_alpha   119.99922322
_cell_angle_beta   89.99956945
_cell_angle_gamma   90.00085336
_symmetry_Int_Tables_number   1
_chemical_formula_structural   Lu10Sn6As
_chemical_formula_sum   'Lu10 Sn6 As1'
_cell_volume   440.36528090
_cell_formula_units_Z   1
loop_
 _symmetry_equiv_pos_site_id
 _symmetry_equiv_pos_as_xyz
  1  'x, y, z'
loop_
 _atom_site_type_symbol
 _atom_site_label
 _atom_site_symmetry_multiplicity
 _atom_site_fract_x
 _atom_site_fract_y
 _atom_site_fract_z
 _atom_site_occupancy
  Lu  Lu0  1  0.499991  0.333343  0.666686  1
  Lu  Lu1  1  0.499991  0.666657  0.333314  1
  Lu  Lu2  1  0.999993  0.666651  0.333305  1
  Lu  Lu3  1  0.999993  0.333346  0.666695  1
  Lu  Lu4  1  0.753525  0.249595  0.000000  1
  Lu  Lu5  1  0.753530  0.750415  0.750417  1
  Lu  Lu6  1  0.753530  0.999998  0.249583  1
  Lu  Lu7  1  0.246477  0.750410  0.000000  1
  Lu  Lu8  1  0.246485  0.249580  0.249570  1
  Lu  Lu9  1  0.246485  0.000010  0.750430  1
  Sn  Sn10  1  0.749485  0.606230  0.000000  1
  Sn  Sn11  1  0.749481  0.393768  0.393749  1
  Sn  Sn12  1  0.749481  0.000020  0.606251  1
  Sn  Sn13  1  0.250511  0.393777  0.000000  1
  Sn  Sn14  1  0.250517  0.606219  0.606235  1
  Sn  Sn15  1  0.250517  0.999985  0.393765  1
  As  As16  1  0.500010  0.999998  0.000000  1
