# generated using pymatgen
data_RbPr6IrI12
_symmetry_space_group_name_H-M   'P 1'
_cell_length_a   10.12220251
_cell_length_b   10.12220176
_cell_length_c   10.12220181
_cell_angle_alpha   104.83685042
_cell_angle_beta   104.83684725
_cell_angle_gamma   104.83683610
_symmetry_Int_Tables_number   1
_chemical_formula_structural   RbPr6IrI12
_chemical_formula_sum   'Rb1 Pr6 Ir1 I12'
_cell_volume   909.88781979
_cell_formula_units_Z   1
loop_
 _symmetry_equiv_pos_site_id
 _symmetry_equiv_pos_as_xyz
  1  'x, y, z'
loop_
 _atom_site_type_symbol
 _atom_site_label
 _atom_site_symmetry_multiplicity
 _atom_site_fract_x
 _atom_site_fract_y
 _atom_site_fract_z
 _atom_site_occupancy
  Rb  Rb0  1  0.500000  0.500000  0.500000  1
  Pr  Pr1  1  0.092626  0.298794  0.012706  1
  Pr  Pr2  1  0.298794  0.012707  0.092625  1
  Pr  Pr3  1  0.012707  0.092625  0.298795  1
  Pr  Pr4  1  0.987294  0.907375  0.701206  1
  Pr  Pr5  1  0.701206  0.987294  0.907375  1
  Pr  Pr6  1  0.907374  0.701206  0.987294  1
  Ir  Ir7  1  0.000000  0.000000  0.000000  1
  I  I8  1  0.224640  0.671845  0.076853  1
  I  I9  1  0.429741  0.344228  0.110746  1
  I  I10  1  0.671846  0.076853  0.224640  1
  I  I11  1  0.923148  0.775360  0.328155  1
  I  I12  1  0.110746  0.429741  0.344228  1
  I  I13  1  0.344228  0.110746  0.429741  1
  I  I14  1  0.655772  0.889254  0.570260  1
  I  I15  1  0.889255  0.570259  0.655772  1
  I  I16  1  0.076853  0.224640  0.671846  1
  I  I17  1  0.328155  0.923148  0.775360  1
  I  I18  1  0.570259  0.655772  0.889255  1
  I  I19  1  0.775360  0.328155  0.923147  1
