# generated using pymatgen
data_Ac2PtN2
_symmetry_space_group_name_H-M   'P 1'
_cell_length_a   3.90474382
_cell_length_b   3.90474383
_cell_length_c   7.08319159
_cell_angle_alpha   106.00391892
_cell_angle_beta   106.00392299
_cell_angle_gamma   89.98573113
_symmetry_Int_Tables_number   1
_chemical_formula_structural   Ac2PtN2
_chemical_formula_sum   'Ac2 Pt1 N2'
_cell_volume   99.45243673
_cell_formula_units_Z   1
loop_
 _symmetry_equiv_pos_site_id
 _symmetry_equiv_pos_as_xyz
  1  'x, y, z'
loop_
 _atom_site_type_symbol
 _atom_site_label
 _atom_site_symmetry_multiplicity
 _atom_site_fract_x
 _atom_site_fract_y
 _atom_site_fract_z
 _atom_site_occupancy
  Ac  Ac0  1  0.147263  0.647263  0.794529  1
  Ac  Ac1  1  0.852737  0.352737  0.205471  1
  Pt  Pt2  1  0.500000  0.000000  0.500000  1
  N  N3  1  0.662950  0.162950  0.825897  1
  N  N4  1  0.337050  0.837050  0.174103  1
