# generated using pymatgen
data_Dy4Tm4Sc12Si15Os
_symmetry_space_group_name_H-M   'P 1'
_cell_length_a   7.06538516
_cell_length_b   7.41556754
_cell_length_c   13.92537835
_cell_angle_alpha   90.00781866
_cell_angle_beta   89.97548565
_cell_angle_gamma   90.19482986
_symmetry_Int_Tables_number   1
_chemical_formula_structural   Dy4Tm4Sc12Si15Os
_chemical_formula_sum   'Dy4 Tm4 Sc12 Si15 Os1'
_cell_volume   729.59976542
_cell_formula_units_Z   1
loop_
 _symmetry_equiv_pos_site_id
 _symmetry_equiv_pos_as_xyz
  1  'x, y, z'
loop_
 _atom_site_type_symbol
 _atom_site_label
 _atom_site_symmetry_multiplicity
 _atom_site_fract_x
 _atom_site_fract_y
 _atom_site_fract_z
 _atom_site_occupancy
  Dy  Dy0  1  0.511284  0.323098  0.095837  1
  Dy  Dy1  1  0.011183  0.178221  0.404324  1
  Dy  Dy2  1  0.511164  0.323173  0.403769  1
  Dy  Dy3  1  0.488326  0.676579  0.595803  1
  Tm  Tm4  1  0.011559  0.178940  0.096190  1
  Tm  Tm5  1  0.990823  0.828021  0.903397  1
  Tm  Tm6  1  0.488014  0.677559  0.903666  1
  Tm  Tm7  1  0.990713  0.828036  0.596926  1
  Sc  Sc8  1  0.155962  0.497930  0.750188  1
  Sc  Sc9  1  0.838287  0.495187  0.249785  1
  Sc  Sc10  1  0.338986  0.005755  0.249816  1
  Sc  Sc11  1  0.669197  0.997148  0.750140  1
  Sc  Sc12  1  0.317840  0.171774  0.627380  1
  Sc  Sc13  1  0.672235  0.825416  0.373974  1
  Sc  Sc14  1  0.171111  0.678335  0.374216  1
  Sc  Sc15  1  0.672070  0.825344  0.125735  1
  Sc  Sc16  1  0.837197  0.319068  0.627602  1
  Sc  Sc17  1  0.317593  0.171971  0.872898  1
  Sc  Sc18  1  0.837464  0.318789  0.872656  1
  Sc  Sc19  1  0.171178  0.678440  0.125535  1
  Si  Si20  1  0.968730  0.885536  0.249692  1
  Si  Si21  1  0.469066  0.614724  0.249864  1
  Si  Si22  1  0.529183  0.389852  0.750438  1
  Si  Si23  1  0.285712  0.865812  0.750533  1
  Si  Si24  1  0.714217  0.130052  0.249448  1
  Si  Si25  1  0.213155  0.370470  0.249450  1
  Si  Si26  1  0.778971  0.628108  0.750586  1
  Si  Si27  1  0.159142  0.469830  0.537267  1
  Si  Si28  1  0.844605  0.536916  0.461867  1
  Si  Si29  1  0.344690  0.965632  0.460183  1
  Si  Si30  1  0.844742  0.535986  0.038289  1
  Si  Si31  1  0.656495  0.033486  0.538508  1
  Si  Si32  1  0.160342  0.469626  0.962805  1
  Si  Si33  1  0.656335  0.032548  0.961395  1
  Si  Si34  1  0.343578  0.965474  0.039779  1
  Os  Os35  1  0.028848  0.107169  0.750059  1
