# generated using pymatgen
data_CaSmNi2(B4Os3)2
_symmetry_space_group_name_H-M   'P 1'
_cell_length_a   7.54030664
_cell_length_b   7.32297307
_cell_length_c   4.00057900
_cell_angle_alpha   90.00000000
_cell_angle_beta   90.00000000
_cell_angle_gamma   87.69024175
_symmetry_Int_Tables_number   1
_chemical_formula_structural   CaSmNi2(B4Os3)2
_chemical_formula_sum   'Ca1 Sm1 Ni2 B8 Os6'
_cell_volume   220.72234814
_cell_formula_units_Z   1
loop_
 _symmetry_equiv_pos_site_id
 _symmetry_equiv_pos_as_xyz
  1  'x, y, z'
loop_
 _atom_site_type_symbol
 _atom_site_label
 _atom_site_symmetry_multiplicity
 _atom_site_fract_x
 _atom_site_fract_y
 _atom_site_fract_z
 _atom_site_occupancy
  Ca  Ca0  1  0.500000  0.500000  0.592400  1
  Sm  Sm1  1  0.000000  0.000000  0.020673  1
  Ni  Ni2  1  0.135487  0.384626  0.880681  1
  Ni  Ni3  1  0.864513  0.615374  0.880681  1
  B  B4  1  0.673880  0.783175  0.106737  1
  B  B5  1  0.326120  0.216825  0.106737  1
  B  B6  1  0.283442  0.834798  0.602690  1
  B  B7  1  0.716558  0.165202  0.602690  1
  B  B8  1  0.844380  0.690699  0.383663  1
  B  B9  1  0.155620  0.309301  0.383663  1
  B  B10  1  0.208323  0.669484  0.881591  1
  B  B11  1  0.791677  0.330516  0.881591  1
  Os  Os12  1  0.879197  0.368816  0.375909  1
  Os  Os13  1  0.120803  0.631184  0.375909  1
  Os  Os14  1  0.346117  0.115300  0.607198  1
  Os  Os15  1  0.653883  0.884700  0.607198  1
  Os  Os16  1  0.605558  0.149134  0.104995  1
  Os  Os17  1  0.394442  0.850866  0.104995  1
