# generated using pymatgen
data_Hf4TiSi4W3
_symmetry_space_group_name_H-M   'P 1'
_cell_length_a   3.52531100
_cell_length_b   6.93365549
_cell_length_c   8.23933182
_cell_angle_alpha   90.21742559
_cell_angle_beta   90.00000000
_cell_angle_gamma   90.00000000
_symmetry_Int_Tables_number   1
_chemical_formula_structural   Hf4TiSi4W3
_chemical_formula_sum   'Hf4 Ti1 Si4 W3'
_cell_volume   201.39494322
_cell_formula_units_Z   1
loop_
 _symmetry_equiv_pos_site_id
 _symmetry_equiv_pos_as_xyz
  1  'x, y, z'
loop_
 _atom_site_type_symbol
 _atom_site_label
 _atom_site_symmetry_multiplicity
 _atom_site_fract_x
 _atom_site_fract_y
 _atom_site_fract_z
 _atom_site_occupancy
  Hf  Hf0  1  0.250000  0.543652  0.167196  1
  Hf  Hf1  1  0.250000  0.043006  0.334194  1
  Hf  Hf2  1  0.750000  0.456862  0.833457  1
  Hf  Hf3  1  0.750000  0.961434  0.669470  1
  Ti  Ti4  1  0.250000  0.628820  0.560763  1
  Si  Si5  1  0.250000  0.756342  0.859703  1
  Si  Si6  1  0.250000  0.256281  0.637103  1
  Si  Si7  1  0.750000  0.242729  0.139335  1
  Si  Si8  1  0.750000  0.742872  0.360926  1
  W  W9  1  0.250000  0.133207  0.938576  1
  W  W10  1  0.750000  0.366593  0.438255  1
  W  W11  1  0.750000  0.868202  0.061023  1
