# generated using pymatgen
data_Ac6Ga7SnSe2
_symmetry_space_group_name_H-M   'P 1'
_cell_length_a   8.51269515
_cell_length_b   8.51269444
_cell_length_c   8.50035200
_cell_angle_alpha   119.88811544
_cell_angle_beta   119.88811267
_cell_angle_gamma   90.20387692
_symmetry_Int_Tables_number   1
_chemical_formula_structural   Ac6Ga7SnSe2
_chemical_formula_sum   'Ac6 Ga7 Sn1 Se2'
_cell_volume   436.26385574
_cell_formula_units_Z   1
loop_
 _symmetry_equiv_pos_site_id
 _symmetry_equiv_pos_as_xyz
  1  'x, y, z'
loop_
 _atom_site_type_symbol
 _atom_site_label
 _atom_site_symmetry_multiplicity
 _atom_site_fract_x
 _atom_site_fract_y
 _atom_site_fract_z
 _atom_site_occupancy
  Ac  Ac0  1  0.664048  0.164048  0.829463  1
  Ac  Ac1  1  0.164575  0.334874  0.497488  1
  Ac  Ac2  1  0.834874  0.664575  0.497488  1
  Ac  Ac3  1  0.746708  0.753389  0.000229  1
  Ac  Ac4  1  0.342711  0.842711  0.179186  1
  Ac  Ac5  1  0.253389  0.246708  0.000229  1
  Ga  Ga6  1  0.837728  0.048501  0.491061  1
  Ga  Ga7  1  0.340599  0.840599  0.779191  1
  Ga  Ga8  1  0.441636  0.660343  0.500967  1
  Ga  Ga9  1  0.548501  0.337728  0.491061  1
  Ga  Ga10  1  0.063738  0.563738  0.233140  1
  Ga  Ga11  1  0.160343  0.941636  0.500967  1
  Ga  Ga12  1  0.659654  0.159654  0.220194  1
  Sn  Sn13  1  0.941721  0.441721  0.780330  1
  Se  Se14  1  0.499674  0.500100  0.999503  1
  Se  Se15  1  0.000100  0.999674  0.999503  1
