# generated using pymatgen
data_K3Dy(BO3)2
_symmetry_space_group_name_H-M   'P 1'
_cell_length_a   5.57710700
_cell_length_b   6.90238200
_cell_length_c   9.43910500
_cell_angle_alpha   90.00000000
_cell_angle_beta   90.00000000
_cell_angle_gamma   90.00000000
_symmetry_Int_Tables_number   1
_chemical_formula_structural   K3Dy(BO3)2
_chemical_formula_sum   'K6 Dy2 B4 O12'
_cell_volume   363.36139551
_cell_formula_units_Z   2
loop_
 _symmetry_equiv_pos_site_id
 _symmetry_equiv_pos_as_xyz
  1  'x, y, z'
loop_
 _atom_site_type_symbol
 _atom_site_label
 _atom_site_symmetry_multiplicity
 _atom_site_fract_x
 _atom_site_fract_y
 _atom_site_fract_z
 _atom_site_occupancy
  K  K0  1  0.000000  0.232348  0.332700  1
  K  K1  1  0.000000  0.767652  0.667300  1
  K  K2  1  0.500000  0.732348  0.167300  1
  K  K3  1  0.500000  0.500000  0.500000  1
  K  K4  1  0.500000  0.267652  0.832700  1
  K  K5  1  0.000000  0.000000  0.000000  1
  Dy  Dy6  1  0.000000  0.500000  0.000000  1
  Dy  Dy7  1  0.500000  0.000000  0.500000  1
  B  B8  1  0.000000  0.763502  0.333972  1
  B  B9  1  0.000000  0.236498  0.666028  1
  B  B10  1  0.500000  0.736498  0.833972  1
  B  B11  1  0.500000  0.263502  0.166028  1
  O  O12  1  0.716465  0.300104  0.096811  1
  O  O13  1  0.216465  0.199896  0.596811  1
  O  O14  1  0.500000  0.192080  0.304313  1
  O  O15  1  0.716465  0.699896  0.903189  1
  O  O16  1  0.283535  0.300104  0.096811  1
  O  O17  1  0.216465  0.800104  0.403189  1
  O  O18  1  0.783535  0.199896  0.596811  1
  O  O19  1  0.283535  0.699896  0.903189  1
  O  O20  1  0.783535  0.800104  0.403189  1
  O  O21  1  0.000000  0.307920  0.804313  1
  O  O22  1  0.000000  0.692080  0.195687  1
  O  O23  1  0.500000  0.807920  0.695687  1
