# generated using pymatgen
data_Dy2InNi9
_symmetry_space_group_name_H-M   'P 1'
_cell_length_a   8.50696548
_cell_length_b   8.50696521
_cell_length_c   8.50696519
_cell_angle_alpha   33.60343484
_cell_angle_beta   33.60343388
_cell_angle_gamma   33.60343879
_symmetry_Int_Tables_number   1
_chemical_formula_structural   Dy2InNi9
_chemical_formula_sum   'Dy2 In1 Ni9'
_cell_volume   167.97448372
_cell_formula_units_Z   1
loop_
 _symmetry_equiv_pos_site_id
 _symmetry_equiv_pos_as_xyz
  1  'x, y, z'
loop_
 _atom_site_type_symbol
 _atom_site_label
 _atom_site_symmetry_multiplicity
 _atom_site_fract_x
 _atom_site_fract_y
 _atom_site_fract_z
 _atom_site_occupancy
  Dy  Dy0  1  0.857860  0.857860  0.857860  1
  Dy  Dy1  1  0.004379  0.004379  0.004379  1
  In  In2  1  0.139345  0.139345  0.139345  1
  Ni  Ni3  1  0.332550  0.332550  0.332550  1
  Ni  Ni4  1  0.665953  0.665953  0.665953  1
  Ni  Ni5  1  0.499490  0.499490  0.499490  1
  Ni  Ni6  1  0.583005  0.081889  0.583005  1
  Ni  Ni7  1  0.583005  0.583005  0.081889  1
  Ni  Ni8  1  0.081889  0.583005  0.583005  1
  Ni  Ni9  1  0.919642  0.416441  0.416441  1
  Ni  Ni10  1  0.416441  0.416441  0.919642  1
  Ni  Ni11  1  0.416441  0.919642  0.416441  1
