# generated using pymatgen
data_Dy18Ho2CoBi8Os3
_symmetry_space_group_name_H-M   'P 1'
_cell_length_a   7.96509084
_cell_length_b   8.99388815
_cell_length_c   12.44346926
_cell_angle_alpha   90.01301346
_cell_angle_beta   89.75257938
_cell_angle_gamma   89.98326784
_symmetry_Int_Tables_number   1
_chemical_formula_structural   Dy18Ho2CoBi8Os3
_chemical_formula_sum   'Dy18 Ho2 Co1 Bi8 Os3'
_cell_volume   891.40612853
_cell_formula_units_Z   1
loop_
 _symmetry_equiv_pos_site_id
 _symmetry_equiv_pos_as_xyz
  1  'x, y, z'
loop_
 _atom_site_type_symbol
 _atom_site_label
 _atom_site_symmetry_multiplicity
 _atom_site_fract_x
 _atom_site_fract_y
 _atom_site_fract_z
 _atom_site_occupancy
  Dy  Dy0  1  0.344327  0.750056  0.701687  1
  Dy  Dy1  1  0.658157  0.249943  0.292456  1
  Dy  Dy2  1  0.842557  0.249901  0.791486  1
  Dy  Dy3  1  0.156175  0.750103  0.206576  1
  Dy  Dy4  1  0.879236  0.750227  0.805842  1
  Dy  Dy5  1  0.119922  0.249765  0.193747  1
  Dy  Dy6  1  0.378482  0.249946  0.693241  1
  Dy  Dy7  1  0.616974  0.750035  0.312091  1
  Dy  Dy8  1  0.675757  0.542130  0.563773  1
  Dy  Dy9  1  0.325029  0.460686  0.436916  1
  Dy  Dy10  1  0.174984  0.457956  0.936078  1
  Dy  Dy11  1  0.325050  0.039303  0.436893  1
  Dy  Dy12  1  0.824325  0.542945  0.064212  1
  Dy  Dy13  1  0.675738  0.957898  0.563789  1
  Dy  Dy14  1  0.055296  0.750032  0.496858  1
  Dy  Dy15  1  0.945080  0.249974  0.503006  1
  Dy  Dy16  1  0.557932  0.249774  0.003606  1
  Dy  Dy17  1  0.442224  0.750227  0.995747  1
  Ho  Ho18  1  0.825089  0.957057  0.064103  1
  Ho  Ho19  1  0.174217  0.042059  0.936193  1
  Co  Co20  1  0.429416  0.749976  0.491025  1
  Bi  Bi21  1  0.570312  0.508746  0.827179  1
  Bi  Bi22  1  0.429425  0.492199  0.173054  1
  Bi  Bi23  1  0.071682  0.491959  0.671874  1
  Bi  Bi24  1  0.429691  0.007764  0.172987  1
  Bi  Bi25  1  0.929090  0.508993  0.328423  1
  Bi  Bi26  1  0.570061  0.991284  0.827249  1
  Bi  Bi27  1  0.929036  0.990995  0.328378  1
  Bi  Bi28  1  0.071731  0.008046  0.671923  1
  Os  Os29  1  0.075230  0.750419  0.989146  1
  Os  Os30  1  0.923968  0.249582  0.010284  1
  Os  Os31  1  0.573810  0.250021  0.510180  1
