# generated using pymatgen
data_Tm3Mg3Hg2Ru
_symmetry_space_group_name_H-M   'P 1'
_cell_length_a   7.91488400
_cell_length_b   7.91488434
_cell_length_c   3.85674200
_cell_angle_alpha   90.00000000
_cell_angle_beta   90.00000000
_cell_angle_gamma   119.99999860
_symmetry_Int_Tables_number   1
_chemical_formula_structural   Tm3Mg3Hg2Ru
_chemical_formula_sum   'Tm3 Mg3 Hg2 Ru1'
_cell_volume   209.23789977
_cell_formula_units_Z   1
loop_
 _symmetry_equiv_pos_site_id
 _symmetry_equiv_pos_as_xyz
  1  'x, y, z'
loop_
 _atom_site_type_symbol
 _atom_site_label
 _atom_site_symmetry_multiplicity
 _atom_site_fract_x
 _atom_site_fract_y
 _atom_site_fract_z
 _atom_site_occupancy
  Tm  Tm0  1  0.565796  0.956498  0.000000  1
  Tm  Tm1  1  0.043502  0.609297  0.000000  1
  Tm  Tm2  1  0.390703  0.434204  0.000000  1
  Mg  Mg3  1  0.266944  0.001777  0.500000  1
  Mg  Mg4  1  0.998223  0.265167  0.500000  1
  Mg  Mg5  1  0.734833  0.733056  0.500000  1
  Hg  Hg6  1  0.666667  0.333333  0.500000  1
  Hg  Hg7  1  0.000000  0.000000  0.000000  1
  Ru  Ru8  1  0.333333  0.666667  0.500000  1
