# generated using pymatgen
data_YbY(Si2Rh3)2
_symmetry_space_group_name_H-M   'P 1'
_cell_length_a   6.63876653
_cell_length_b   6.63876654
_cell_length_c   6.63876722
_cell_angle_alpha   130.17182895
_cell_angle_beta   114.81971256
_cell_angle_gamma   86.28196080
_symmetry_Int_Tables_number   1
_chemical_formula_structural   YbY(Si2Rh3)2
_chemical_formula_sum   'Yb1 Y1 Si4 Rh6'
_cell_volume   193.77016025
_cell_formula_units_Z   1
loop_
 _symmetry_equiv_pos_site_id
 _symmetry_equiv_pos_as_xyz
  1  'x, y, z'
loop_
 _atom_site_type_symbol
 _atom_site_label
 _atom_site_symmetry_multiplicity
 _atom_site_fract_x
 _atom_site_fract_y
 _atom_site_fract_z
 _atom_site_occupancy
  Yb  Yb0  1  0.250000  0.541085  0.291085  1
  Y  Y1  1  0.750000  0.456034  0.706034  1
  Si  Si2  1  0.078671  0.883706  0.805036  1
  Si  Si3  1  0.922450  0.117484  0.195034  1
  Si  Si4  1  0.577550  0.772584  0.195034  1
  Si  Si5  1  0.421329  0.226365  0.805036  1
  Rh  Rh6  1  0.714714  0.001080  0.714820  1
  Rh  Rh7  1  0.213740  0.500106  0.714820  1
  Rh  Rh8  1  0.286260  0.001080  0.286365  1
  Rh  Rh9  1  0.785286  0.500106  0.286365  1
  Rh  Rh10  1  0.999127  0.000185  0.499313  1
  Rh  Rh11  1  0.500873  0.000185  0.001058  1
