# generated using pymatgen
data_Ho6Tm5LuIr4
_symmetry_space_group_name_H-M   'P 1'
_cell_length_a   6.34753925
_cell_length_b   7.20944412
_cell_length_c   9.07682824
_cell_angle_alpha   90.05189975
_cell_angle_beta   90.05321186
_cell_angle_gamma   89.94893339
_symmetry_Int_Tables_number   1
_chemical_formula_structural   Ho6Tm5LuIr4
_chemical_formula_sum   'Ho6 Tm5 Lu1 Ir4'
_cell_volume   415.37538238
_cell_formula_units_Z   1
loop_
 _symmetry_equiv_pos_site_id
 _symmetry_equiv_pos_as_xyz
  1  'x, y, z'
loop_
 _atom_site_type_symbol
 _atom_site_label
 _atom_site_symmetry_multiplicity
 _atom_site_fract_x
 _atom_site_fract_y
 _atom_site_fract_z
 _atom_site_occupancy
  Ho  Ho0  1  0.172857  0.177563  0.437393  1
  Ho  Ho1  1  0.672638  0.322487  0.562360  1
  Ho  Ho2  1  0.872130  0.533936  0.249700  1
  Ho  Ho3  1  0.627335  0.033036  0.249229  1
  Ho  Ho4  1  0.127665  0.466989  0.750460  1
  Ho  Ho5  1  0.372482  0.966039  0.750228  1
  Tm  Tm6  1  0.827868  0.821863  0.938793  1
  Tm  Tm7  1  0.670407  0.323072  0.938962  1
  Tm  Tm8  1  0.828454  0.823075  0.562879  1
  Tm  Tm9  1  0.328301  0.677072  0.436851  1
  Tm  Tm10  1  0.170396  0.176878  0.060815  1
  Lu  Lu11  1  0.327667  0.678001  0.061580  1
  Ir  Ir12  1  0.044587  0.883266  0.250111  1
  Ir  Ir13  1  0.455486  0.384427  0.247368  1
  Ir  Ir14  1  0.956024  0.115476  0.753468  1
  Ir  Ir15  1  0.545704  0.616819  0.749800  1
