# generated using pymatgen
data_Tb8HfZr11Si15Ge
_symmetry_space_group_name_H-M   'P 1'
_cell_length_a   7.35444974
_cell_length_b   7.36171943
_cell_length_c   13.53703579
_cell_angle_alpha   89.90401991
_cell_angle_beta   89.95899816
_cell_angle_gamma   89.95903242
_symmetry_Int_Tables_number   1
_chemical_formula_structural   Tb8HfZr11Si15Ge
_chemical_formula_sum   'Tb8 Hf1 Zr11 Si15 Ge1'
_cell_volume   732.91260655
_cell_formula_units_Z   1
loop_
 _symmetry_equiv_pos_site_id
 _symmetry_equiv_pos_as_xyz
  1  'x, y, z'
loop_
 _atom_site_type_symbol
 _atom_site_label
 _atom_site_symmetry_multiplicity
 _atom_site_fract_x
 _atom_site_fract_y
 _atom_site_fract_z
 _atom_site_occupancy
  Tb  Tb0  1  0.995479  0.345540  0.213279  1
  Tb  Tb1  1  0.003698  0.653901  0.714115  1
  Tb  Tb2  1  0.152250  0.498693  0.464729  1
  Tb  Tb3  1  0.504554  0.845504  0.035525  1
  Tb  Tb4  1  0.846237  0.503463  0.963923  1
  Tb  Tb5  1  0.496955  0.153113  0.537046  1
  Tb  Tb6  1  0.345903  0.996426  0.786463  1
  Tb  Tb7  1  0.654797  0.002647  0.285340  1
  Hf  Hf8  1  0.004391  0.851947  0.125097  1
  Zr  Zr9  1  0.175007  0.175275  0.000037  1
  Zr  Zr10  1  0.824894  0.825138  0.499966  1
  Zr  Zr11  1  0.324934  0.677636  0.249219  1
  Zr  Zr12  1  0.675466  0.324681  0.750164  1
  Zr  Zr13  1  0.145838  0.994446  0.373873  1
  Zr  Zr14  1  0.852672  0.004051  0.874887  1
  Zr  Zr15  1  0.504011  0.647612  0.624721  1
  Zr  Zr16  1  0.352192  0.496021  0.875625  1
  Zr  Zr17  1  0.495088  0.351979  0.123820  1
  Zr  Zr18  1  0.650306  0.507300  0.375883  1
  Zr  Zr19  1  0.995475  0.147374  0.625562  1
  Si  Si20  1  0.638787  0.706406  0.816341  1
  Si  Si21  1  0.206172  0.861452  0.566035  1
  Si  Si22  1  0.138324  0.794203  0.934405  1
  Si  Si23  1  0.794709  0.137099  0.066763  1
  Si  Si24  1  0.860919  0.206191  0.433697  1
  Si  Si25  1  0.293730  0.361231  0.683941  1
  Si  Si26  1  0.707166  0.639220  0.182823  1
  Si  Si27  1  0.294149  0.046754  0.184437  1
  Si  Si28  1  0.704888  0.948573  0.687297  1
  Si  Si29  1  0.448740  0.795600  0.436765  1
  Si  Si30  1  0.203734  0.551598  0.063555  1
  Si  Si31  1  0.550749  0.204495  0.936703  1
  Si  Si32  1  0.794874  0.448757  0.563401  1
  Si  Si33  1  0.051121  0.295219  0.813112  1
  Si  Si34  1  0.949764  0.704939  0.311885  1
  Ge  Ge35  1  0.362026  0.295517  0.319562  1
