# generated using pymatgen
data_Dy2Y2Mn3VB16
_symmetry_space_group_name_H-M   'P 1'
_cell_length_a   3.42606600
_cell_length_b   5.92156588
_cell_length_c   11.45132756
_cell_angle_alpha   90.02785120
_cell_angle_beta   90.00000000
_cell_angle_gamma   90.00000000
_symmetry_Int_Tables_number   1
_chemical_formula_structural   Dy2Y2Mn3VB16
_chemical_formula_sum   'Dy2 Y2 Mn3 V1 B16'
_cell_volume   232.32079055
_cell_formula_units_Z   1
loop_
 _symmetry_equiv_pos_site_id
 _symmetry_equiv_pos_as_xyz
  1  'x, y, z'
loop_
 _atom_site_type_symbol
 _atom_site_label
 _atom_site_symmetry_multiplicity
 _atom_site_fract_x
 _atom_site_fract_y
 _atom_site_fract_z
 _atom_site_occupancy
  Dy  Dy0  1  0.000000  0.626017  0.350949  1
  Dy  Dy1  1  0.000000  0.374146  0.650091  1
  Y  Y2  1  0.000000  0.124912  0.151453  1
  Y  Y3  1  0.000000  0.876496  0.847992  1
  Mn  Mn4  1  0.000000  0.377016  0.917527  1
  Mn  Mn5  1  0.000000  0.127660  0.417999  1
  Mn  Mn6  1  0.000000  0.871967  0.584415  1
  V  V7  1  0.000000  0.624045  0.081025  1
  B  B8  1  0.500000  0.783801  0.186223  1
  B  B9  1  0.500000  0.220755  0.816292  1
  B  B10  1  0.500000  0.279882  0.317350  1
  B  B11  1  0.500000  0.719308  0.683217  1
  B  B12  1  0.500000  0.864927  0.031132  1
  B  B13  1  0.500000  0.138501  0.965886  1
  B  B14  1  0.500000  0.361644  0.468224  1
  B  B15  1  0.500000  0.638342  0.532519  1
  B  B16  1  0.500000  0.887593  0.454327  1
  B  B17  1  0.500000  0.112092  0.546842  1
  B  B18  1  0.500000  0.383829  0.044276  1
  B  B19  1  0.500000  0.610163  0.950990  1
  B  B20  1  0.500000  0.975337  0.310139  1
  B  B21  1  0.500000  0.025524  0.690668  1
  B  B22  1  0.500000  0.473015  0.192300  1
  B  B23  1  0.500000  0.523029  0.808162  1
