# generated using pymatgen
data_SbP3RuO12
_symmetry_space_group_name_H-M   'P 1'
_cell_length_a   8.46484364
_cell_length_b   8.43801468
_cell_length_c   8.87290200
_cell_angle_alpha   89.85219083
_cell_angle_beta   118.48290829
_cell_angle_gamma   119.80459576
_symmetry_Int_Tables_number   1
_chemical_formula_structural   SbP3RuO12
_chemical_formula_sum   'Sb2 P6 Ru2 O24'
_cell_volume   459.96040857
_cell_formula_units_Z   2
loop_
 _symmetry_equiv_pos_site_id
 _symmetry_equiv_pos_as_xyz
  1  'x, y, z'
loop_
 _atom_site_type_symbol
 _atom_site_label
 _atom_site_symmetry_multiplicity
 _atom_site_fract_x
 _atom_site_fract_y
 _atom_site_fract_z
 _atom_site_occupancy
  Sb  Sb0  1  0.213123  0.857508  0.073147  1
  Sb  Sb1  1  0.203965  0.353484  0.556131  1
  P  P2  1  0.999361  0.962089  0.249286  1
  P  P3  1  0.999500  0.037918  0.749597  1
  P  P4  1  0.710469  0.246025  0.250680  1
  P  P5  1  0.286256  0.752874  0.744394  1
  P  P6  1  0.282916  0.534052  0.248175  1
  P  P7  1  0.714140  0.462349  0.747321  1
  Ru  Ru8  1  0.796481  0.645562  0.442453  1
  Ru  Ru9  1  0.786017  0.141915  0.927175  1
  O  O10  1  0.140286  0.023057  0.935410  1
  O  O11  1  0.230671  0.519311  0.397721  1
  O  O12  1  0.880788  0.989135  0.067033  1
  O  O13  1  0.496019  0.103561  0.240011  1
  O  O14  1  0.870688  0.110158  0.760170  1
  O  O15  1  0.760026  0.449206  0.282284  1
  O  O16  1  0.178713  0.159231  0.403195  1
  O  O17  1  0.771306  0.483289  0.604964  1
  O  O18  1  0.684863  0.188594  0.073728  1
  O  O19  1  0.233657  0.545011  0.715612  1
  O  O20  1  0.117561  0.772722  0.585523  1
  O  O21  1  0.348245  0.738914  0.233957  1
  O  O22  1  0.468547  0.512350  0.298746  1
  O  O23  1  0.172956  0.187621  0.713569  1
  O  O24  1  0.132245  0.888080  0.241746  1
  O  O25  1  0.652793  0.264651  0.770138  1
  O  O26  1  0.504698  0.891774  0.766390  1
  O  O27  1  0.079989  0.386176  0.065872  1
  O  O28  1  0.882781  0.226545  0.412368  1
  O  O29  1  0.300203  0.795933  0.922045  1
  O  O30  1  0.834739  0.841938  0.602575  1
  O  O31  1  0.830627  0.819369  0.286528  1
  O  O32  1  0.909971  0.623759  0.930308  1
  O  O33  1  0.525400  0.485837  0.701748  1
