# generated using pymatgen
data_Ce3Dy(B4Ru)4
_symmetry_space_group_name_H-M   'P 1'
_cell_length_a   3.61612500
_cell_length_b   5.99537546
_cell_length_c   11.62870882
_cell_angle_alpha   90.07988875
_cell_angle_beta   90.00000000
_cell_angle_gamma   90.00000000
_symmetry_Int_Tables_number   1
_chemical_formula_structural   Ce3Dy(B4Ru)4
_chemical_formula_sum   'Ce3 Dy1 B16 Ru4'
_cell_volume   252.11047712
_cell_formula_units_Z   1
loop_
 _symmetry_equiv_pos_site_id
 _symmetry_equiv_pos_as_xyz
  1  'x, y, z'
loop_
 _atom_site_type_symbol
 _atom_site_label
 _atom_site_symmetry_multiplicity
 _atom_site_fract_x
 _atom_site_fract_y
 _atom_site_fract_z
 _atom_site_occupancy
  Ce  Ce0  1  0.000000  0.129057  0.649752  1
  Ce  Ce1  1  0.000000  0.871072  0.349329  1
  Ce  Ce2  1  0.000000  0.628646  0.851329  1
  Dy  Dy3  1  0.000000  0.371375  0.149252  1
  B  B4  1  0.500000  0.475696  0.690713  1
  B  B5  1  0.500000  0.523832  0.308208  1
  B  B6  1  0.500000  0.974421  0.809982  1
  B  B7  1  0.500000  0.025721  0.190547  1
  B  B8  1  0.500000  0.287072  0.815276  1
  B  B9  1  0.500000  0.712306  0.185300  1
  B  B10  1  0.500000  0.786001  0.686064  1
  B  B11  1  0.500000  0.214153  0.313647  1
  B  B12  1  0.500000  0.363329  0.969368  1
  B  B13  1  0.500000  0.637006  0.031861  1
  B  B14  1  0.500000  0.862357  0.531042  1
  B  B15  1  0.500000  0.137305  0.468476  1
  B  B16  1  0.500000  0.388582  0.545597  1
  B  B17  1  0.500000  0.610568  0.453210  1
  B  B18  1  0.500000  0.889034  0.955081  1
  B  B19  1  0.500000  0.112573  0.046860  1
  Ru  Ru20  1  0.000000  0.139447  0.906412  1
  Ru  Ru21  1  0.000000  0.859691  0.092724  1
  Ru  Ru22  1  0.000000  0.640660  0.593623  1
  Ru  Ru23  1  0.000000  0.360096  0.406346  1
