# generated using pymatgen
data_Ir4OsRhW2
_symmetry_space_group_name_H-M   'P 1'
_cell_length_a   5.53422900
_cell_length_b   5.55005653
_cell_length_c   4.42591600
_cell_angle_alpha   90.00000000
_cell_angle_beta   90.00000000
_cell_angle_gamma   119.90571462
_symmetry_Int_Tables_number   1
_chemical_formula_structural   Ir4OsRhW2
_chemical_formula_sum   'Ir4 Os1 Rh1 W2'
_cell_volume   117.84201592
_cell_formula_units_Z   1
loop_
 _symmetry_equiv_pos_site_id
 _symmetry_equiv_pos_as_xyz
  1  'x, y, z'
loop_
 _atom_site_type_symbol
 _atom_site_label
 _atom_site_symmetry_multiplicity
 _atom_site_fract_x
 _atom_site_fract_y
 _atom_site_fract_z
 _atom_site_occupancy
  Ir  Ir0  1  0.165638  0.832149  0.750000  1
  Ir  Ir1  1  0.666510  0.832149  0.750000  1
  Ir  Ir2  1  0.332399  0.166928  0.250000  1
  Ir  Ir3  1  0.834530  0.166928  0.250000  1
  Os  Os4  1  0.834362  0.668724  0.250000  1
  Rh  Rh5  1  0.167007  0.334017  0.750000  1
  W  W6  1  0.333005  0.666011  0.250000  1
  W  W7  1  0.666549  0.333097  0.750000  1
