# generated using pymatgen
data_TbPr2Be3P3Pd20
_symmetry_space_group_name_H-M   'P 1'
_cell_length_a   8.65788833
_cell_length_b   8.65194009
_cell_length_c   8.61407489
_cell_angle_alpha   60.19030555
_cell_angle_beta   60.12164423
_cell_angle_gamma   59.68804820
_symmetry_Int_Tables_number   1
_chemical_formula_structural   TbPr2Be3P3Pd20
_chemical_formula_sum   'Tb1 Pr2 Be3 P3 Pd20'
_cell_volume   456.24651124
_cell_formula_units_Z   1
loop_
 _symmetry_equiv_pos_site_id
 _symmetry_equiv_pos_as_xyz
  1  'x, y, z'
loop_
 _atom_site_type_symbol
 _atom_site_label
 _atom_site_symmetry_multiplicity
 _atom_site_fract_x
 _atom_site_fract_y
 _atom_site_fract_z
 _atom_site_occupancy
  Tb  Tb0  1  0.003284  0.996716  0.003284  1
  Pr  Pr1  1  0.250864  0.249136  0.250864  1
  Pr  Pr2  1  0.750864  0.749136  0.750864  1
  Be  Be3  1  0.731025  0.268975  0.269477  1
  Be  Be4  1  0.269477  0.730523  0.731025  1
  Be  Be5  1  0.268985  0.731015  0.268985  1
  P  P6  1  0.734520  0.265480  0.734520  1
  P  P7  1  0.267377  0.268052  0.731948  1
  P  P8  1  0.731948  0.732623  0.267377  1
  Pd  Pd9  1  0.386322  0.388102  0.382386  1
  Pd  Pd10  1  0.610865  0.615738  0.615372  1
  Pd  Pd11  1  0.384262  0.389135  0.841976  1
  Pd  Pd12  1  0.382386  0.843189  0.386322  1
  Pd  Pd13  1  0.611898  0.613678  0.156811  1
  Pd  Pd14  1  0.615372  0.158024  0.610865  1
  Pd  Pd15  1  0.841976  0.384628  0.384262  1
  Pd  Pd16  1  0.156811  0.617614  0.611898  1
  Pd  Pd17  1  0.340903  0.996636  0.003364  1
  Pd  Pd18  1  0.655792  0.000026  0.999974  1
  Pd  Pd19  1  0.999974  0.344208  0.655792  1
  Pd  Pd20  1  0.003364  0.659097  0.340903  1
  Pd  Pd21  1  0.997525  0.341998  0.003340  1
  Pd  Pd22  1  0.658002  0.002475  0.342863  1
  Pd  Pd23  1  0.003340  0.657137  0.997525  1
  Pd  Pd24  1  0.342863  0.996660  0.658002  1
  Pd  Pd25  1  0.000149  0.999851  0.339881  1
  Pd  Pd26  1  0.003751  0.996249  0.656221  1
  Pd  Pd27  1  0.656221  0.343779  0.003751  1
  Pd  Pd28  1  0.339881  0.660119  0.000149  1
