# generated using pymatgen
data_Mg2V3Ni9P7
_symmetry_space_group_name_H-M   'P 1'
_cell_length_a   9.12732500
_cell_length_b   9.12732447
_cell_length_c   3.55356300
_cell_angle_alpha   90.00000000
_cell_angle_beta   90.00000000
_cell_angle_gamma   119.99999828
_symmetry_Int_Tables_number   1
_chemical_formula_structural   Mg2V3Ni9P7
_chemical_formula_sum   'Mg2 V3 Ni9 P7'
_cell_volume   256.37853602
_cell_formula_units_Z   1
loop_
 _symmetry_equiv_pos_site_id
 _symmetry_equiv_pos_as_xyz
  1  'x, y, z'
loop_
 _atom_site_type_symbol
 _atom_site_label
 _atom_site_symmetry_multiplicity
 _atom_site_fract_x
 _atom_site_fract_y
 _atom_site_fract_z
 _atom_site_occupancy
  Mg  Mg0  1  0.333333  0.666667  0.000000  1
  Mg  Mg1  1  0.666667  0.333333  0.500000  1
  V  V2  1  0.221355  0.120579  0.500000  1
  V  V3  1  0.879421  0.100777  0.500000  1
  V  V4  1  0.899223  0.778645  0.500000  1
  Ni  Ni5  1  0.126278  0.282618  0.000000  1
  Ni  Ni6  1  0.717382  0.843660  0.000000  1
  Ni  Ni7  1  0.156340  0.873722  0.000000  1
  Ni  Ni8  1  0.441830  0.372945  0.000000  1
  Ni  Ni9  1  0.627055  0.068885  0.000000  1
  Ni  Ni10  1  0.931115  0.558170  0.000000  1
  Ni  Ni11  1  0.062342  0.444525  0.500000  1
  Ni  Ni12  1  0.555475  0.617816  0.500000  1
  Ni  Ni13  1  0.382184  0.937658  0.500000  1
  P  P14  1  0.292734  0.409270  0.500000  1
  P  P15  1  0.590730  0.883464  0.500000  1
  P  P16  1  0.116536  0.707266  0.500000  1
  P  P17  1  0.410019  0.116484  0.000000  1
  P  P18  1  0.883516  0.293535  0.000000  1
  P  P19  1  0.706465  0.589981  0.000000  1
  P  P20  1  0.000000  0.000000  0.000000  1
