# generated using pymatgen
data_Pr2Fe15CoP10
_symmetry_space_group_name_H-M   'P 1'
_cell_length_a   3.59786300
_cell_length_b   9.14669400
_cell_length_c   10.55694600
_cell_angle_alpha   90.00000000
_cell_angle_beta   90.00000000
_cell_angle_gamma   90.00000000
_symmetry_Int_Tables_number   1
_chemical_formula_structural   Pr2Fe15CoP10
_chemical_formula_sum   'Pr2 Fe15 Co1 P10'
_cell_volume   347.41380550
_cell_formula_units_Z   1
loop_
 _symmetry_equiv_pos_site_id
 _symmetry_equiv_pos_as_xyz
  1  'x, y, z'
loop_
 _atom_site_type_symbol
 _atom_site_label
 _atom_site_symmetry_multiplicity
 _atom_site_fract_x
 _atom_site_fract_y
 _atom_site_fract_z
 _atom_site_occupancy
  Pr  Pr0  1  0.750000  0.819863  0.750000  1
  Pr  Pr1  1  0.250000  0.181393  0.250000  1
  Fe  Fe2  1  0.750000  0.518688  0.918899  1
  Fe  Fe3  1  0.750000  0.518688  0.581101  1
  Fe  Fe4  1  0.250000  0.481463  0.078941  1
  Fe  Fe5  1  0.250000  0.481463  0.421059  1
  Fe  Fe6  1  0.750000  0.109217  0.991094  1
  Fe  Fe7  1  0.750000  0.109217  0.508906  1
  Fe  Fe8  1  0.250000  0.890522  0.008602  1
  Fe  Fe9  1  0.250000  0.890522  0.491398  1
  Fe  Fe10  1  0.750000  0.693094  0.105430  1
  Fe  Fe11  1  0.750000  0.693094  0.394570  1
  Fe  Fe12  1  0.250000  0.306741  0.893929  1
  Fe  Fe13  1  0.250000  0.306741  0.606071  1
  Fe  Fe14  1  0.750000  0.153023  0.750000  1
  Fe  Fe15  1  0.250000  0.846185  0.250000  1
  Fe  Fe16  1  0.750000  0.456257  0.250000  1
  Co  Co17  1  0.250000  0.545814  0.750000  1
  P  P18  1  0.750000  0.933466  0.130617  1
  P  P19  1  0.750000  0.933466  0.369383  1
  P  P20  1  0.250000  0.066466  0.869509  1
  P  P21  1  0.250000  0.066466  0.630491  1
  P  P22  1  0.750000  0.338797  0.060934  1
  P  P23  1  0.750000  0.338797  0.439066  1
  P  P24  1  0.250000  0.661418  0.940287  1
  P  P25  1  0.250000  0.661418  0.559713  1
  P  P26  1  0.750000  0.388770  0.750000  1
  P  P27  1  0.250000  0.608956  0.250000  1
