# generated using pymatgen
data_ZrSc9Ga5Te
_symmetry_space_group_name_H-M   'P 1'
_cell_length_a   8.10377086
_cell_length_b   8.08897184
_cell_length_c   5.98255900
_cell_angle_alpha   90.00000000
_cell_angle_beta   90.00000000
_cell_angle_gamma   119.73566247
_symmetry_Int_Tables_number   1
_chemical_formula_structural   ZrSc9Ga5Te
_chemical_formula_sum   'Zr1 Sc9 Ga5 Te1'
_cell_volume   340.52480332
_cell_formula_units_Z   1
loop_
 _symmetry_equiv_pos_site_id
 _symmetry_equiv_pos_as_xyz
  1  'x, y, z'
loop_
 _atom_site_type_symbol
 _atom_site_label
 _atom_site_symmetry_multiplicity
 _atom_site_fract_x
 _atom_site_fract_y
 _atom_site_fract_z
 _atom_site_occupancy
  Zr  Zr0  1  0.000790  0.762837  0.250000  1
  Sc  Sc1  1  0.676674  0.330595  0.006167  1
  Sc  Sc2  1  0.330767  0.676717  0.005876  1
  Sc  Sc3  1  0.330767  0.676717  0.494124  1
  Sc  Sc4  1  0.676674  0.330595  0.493833  1
  Sc  Sc5  1  0.771936  0.770554  0.750000  1
  Sc  Sc6  1  0.233902  0.982333  0.750000  1
  Sc  Sc7  1  0.984023  0.233743  0.750000  1
  Sc  Sc8  1  0.235255  0.235881  0.250000  1
  Sc  Sc9  1  0.761584  0.000225  0.250000  1
  Ga  Ga10  1  0.597510  0.997164  0.750000  1
  Ga  Ga11  1  0.997634  0.597242  0.750000  1
  Ga  Ga12  1  0.604578  0.603699  0.250000  1
  Ga  Ga13  1  0.399380  0.006353  0.250000  1
  Ga  Ga14  1  0.005347  0.402470  0.250000  1
  Te  Te15  1  0.393178  0.392874  0.750000  1
