# generated using pymatgen
data_EuHo3Er3PtI12
_symmetry_space_group_name_H-M   'P 1'
_cell_length_a   9.77361698
_cell_length_b   9.77361702
_cell_length_c   9.77361790
_cell_angle_alpha   106.63326714
_cell_angle_beta   106.63326818
_cell_angle_gamma   106.63326837
_symmetry_Int_Tables_number   1
_chemical_formula_structural   EuHo3Er3PtI12
_chemical_formula_sum   'Eu1 Ho3 Er3 Pt1 I12'
_cell_volume   785.16872733
_cell_formula_units_Z   1
loop_
 _symmetry_equiv_pos_site_id
 _symmetry_equiv_pos_as_xyz
  1  'x, y, z'
loop_
 _atom_site_type_symbol
 _atom_site_label
 _atom_site_symmetry_multiplicity
 _atom_site_fract_x
 _atom_site_fract_y
 _atom_site_fract_z
 _atom_site_occupancy
  Eu  Eu0  1  0.000045  0.000045  0.000045  1
  Ho  Ho1  1  0.596414  0.524647  0.798857  1
  Ho  Ho2  1  0.798857  0.596414  0.524647  1
  Ho  Ho3  1  0.524647  0.798857  0.596414  1
  Er  Er4  1  0.403601  0.474948  0.201984  1
  Er  Er5  1  0.201984  0.403601  0.474948  1
  Er  Er6  1  0.474948  0.201984  0.403601  1
  Pt  Pt7  1  0.499234  0.499234  0.499234  1
  I  I8  1  0.046265  0.360185  0.125374  1
  I  I9  1  0.125374  0.046265  0.360185  1
  I  I10  1  0.360185  0.125374  0.046265  1
  I  I11  1  0.954301  0.640028  0.875031  1
  I  I12  1  0.875031  0.954301  0.640028  1
  I  I13  1  0.640028  0.875031  0.954301  1
  I  I14  1  0.721725  0.573531  0.176766  1
  I  I15  1  0.176766  0.721725  0.573531  1
  I  I16  1  0.573531  0.176766  0.721725  1
  I  I17  1  0.277557  0.426311  0.823196  1
  I  I18  1  0.823196  0.277557  0.426311  1
  I  I19  1  0.426311  0.823196  0.277557  1
