# generated using pymatgen
data_AcYbZn5Ge
_symmetry_space_group_name_H-M   'P 1'
_cell_length_a   8.48154700
_cell_length_b   8.48154678
_cell_length_c   8.95464100
_cell_angle_alpha   90.00000000
_cell_angle_beta   90.00000000
_cell_angle_gamma   149.00744351
_symmetry_Int_Tables_number   1
_chemical_formula_structural   AcYbZn5Ge
_chemical_formula_sum   'Ac2 Yb2 Zn10 Ge2'
_cell_volume   331.69867451
_cell_formula_units_Z   2
loop_
 _symmetry_equiv_pos_site_id
 _symmetry_equiv_pos_as_xyz
  1  'x, y, z'
loop_
 _atom_site_type_symbol
 _atom_site_label
 _atom_site_symmetry_multiplicity
 _atom_site_fract_x
 _atom_site_fract_y
 _atom_site_fract_z
 _atom_site_occupancy
  Ac  Ac0  1  0.000000  0.000000  0.500000  1
  Ac  Ac1  1  0.000000  0.000000  0.000000  1
  Yb  Yb2  1  0.206711  0.793289  0.250000  1
  Yb  Yb3  1  0.793289  0.206711  0.750000  1
  Zn  Zn4  1  0.811610  0.188390  0.390595  1
  Zn  Zn5  1  0.188390  0.811610  0.609405  1
  Zn  Zn6  1  0.811610  0.188390  0.109405  1
  Zn  Zn7  1  0.188390  0.811610  0.890595  1
  Zn  Zn8  1  0.655896  0.344104  0.479383  1
  Zn  Zn9  1  0.344104  0.655896  0.520617  1
  Zn  Zn10  1  0.655896  0.344104  0.020617  1
  Zn  Zn11  1  0.344104  0.655896  0.979383  1
  Zn  Zn12  1  0.401880  0.598120  0.250000  1
  Zn  Zn13  1  0.598120  0.401880  0.750000  1
  Ge  Ge14  1  0.563065  0.436935  0.250000  1
  Ge  Ge15  1  0.436935  0.563065  0.750000  1
