# generated using pymatgen
data_Er6TiAl23OsRu7
_symmetry_space_group_name_H-M   'P 1'
_cell_length_a   8.81660624
_cell_length_b   8.81660519
_cell_length_c   9.54156494
_cell_angle_alpha   90.04510184
_cell_angle_beta   89.95490122
_cell_angle_gamma   120.14406311
_symmetry_Int_Tables_number   1
_chemical_formula_structural   Er6TiAl23OsRu7
_chemical_formula_sum   'Er6 Ti1 Al23 Os1 Ru7'
_cell_volume   641.38768151
_cell_formula_units_Z   1
loop_
 _symmetry_equiv_pos_site_id
 _symmetry_equiv_pos_as_xyz
  1  'x, y, z'
loop_
 _atom_site_type_symbol
 _atom_site_label
 _atom_site_symmetry_multiplicity
 _atom_site_fract_x
 _atom_site_fract_y
 _atom_site_fract_z
 _atom_site_occupancy
  Er  Er0  1  0.196411  0.388882  0.248223  1
  Er  Er1  1  0.804885  0.612356  0.750108  1
  Er  Er2  1  0.611118  0.803589  0.248223  1
  Er  Er3  1  0.387644  0.195115  0.750108  1
  Er  Er4  1  0.193492  0.806508  0.249833  1
  Er  Er5  1  0.806813  0.193187  0.749719  1
  Ti  Ti6  1  0.332058  0.667942  0.995190  1
  Al  Al7  1  0.666842  0.333158  0.980793  1
  Al  Al8  1  0.666878  0.333122  0.517611  1
  Al  Al9  1  0.333260  0.666740  0.481172  1
  Al  Al10  1  0.161378  0.323292  0.577206  1
  Al  Al11  1  0.838359  0.676010  0.422786  1
  Al  Al12  1  0.676708  0.838622  0.577206  1
  Al  Al13  1  0.837859  0.674618  0.078118  1
  Al  Al14  1  0.323990  0.161641  0.422786  1
  Al  Al15  1  0.159423  0.318203  0.923497  1
  Al  Al16  1  0.161321  0.838679  0.577932  1
  Al  Al17  1  0.325382  0.162141  0.078118  1
  Al  Al18  1  0.838319  0.161681  0.422077  1
  Al  Al19  1  0.681797  0.840577  0.923497  1
  Al  Al20  1  0.837739  0.162261  0.078765  1
  Al  Al21  1  0.158211  0.841789  0.922832  1
  Al  Al22  1  0.561681  0.122384  0.252709  1
  Al  Al23  1  0.440362  0.881435  0.750153  1
  Al  Al24  1  0.877616  0.438319  0.252709  1
  Al  Al25  1  0.118565  0.559638  0.750153  1
  Al  Al26  1  0.562644  0.437356  0.253312  1
  Al  Al27  1  0.439752  0.560248  0.750062  1
  Al  Al28  1  0.999675  0.000325  0.249467  1
  Al  Al29  1  0.000063  0.999937  0.749319  1
  Os  Os30  1  0.498574  0.501426  0.003133  1
  Ru  Ru31  1  0.498719  0.997317  0.002454  1
  Ru  Ru32  1  0.002683  0.501281  0.002454  1
  Ru  Ru33  1  0.499522  0.999241  0.503012  1
  Ru  Ru34  1  0.000759  0.500478  0.503012  1
  Ru  Ru35  1  0.499687  0.500313  0.502913  1
  Ru  Ru36  1  0.999844  0.000156  0.000129  1
  Ru  Ru37  1  0.999969  0.000031  0.499209  1
