# generated using pymatgen
data_TmCoB4Ru3
_symmetry_space_group_name_H-M   'P 1'
_cell_length_a   9.07743745
_cell_length_b   7.36310972
_cell_length_c   7.36967635
_cell_angle_alpha   90.39898019
_cell_angle_beta   113.88757160
_cell_angle_gamma   114.15631080
_symmetry_Int_Tables_number   1
_chemical_formula_structural   TmCoB4Ru3
_chemical_formula_sum   'Tm4 Co4 B16 Ru12'
_cell_volume   402.04480615
_cell_formula_units_Z   4
loop_
 _symmetry_equiv_pos_site_id
 _symmetry_equiv_pos_as_xyz
  1  'x, y, z'
loop_
 _atom_site_type_symbol
 _atom_site_label
 _atom_site_symmetry_multiplicity
 _atom_site_fract_x
 _atom_site_fract_y
 _atom_site_fract_z
 _atom_site_occupancy
  Tm  Tm0  1  0.749862  0.869258  0.122154  1
  Tm  Tm1  1  0.248322  0.624000  0.371513  1
  Tm  Tm2  1  0.752574  0.376409  0.633006  1
  Tm  Tm3  1  0.249831  0.119966  0.881033  1
  Co  Co4  1  0.876410  0.557017  0.046992  1
  Co  Co5  1  0.377022  0.838064  0.046819  1
  Co  Co6  1  0.115319  0.943022  0.161807  1
  Co  Co7  1  0.630168  0.464254  0.171935  1
  B  B8  1  0.915737  0.295508  0.072408  1
  B  B9  1  0.424369  0.575248  0.129235  1
  B  B10  1  0.088081  0.209784  0.151125  1
  B  B11  1  0.574587  0.154039  0.203713  1
  B  B12  1  0.395657  0.041821  0.273538  1
  B  B13  1  0.909401  0.623731  0.346304  1
  B  B14  1  0.594219  0.643058  0.375558  1
  B  B15  1  0.082206  0.873492  0.428583  1
  B  B16  1  0.910512  0.126549  0.561425  1
  B  B17  1  0.415478  0.342555  0.624951  1
  B  B18  1  0.086990  0.377224  0.655189  1
  B  B19  1  0.584122  0.931908  0.707489  1
  B  B20  1  0.414521  0.849930  0.791862  1
  B  B21  1  0.916745  0.790988  0.858562  1
  B  B22  1  0.593263  0.442248  0.882176  1
  B  B23  1  0.093430  0.717792  0.950233  1
  Ru  Ru24  1  0.375521  0.325529  0.312672  1
  Ru  Ru25  1  0.866262  0.324405  0.333064  1
  Ru  Ru26  1  0.618789  0.954264  0.436654  1
  Ru  Ru27  1  0.126468  0.180065  0.457519  1
  Ru  Ru28  1  0.877569  0.826288  0.541034  1
  Ru  Ru29  1  0.367717  0.032179  0.543608  1
  Ru  Ru30  1  0.129748  0.682079  0.671365  1
  Ru  Ru31  1  0.627298  0.662516  0.677122  1
  Ru  Ru32  1  0.377021  0.540028  0.826392  1
  Ru  Ru33  1  0.873144  0.055879  0.835622  1
  Ru  Ru34  1  0.628020  0.172979  0.947548  1
  Ru  Ru35  1  0.133617  0.455923  0.969790  1
