# generated using pymatgen
data_Er3Sc5Ir4
_symmetry_space_group_name_H-M   'P 1'
_cell_length_a   4.30294800
_cell_length_b   7.03920091
_cell_length_c   8.47658153
_cell_angle_alpha   91.56650698
_cell_angle_beta   90.00000000
_cell_angle_gamma   90.00000000
_symmetry_Int_Tables_number   1
_chemical_formula_structural   Er3Sc5Ir4
_chemical_formula_sum   'Er3 Sc5 Ir4'
_cell_volume   256.65389618
_cell_formula_units_Z   1
loop_
 _symmetry_equiv_pos_site_id
 _symmetry_equiv_pos_as_xyz
  1  'x, y, z'
loop_
 _atom_site_type_symbol
 _atom_site_label
 _atom_site_symmetry_multiplicity
 _atom_site_fract_x
 _atom_site_fract_y
 _atom_site_fract_z
 _atom_site_occupancy
  Er  Er0  1  0.250000  0.983796  0.327183  1
  Er  Er1  1  0.750000  0.023517  0.674152  1
  Er  Er2  1  0.250000  0.482586  0.169027  1
  Sc  Sc3  1  0.750000  0.509857  0.837152  1
  Sc  Sc4  1  0.750000  0.642503  0.434096  1
  Sc  Sc5  1  0.250000  0.366921  0.576374  1
  Sc  Sc6  1  0.750000  0.141040  0.067923  1
  Sc  Sc7  1  0.250000  0.846703  0.925300  1
  Ir  Ir8  1  0.250000  0.242706  0.892044  1
  Ir  Ir9  1  0.750000  0.752346  0.099381  1
  Ir  Ir10  1  0.250000  0.750261  0.599661  1
  Ir  Ir11  1  0.750000  0.257763  0.397706  1
