# generated using pymatgen
data_PmVGe2Pt
_symmetry_space_group_name_H-M   'P 1'
_cell_length_a   6.11937279
_cell_length_b   6.11937357
_cell_length_c   6.11937176
_cell_angle_alpha   139.69355691
_cell_angle_beta   139.69357052
_cell_angle_gamma   58.31887477
_symmetry_Int_Tables_number   1
_chemical_formula_structural   PmVGe2Pt
_chemical_formula_sum   'Pm1 V1 Ge2 Pt1'
_cell_volume   95.01376277
_cell_formula_units_Z   1
loop_
 _symmetry_equiv_pos_site_id
 _symmetry_equiv_pos_as_xyz
  1  'x, y, z'
loop_
 _atom_site_type_symbol
 _atom_site_label
 _atom_site_symmetry_multiplicity
 _atom_site_fract_x
 _atom_site_fract_y
 _atom_site_fract_z
 _atom_site_occupancy
  Pm  Pm0  1  0.000000  0.000000  0.000000  1
  V  V1  1  0.750000  0.250000  0.500000  1
  Ge  Ge2  1  0.380980  0.380980  0.000000  1
  Ge  Ge3  1  0.619019  0.619019  0.000000  1
  Pt  Pt4  1  0.250000  0.750000  0.500000  1
