# generated using pymatgen
data_Sc6Zn20Cu3Se
_symmetry_space_group_name_H-M   'P 1'
_cell_length_a   8.69141977
_cell_length_b   8.69139296
_cell_length_c   8.73090100
_cell_angle_alpha   59.84947487
_cell_angle_beta   59.84921921
_cell_angle_gamma   60.30061651
_symmetry_Int_Tables_number   1
_chemical_formula_structural   Sc6Zn20Cu3Se
_chemical_formula_sum   'Sc6 Zn20 Cu3 Se1'
_cell_volume   466.34132105
_cell_formula_units_Z   1
loop_
 _symmetry_equiv_pos_site_id
 _symmetry_equiv_pos_as_xyz
  1  'x, y, z'
loop_
 _atom_site_type_symbol
 _atom_site_label
 _atom_site_symmetry_multiplicity
 _atom_site_fract_x
 _atom_site_fract_y
 _atom_site_fract_z
 _atom_site_occupancy
  Sc  Sc0  1  0.712020  0.287986  0.287950  1
  Sc  Sc1  1  0.288001  0.712003  0.712032  1
  Sc  Sc2  1  0.287980  0.712031  0.287943  1
  Sc  Sc3  1  0.712005  0.287989  0.712049  1
  Sc  Sc4  1  0.285456  0.285452  0.714557  1
  Sc  Sc5  1  0.714539  0.714541  0.285463  1
  Zn  Zn6  1  0.117696  0.117702  0.125451  1
  Zn  Zn7  1  0.882309  0.882301  0.874555  1
  Zn  Zn8  1  0.117703  0.117695  0.639160  1
  Zn  Zn9  1  0.125445  0.639165  0.117694  1
  Zn  Zn10  1  0.882303  0.882307  0.360846  1
  Zn  Zn11  1  0.874562  0.360839  0.882305  1
  Zn  Zn12  1  0.639165  0.125444  0.117702  1
  Zn  Zn13  1  0.360839  0.874559  0.882298  1
  Zn  Zn14  1  0.500003  0.999998  0.000005  1
  Zn  Zn15  1  0.000003  0.500002  0.500001  1
  Zn  Zn16  1  0.999999  0.500002  0.000005  1
  Zn  Zn17  1  0.500003  0.000002  0.500001  1
  Zn  Zn18  1  0.334990  0.335005  0.328819  1
  Zn  Zn19  1  0.665019  0.665000  0.671179  1
  Zn  Zn20  1  0.335002  0.334986  0.001192  1
  Zn  Zn21  1  0.328804  0.001192  0.334998  1
  Zn  Zn22  1  0.664999  0.665013  0.998807  1
  Zn  Zn23  1  0.671197  0.998815  0.665007  1
  Zn  Zn24  1  0.001191  0.328804  0.335015  1
  Zn  Zn25  1  0.998817  0.671195  0.664990  1
  Cu  Cu26  1  0.999954  0.999991  0.500035  1
  Cu  Cu27  1  0.499984  0.499969  0.999984  1
  Cu  Cu28  1  0.000012  0.000014  0.999968  1
  Se  Se29  1  0.500000  0.499996  0.499991  1
