# generated using pymatgen
data_Y3ErIrRh3O14
_symmetry_space_group_name_H-M   'P 1'
_cell_length_a   7.23722827
_cell_length_b   7.24006881
_cell_length_c   7.23722943
_cell_angle_alpha   59.92910950
_cell_angle_beta   59.89486081
_cell_angle_gamma   59.92910998
_symmetry_Int_Tables_number   1
_chemical_formula_structural   Y3ErIrRh3O14
_chemical_formula_sum   'Y3 Er1 Ir1 Rh3 O14'
_cell_volume   267.64589811
_cell_formula_units_Z   1
loop_
 _symmetry_equiv_pos_site_id
 _symmetry_equiv_pos_as_xyz
  1  'x, y, z'
loop_
 _atom_site_type_symbol
 _atom_site_label
 _atom_site_symmetry_multiplicity
 _atom_site_fract_x
 _atom_site_fract_y
 _atom_site_fract_z
 _atom_site_occupancy
  Y  Y0  1  0.625000  0.125000  0.125000  1
  Y  Y1  1  0.125000  0.125000  0.625000  1
  Y  Y2  1  0.125000  0.125000  0.125000  1
  Er  Er3  1  0.125000  0.625000  0.125000  1
  Ir  Ir4  1  0.625000  0.625000  0.625000  1
  Rh  Rh5  1  0.125000  0.625000  0.625000  1
  Rh  Rh6  1  0.625000  0.125000  0.625000  1
  Rh  Rh7  1  0.625000  0.625000  0.125000  1
  O  O8  1  0.712607  0.708173  0.291883  1
  O  O9  1  0.285913  0.286575  0.710952  1
  O  O10  1  0.710305  0.292322  0.710305  1
  O  O11  1  0.286139  0.708720  0.286139  1
  O  O12  1  0.291883  0.708173  0.712607  1
  O  O13  1  0.710952  0.286575  0.285913  1
  O  O14  1  0.537393  0.541827  0.958117  1
  O  O15  1  0.964087  0.963425  0.539048  1
  O  O16  1  0.539695  0.957678  0.539695  1
  O  O17  1  0.963861  0.541280  0.963861  1
  O  O18  1  0.958117  0.541827  0.537393  1
  O  O19  1  0.539048  0.963425  0.964087  1
  O  O20  1  0.249477  0.253766  0.249477  1
  O  O21  1  0.000523  0.996234  0.000523  1
