# generated using pymatgen
data_TbSmRe6(Si2Mo)2
_symmetry_space_group_name_H-M   'P 1'
_cell_length_a   7.84979623
_cell_length_b   7.04772211
_cell_length_c   4.20285500
_cell_angle_alpha   90.00000000
_cell_angle_beta   90.00000000
_cell_angle_gamma   89.53203885
_symmetry_Int_Tables_number   1
_chemical_formula_structural   TbSmRe6(Si2Mo)2
_chemical_formula_sum   'Tb1 Sm1 Re6 Si4 Mo2'
_cell_volume   232.50755869
_cell_formula_units_Z   1
loop_
 _symmetry_equiv_pos_site_id
 _symmetry_equiv_pos_as_xyz
  1  'x, y, z'
loop_
 _atom_site_type_symbol
 _atom_site_label
 _atom_site_symmetry_multiplicity
 _atom_site_fract_x
 _atom_site_fract_y
 _atom_site_fract_z
 _atom_site_occupancy
  Tb  Tb0  1  0.000000  0.000000  0.500000  1
  Sm  Sm1  1  0.500000  0.500000  0.000000  1
  Re  Re2  1  0.109445  0.344504  0.000000  1
  Re  Re3  1  0.890555  0.655496  0.000000  1
  Re  Re4  1  0.156446  0.575423  0.500000  1
  Re  Re5  1  0.843554  0.424577  0.500000  1
  Re  Re6  1  0.334387  0.075400  0.000000  1
  Re  Re7  1  0.665613  0.924600  0.000000  1
  Si  Si8  1  0.690006  0.729589  0.500000  1
  Si  Si9  1  0.309994  0.270411  0.500000  1
  Si  Si10  1  0.186794  0.769012  0.000000  1
  Si  Si11  1  0.813206  0.230988  0.000000  1
  Mo  Mo12  1  0.613730  0.151020  0.500000  1
  Mo  Mo13  1  0.386270  0.848980  0.500000  1
