# generated using pymatgen
data_Er8Ta3Si16Mo9
_symmetry_space_group_name_H-M   'P 1'
_cell_length_a   6.89337043
_cell_length_b   6.89337064
_cell_length_c   12.81307302
_cell_angle_alpha   90.01017752
_cell_angle_beta   89.98982169
_cell_angle_gamma   89.58102200
_symmetry_Int_Tables_number   1
_chemical_formula_structural   Er8Ta3Si16Mo9
_chemical_formula_sum   'Er8 Ta3 Si16 Mo9'
_cell_volume   608.84244700
_cell_formula_units_Z   1
loop_
 _symmetry_equiv_pos_site_id
 _symmetry_equiv_pos_as_xyz
  1  'x, y, z'
loop_
 _atom_site_type_symbol
 _atom_site_label
 _atom_site_symmetry_multiplicity
 _atom_site_fract_x
 _atom_site_fract_y
 _atom_site_fract_z
 _atom_site_occupancy
  Er  Er0  1  0.338864  0.999908  0.468635  1
  Er  Er1  1  0.498971  0.838820  0.719383  1
  Er  Er2  1  0.498526  0.162606  0.218144  1
  Er  Er3  1  0.838820  0.498971  0.280617  1
  Er  Er4  1  0.162606  0.498526  0.781856  1
  Er  Er5  1  0.659894  0.001478  0.968429  1
  Er  Er6  1  0.999908  0.338864  0.531365  1
  Er  Er7  1  0.001478  0.659894  0.031571  1
  Ta  Ta8  1  0.169434  0.831571  0.248499  1
  Ta  Ta9  1  0.831571  0.169434  0.751501  1
  Ta  Ta10  1  0.667759  0.667759  0.500000  1
  Si  Si11  1  0.204044  0.128509  0.683341  1
  Si  Si12  1  0.373823  0.696891  0.934891  1
  Si  Si13  1  0.628752  0.297255  0.432857  1
  Si  Si14  1  0.696891  0.373823  0.065109  1
  Si  Si15  1  0.297255  0.628752  0.567143  1
  Si  Si16  1  0.795068  0.871242  0.183059  1
  Si  Si17  1  0.128509  0.204044  0.316659  1
  Si  Si18  1  0.871242  0.795068  0.816941  1
  Si  Si19  1  0.287961  0.967224  0.059520  1
  Si  Si20  1  0.539615  0.790970  0.313381  1
  Si  Si21  1  0.457648  0.211748  0.816594  1
  Si  Si22  1  0.790970  0.539615  0.686619  1
  Si  Si23  1  0.211748  0.457648  0.183406  1
  Si  Si24  1  0.708755  0.039730  0.562980  1
  Si  Si25  1  0.967224  0.287961  0.940480  1
  Si  Si26  1  0.039730  0.708755  0.437020  1
  Mo  Mo27  1  0.332708  0.332708  0.000000  1
  Mo  Mo28  1  0.156711  0.999231  0.871758  1
  Mo  Mo29  1  0.497899  0.668576  0.125082  1
  Mo  Mo30  1  0.502899  0.338657  0.624407  1
  Mo  Mo31  1  0.668576  0.497899  0.874918  1
  Mo  Mo32  1  0.338657  0.502899  0.375593  1
  Mo  Mo33  1  0.840478  0.995776  0.373946  1
  Mo  Mo34  1  0.999231  0.156711  0.128242  1
  Mo  Mo35  1  0.995776  0.840478  0.626054  1
