# generated using pymatgen
data_Tm8Hf7Si16W5
_symmetry_space_group_name_H-M   'P 1'
_cell_length_a   6.83534758
_cell_length_b   7.04280414
_cell_length_c   13.49183045
_cell_angle_alpha   89.89880470
_cell_angle_beta   90.17329307
_cell_angle_gamma   89.87871915
_symmetry_Int_Tables_number   1
_chemical_formula_structural   Tm8Hf7Si16W5
_chemical_formula_sum   'Tm8 Hf7 Si16 W5'
_cell_volume   649.49146342
_cell_formula_units_Z   1
loop_
 _symmetry_equiv_pos_site_id
 _symmetry_equiv_pos_as_xyz
  1  'x, y, z'
loop_
 _atom_site_type_symbol
 _atom_site_label
 _atom_site_symmetry_multiplicity
 _atom_site_fract_x
 _atom_site_fract_y
 _atom_site_fract_z
 _atom_site_occupancy
  Tm  Tm0  1  0.502859  0.673376  0.595749  1
  Tm  Tm1  1  0.008066  0.826262  0.899834  1
  Tm  Tm2  1  0.494055  0.324455  0.097727  1
  Tm  Tm3  1  0.996217  0.175855  0.407402  1
  Tm  Tm4  1  0.495467  0.324805  0.403298  1
  Tm  Tm5  1  0.993185  0.173961  0.096778  1
  Tm  Tm6  1  0.504684  0.672918  0.901615  1
  Tm  Tm7  1  0.004818  0.825509  0.596183  1
  Hf  Hf8  1  0.665449  0.173333  0.624941  1
  Hf  Hf9  1  0.170876  0.326397  0.872352  1
  Hf  Hf10  1  0.329274  0.826537  0.126554  1
  Hf  Hf11  1  0.833319  0.670337  0.376042  1
  Hf  Hf12  1  0.329160  0.824889  0.376053  1
  Hf  Hf13  1  0.829997  0.673322  0.126528  1
  Hf  Hf14  1  0.670850  0.174180  0.870914  1
  Si  Si15  1  0.663169  0.968106  0.456757  1
  Si  Si16  1  0.162277  0.532463  0.041820  1
  Si  Si17  1  0.338713  0.032235  0.956357  1
  Si  Si18  1  0.847017  0.466611  0.547167  1
  Si  Si19  1  0.327688  0.041339  0.544981  1
  Si  Si20  1  0.838900  0.467926  0.956155  1
  Si  Si21  1  0.660828  0.967252  0.042164  1
  Si  Si22  1  0.167640  0.532095  0.464957  1
  Si  Si23  1  0.464211  0.386884  0.747517  1
  Si  Si24  1  0.972992  0.118643  0.745401  1
  Si  Si25  1  0.530764  0.611823  0.251020  1
  Si  Si26  1  0.029330  0.888560  0.251615  1
  Si  Si27  1  0.706704  0.863238  0.747915  1
  Si  Si28  1  0.204528  0.633092  0.747801  1
  Si  Si29  1  0.291196  0.137376  0.251126  1
  Si  Si30  1  0.794514  0.360651  0.250570  1
  W  W31  1  0.171235  0.329018  0.627506  1
  W  W32  1  0.841958  0.490412  0.747573  1
  W  W33  1  0.341548  0.009294  0.747641  1
  W  W34  1  0.159412  0.505173  0.251085  1
  W  W35  1  0.657105  0.991677  0.250901  1
