# generated using pymatgen
data_Y5HgIr2
_symmetry_space_group_name_H-M   'P 1'
_cell_length_a   7.81855500
_cell_length_b   7.81855500
_cell_length_c   13.32554900
_cell_angle_alpha   90.00000000
_cell_angle_beta   90.00000000
_cell_angle_gamma   90.00000000
_symmetry_Int_Tables_number   1
_chemical_formula_structural   Y5HgIr2
_chemical_formula_sum   'Y20 Hg4 Ir8'
_cell_volume   814.58817575
_cell_formula_units_Z   4
loop_
 _symmetry_equiv_pos_site_id
 _symmetry_equiv_pos_as_xyz
  1  'x, y, z'
loop_
 _atom_site_type_symbol
 _atom_site_label
 _atom_site_symmetry_multiplicity
 _atom_site_fract_x
 _atom_site_fract_y
 _atom_site_fract_z
 _atom_site_occupancy
  Y  Y0  1  0.842442  0.841149  0.885240  1
  Y  Y1  1  0.158851  0.157558  0.614760  1
  Y  Y2  1  0.842442  0.158851  0.385240  1
  Y  Y3  1  0.157558  0.841149  0.385240  1
  Y  Y4  1  0.341149  0.342442  0.385240  1
  Y  Y5  1  0.841149  0.157558  0.114760  1
  Y  Y6  1  0.341149  0.657558  0.885240  1
  Y  Y7  1  0.158851  0.842442  0.114760  1
  Y  Y8  1  0.500000  0.000000  0.751109  1
  Y  Y9  1  0.000000  0.500000  0.248891  1
  Y  Y10  1  0.342442  0.658851  0.614760  1
  Y  Y11  1  0.657558  0.658851  0.114760  1
  Y  Y12  1  0.657558  0.341149  0.614760  1
  Y  Y13  1  0.000000  0.500000  0.748891  1
  Y  Y14  1  0.841149  0.842442  0.614760  1
  Y  Y15  1  0.658851  0.342442  0.885240  1
  Y  Y16  1  0.157558  0.158851  0.885240  1
  Y  Y17  1  0.500000  0.000000  0.251109  1
  Y  Y18  1  0.658851  0.657558  0.385240  1
  Y  Y19  1  0.342442  0.341149  0.114760  1
  Hg  Hg20  1  0.000000  0.500000  0.000013  1
  Hg  Hg21  1  0.500000  0.000000  0.999987  1
  Hg  Hg22  1  0.500000  0.000000  0.499987  1
  Hg  Hg23  1  0.000000  0.500000  0.500013  1
  Ir  Ir24  1  0.641621  0.358379  0.250000  1
  Ir  Ir25  1  0.358379  0.641621  0.250000  1
  Ir  Ir26  1  0.141621  0.141621  0.250000  1
  Ir  Ir27  1  0.358379  0.358379  0.750000  1
  Ir  Ir28  1  0.141621  0.858379  0.750000  1
  Ir  Ir29  1  0.858379  0.858379  0.250000  1
  Ir  Ir30  1  0.641621  0.641621  0.750000  1
  Ir  Ir31  1  0.858379  0.141621  0.750000  1
