# generated using pymatgen
data_CeTmMnC4
_symmetry_space_group_name_H-M   'P 1'
_cell_length_a   6.50795747
_cell_length_b   6.78765386
_cell_length_c   6.78765397
_cell_angle_alpha   136.58262124
_cell_angle_beta   111.19053183
_cell_angle_gamma   85.63691363
_symmetry_Int_Tables_number   1
_chemical_formula_structural   CeTmMnC4
_chemical_formula_sum   'Ce2 Tm2 Mn2 C8'
_cell_volume   183.82989498
_cell_formula_units_Z   2
loop_
 _symmetry_equiv_pos_site_id
 _symmetry_equiv_pos_as_xyz
  1  'x, y, z'
loop_
 _atom_site_type_symbol
 _atom_site_label
 _atom_site_symmetry_multiplicity
 _atom_site_fract_x
 _atom_site_fract_y
 _atom_site_fract_z
 _atom_site_occupancy
  Ce  Ce0  1  0.500641  0.350211  0.150430  1
  Ce  Ce1  1  0.499359  0.649789  0.849570  1
  Tm  Tm2  1  0.192787  0.859714  0.333074  1
  Tm  Tm3  1  0.807213  0.140286  0.666926  1
  Mn  Mn4  1  0.000000  0.252223  0.252223  1
  Mn  Mn5  1  0.000000  0.747777  0.747777  1
  C  C6  1  0.250275  0.074706  0.175568  1
  C  C7  1  0.749725  0.925294  0.824432  1
  C  C8  1  0.923437  0.582628  0.340809  1
  C  C9  1  0.076563  0.417372  0.659191  1
  C  C10  1  0.475378  0.122438  0.352940  1
  C  C11  1  0.524622  0.877562  0.647060  1
  C  C12  1  0.797415  0.629605  0.167809  1
  C  C13  1  0.202585  0.370395  0.832191  1
