# generated using pymatgen
data_Ta4V4Si3P
_symmetry_space_group_name_H-M   'P 1'
_cell_length_a   3.41497700
_cell_length_b   6.51113530
_cell_length_c   7.83062386
_cell_angle_alpha   89.83913086
_cell_angle_beta   90.00000000
_cell_angle_gamma   90.00000000
_symmetry_Int_Tables_number   1
_chemical_formula_structural   Ta4V4Si3P
_chemical_formula_sum   'Ta4 V4 Si3 P1'
_cell_volume   174.11618961
_cell_formula_units_Z   1
loop_
 _symmetry_equiv_pos_site_id
 _symmetry_equiv_pos_as_xyz
  1  'x, y, z'
loop_
 _atom_site_type_symbol
 _atom_site_label
 _atom_site_symmetry_multiplicity
 _atom_site_fract_x
 _atom_site_fract_y
 _atom_site_fract_z
 _atom_site_occupancy
  Ta  Ta0  1  0.250000  0.543085  0.166280  1
  Ta  Ta1  1  0.750000  0.455776  0.829997  1
  Ta  Ta2  1  0.750000  0.964026  0.666640  1
  Ta  Ta3  1  0.250000  0.041133  0.333541  1
  V  V4  1  0.250000  0.627853  0.561022  1
  V  V5  1  0.750000  0.364618  0.444404  1
  V  V6  1  0.750000  0.869230  0.059427  1
  V  V7  1  0.250000  0.133877  0.937402  1
  Si  Si8  1  0.250000  0.756818  0.860224  1
  Si  Si9  1  0.750000  0.244792  0.139821  1
  Si  Si10  1  0.750000  0.741876  0.362017  1
  P  P11  1  0.250000  0.256916  0.639225  1
