# generated using pymatgen
data_U4Re7SiGe5
_symmetry_space_group_name_H-M   'P 1'
_cell_length_a   7.23290995
_cell_length_b   7.24180622
_cell_length_c   7.23290957
_cell_angle_alpha   109.33801296
_cell_angle_beta   109.35421657
_cell_angle_gamma   109.67174069
_symmetry_Int_Tables_number   1
_chemical_formula_structural   U4Re7SiGe5
_chemical_formula_sum   'U4 Re7 Si1 Ge5'
_cell_volume   291.81904778
_cell_formula_units_Z   1
loop_
 _symmetry_equiv_pos_site_id
 _symmetry_equiv_pos_as_xyz
  1  'x, y, z'
loop_
 _atom_site_type_symbol
 _atom_site_label
 _atom_site_symmetry_multiplicity
 _atom_site_fract_x
 _atom_site_fract_y
 _atom_site_fract_z
 _atom_site_occupancy
  U  U0  1  0.494312  0.494369  0.492084  1
  U  U1  1  0.002169  0.002143  0.507781  1
  U  U2  1  0.494361  0.002143  0.999973  1
  U  U3  1  0.002284  0.494369  0.000057  1
  Re  Re4  1  0.747701  0.247869  0.500168  1
  Re  Re5  1  0.498646  0.250121  0.751475  1
  Re  Re6  1  0.498377  0.747082  0.248705  1
  Re  Re7  1  0.250006  0.498602  0.751390  1
  Re  Re8  1  0.747213  0.498602  0.248597  1
  Re  Re9  1  0.247502  0.747344  0.499842  1
  Re  Re10  1  0.012997  0.013006  0.000009  1
  Si  Si11  1  0.316180  0.316143  0.999962  1
  Ge  Ge12  1  0.997333  0.304495  0.307162  1
  Ge  Ge13  1  0.997176  0.689966  0.692790  1
  Ge  Ge14  1  0.690360  0.997473  0.692986  1
  Ge  Ge15  1  0.304488  0.997473  0.307114  1
  Ge  Ge16  1  0.698896  0.698802  0.999906  1
