# generated using pymatgen
data_Rb4LaCeF10
_symmetry_space_group_name_H-M   'P 1'
_cell_length_a   7.04634456
_cell_length_b   7.85541100
_cell_length_c   11.58329642
_cell_angle_alpha   90.00000000
_cell_angle_beta   90.16783075
_cell_angle_gamma   90.00000000
_symmetry_Int_Tables_number   1
_chemical_formula_structural   Rb4LaCeF10
_chemical_formula_sum   'Rb8 La2 Ce2 F20'
_cell_volume   641.15509165
_cell_formula_units_Z   2
loop_
 _symmetry_equiv_pos_site_id
 _symmetry_equiv_pos_as_xyz
  1  'x, y, z'
loop_
 _atom_site_type_symbol
 _atom_site_label
 _atom_site_symmetry_multiplicity
 _atom_site_fract_x
 _atom_site_fract_y
 _atom_site_fract_z
 _atom_site_occupancy
  Rb  Rb0  1  0.529813  0.997458  0.829017  1
  Rb  Rb1  1  0.470187  0.497458  0.170983  1
  Rb  Rb2  1  0.970029  0.997511  0.328409  1
  Rb  Rb3  1  0.029971  0.497511  0.671591  1
  Rb  Rb4  1  0.529813  0.502542  0.829017  1
  Rb  Rb5  1  0.470187  0.002542  0.170983  1
  Rb  Rb6  1  0.970029  0.502489  0.328409  1
  Rb  Rb7  1  0.029971  0.002489  0.671591  1
  La  La8  1  0.562155  0.250000  0.502199  1
  La  La9  1  0.437845  0.750000  0.497801  1
  Ce  Ce10  1  0.937971  0.250000  0.001965  1
  Ce  Ce11  1  0.062029  0.750000  0.998035  1
  F  F12  1  0.871240  0.750000  0.835306  1
  F  F13  1  0.128760  0.250000  0.164694  1
  F  F14  1  0.631047  0.750000  0.333874  1
  F  F15  1  0.368953  0.250000  0.666126  1
  F  F16  1  0.837569  0.250000  0.810279  1
  F  F17  1  0.162431  0.750000  0.189721  1
  F  F18  1  0.663066  0.250000  0.308553  1
  F  F19  1  0.336934  0.750000  0.691447  1
  F  F20  1  0.644699  0.967615  0.577644  1
  F  F21  1  0.355301  0.467615  0.422356  1
  F  F22  1  0.856703  0.967493  0.076303  1
  F  F23  1  0.143297  0.467493  0.923697  1
  F  F24  1  0.390497  0.750000  0.986589  1
  F  F25  1  0.609503  0.250000  0.013411  1
  F  F26  1  0.106611  0.750000  0.486860  1
  F  F27  1  0.893389  0.250000  0.513140  1
  F  F28  1  0.143297  0.032507  0.923697  1
  F  F29  1  0.856703  0.532507  0.076303  1
  F  F30  1  0.355301  0.032385  0.422356  1
  F  F31  1  0.644699  0.532385  0.577644  1
