# generated using pymatgen
data_Eu4BePN6
_symmetry_space_group_name_H-M   'P 1'
_cell_length_a   5.89735160
_cell_length_b   5.89735240
_cell_length_c   11.50289110
_cell_angle_alpha   90.86501481
_cell_angle_beta   89.13498426
_cell_angle_gamma   126.26870819
_symmetry_Int_Tables_number   1
_chemical_formula_structural   Eu4BePN6
_chemical_formula_sum   'Eu8 Be2 P2 N12'
_cell_volume   322.49979143
_cell_formula_units_Z   2
loop_
 _symmetry_equiv_pos_site_id
 _symmetry_equiv_pos_as_xyz
  1  'x, y, z'
loop_
 _atom_site_type_symbol
 _atom_site_label
 _atom_site_symmetry_multiplicity
 _atom_site_fract_x
 _atom_site_fract_y
 _atom_site_fract_z
 _atom_site_occupancy
  Eu  Eu0  1  0.063649  0.936351  0.844754  1
  Eu  Eu1  1  0.936351  0.063649  0.155246  1
  Eu  Eu2  1  0.453902  0.546098  0.358552  1
  Eu  Eu3  1  0.546098  0.453902  0.641448  1
  Eu  Eu4  1  0.638937  0.361063  0.079927  1
  Eu  Eu5  1  0.361063  0.638937  0.920073  1
  Eu  Eu6  1  0.851951  0.148049  0.568736  1
  Eu  Eu7  1  0.148049  0.851951  0.431264  1
  Be  Be8  1  0.757060  0.242940  0.336701  1
  Be  Be9  1  0.242940  0.757060  0.663299  1
  P  P10  1  0.744113  0.255887  0.832603  1
  P  P11  1  0.255887  0.744113  0.167397  1
  N  N12  1  0.587512  0.412488  0.868678  1
  N  N13  1  0.412488  0.587512  0.131322  1
  N  N14  1  0.930820  0.069180  0.368016  1
  N  N15  1  0.069180  0.930820  0.631984  1
  N  N16  1  0.522598  0.977124  0.754926  1
  N  N17  1  0.977124  0.522598  0.245074  1
  N  N18  1  0.477402  0.022876  0.245074  1
  N  N19  1  0.022876  0.477402  0.754926  1
  N  N20  1  0.837768  0.162232  0.948558  1
  N  N21  1  0.162232  0.837768  0.051442  1
  N  N22  1  0.656537  0.343463  0.460210  1
  N  N23  1  0.343463  0.656537  0.539790  1
