# generated using pymatgen
data_TbY9Si5Ge
_symmetry_space_group_name_H-M   'P 1'
_cell_length_a   8.47710800
_cell_length_b   8.47931979
_cell_length_c   6.39902500
_cell_angle_alpha   90.00092186
_cell_angle_beta   89.99939142
_cell_angle_gamma   119.99102326
_symmetry_Int_Tables_number   1
_chemical_formula_structural   TbY9Si5Ge
_chemical_formula_sum   'Tb1 Y9 Si5 Ge1'
_cell_volume   398.37533962
_cell_formula_units_Z   1
loop_
 _symmetry_equiv_pos_site_id
 _symmetry_equiv_pos_as_xyz
  1  'x, y, z'
loop_
 _atom_site_type_symbol
 _atom_site_label
 _atom_site_symmetry_multiplicity
 _atom_site_fract_x
 _atom_site_fract_y
 _atom_site_fract_z
 _atom_site_occupancy
  Tb  Tb0  1  0.333191  0.665797  0.499362  1
  Y  Y1  1  0.998827  0.755768  0.750028  1
  Y  Y2  1  0.999884  0.243326  0.249970  1
  Y  Y3  1  0.756599  0.756634  0.249971  1
  Y  Y4  1  0.757521  0.000042  0.750030  1
  Y  Y5  1  0.243102  0.244192  0.750029  1
  Y  Y6  1  0.243038  0.000041  0.249968  1
  Y  Y7  1  0.667400  0.334207  0.000646  1
  Y  Y8  1  0.667397  0.334209  0.499355  1
  Y  Y9  1  0.333190  0.665792  0.000651  1
  Si  Si10  1  0.394291  0.394132  0.249931  1
  Si  Si11  1  0.999960  0.605770  0.249932  1
  Si  Si12  1  0.999847  0.394184  0.750069  1
  Si  Si13  1  0.605766  0.605717  0.750070  1
  Si  Si14  1  0.605932  0.000101  0.249931  1
  Ge  Ge15  1  0.394054  0.000089  0.750056  1
