# generated using pymatgen
data_Tb8MgSc11Si15Au
_symmetry_space_group_name_H-M   'P 1'
_cell_length_a   7.11366783
_cell_length_b   7.38554730
_cell_length_c   14.11803284
_cell_angle_alpha   89.92423041
_cell_angle_beta   89.61221088
_cell_angle_gamma   90.23666385
_symmetry_Int_Tables_number   1
_chemical_formula_structural   Tb8MgSc11Si15Au
_chemical_formula_sum   'Tb8 Mg1 Sc11 Si15 Au1'
_cell_volume   741.71387953
_cell_formula_units_Z   1
loop_
 _symmetry_equiv_pos_site_id
 _symmetry_equiv_pos_as_xyz
  1  'x, y, z'
loop_
 _atom_site_type_symbol
 _atom_site_label
 _atom_site_symmetry_multiplicity
 _atom_site_fract_x
 _atom_site_fract_y
 _atom_site_fract_z
 _atom_site_occupancy
  Tb  Tb0  1  0.012850  0.175604  0.097111  1
  Tb  Tb1  1  0.988587  0.821026  0.902518  1
  Tb  Tb2  1  0.484197  0.674768  0.902873  1
  Tb  Tb3  1  0.990412  0.824208  0.597949  1
  Tb  Tb4  1  0.511076  0.325130  0.096323  1
  Tb  Tb5  1  0.009820  0.174572  0.399696  1
  Tb  Tb6  1  0.509528  0.324102  0.401148  1
  Tb  Tb7  1  0.489129  0.674420  0.600351  1
  Mg  Mg8  1  0.159811  0.502832  0.749640  1
  Sc  Sc9  1  0.837260  0.498742  0.250442  1
  Sc  Sc10  1  0.338458  0.000142  0.249131  1
  Sc  Sc11  1  0.662841  0.997623  0.751385  1
  Sc  Sc12  1  0.338041  0.179548  0.626071  1
  Sc  Sc13  1  0.666635  0.823958  0.373288  1
  Sc  Sc14  1  0.167944  0.672547  0.373153  1
  Sc  Sc15  1  0.670760  0.823973  0.125294  1
  Sc  Sc16  1  0.831792  0.328044  0.624809  1
  Sc  Sc17  1  0.327254  0.179410  0.876320  1
  Sc  Sc18  1  0.833117  0.323803  0.876008  1
  Sc  Sc19  1  0.171672  0.676522  0.124830  1
  Si  Si20  1  0.032839  0.110159  0.750079  1
  Si  Si21  1  0.968210  0.883219  0.249124  1
  Si  Si22  1  0.466530  0.616403  0.248461  1
  Si  Si23  1  0.541619  0.381958  0.752863  1
  Si  Si24  1  0.288247  0.884326  0.750980  1
  Si  Si25  1  0.711781  0.127505  0.248767  1
  Si  Si26  1  0.212912  0.372423  0.248399  1
  Si  Si27  1  0.778819  0.627581  0.752234  1
  Si  Si28  1  0.833260  0.538466  0.460160  1
  Si  Si29  1  0.341248  0.961692  0.461428  1
  Si  Si30  1  0.844450  0.536267  0.038280  1
  Si  Si31  1  0.656942  0.035319  0.538089  1
  Si  Si32  1  0.156426  0.462242  0.965463  1
  Si  Si33  1  0.656207  0.033913  0.960537  1
  Si  Si34  1  0.345521  0.965690  0.039017  1
  Au  Au35  1  0.163805  0.461861  0.537777  1
