# generated using pymatgen
data_Dy2Er3In4PtAu
_symmetry_space_group_name_H-M   'P 1'
_cell_length_a   3.63520400
_cell_length_b   8.15309116
_cell_length_c   18.29203225
_cell_angle_alpha   90.04090547
_cell_angle_beta   90.00000000
_cell_angle_gamma   90.00000000
_symmetry_Int_Tables_number   1
_chemical_formula_structural   Dy2Er3In4PtAu
_chemical_formula_sum   'Dy4 Er6 In8 Pt2 Au2'
_cell_volume   542.14185046
_cell_formula_units_Z   2
loop_
 _symmetry_equiv_pos_site_id
 _symmetry_equiv_pos_as_xyz
  1  'x, y, z'
loop_
 _atom_site_type_symbol
 _atom_site_label
 _atom_site_symmetry_multiplicity
 _atom_site_fract_x
 _atom_site_fract_y
 _atom_site_fract_z
 _atom_site_occupancy
  Dy  Dy0  1  0.000000  0.120099  0.418993  1
  Dy  Dy1  1  0.000000  0.879901  0.581007  1
  Dy  Dy2  1  0.000000  0.000000  0.000000  1
  Dy  Dy3  1  0.000000  0.500000  0.500000  1
  Er  Er4  1  0.000000  0.384731  0.915654  1
  Er  Er5  1  0.000000  0.615269  0.084346  1
  Er  Er6  1  0.000000  0.252265  0.217446  1
  Er  Er7  1  0.000000  0.747735  0.782554  1
  Er  Er8  1  0.000000  0.268345  0.721251  1
  Er  Er9  1  0.000000  0.731655  0.278749  1
  In  In10  1  0.500000  0.423743  0.352221  1
  In  In11  1  0.500000  0.576257  0.647779  1
  In  In12  1  0.500000  0.077692  0.852692  1
  In  In13  1  0.500000  0.922308  0.147308  1
  In  In14  1  0.500000  0.292454  0.065812  1
  In  In15  1  0.500000  0.707546  0.934188  1
  In  In16  1  0.500000  0.209720  0.566903  1
  In  In17  1  0.500000  0.790280  0.433097  1
  Pt  Pt18  1  0.500000  0.473293  0.803605  1
  Pt  Pt19  1  0.500000  0.526707  0.196395  1
  Au  Au20  1  0.500000  0.027088  0.301827  1
  Au  Au21  1  0.500000  0.972912  0.698173  1
