# generated using pymatgen
data_Pa8TaNb9(Si8W)2
_symmetry_space_group_name_H-M   'P 1'
_cell_length_a   6.88921809
_cell_length_b   7.05781872
_cell_length_c   13.34817700
_cell_angle_alpha   90.00000000
_cell_angle_beta   90.00000000
_cell_angle_gamma   90.16092572
_symmetry_Int_Tables_number   1
_chemical_formula_structural   Pa8TaNb9(Si8W)2
_chemical_formula_sum   'Pa8 Ta1 Nb9 Si16 W2'
_cell_volume   649.02388008
_cell_formula_units_Z   1
loop_
 _symmetry_equiv_pos_site_id
 _symmetry_equiv_pos_as_xyz
  1  'x, y, z'
loop_
 _atom_site_type_symbol
 _atom_site_label
 _atom_site_symmetry_multiplicity
 _atom_site_fract_x
 _atom_site_fract_y
 _atom_site_fract_z
 _atom_site_occupancy
  Pa  Pa0  1  0.496675  0.669120  0.594542  1
  Pa  Pa1  1  0.997584  0.828438  0.904946  1
  Pa  Pa2  1  0.503329  0.330605  0.094450  1
  Pa  Pa3  1  0.002383  0.171430  0.405085  1
  Pa  Pa4  1  0.503329  0.330605  0.405550  1
  Pa  Pa5  1  0.002383  0.171430  0.094915  1
  Pa  Pa6  1  0.496675  0.669120  0.905458  1
  Pa  Pa7  1  0.997584  0.828438  0.595054  1
  Ta  Ta8  1  0.332502  0.997452  0.750000  1
  Nb  Nb9  1  0.661626  0.173300  0.625015  1
  Nb  Nb10  1  0.160617  0.327232  0.875725  1
  Nb  Nb11  1  0.338099  0.826636  0.124788  1
  Nb  Nb12  1  0.839682  0.672809  0.375944  1
  Nb  Nb13  1  0.338099  0.826636  0.375212  1
  Nb  Nb14  1  0.839682  0.672809  0.124056  1
  Nb  Nb15  1  0.661626  0.173300  0.874985  1
  Nb  Nb16  1  0.160617  0.327232  0.624275  1
  Nb  Nb17  1  0.667666  0.003356  0.250000  1
  Si  Si18  1  0.663525  0.959254  0.458632  1
  Si  Si19  1  0.164095  0.540958  0.042846  1
  Si  Si20  1  0.336332  0.040618  0.958128  1
  Si  Si21  1  0.836052  0.458646  0.542741  1
  Si  Si22  1  0.336332  0.040618  0.541872  1
  Si  Si23  1  0.836052  0.458646  0.957259  1
  Si  Si24  1  0.663525  0.959254  0.041368  1
  Si  Si25  1  0.164095  0.540958  0.457154  1
  Si  Si26  1  0.459148  0.377705  0.750000  1
  Si  Si27  1  0.956650  0.124672  0.750000  1
  Si  Si28  1  0.540673  0.622392  0.250000  1
  Si  Si29  1  0.043757  0.874886  0.250000  1
  Si  Si30  1  0.700605  0.868593  0.750000  1
  Si  Si31  1  0.198028  0.627222  0.750000  1
  Si  Si32  1  0.298142  0.131581  0.250000  1
  Si  Si33  1  0.802537  0.373977  0.250000  1
  W  W34  1  0.831727  0.504030  0.750000  1
  W  W35  1  0.168564  0.496044  0.250000  1
