# generated using pymatgen
data_Li3Nd4AlIrPd3
_symmetry_space_group_name_H-M   'P 1'
_cell_length_a   4.12595100
_cell_length_b   7.29218142
_cell_length_c   8.59413907
_cell_angle_alpha   90.19666334
_cell_angle_beta   90.00000000
_cell_angle_gamma   90.00000000
_symmetry_Int_Tables_number   1
_chemical_formula_structural   Li3Nd4AlIrPd3
_chemical_formula_sum   'Li3 Nd4 Al1 Ir1 Pd3'
_cell_volume   258.57191384
_cell_formula_units_Z   1
loop_
 _symmetry_equiv_pos_site_id
 _symmetry_equiv_pos_as_xyz
  1  'x, y, z'
loop_
 _atom_site_type_symbol
 _atom_site_label
 _atom_site_symmetry_multiplicity
 _atom_site_fract_x
 _atom_site_fract_y
 _atom_site_fract_z
 _atom_site_occupancy
  Li  Li0  1  0.250000  0.132648  0.938886  1
  Li  Li1  1  0.250000  0.626842  0.558001  1
  Li  Li2  1  0.750000  0.872204  0.056670  1
  Nd  Nd3  1  0.250000  0.047434  0.318770  1
  Nd  Nd4  1  0.250000  0.539626  0.188128  1
  Nd  Nd5  1  0.750000  0.967769  0.685034  1
  Nd  Nd6  1  0.750000  0.451946  0.806181  1
  Al  Al7  1  0.750000  0.367284  0.446297  1
  Ir  Ir8  1  0.250000  0.258088  0.601093  1
  Pd  Pd9  1  0.250000  0.747983  0.884948  1
  Pd  Pd10  1  0.750000  0.735837  0.388654  1
  Pd  Pd11  1  0.750000  0.252339  0.127337  1
