# generated using pymatgen
data_YSc(Ni2As)4
_symmetry_space_group_name_H-M   'P 1'
_cell_length_a   7.15384301
_cell_length_b   7.15384301
_cell_length_c   3.76781300
_cell_angle_alpha   90.00000000
_cell_angle_beta   90.00000000
_cell_angle_gamma   90.51058124
_symmetry_Int_Tables_number   1
_chemical_formula_structural   YSc(Ni2As)4
_chemical_formula_sum   'Y1 Sc1 Ni8 As4'
_cell_volume   192.81947987
_cell_formula_units_Z   1
loop_
 _symmetry_equiv_pos_site_id
 _symmetry_equiv_pos_as_xyz
  1  'x, y, z'
loop_
 _atom_site_type_symbol
 _atom_site_label
 _atom_site_symmetry_multiplicity
 _atom_site_fract_x
 _atom_site_fract_y
 _atom_site_fract_z
 _atom_site_occupancy
  Y  Y0  1  0.000000  0.000000  0.500000  1
  Sc  Sc1  1  0.500000  0.500000  0.000000  1
  Ni  Ni2  1  0.588123  0.154467  0.500000  1
  Ni  Ni3  1  0.411877  0.845533  0.500000  1
  Ni  Ni4  1  0.090123  0.346397  0.000000  1
  Ni  Ni5  1  0.909877  0.653603  0.000000  1
  Ni  Ni6  1  0.154467  0.588123  0.500000  1
  Ni  Ni7  1  0.845533  0.411877  0.500000  1
  Ni  Ni8  1  0.346397  0.090123  0.000000  1
  Ni  Ni9  1  0.653603  0.909877  0.000000  1
  As  As10  1  0.711281  0.711281  0.500000  1
  As  As11  1  0.288719  0.288719  0.500000  1
  As  As12  1  0.224431  0.775569  0.000000  1
  As  As13  1  0.775569  0.224431  0.000000  1
