# generated using pymatgen
data_Lu4Fe2(TeO6)3
_symmetry_space_group_name_H-M   'P 1'
_cell_length_a   8.86301500
_cell_length_b   8.86347936
_cell_length_c   4.99263238
_cell_angle_alpha   90.65545244
_cell_angle_beta   90.00000000
_cell_angle_gamma   119.99827814
_symmetry_Int_Tables_number   1
_chemical_formula_structural   Lu4Fe2(TeO6)3
_chemical_formula_sum   'Lu4 Fe2 Te3 O18'
_cell_volume   339.63746245
_cell_formula_units_Z   1
loop_
 _symmetry_equiv_pos_site_id
 _symmetry_equiv_pos_as_xyz
  1  'x, y, z'
loop_
 _atom_site_type_symbol
 _atom_site_label
 _atom_site_symmetry_multiplicity
 _atom_site_fract_x
 _atom_site_fract_y
 _atom_site_fract_z
 _atom_site_occupancy
  Lu  Lu0  1  0.625227  0.000000  0.000000  1
  Lu  Lu1  1  0.998026  0.623334  0.002323  1
  Lu  Lu2  1  0.374692  0.376666  0.997677  1
  Lu  Lu3  1  0.280313  0.000000  0.500000  1
  Fe  Fe4  1  0.000854  0.295909  0.500930  1
  Fe  Fe5  1  0.704946  0.704091  0.499070  1
  Te  Te6  1  0.992971  0.000000  0.000000  1
  Te  Te7  1  0.334575  0.662931  0.502199  1
  Te  Te8  1  0.671645  0.337069  0.497801  1
  O  O9  1  0.085590  0.876704  0.802133  1
  O  O10  1  0.108800  0.200828  0.760052  1
  O  O11  1  0.782328  0.897212  0.783152  1
  O  O12  1  0.208886  0.123296  0.197867  1
  O  O13  1  0.907971  0.799172  0.239948  1
  O  O14  1  0.885115  0.102788  0.216848  1
  O  O15  1  0.466713  0.588109  0.716465  1
  O  O16  1  0.409802  0.869512  0.722584  1
  O  O17  1  0.127158  0.533328  0.721432  1
  O  O18  1  0.878603  0.411891  0.283535  1
  O  O19  1  0.540289  0.130488  0.277416  1
  O  O20  1  0.593829  0.466672  0.278568  1
  O  O21  1  0.227110  0.761964  0.277928  1
  O  O22  1  0.226887  0.447656  0.289614  1
  O  O23  1  0.547073  0.770855  0.286250  1
  O  O24  1  0.465146  0.238036  0.722072  1
  O  O25  1  0.779232  0.552344  0.710386  1
  O  O26  1  0.776218  0.229145  0.713750  1
