# generated using pymatgen
data_CsHo8Er2(C2I9)2
_symmetry_space_group_name_H-M   'P 1'
_cell_length_a   11.44124930
_cell_length_b   11.44768079
_cell_length_c   11.45417182
_cell_angle_alpha   113.21126418
_cell_angle_beta   86.70214635
_cell_angle_gamma   120.05220882
_symmetry_Int_Tables_number   1
_chemical_formula_structural   CsHo8Er2(C2I9)2
_chemical_formula_sum   'Cs1 Ho8 Er2 C4 I18'
_cell_volume   1174.85138067
_cell_formula_units_Z   1
loop_
 _symmetry_equiv_pos_site_id
 _symmetry_equiv_pos_as_xyz
  1  'x, y, z'
loop_
 _atom_site_type_symbol
 _atom_site_label
 _atom_site_symmetry_multiplicity
 _atom_site_fract_x
 _atom_site_fract_y
 _atom_site_fract_z
 _atom_site_occupancy
  Cs  Cs0  1  0.499995  0.999972  0.499972  1
  Ho  Ho1  1  0.093013  0.387092  0.289284  1
  Ho  Ho2  1  0.963783  0.036791  0.322695  1
  Ho  Ho3  1  0.907052  0.612933  0.710719  1
  Ho  Ho4  1  0.103500  0.945049  0.000573  1
  Ho  Ho5  1  0.036272  0.963318  0.677087  1
  Ho  Ho6  1  0.318586  0.273364  0.286116  1
  Ho  Ho7  1  0.723738  0.648554  0.985427  1
  Ho  Ho8  1  0.896452  0.054986  0.999457  1
  Er  Er9  1  0.682240  0.727047  0.714498  1
  Er  Er10  1  0.275676  0.350942  0.014931  1
  C  C11  1  0.151258  0.218535  0.118750  1
  C  C12  1  0.848466  0.781413  0.880896  1
  C  C13  1  0.925166  0.858266  0.804122  1
  C  C14  1  0.074591  0.141676  0.195479  1
  I  I15  1  0.451085  0.530620  0.832112  1
  I  I16  1  0.382132  0.040694  0.157336  1
  I  I17  1  0.778690  0.854927  0.502153  1
  I  I18  1  0.838786  0.308732  0.152815  1
  I  I19  1  0.548294  0.469265  0.167286  1
  I  I20  1  0.221024  0.144809  0.498180  1
  I  I21  1  0.317250  0.097653  0.830025  1
  I  I22  1  0.682695  0.903112  0.170455  1
  I  I23  1  0.973959  0.755975  0.169896  1
  I  I24  1  0.934274  0.297555  0.500509  1
  I  I25  1  0.026874  0.244502  0.830627  1
  I  I26  1  0.065747  0.702468  0.499469  1
  I  I27  1  0.260017  0.619191  0.180903  1
  I  I28  1  0.740128  0.380028  0.818416  1
  I  I29  1  0.644019  0.438244  0.502968  1
  I  I30  1  0.161148  0.691224  0.847083  1
  I  I31  1  0.618055  0.958308  0.842100  1
  I  I32  1  0.356033  0.562755  0.497660  1
