# generated using pymatgen
data_Rb2Nd4Ag4S9
_symmetry_space_group_name_H-M   'P 1'
_cell_length_a   4.22291257
_cell_length_b   7.63309986
_cell_length_c   16.06655436
_cell_angle_alpha   93.38118243
_cell_angle_beta   97.55161633
_cell_angle_gamma   106.05848729
_symmetry_Int_Tables_number   1
_chemical_formula_structural   Rb2Nd4Ag4S9
_chemical_formula_sum   'Rb2 Nd4 Ag4 S9'
_cell_volume   490.88689792
_cell_formula_units_Z   1
loop_
 _symmetry_equiv_pos_site_id
 _symmetry_equiv_pos_as_xyz
  1  'x, y, z'
loop_
 _atom_site_type_symbol
 _atom_site_label
 _atom_site_symmetry_multiplicity
 _atom_site_fract_x
 _atom_site_fract_y
 _atom_site_fract_z
 _atom_site_occupancy
  Rb  Rb0  1  0.255937  0.283198  0.228676  1
  Rb  Rb1  1  0.744063  0.716802  0.771324  1
  Nd  Nd2  1  0.401983  0.748672  0.055293  1
  Nd  Nd3  1  0.625493  0.857349  0.393637  1
  Nd  Nd4  1  0.374508  0.142652  0.606363  1
  Nd  Nd5  1  0.598017  0.251327  0.944707  1
  Ag  Ag6  1  0.979741  0.732170  0.227315  1
  Ag  Ag7  1  0.886166  0.315884  0.456451  1
  Ag  Ag8  1  0.113834  0.684116  0.543549  1
  Ag  Ag9  1  0.020260  0.267831  0.772685  1
  S  S10  1  0.000000  0.000000  0.000000  1
  S  S11  1  0.801585  0.508351  0.094820  1
  S  S12  1  0.574569  0.928038  0.221100  1
  S  S13  1  0.985821  0.598605  0.373040  1
  S  S14  1  0.274600  0.124653  0.424546  1
  S  S15  1  0.725400  0.875346  0.575454  1
  S  S16  1  0.014180  0.401396  0.626960  1
  S  S17  1  0.425431  0.071962  0.778900  1
  S  S18  1  0.198415  0.491648  0.905180  1
