# generated using pymatgen
data_KRb3TiO4
_symmetry_space_group_name_H-M   'P 1'
_cell_length_a   10.95616626
_cell_length_b   6.81028700
_cell_length_c   11.17081700
_cell_angle_alpha   90.00000000
_cell_angle_beta   112.07567218
_cell_angle_gamma   90.00000000
_symmetry_Int_Tables_number   1
_chemical_formula_structural   KRb3TiO4
_chemical_formula_sum   'K4 Rb12 Ti4 O16'
_cell_volume   772.40067008
_cell_formula_units_Z   4
loop_
 _symmetry_equiv_pos_site_id
 _symmetry_equiv_pos_as_xyz
  1  'x, y, z'
loop_
 _atom_site_type_symbol
 _atom_site_label
 _atom_site_symmetry_multiplicity
 _atom_site_fract_x
 _atom_site_fract_y
 _atom_site_fract_z
 _atom_site_occupancy
  K  K0  1  0.137434  0.639531  0.109847  1
  K  K1  1  0.862566  0.139531  0.390153  1
  K  K2  1  0.137434  0.860469  0.609847  1
  K  K3  1  0.862566  0.360469  0.890153  1
  Rb  Rb4  1  0.667939  0.388514  0.097926  1
  Rb  Rb5  1  0.054405  0.173681  0.187555  1
  Rb  Rb6  1  0.550329  0.897007  0.189812  1
  Rb  Rb7  1  0.449671  0.397007  0.310188  1
  Rb  Rb8  1  0.945596  0.673681  0.312445  1
  Rb  Rb9  1  0.332061  0.888514  0.402074  1
  Rb  Rb10  1  0.667939  0.111486  0.597926  1
  Rb  Rb11  1  0.054405  0.326319  0.687555  1
  Rb  Rb12  1  0.550329  0.602993  0.689812  1
  Rb  Rb13  1  0.449671  0.102993  0.810188  1
  Rb  Rb14  1  0.945596  0.826319  0.812445  1
  Rb  Rb15  1  0.332061  0.611486  0.902074  1
  Ti  Ti16  1  0.749430  0.864408  0.002240  1
  Ti  Ti17  1  0.250569  0.364408  0.497760  1
  Ti  Ti18  1  0.749430  0.635592  0.502240  1
  Ti  Ti19  1  0.250569  0.135592  0.997760  1
  O  O20  1  0.876560  0.670930  0.034240  1
  O  O21  1  0.413132  0.251338  0.037957  1
  O  O22  1  0.258460  0.977420  0.135307  1
  O  O23  1  0.789643  0.009247  0.152397  1
  O  O24  1  0.210357  0.509247  0.347603  1
  O  O25  1  0.741540  0.477420  0.364693  1
  O  O26  1  0.586868  0.751338  0.462043  1
  O  O27  1  0.123440  0.170930  0.465760  1
  O  O28  1  0.876560  0.829070  0.534240  1
  O  O29  1  0.413132  0.248662  0.537957  1
  O  O30  1  0.258460  0.522581  0.635307  1
  O  O31  1  0.789643  0.490753  0.652397  1
  O  O32  1  0.210357  0.990753  0.847603  1
  O  O33  1  0.741540  0.022581  0.864693  1
  O  O34  1  0.586867  0.748662  0.962042  1
  O  O35  1  0.123440  0.329070  0.965760  1
