# generated using pymatgen
data_Yb2Mn3Si7Pt9
_symmetry_space_group_name_H-M   'P 1'
_cell_length_a   9.94902900
_cell_length_b   9.94902937
_cell_length_c   3.87402900
_cell_angle_alpha   90.00000000
_cell_angle_beta   90.00000000
_cell_angle_gamma   120.00000208
_symmetry_Int_Tables_number   1
_chemical_formula_structural   Yb2Mn3Si7Pt9
_chemical_formula_sum   'Yb2 Mn3 Si7 Pt9'
_cell_volume   332.08931309
_cell_formula_units_Z   1
loop_
 _symmetry_equiv_pos_site_id
 _symmetry_equiv_pos_as_xyz
  1  'x, y, z'
loop_
 _atom_site_type_symbol
 _atom_site_label
 _atom_site_symmetry_multiplicity
 _atom_site_fract_x
 _atom_site_fract_y
 _atom_site_fract_z
 _atom_site_occupancy
  Yb  Yb0  1  0.000000  0.000000  0.000000  1
  Yb  Yb1  1  0.333333  0.666667  0.500000  1
  Mn  Mn2  1  0.893250  0.458974  0.500000  1
  Mn  Mn3  1  0.565722  0.106750  0.500000  1
  Mn  Mn4  1  0.541026  0.434278  0.500000  1
  Si  Si5  1  0.257798  0.210628  0.500000  1
  Si  Si6  1  0.789372  0.047171  0.500000  1
  Si  Si7  1  0.952829  0.742202  0.500000  1
  Si  Si8  1  0.551729  0.637673  0.000000  1
  Si  Si9  1  0.362327  0.914055  0.000000  1
  Si  Si10  1  0.085945  0.448271  0.000000  1
  Si  Si11  1  0.666667  0.333333  0.000000  1
  Pt  Pt12  1  0.221588  0.942744  0.500000  1
  Pt  Pt13  1  0.057256  0.278845  0.500000  1
  Pt  Pt14  1  0.721155  0.778412  0.500000  1
  Pt  Pt15  1  0.308023  0.406852  0.000000  1
  Pt  Pt16  1  0.593148  0.901171  0.000000  1
  Pt  Pt17  1  0.098829  0.691977  0.000000  1
  Pt  Pt18  1  0.395910  0.175724  0.000000  1
  Pt  Pt19  1  0.824276  0.220187  0.000000  1
  Pt  Pt20  1  0.779813  0.604090  0.000000  1
