# generated using pymatgen
data_Dy2Er3Zr2P12Ir17
_symmetry_space_group_name_H-M   'P 1'
_cell_length_a   12.65340706
_cell_length_b   12.88724438
_cell_length_c   3.98059300
_cell_angle_alpha   90.00000000
_cell_angle_beta   90.00000000
_cell_angle_gamma   119.39048870
_symmetry_Int_Tables_number   1
_chemical_formula_structural   Dy2Er3Zr2P12Ir17
_chemical_formula_sum   'Dy2 Er3 Zr2 P12 Ir17'
_cell_volume   565.56260397
_cell_formula_units_Z   1
loop_
 _symmetry_equiv_pos_site_id
 _symmetry_equiv_pos_as_xyz
  1  'x, y, z'
loop_
 _atom_site_type_symbol
 _atom_site_label
 _atom_site_symmetry_multiplicity
 _atom_site_fract_x
 _atom_site_fract_y
 _atom_site_fract_z
 _atom_site_occupancy
  Dy  Dy0  1  0.184882  0.184258  0.000000  1
  Dy  Dy1  1  0.812919  0.999969  0.000000  1
  Er  Er2  1  0.330167  0.661307  0.500000  1
  Er  Er3  1  0.668831  0.338672  0.500000  1
  Er  Er4  1  0.000230  0.815600  0.000000  1
  Zr  Zr5  1  0.997572  0.447120  0.500000  1
  Zr  Zr6  1  0.550691  0.553039  0.500000  1
  P  P7  1  0.005969  0.651485  0.500000  1
  P  P8  1  0.354956  0.349073  0.500000  1
  P  P9  1  0.644970  0.999996  0.500000  1
  P  P10  1  0.514649  0.686516  0.000000  1
  P  P11  1  0.309784  0.824797  0.000000  1
  P  P12  1  0.164648  0.481246  0.000000  1
  P  P13  1  0.484898  0.175167  0.000000  1
  P  P14  1  0.683366  0.518710  0.000000  1
  P  P15  1  0.828074  0.313507  0.000000  1
  P  P16  1  0.999339  0.173949  0.500000  1
  P  P17  1  0.825444  0.825829  0.500000  1
  P  P18  1  0.181588  0.999737  0.500000  1
  Ir  Ir19  1  0.504441  0.864292  0.000000  1
  Ir  Ir20  1  0.128252  0.644141  0.000000  1
  Ir  Ir21  1  0.354777  0.496266  0.000000  1
  Ir  Ir22  1  0.484166  0.355936  0.000000  1
  Ir  Ir23  1  0.858465  0.503742  0.000000  1
  Ir  Ir24  1  0.640097  0.135701  0.000000  1
  Ir  Ir25  1  0.464627  0.999991  0.500000  1
  Ir  Ir26  1  0.996688  0.277505  0.000000  1
  Ir  Ir27  1  0.719500  0.722623  0.000000  1
  Ir  Ir28  1  0.290187  0.999808  0.000000  1
  Ir  Ir29  1  0.623883  0.808314  0.500000  1
  Ir  Ir30  1  0.203512  0.825536  0.500000  1
  Ir  Ir31  1  0.177884  0.365900  0.500000  1
  Ir  Ir32  1  0.378486  0.174312  0.500000  1
  Ir  Ir33  1  0.812820  0.634803  0.500000  1
  Ir  Ir34  1  0.815510  0.191636  0.500000  1
  Ir  Ir35  1  0.003732  0.999516  0.500000  1
