# generated using pymatgen
data_Dy3Sn3HgIrRh
_symmetry_space_group_name_H-M   'P 1'
_cell_length_a   7.70236600
_cell_length_b   7.70236669
_cell_length_c   3.92590400
_cell_angle_alpha   90.00000000
_cell_angle_beta   90.00000000
_cell_angle_gamma   119.99998844
_symmetry_Int_Tables_number   1
_chemical_formula_structural   Dy3Sn3HgIrRh
_chemical_formula_sum   'Dy3 Sn3 Hg1 Ir1 Rh1'
_cell_volume   201.70594557
_cell_formula_units_Z   1
loop_
 _symmetry_equiv_pos_site_id
 _symmetry_equiv_pos_as_xyz
  1  'x, y, z'
loop_
 _atom_site_type_symbol
 _atom_site_label
 _atom_site_symmetry_multiplicity
 _atom_site_fract_x
 _atom_site_fract_y
 _atom_site_fract_z
 _atom_site_occupancy
  Dy  Dy0  1  0.390979  0.412959  0.500000  1
  Dy  Dy1  1  0.587041  0.978021  0.500000  1
  Dy  Dy2  1  0.021979  0.609021  0.500000  1
  Sn  Sn3  1  0.743815  0.750763  0.000000  1
  Sn  Sn4  1  0.249237  0.993052  0.000000  1
  Sn  Sn5  1  0.006948  0.256185  0.000000  1
  Hg  Hg6  1  0.666667  0.333333  0.000000  1
  Ir  Ir7  1  0.333333  0.666667  0.000000  1
  Rh  Rh8  1  0.000000  0.000000  0.500000  1
