# generated using pymatgen
data_Y3ErCo3SiI2
_symmetry_space_group_name_H-M   'P 1'
_cell_length_a   4.00076100
_cell_length_b   4.00076068
_cell_length_c   16.86252800
_cell_angle_alpha   90.00000000
_cell_angle_beta   90.00000000
_cell_angle_gamma   120.00001093
_symmetry_Int_Tables_number   1
_chemical_formula_structural   Y3ErCo3SiI2
_chemical_formula_sum   'Y3 Er1 Co3 Si1 I2'
_cell_volume   233.74291118
_cell_formula_units_Z   1
loop_
 _symmetry_equiv_pos_site_id
 _symmetry_equiv_pos_as_xyz
  1  'x, y, z'
loop_
 _atom_site_type_symbol
 _atom_site_label
 _atom_site_symmetry_multiplicity
 _atom_site_fract_x
 _atom_site_fract_y
 _atom_site_fract_z
 _atom_site_occupancy
  Y  Y0  1  0.000000  0.000000  0.896895  1
  Y  Y1  1  0.000000  0.000000  0.605449  1
  Y  Y2  1  0.000000  0.000000  0.396421  1
  Er  Er3  1  0.000000  0.000000  0.101699  1
  Co  Co4  1  0.666667  0.333333  0.494577  1
  Co  Co5  1  0.666667  0.333333  0.002747  1
  Co  Co6  1  0.333333  0.666667  0.999598  1
  Si  Si7  1  0.333333  0.666667  0.503800  1
  I  I8  1  0.333333  0.666667  0.249998  1
  I  I9  1  0.666667  0.333333  0.748814  1
