# generated using pymatgen
data_Ho9Er7In3HgIr4
_symmetry_space_group_name_H-M   'P 1'
_cell_length_a   9.59426629
_cell_length_b   9.61756354
_cell_length_c   9.61755229
_cell_angle_alpha   59.84082137
_cell_angle_beta   59.86148697
_cell_angle_gamma   59.87382207
_symmetry_Int_Tables_number   1
_chemical_formula_structural   Ho9Er7In3HgIr4
_chemical_formula_sum   'Ho9 Er7 In3 Hg1 Ir4'
_cell_volume   625.50621914
_cell_formula_units_Z   1
loop_
 _symmetry_equiv_pos_site_id
 _symmetry_equiv_pos_as_xyz
  1  'x, y, z'
loop_
 _atom_site_type_symbol
 _atom_site_label
 _atom_site_symmetry_multiplicity
 _atom_site_fract_x
 _atom_site_fract_y
 _atom_site_fract_z
 _atom_site_occupancy
  Ho  Ho0  1  0.057459  0.063439  0.439266  1
  Ho  Ho1  1  0.649622  0.050060  0.648740  1
  Ho  Ho2  1  0.191554  0.809088  0.191804  1
  Ho  Ho3  1  0.437504  0.061451  0.439188  1
  Ho  Ho4  1  0.191383  0.191802  0.809545  1
  Ho  Ho5  1  0.649990  0.651110  0.651157  1
  Ho  Ho6  1  0.048378  0.649745  0.650026  1
  Ho  Ho7  1  0.439009  0.061072  0.060633  1
  Ho  Ho8  1  0.649811  0.648594  0.050089  1
  Er  Er9  1  0.192191  0.808514  0.809129  1
  Er  Er10  1  0.808664  0.191628  0.809592  1
  Er  Er11  1  0.810162  0.190471  0.190310  1
  Er  Er12  1  0.808991  0.809272  0.191582  1
  Er  Er13  1  0.058077  0.438642  0.438243  1
  Er  Er14  1  0.437576  0.439633  0.061032  1
  Er  Er15  1  0.057736  0.439490  0.063146  1
  In  In16  1  0.417737  0.416920  0.748676  1
  In  In17  1  0.417888  0.748333  0.416964  1
  In  In18  1  0.417637  0.416991  0.416921  1
  Hg  Hg19  1  0.759037  0.414144  0.413795  1
  Ir  Ir20  1  0.858512  0.858986  0.859198  1
  Ir  Ir21  1  0.424539  0.858062  0.858364  1
  Ir  Ir22  1  0.858348  0.858867  0.423590  1
  Ir  Ir23  1  0.858194  0.423687  0.859009  1
