# generated using pymatgen
data_Ca2Tm3Lu3(B6Ru)4
_symmetry_space_group_name_H-M   'P 1'
_cell_length_a   3.61089400
_cell_length_b   9.07932429
_cell_length_c   11.47611902
_cell_angle_alpha   89.84837586
_cell_angle_beta   90.00000000
_cell_angle_gamma   90.00000000
_symmetry_Int_Tables_number   1
_chemical_formula_structural   Ca2Tm3Lu3(B6Ru)4
_chemical_formula_sum   'Ca2 Tm3 Lu3 B24 Ru4'
_cell_volume   376.23724949
_cell_formula_units_Z   1
loop_
 _symmetry_equiv_pos_site_id
 _symmetry_equiv_pos_as_xyz
  1  'x, y, z'
loop_
 _atom_site_type_symbol
 _atom_site_label
 _atom_site_symmetry_multiplicity
 _atom_site_fract_x
 _atom_site_fract_y
 _atom_site_fract_z
 _atom_site_occupancy
  Ca  Ca0  1  0.000000  0.323631  0.414871  1
  Ca  Ca1  1  0.000000  0.676351  0.585292  1
  Tm  Tm2  1  0.000000  0.821888  0.085823  1
  Tm  Tm3  1  0.000000  0.178108  0.913977  1
  Tm  Tm4  1  0.000000  0.942288  0.369601  1
  Lu  Lu5  1  0.000000  0.057908  0.630812  1
  Lu  Lu6  1  0.000000  0.442888  0.129838  1
  Lu  Lu7  1  0.000000  0.557134  0.870048  1
  B  B8  1  0.500000  0.554427  0.431652  1
  B  B9  1  0.500000  0.445263  0.568437  1
  B  B10  1  0.500000  0.053777  0.065926  1
  B  B11  1  0.500000  0.946296  0.933896  1
  B  B12  1  0.500000  0.748948  0.416877  1
  B  B13  1  0.500000  0.250439  0.583173  1
  B  B14  1  0.500000  0.249392  0.080273  1
  B  B15  1  0.500000  0.750728  0.919633  1
  B  B16  1  0.500000  0.791954  0.263210  1
  B  B17  1  0.500000  0.207597  0.736654  1
  B  B18  1  0.500000  0.290884  0.233275  1
  B  B19  1  0.500000  0.709346  0.766623  1
  B  B20  1  0.500000  0.631056  0.183493  1
  B  B21  1  0.500000  0.368800  0.816404  1
  B  B22  1  0.500000  0.130194  0.313369  1
  B  B23  1  0.500000  0.870297  0.686405  1
  B  B24  1  0.500000  0.982478  0.210843  1
  B  B25  1  0.500000  0.017767  0.788808  1
  B  B26  1  0.500000  0.483484  0.286544  1
  B  B27  1  0.500000  0.516373  0.713402  1
  B  B28  1  0.500000  0.602312  0.027918  1
  B  B29  1  0.500000  0.397690  0.971992  1
  B  B30  1  0.500000  0.098331  0.473612  1
  B  B31  1  0.500000  0.902214  0.527536  1
  Ru  Ru32  1  0.000000  0.640705  0.316677  1
  Ru  Ru33  1  0.000000  0.358726  0.683378  1
  Ru  Ru34  1  0.000000  0.137284  0.177229  1
  Ru  Ru35  1  0.000000  0.863039  0.822500  1
