# generated using pymatgen
data_UGa4GeRu
_symmetry_space_group_name_H-M   'P 1'
_cell_length_a   4.30013600
_cell_length_b   4.30013600
_cell_length_c   6.86117100
_cell_angle_alpha   90.00000000
_cell_angle_beta   90.00000000
_cell_angle_gamma   90.00000000
_symmetry_Int_Tables_number   1
_chemical_formula_structural   UGa4GeRu
_chemical_formula_sum   'U1 Ga4 Ge1 Ru1'
_cell_volume   126.87107674
_cell_formula_units_Z   1
loop_
 _symmetry_equiv_pos_site_id
 _symmetry_equiv_pos_as_xyz
  1  'x, y, z'
loop_
 _atom_site_type_symbol
 _atom_site_label
 _atom_site_symmetry_multiplicity
 _atom_site_fract_x
 _atom_site_fract_y
 _atom_site_fract_z
 _atom_site_occupancy
  U  U0  1  0.000000  0.000000  0.000000  1
  Ga  Ga1  1  0.500000  0.000000  0.696982  1
  Ga  Ga2  1  0.000000  0.500000  0.696982  1
  Ga  Ga3  1  0.500000  0.000000  0.303018  1
  Ga  Ga4  1  0.000000  0.500000  0.303018  1
  Ge  Ge5  1  0.500000  0.500000  0.000000  1
  Ru  Ru6  1  0.000000  0.000000  0.500000  1
