# generated using pymatgen
data_Yb2SnN2
_symmetry_space_group_name_H-M   'P 1'
_cell_length_a   6.10197259
_cell_length_b   6.10197304
_cell_length_c   11.92303900
_cell_angle_alpha   90.00000000
_cell_angle_beta   90.00000000
_cell_angle_gamma   130.80280162
_symmetry_Int_Tables_number   1
_chemical_formula_structural   Yb2SnN2
_chemical_formula_sum   'Yb8 Sn4 N8'
_cell_volume   336.04869470
_cell_formula_units_Z   4
loop_
 _symmetry_equiv_pos_site_id
 _symmetry_equiv_pos_as_xyz
  1  'x, y, z'
loop_
 _atom_site_type_symbol
 _atom_site_label
 _atom_site_symmetry_multiplicity
 _atom_site_fract_x
 _atom_site_fract_y
 _atom_site_fract_z
 _atom_site_occupancy
  Yb  Yb0  1  0.539515  0.460485  0.862723  1
  Yb  Yb1  1  0.460485  0.539515  0.137277  1
  Yb  Yb2  1  0.960485  0.039515  0.362723  1
  Yb  Yb3  1  0.039515  0.960485  0.637277  1
  Yb  Yb4  1  0.861745  0.138255  0.953952  1
  Yb  Yb5  1  0.138255  0.861745  0.046048  1
  Yb  Yb6  1  0.638255  0.361745  0.453952  1
  Yb  Yb7  1  0.361745  0.638255  0.546048  1
  Sn  Sn8  1  0.744204  0.255796  0.685711  1
  Sn  Sn9  1  0.255796  0.744204  0.314289  1
  Sn  Sn10  1  0.755796  0.244204  0.185711  1
  Sn  Sn11  1  0.244204  0.755796  0.814289  1
  N  N12  1  0.560535  0.439465  0.639365  1
  N  N13  1  0.439465  0.560535  0.360635  1
  N  N14  1  0.939465  0.060535  0.139365  1
  N  N15  1  0.060535  0.939465  0.860635  1
  N  N16  1  0.849318  0.150682  0.541689  1
  N  N17  1  0.150682  0.849318  0.458311  1
  N  N18  1  0.650682  0.349318  0.041689  1
  N  N19  1  0.349318  0.650682  0.958311  1
