# generated using pymatgen
data_Tm4MnOs5Ru2
_symmetry_space_group_name_H-M   'P 1'
_cell_length_a   5.28914857
_cell_length_b   5.21670497
_cell_length_c   8.83955500
_cell_angle_alpha   90.00000000
_cell_angle_beta   90.00000000
_cell_angle_gamma   120.44551468
_symmetry_Int_Tables_number   1
_chemical_formula_structural   Tm4MnOs5Ru2
_chemical_formula_sum   'Tm4 Mn1 Os5 Ru2'
_cell_volume   210.26928542
_cell_formula_units_Z   1
loop_
 _symmetry_equiv_pos_site_id
 _symmetry_equiv_pos_as_xyz
  1  'x, y, z'
loop_
 _atom_site_type_symbol
 _atom_site_label
 _atom_site_symmetry_multiplicity
 _atom_site_fract_x
 _atom_site_fract_y
 _atom_site_fract_z
 _atom_site_occupancy
  Tm  Tm0  1  0.667125  0.334570  0.565687  1
  Tm  Tm1  1  0.332004  0.664512  0.434843  1
  Tm  Tm2  1  0.332004  0.664512  0.065157  1
  Tm  Tm3  1  0.667125  0.334570  0.934313  1
  Mn  Mn4  1  0.167287  0.334261  0.750000  1
  Os  Os5  1  0.174376  0.827299  0.750000  1
  Os  Os6  1  0.653341  0.827420  0.750000  1
  Os  Os7  1  0.832757  0.665402  0.250000  1
  Os  Os8  1  0.828144  0.172594  0.250000  1
  Os  Os9  1  0.345326  0.172777  0.250000  1
  Ru  Ru10  1  0.000255  0.001040  0.502848  1
  Ru  Ru11  1  0.000255  0.001040  0.997152  1
