# generated using pymatgen
data_K4H11Pt2
_symmetry_space_group_name_H-M   'P 1'
_cell_length_a   5.79079756
_cell_length_b   11.60642384
_cell_length_c   10.10127817
_cell_angle_alpha   54.93706096
_cell_angle_beta   89.39586863
_cell_angle_gamma   89.07446203
_symmetry_Int_Tables_number   1
_chemical_formula_structural   K4H11Pt2
_chemical_formula_sum   'K8 H22 Pt4'
_cell_volume   555.63044876
_cell_formula_units_Z   2
loop_
 _symmetry_equiv_pos_site_id
 _symmetry_equiv_pos_as_xyz
  1  'x, y, z'
loop_
 _atom_site_type_symbol
 _atom_site_label
 _atom_site_symmetry_multiplicity
 _atom_site_fract_x
 _atom_site_fract_y
 _atom_site_fract_z
 _atom_site_occupancy
  K  K0  1  0.745207  0.369541  0.505696  1
  K  K1  1  0.254750  0.630488  0.494278  1
  K  K2  1  0.742799  0.619236  0.005512  1
  K  K3  1  0.257162  0.380753  0.994482  1
  K  K4  1  0.749470  0.881217  0.493730  1
  K  K5  1  0.250716  0.118819  0.506234  1
  K  K6  1  0.756667  0.130906  0.991127  1
  K  K7  1  0.243413  0.869131  0.008807  1
  H  H8  1  0.552679  0.609597  0.742291  1
  H  H9  1  0.447212  0.390391  0.257685  1
  H  H10  1  0.556536  0.407450  0.743688  1
  H  H11  1  0.443393  0.592529  0.256280  1
  H  H12  1  0.739074  0.088203  0.559639  1
  H  H13  1  0.261007  0.911689  0.440428  1
  H  H14  1  0.540529  0.888419  0.767679  1
  H  H15  1  0.459519  0.111496  0.232432  1
  H  H16  1  0.957091  0.610392  0.738364  1
  H  H17  1  0.042767  0.389600  0.261645  1
  H  H18  1  0.753407  0.607003  0.541358  1
  H  H19  1  0.246518  0.393012  0.458626  1
  H  H20  1  0.948226  0.092706  0.754258  1
  H  H21  1  0.051787  0.907291  0.245715  1
  H  H22  1  0.749917  0.895120  0.960897  1
  H  H23  1  0.250105  0.104897  0.039165  1
  H  H24  1  0.761276  0.408952  0.941620  1
  H  H25  1  0.238610  0.591034  0.058365  1
  H  H26  1  0.960841  0.408364  0.738923  1
  H  H27  1  0.039107  0.591652  0.261053  1
  H  H28  1  0.535874  0.096099  0.760963  1
  H  H29  1  0.464144  0.903921  0.238981  1
  Pt  Pt30  1  0.737815  0.994374  0.760462  1
  Pt  Pt31  1  0.262423  0.005667  0.239625  1
  Pt  Pt32  1  0.757145  0.508639  0.741281  1
  Pt  Pt33  1  0.242818  0.491411  0.258708  1
