# generated using pymatgen
data_Hf9CrRe3As
_symmetry_space_group_name_H-M   'P 1'
_cell_length_a   8.59551692
_cell_length_b   8.59551716
_cell_length_c   8.54179100
_cell_angle_alpha   90.00000000
_cell_angle_beta   90.00000000
_cell_angle_gamma   120.00306251
_symmetry_Int_Tables_number   1
_chemical_formula_structural   Hf9CrRe3As
_chemical_formula_sum   'Hf18 Cr2 Re6 As2'
_cell_volume   546.52518619
_cell_formula_units_Z   2
loop_
 _symmetry_equiv_pos_site_id
 _symmetry_equiv_pos_as_xyz
  1  'x, y, z'
loop_
 _atom_site_type_symbol
 _atom_site_label
 _atom_site_symmetry_multiplicity
 _atom_site_fract_x
 _atom_site_fract_y
 _atom_site_fract_z
 _atom_site_occupancy
  Hf  Hf0  1  0.808337  0.616662  0.547652  1
  Hf  Hf1  1  0.808316  0.191684  0.547654  1
  Hf  Hf2  1  0.383338  0.191663  0.547652  1
  Hf  Hf3  1  0.191663  0.383338  0.452348  1
  Hf  Hf4  1  0.191684  0.808316  0.452346  1
  Hf  Hf5  1  0.616662  0.808337  0.452348  1
  Hf  Hf6  1  0.191663  0.383338  0.047652  1
  Hf  Hf7  1  0.191684  0.808316  0.047654  1
  Hf  Hf8  1  0.616662  0.808337  0.047652  1
  Hf  Hf9  1  0.808337  0.616662  0.952348  1
  Hf  Hf10  1  0.808316  0.191684  0.952346  1
  Hf  Hf11  1  0.383338  0.191663  0.952348  1
  Hf  Hf12  1  0.458311  0.916461  0.750000  1
  Hf  Hf13  1  0.458280  0.541720  0.750000  1
  Hf  Hf14  1  0.083539  0.541689  0.750000  1
  Hf  Hf15  1  0.541689  0.083539  0.250000  1
  Hf  Hf16  1  0.541720  0.458280  0.250000  1
  Hf  Hf17  1  0.916461  0.458311  0.250000  1
  Cr  Cr18  1  0.000000  0.000000  0.500000  1
  Cr  Cr19  1  0.000000  0.000000  0.000000  1
  Re  Re20  1  0.107327  0.214375  0.750000  1
  Re  Re21  1  0.107342  0.892658  0.750000  1
  Re  Re22  1  0.785625  0.892673  0.750000  1
  Re  Re23  1  0.892673  0.785625  0.250000  1
  Re  Re24  1  0.892658  0.107342  0.250000  1
  Re  Re25  1  0.214375  0.107327  0.250000  1
  As  As26  1  0.666648  0.333352  0.750000  1
  As  As27  1  0.333352  0.666648  0.250000  1
