# generated using pymatgen
data_NdLu(Si2Rh3)2
_symmetry_space_group_name_H-M   'P 1'
_cell_length_a   6.64619417
_cell_length_b   6.64619521
_cell_length_c   6.64619487
_cell_angle_alpha   130.40408561
_cell_angle_beta   114.28891493
_cell_angle_gamma   86.58819020
_symmetry_Int_Tables_number   1
_chemical_formula_structural   NdLu(Si2Rh3)2
_chemical_formula_sum   'Nd1 Lu1 Si4 Rh6'
_cell_volume   194.48404872
_cell_formula_units_Z   1
loop_
 _symmetry_equiv_pos_site_id
 _symmetry_equiv_pos_as_xyz
  1  'x, y, z'
loop_
 _atom_site_type_symbol
 _atom_site_label
 _atom_site_symmetry_multiplicity
 _atom_site_fract_x
 _atom_site_fract_y
 _atom_site_fract_z
 _atom_site_occupancy
  Nd  Nd0  1  0.250000  0.965306  0.715306  1
  Lu  Lu1  1  0.750000  0.052405  0.302405  1
  Si  Si2  1  0.579156  0.384744  0.805588  1
  Si  Si3  1  0.421948  0.618286  0.196338  1
  Si  Si4  1  0.078052  0.274390  0.196338  1
  Si  Si5  1  0.920844  0.726431  0.805588  1
  Rh  Rh6  1  0.209862  0.489040  0.707900  1
  Rh  Rh7  1  0.718860  0.998038  0.707900  1
  Rh  Rh8  1  0.781140  0.489040  0.279178  1
  Rh  Rh9  1  0.290138  0.998038  0.279178  1
  Rh  Rh10  1  0.503216  0.502140  0.505357  1
  Rh  Rh11  1  0.996784  0.502140  0.998924  1
