# generated using pymatgen
data_Ba6ScTc3O14
_symmetry_space_group_name_H-M   'P 1'
_cell_length_a   11.24040959
_cell_length_b   11.24041006
_cell_length_c   5.78340300
_cell_angle_alpha   90.00000000
_cell_angle_beta   90.00000000
_cell_angle_gamma   150.07211879
_symmetry_Int_Tables_number   1
_chemical_formula_structural   Ba6ScTc3O14
_chemical_formula_sum   'Ba6 Sc1 Tc3 O14'
_cell_volume   364.56044588
_cell_formula_units_Z   1
loop_
 _symmetry_equiv_pos_site_id
 _symmetry_equiv_pos_as_xyz
  1  'x, y, z'
loop_
 _atom_site_type_symbol
 _atom_site_label
 _atom_site_symmetry_multiplicity
 _atom_site_fract_x
 _atom_site_fract_y
 _atom_site_fract_z
 _atom_site_occupancy
  Ba  Ba0  1  0.499695  0.500305  0.000000  1
  Ba  Ba1  1  0.999989  0.000011  0.500000  1
  Ba  Ba2  1  0.683878  0.316122  0.000000  1
  Ba  Ba3  1  0.184285  0.815715  0.500000  1
  Ba  Ba4  1  0.815923  0.184077  0.500000  1
  Ba  Ba5  1  0.315525  0.684475  0.000000  1
  Sc  Sc6  1  0.402777  0.597223  0.500000  1
  Tc  Tc7  1  0.905614  0.094386  0.000000  1
  Tc  Tc8  1  0.094916  0.905084  0.000000  1
  Tc  Tc9  1  0.595315  0.404685  0.500000  1
  O  O10  1  0.662159  0.851704  0.758062  1
  O  O11  1  0.148296  0.337841  0.241938  1
  O  O12  1  0.148296  0.337841  0.758062  1
  O  O13  1  0.662159  0.851704  0.241938  1
  O  O14  1  0.844628  0.653884  0.750244  1
  O  O15  1  0.346116  0.155372  0.249756  1
  O  O16  1  0.346116  0.155372  0.750244  1
  O  O17  1  0.844628  0.653884  0.249756  1
  O  O18  1  0.812242  0.187758  0.000000  1
  O  O19  1  0.306623  0.693377  0.500000  1
  O  O20  1  0.689781  0.310219  0.500000  1
  O  O21  1  0.188434  0.811566  0.000000  1
  O  O22  1  0.502835  0.497165  0.500000  1
  O  O23  1  0.999771  0.000229  0.000000  1
