# generated using pymatgen
data_Ho2Er18HgBi11
_symmetry_space_group_name_H-M   'P 1'
_cell_length_a   8.18657696
_cell_length_b   9.45450700
_cell_length_c   11.96860769
_cell_angle_alpha   90.00000000
_cell_angle_beta   90.35310116
_cell_angle_gamma   90.00000000
_symmetry_Int_Tables_number   1
_chemical_formula_structural   Ho2Er18HgBi11
_chemical_formula_sum   'Ho2 Er18 Hg1 Bi11'
_cell_volume   926.35323155
_cell_formula_units_Z   1
loop_
 _symmetry_equiv_pos_site_id
 _symmetry_equiv_pos_as_xyz
  1  'x, y, z'
loop_
 _atom_site_type_symbol
 _atom_site_label
 _atom_site_symmetry_multiplicity
 _atom_site_fract_x
 _atom_site_fract_y
 _atom_site_fract_z
 _atom_site_occupancy
  Ho  Ho0  1  0.685933  0.750000  0.781437  1
  Ho  Ho1  1  0.187134  0.750000  0.717796  1
  Er  Er2  1  0.352758  0.750000  0.216613  1
  Er  Er3  1  0.852075  0.750000  0.284089  1
  Er  Er4  1  0.645394  0.250000  0.788195  1
  Er  Er5  1  0.146223  0.250000  0.715518  1
  Er  Er6  1  0.692203  0.556171  0.059528  1
  Er  Er7  1  0.192605  0.935075  0.440775  1
  Er  Er8  1  0.312119  0.068412  0.942726  1
  Er  Er9  1  0.807777  0.435361  0.559566  1
  Er  Er10  1  0.312119  0.431588  0.942726  1
  Er  Er11  1  0.807777  0.064639  0.559566  1
  Er  Er12  1  0.692203  0.943829  0.059528  1
  Er  Er13  1  0.192605  0.564925  0.440775  1
  Er  Er14  1  0.476408  0.250000  0.489244  1
  Er  Er15  1  0.969077  0.250000  0.010159  1
  Er  Er16  1  0.523581  0.750000  0.510681  1
  Er  Er17  1  0.022199  0.750000  0.989043  1
  Er  Er18  1  0.318876  0.250000  0.215171  1
  Er  Er19  1  0.811688  0.250000  0.280640  1
  Hg  Hg20  1  0.594645  0.250000  0.041917  1
  Bi  Bi21  1  0.405165  0.750000  0.957338  1
  Bi  Bi22  1  0.904912  0.750000  0.542385  1
  Bi  Bi23  1  0.095030  0.250000  0.456309  1
  Bi  Bi24  1  0.564926  0.996838  0.325439  1
  Bi  Bi25  1  0.064881  0.503873  0.175306  1
  Bi  Bi26  1  0.434477  0.496168  0.673710  1
  Bi  Bi27  1  0.935461  0.003805  0.824681  1
  Bi  Bi28  1  0.434477  0.003832  0.673710  1
  Bi  Bi29  1  0.935461  0.496195  0.824681  1
  Bi  Bi30  1  0.564926  0.503162  0.325439  1
  Bi  Bi31  1  0.064881  0.996127  0.175306  1
