# generated using pymatgen
data_Dy4Ho9Lu7Bi12
_symmetry_space_group_name_H-M   'P 1'
_cell_length_a   8.20072647
_cell_length_b   9.46044214
_cell_length_c   11.98889800
_cell_angle_alpha   90.00691030
_cell_angle_beta   89.93385018
_cell_angle_gamma   89.99292811
_symmetry_Int_Tables_number   1
_chemical_formula_structural   Dy4Ho9Lu7Bi12
_chemical_formula_sum   'Dy4 Ho9 Lu7 Bi12'
_cell_volume   930.12802424
_cell_formula_units_Z   1
loop_
 _symmetry_equiv_pos_site_id
 _symmetry_equiv_pos_as_xyz
  1  'x, y, z'
loop_
 _atom_site_type_symbol
 _atom_site_label
 _atom_site_symmetry_multiplicity
 _atom_site_fract_x
 _atom_site_fract_y
 _atom_site_fract_z
 _atom_site_occupancy
  Dy  Dy0  1  0.314117  0.249784  0.218367  1
  Dy  Dy1  1  0.814139  0.249526  0.282073  1
  Dy  Dy2  1  0.685615  0.750305  0.781879  1
  Dy  Dy3  1  0.185972  0.749637  0.718127  1
  Ho  Ho4  1  0.352793  0.749527  0.217236  1
  Ho  Ho5  1  0.853236  0.749718  0.282863  1
  Ho  Ho6  1  0.647410  0.249443  0.782509  1
  Ho  Ho7  1  0.145803  0.249139  0.716845  1
  Ho  Ho8  1  0.691608  0.564402  0.059435  1
  Ho  Ho9  1  0.192236  0.935764  0.440537  1
  Ho  Ho10  1  0.307921  0.064530  0.940197  1
  Ho  Ho11  1  0.807907  0.435777  0.559469  1
  Ho  Ho12  1  0.308949  0.434940  0.940779  1
  Lu  Lu13  1  0.808201  0.067303  0.558927  1
  Lu  Lu14  1  0.692269  0.932877  0.059439  1
  Lu  Lu15  1  0.191663  0.567435  0.440887  1
  Lu  Lu16  1  0.477310  0.249787  0.488898  1
  Lu  Lu17  1  0.976614  0.249774  0.011227  1
  Lu  Lu18  1  0.522621  0.749606  0.510975  1
  Lu  Lu19  1  0.022378  0.750084  0.988963  1
  Bi  Bi20  1  0.404327  0.750591  0.958767  1
  Bi  Bi21  1  0.903426  0.752367  0.541740  1
  Bi  Bi22  1  0.596615  0.247111  0.041859  1
  Bi  Bi23  1  0.096563  0.252472  0.458136  1
  Bi  Bi24  1  0.565935  0.994849  0.327881  1
  Bi  Bi25  1  0.066060  0.504523  0.172352  1
  Bi  Bi26  1  0.434366  0.494862  0.672002  1
  Bi  Bi27  1  0.934108  0.004528  0.827687  1
  Bi  Bi28  1  0.434644  0.004376  0.672154  1
  Bi  Bi29  1  0.934175  0.495289  0.827507  1
  Bi  Bi30  1  0.565730  0.504425  0.327854  1
  Bi  Bi31  1  0.065290  0.995247  0.172430  1
