# generated using pymatgen
data_Li2NdEu2MgPt3
_symmetry_space_group_name_H-M   'P 1'
_cell_length_a   7.42736159
_cell_length_b   7.48227126
_cell_length_c   4.23433300
_cell_angle_alpha   90.00000000
_cell_angle_beta   90.00000000
_cell_angle_gamma   120.63076647
_symmetry_Int_Tables_number   1
_chemical_formula_structural   Li2NdEu2MgPt3
_chemical_formula_sum   'Li2 Nd1 Eu2 Mg1 Pt3'
_cell_volume   202.48275050
_cell_formula_units_Z   1
loop_
 _symmetry_equiv_pos_site_id
 _symmetry_equiv_pos_as_xyz
  1  'x, y, z'
loop_
 _atom_site_type_symbol
 _atom_site_label
 _atom_site_symmetry_multiplicity
 _atom_site_fract_x
 _atom_site_fract_y
 _atom_site_fract_z
 _atom_site_occupancy
  Li  Li0  1  0.000396  0.232581  0.500000  1
  Li  Li1  1  0.767228  0.766806  0.500000  1
  Nd  Nd2  1  0.995039  0.585342  0.000000  1
  Eu  Eu3  1  0.413408  0.419010  0.000000  1
  Eu  Eu4  1  0.594924  0.000015  0.000000  1
  Mg  Mg5  1  0.237301  0.001129  0.500000  1
  Pt  Pt6  1  0.665007  0.332367  0.500000  1
  Pt  Pt7  1  0.005979  0.991833  0.000000  1
  Pt  Pt8  1  0.320717  0.670916  0.500000  1
