# generated using pymatgen
data_YAlNi2BIr
_symmetry_space_group_name_H-M   'P 1'
_cell_length_a   5.32058509
_cell_length_b   5.32058512
_cell_length_c   6.93567200
_cell_angle_alpha   90.00000000
_cell_angle_beta   90.00000000
_cell_angle_gamma   122.04440955
_symmetry_Int_Tables_number   1
_chemical_formula_structural   YAlNi2BIr
_chemical_formula_sum   'Y2 Al2 Ni4 B2 Ir2'
_cell_volume   166.42451270
_cell_formula_units_Z   2
loop_
 _symmetry_equiv_pos_site_id
 _symmetry_equiv_pos_as_xyz
  1  'x, y, z'
loop_
 _atom_site_type_symbol
 _atom_site_label
 _atom_site_symmetry_multiplicity
 _atom_site_fract_x
 _atom_site_fract_y
 _atom_site_fract_z
 _atom_site_occupancy
  Y  Y0  1  0.000000  0.000000  0.500000  1
  Y  Y1  1  0.000000  0.000000  0.000000  1
  Al  Al2  1  0.325596  0.674404  0.000000  1
  Al  Al3  1  0.674404  0.325596  0.000000  1
  Ni  Ni4  1  0.500000  0.000000  0.294739  1
  Ni  Ni5  1  0.000000  0.500000  0.294739  1
  Ni  Ni6  1  0.500000  0.000000  0.705261  1
  Ni  Ni7  1  0.000000  0.500000  0.705261  1
  B  B8  1  0.671673  0.328327  0.500000  1
  B  B9  1  0.328327  0.671673  0.500000  1
  Ir  Ir10  1  0.500000  0.500000  0.287673  1
  Ir  Ir11  1  0.500000  0.500000  0.712327  1
