# generated using pymatgen
data_Sm2TlI2
_symmetry_space_group_name_H-M   'P 1'
_cell_length_a   12.70665433
_cell_length_b   12.70665421
_cell_length_c   12.70665557
_cell_angle_alpha   19.16430197
_cell_angle_beta   19.16430353
_cell_angle_gamma   19.16430426
_symmetry_Int_Tables_number   1
_chemical_formula_structural   Sm2TlI2
_chemical_formula_sum   'Sm2 Tl1 I2'
_cell_volume   193.25810087
_cell_formula_units_Z   1
loop_
 _symmetry_equiv_pos_site_id
 _symmetry_equiv_pos_as_xyz
  1  'x, y, z'
loop_
 _atom_site_type_symbol
 _atom_site_label
 _atom_site_symmetry_multiplicity
 _atom_site_fract_x
 _atom_site_fract_y
 _atom_site_fract_z
 _atom_site_occupancy
  Sm  Sm0  1  0.112430  0.112430  0.112430  1
  Sm  Sm1  1  0.887570  0.887570  0.887570  1
  Tl  Tl2  1  0.500000  0.500000  0.500000  1
  I  I3  1  0.275299  0.275299  0.275299  1
  I  I4  1  0.724701  0.724701  0.724701  1
