# generated using pymatgen
data_TbTm3(Al8Pt3)3
_symmetry_space_group_name_H-M   'P 1'
_cell_length_a   7.51781524
_cell_length_b   7.54034709
_cell_length_c   13.15676852
_cell_angle_alpha   84.59455265
_cell_angle_beta   79.12964838
_cell_angle_gamma   59.97750862
_symmetry_Int_Tables_number   1
_chemical_formula_structural   TbTm3(Al8Pt3)3
_chemical_formula_sum   'Tb1 Tm3 Al24 Pt9'
_cell_volume   634.16287756
_cell_formula_units_Z   1
loop_
 _symmetry_equiv_pos_site_id
 _symmetry_equiv_pos_as_xyz
  1  'x, y, z'
loop_
 _atom_site_type_symbol
 _atom_site_label
 _atom_site_symmetry_multiplicity
 _atom_site_fract_x
 _atom_site_fract_y
 _atom_site_fract_z
 _atom_site_occupancy
  Tb  Tb0  1  0.393545  0.168464  0.808243  1
  Tm  Tm1  1  0.606353  0.831207  0.192759  1
  Tm  Tm2  1  0.734076  0.498825  0.807120  1
  Tm  Tm3  1  0.265753  0.501387  0.192905  1
  Al  Al4  1  0.684588  0.833017  0.944598  1
  Al  Al5  1  0.315930  0.166202  0.056454  1
  Al  Al6  1  0.146587  0.832442  0.561547  1
  Al  Al7  1  0.853525  0.167553  0.438262  1
  Al  Al8  1  0.479506  0.166758  0.558550  1
  Al  Al9  1  0.520534  0.833196  0.441170  1
  Al  Al10  1  0.217806  0.165326  0.328973  1
  Al  Al11  1  0.782882  0.834182  0.670480  1
  Al  Al12  1  0.437752  0.506488  0.670629  1
  Al  Al13  1  0.562445  0.493999  0.328794  1
  Al  Al14  1  0.108963  0.160180  0.669498  1
  Al  Al15  1  0.890740  0.839858  0.329860  1
  Al  Al16  1  0.353461  0.499724  0.944620  1
  Al  Al17  1  0.646341  0.501124  0.055891  1
  Al  Al18  1  0.014902  0.168056  0.952634  1
  Al  Al19  1  0.984116  0.831973  0.048010  1
  Al  Al20  1  0.186856  0.499222  0.441155  1
  Al  Al21  1  0.813147  0.500827  0.558696  1
  Al  Al22  1  0.733790  0.163971  0.183324  1
  Al  Al23  1  0.266237  0.835042  0.816610  1
  Al  Al24  1  0.060723  0.631688  0.815497  1
  Al  Al25  1  0.938332  0.369213  0.184448  1
  Al  Al26  1  0.855831  0.042175  0.816062  1
  Al  Al27  1  0.145078  0.957772  0.183921  1
  Pt  Pt28  1  0.119801  0.491821  0.638993  1
  Pt  Pt29  1  0.880085  0.508526  0.360717  1
  Pt  Pt30  1  0.657002  0.171358  0.999906  1
  Pt  Pt31  1  0.342910  0.828736  0.000168  1
  Pt  Pt32  1  0.537749  0.166690  0.360731  1
  Pt  Pt33  1  0.462243  0.833118  0.639010  1
  Pt  Pt34  1  0.778634  0.175316  0.637288  1
  Pt  Pt35  1  0.221709  0.824585  0.362434  1
  Pt  Pt36  1  0.000065  0.499979  0.000040  1
