# generated using pymatgen
data_Ba4FeWO8
_symmetry_space_group_name_H-M   'P 1'
_cell_length_a   7.29525254
_cell_length_b   7.29525273
_cell_length_c   5.95028900
_cell_angle_alpha   90.00000000
_cell_angle_beta   90.00000000
_cell_angle_gamma   132.02347228
_symmetry_Int_Tables_number   1
_chemical_formula_structural   Ba4FeWO8
_chemical_formula_sum   'Ba4 Fe1 W1 O8'
_cell_volume   235.25124303
_cell_formula_units_Z   1
loop_
 _symmetry_equiv_pos_site_id
 _symmetry_equiv_pos_as_xyz
  1  'x, y, z'
loop_
 _atom_site_type_symbol
 _atom_site_label
 _atom_site_symmetry_multiplicity
 _atom_site_fract_x
 _atom_site_fract_y
 _atom_site_fract_z
 _atom_site_occupancy
  Ba  Ba0  1  0.353586  0.646414  0.000000  1
  Ba  Ba1  1  0.856987  0.143013  0.500000  1
  Ba  Ba2  1  0.143013  0.856987  0.500000  1
  Ba  Ba3  1  0.646414  0.353586  0.000000  1
  Fe  Fe4  1  0.000000  0.000000  0.000000  1
  W  W5  1  0.500000  0.500000  0.500000  1
  O  O6  1  0.266740  0.266740  0.729825  1
  O  O7  1  0.733260  0.733260  0.270175  1
  O  O8  1  0.733260  0.733260  0.729825  1
  O  O9  1  0.266740  0.266740  0.270175  1
  O  O10  1  0.157378  0.842622  0.000000  1
  O  O11  1  0.650070  0.349930  0.500000  1
  O  O12  1  0.349930  0.650070  0.500000  1
  O  O13  1  0.842622  0.157378  0.000000  1
