# generated using pymatgen
data_MgMn7PbO16
_symmetry_space_group_name_H-M   'P 1'
_cell_length_a   5.87464195
_cell_length_b   7.13003341
_cell_length_c   7.24005238
_cell_angle_alpha   88.48815267
_cell_angle_beta   78.31349558
_cell_angle_gamma   78.02748203
_symmetry_Int_Tables_number   1
_chemical_formula_structural   MgMn7PbO16
_chemical_formula_sum   'Mg1 Mn7 Pb1 O16'
_cell_volume   290.47458256
_cell_formula_units_Z   1
loop_
 _symmetry_equiv_pos_site_id
 _symmetry_equiv_pos_as_xyz
  1  'x, y, z'
loop_
 _atom_site_type_symbol
 _atom_site_label
 _atom_site_symmetry_multiplicity
 _atom_site_fract_x
 _atom_site_fract_y
 _atom_site_fract_z
 _atom_site_occupancy
  Mg  Mg0  1  0.578027  0.518706  0.187230  1
  Mn  Mn1  1  0.081301  0.504710  0.183712  1
  Mn  Mn2  1  0.172949  0.820041  0.516497  1
  Mn  Mn3  1  0.666283  0.821612  0.524817  1
  Mn  Mn4  1  0.335590  0.188695  0.478191  1
  Mn  Mn5  1  0.839477  0.187255  0.482872  1
  Mn  Mn6  1  0.429653  0.487127  0.819679  1
  Mn  Mn7  1  0.924929  0.489831  0.820141  1
  Pb  Pb8  1  0.018430  0.935318  0.982551  1
  O  O9  1  0.848178  0.649511  0.044965  1
  O  O10  1  0.311330  0.648465  0.044744  1
  O  O11  1  0.980835  0.708545  0.379590  1
  O  O12  1  0.481254  0.711873  0.395569  1
  O  O13  1  0.857596  0.958273  0.647958  1
  O  O14  1  0.348009  0.961747  0.648535  1
  O  O15  1  0.330128  0.367532  0.289379  1
  O  O16  1  0.851824  0.363059  0.287805  1
  O  O17  1  0.165146  0.638446  0.718180  1
  O  O18  1  0.665694  0.634629  0.719262  1
  O  O19  1  0.152546  0.043383  0.358706  1
  O  O20  1  0.655683  0.044443  0.361724  1
  O  O21  1  0.027138  0.298447  0.618202  1
  O  O22  1  0.524181  0.304350  0.610903  1
  O  O23  1  0.177764  0.355051  0.945500  1
  O  O24  1  0.683153  0.358949  0.933282  1
