# generated using pymatgen
data_Sm2Mn2Ni7P7W3
_symmetry_space_group_name_H-M   'P 1'
_cell_length_a   9.20977717
_cell_length_b   9.23021500
_cell_length_c   3.76890800
_cell_angle_alpha   90.00000000
_cell_angle_beta   90.00000000
_cell_angle_gamma   120.10691383
_symmetry_Int_Tables_number   1
_chemical_formula_structural   Sm2Mn2Ni7P7W3
_chemical_formula_sum   'Sm2 Mn2 Ni7 P7 W3'
_cell_volume   277.16489230
_cell_formula_units_Z   1
loop_
 _symmetry_equiv_pos_site_id
 _symmetry_equiv_pos_as_xyz
  1  'x, y, z'
loop_
 _atom_site_type_symbol
 _atom_site_label
 _atom_site_symmetry_multiplicity
 _atom_site_fract_x
 _atom_site_fract_y
 _atom_site_fract_z
 _atom_site_occupancy
  Sm  Sm0  1  0.666283  0.334197  0.000000  1
  Sm  Sm1  1  0.335243  0.669167  0.500000  1
  Mn  Mn2  1  0.726003  0.881128  0.500000  1
  Mn  Mn3  1  0.121513  0.844578  0.500000  1
  Ni  Ni4  1  0.432741  0.064652  0.500000  1
  Ni  Ni5  1  0.938664  0.369738  0.500000  1
  Ni  Ni6  1  0.632854  0.570495  0.500000  1
  Ni  Ni7  1  0.153468  0.279585  0.500000  1
  Ni  Ni8  1  0.385786  0.439120  0.000000  1
  Ni  Ni9  1  0.559946  0.946529  0.000000  1
  Ni  Ni10  1  0.053948  0.612931  0.000000  1
  P  P11  1  0.116142  0.404851  0.000000  1
  P  P12  1  0.594914  0.713688  0.000000  1
  P  P13  1  0.286213  0.882858  0.000000  1
  P  P14  1  0.000419  0.996034  0.500000  1
  P  P15  1  0.410052  0.301428  0.500000  1
  P  P16  1  0.700083  0.108744  0.500000  1
  P  P17  1  0.892308  0.591456  0.500000  1
  W  W18  1  0.214170  0.098668  0.000000  1
  W  W19  1  0.898394  0.112756  0.000000  1
  W  W20  1  0.880853  0.777398  0.000000  1
