# generated using pymatgen
data_Lu3Sc(Ni4P3)2
_symmetry_space_group_name_H-M   'P 1'
_cell_length_a   3.75792400
_cell_length_b   10.69957800
_cell_length_c   12.33878900
_cell_angle_alpha   90.00000000
_cell_angle_beta   90.00000000
_cell_angle_gamma   90.00000000
_symmetry_Int_Tables_number   1
_chemical_formula_structural   Lu3Sc(Ni4P3)2
_chemical_formula_sum   'Lu6 Sc2 Ni16 P12'
_cell_volume   496.12050767
_cell_formula_units_Z   2
loop_
 _symmetry_equiv_pos_site_id
 _symmetry_equiv_pos_as_xyz
  1  'x, y, z'
loop_
 _atom_site_type_symbol
 _atom_site_label
 _atom_site_symmetry_multiplicity
 _atom_site_fract_x
 _atom_site_fract_y
 _atom_site_fract_z
 _atom_site_occupancy
  Lu  Lu0  1  0.000000  0.500000  0.529458  1
  Lu  Lu1  1  0.500000  0.000000  0.470542  1
  Lu  Lu2  1  0.500000  0.821882  0.204102  1
  Lu  Lu3  1  0.500000  0.178118  0.204102  1
  Lu  Lu4  1  0.000000  0.678118  0.795898  1
  Lu  Lu5  1  0.000000  0.321882  0.795898  1
  Sc  Sc6  1  0.500000  0.500000  0.156908  1
  Sc  Sc7  1  0.000000  0.000000  0.843092  1
  Ni  Ni8  1  0.500000  0.500000  0.701504  1
  Ni  Ni9  1  0.000000  0.000000  0.298496  1
  Ni  Ni10  1  0.000000  0.500000  0.985997  1
  Ni  Ni11  1  0.500000  0.000000  0.014003  1
  Ni  Ni12  1  0.500000  0.332240  0.991931  1
  Ni  Ni13  1  0.500000  0.667760  0.991931  1
  Ni  Ni14  1  0.000000  0.167760  0.008069  1
  Ni  Ni15  1  0.000000  0.832240  0.008069  1
  Ni  Ni16  1  0.500000  0.299181  0.431603  1
  Ni  Ni17  1  0.500000  0.700819  0.431603  1
  Ni  Ni18  1  0.000000  0.200819  0.568397  1
  Ni  Ni19  1  0.000000  0.799181  0.568397  1
  Ni  Ni20  1  0.500000  0.877213  0.704744  1
  Ni  Ni21  1  0.500000  0.122787  0.704744  1
  Ni  Ni22  1  0.000000  0.622787  0.295256  1
  Ni  Ni23  1  0.000000  0.377213  0.295256  1
  P  P24  1  0.500000  0.500000  0.879896  1
  P  P25  1  0.000000  0.000000  0.120104  1
  P  P26  1  0.500000  0.500000  0.363946  1
  P  P27  1  0.000000  0.000000  0.636054  1
  P  P28  1  0.500000  0.315484  0.616716  1
  P  P29  1  0.500000  0.684516  0.616716  1
  P  P30  1  0.000000  0.184516  0.383284  1
  P  P31  1  0.000000  0.815484  0.383284  1
  P  P32  1  0.500000  0.838272  0.890983  1
  P  P33  1  0.500000  0.161728  0.890983  1
  P  P34  1  0.000000  0.661728  0.109017  1
  P  P35  1  0.000000  0.338272  0.109017  1
