# generated using pymatgen
data_Gd2Dy(LuPt2)2
_symmetry_space_group_name_H-M   'P 1'
_cell_length_a   7.44064200
_cell_length_b   7.51573500
_cell_length_c   14.59738900
_cell_angle_alpha   90.00000000
_cell_angle_beta   90.00000000
_cell_angle_gamma   90.00000000
_symmetry_Int_Tables_number   1
_chemical_formula_structural   Gd2Dy(LuPt2)2
_chemical_formula_sum   'Gd8 Dy4 Lu8 Pt16'
_cell_volume   816.31363306
_cell_formula_units_Z   4
loop_
 _symmetry_equiv_pos_site_id
 _symmetry_equiv_pos_as_xyz
  1  'x, y, z'
loop_
 _atom_site_type_symbol
 _atom_site_label
 _atom_site_symmetry_multiplicity
 _atom_site_fract_x
 _atom_site_fract_y
 _atom_site_fract_z
 _atom_site_occupancy
  Gd  Gd0  1  0.998326  0.821568  0.405674  1
  Gd  Gd1  1  0.498326  0.678432  0.094326  1
  Gd  Gd2  1  0.501674  0.321568  0.594326  1
  Gd  Gd3  1  0.001674  0.178432  0.905674  1
  Gd  Gd4  1  0.998967  0.177415  0.593160  1
  Gd  Gd5  1  0.498967  0.322585  0.906840  1
  Gd  Gd6  1  0.501033  0.677415  0.406840  1
  Gd  Gd7  1  0.001033  0.822585  0.093160  1
  Dy  Dy8  1  0.344199  0.166955  0.377914  1
  Dy  Dy9  1  0.844199  0.333045  0.122086  1
  Dy  Dy10  1  0.155801  0.666955  0.622086  1
  Dy  Dy11  1  0.655801  0.833045  0.877914  1
  Lu  Lu12  1  0.680831  0.991222  0.249743  1
  Lu  Lu13  1  0.180831  0.508778  0.250257  1
  Lu  Lu14  1  0.819169  0.491222  0.750257  1
  Lu  Lu15  1  0.319169  0.008778  0.749743  1
  Lu  Lu16  1  0.656598  0.833129  0.623697  1
  Lu  Lu17  1  0.156598  0.666871  0.876303  1
  Lu  Lu18  1  0.843402  0.333129  0.376303  1
  Lu  Lu19  1  0.343402  0.166871  0.123697  1
  Pt  Pt20  1  0.816633  0.642986  0.251629  1
  Pt  Pt21  1  0.316633  0.857014  0.248371  1
  Pt  Pt22  1  0.683367  0.142986  0.748371  1
  Pt  Pt23  1  0.183367  0.357014  0.751629  1
  Pt  Pt24  1  0.544604  0.383278  0.248599  1
  Pt  Pt25  1  0.044604  0.116722  0.251401  1
  Pt  Pt26  1  0.955396  0.883278  0.751401  1
  Pt  Pt27  1  0.455396  0.616722  0.748599  1
  Pt  Pt28  1  0.814124  0.537388  0.541227  1
  Pt  Pt29  1  0.314124  0.962612  0.958773  1
  Pt  Pt30  1  0.685876  0.037388  0.458773  1
  Pt  Pt31  1  0.185876  0.462612  0.041227  1
  Pt  Pt32  1  0.175598  0.466919  0.455820  1
  Pt  Pt33  1  0.675598  0.033081  0.044180  1
  Pt  Pt34  1  0.324402  0.966919  0.544180  1
  Pt  Pt35  1  0.824402  0.533081  0.955820  1
