# generated using pymatgen
data_RbFe3Sb12Au
_symmetry_space_group_name_H-M   'P 1'
_cell_length_a   8.12199831
_cell_length_b   8.12199766
_cell_length_c   8.12199744
_cell_angle_alpha   109.64205166
_cell_angle_beta   109.64205041
_cell_angle_gamma   109.64204869
_symmetry_Int_Tables_number   1
_chemical_formula_structural   RbFe3Sb12Au
_chemical_formula_sum   'Rb1 Fe3 Sb12 Au1'
_cell_volume   409.81624615
_cell_formula_units_Z   1
loop_
 _symmetry_equiv_pos_site_id
 _symmetry_equiv_pos_as_xyz
  1  'x, y, z'
loop_
 _atom_site_type_symbol
 _atom_site_label
 _atom_site_symmetry_multiplicity
 _atom_site_fract_x
 _atom_site_fract_y
 _atom_site_fract_z
 _atom_site_occupancy
  Rb  Rb0  1  0.000000  0.000000  0.000000  1
  Fe  Fe1  1  0.500000  0.000000  0.000000  1
  Fe  Fe2  1  0.000000  0.500000  0.000000  1
  Fe  Fe3  1  0.000000  0.000000  0.500000  1
  Sb  Sb4  1  0.860933  0.669091  0.497357  1
  Sb  Sb5  1  0.139067  0.330909  0.502643  1
  Sb  Sb6  1  0.164314  0.666718  0.829544  1
  Sb  Sb7  1  0.835686  0.333282  0.170456  1
  Sb  Sb8  1  0.669091  0.497357  0.860933  1
  Sb  Sb9  1  0.330909  0.502643  0.139067  1
  Sb  Sb10  1  0.666718  0.829544  0.164314  1
  Sb  Sb11  1  0.333282  0.170456  0.835686  1
  Sb  Sb12  1  0.497357  0.860933  0.669091  1
  Sb  Sb13  1  0.502643  0.139067  0.330909  1
  Sb  Sb14  1  0.170456  0.835686  0.333282  1
  Sb  Sb15  1  0.829544  0.164314  0.666718  1
  Au  Au16  1  0.500000  0.500000  0.500000  1
