# generated using pymatgen
data_Sr4Ho3Tm5Se16
_symmetry_space_group_name_H-M   'P 1'
_cell_length_a   4.11604900
_cell_length_b   12.63866544
_cell_length_c   14.88658404
_cell_angle_alpha   89.96206118
_cell_angle_beta   90.00000000
_cell_angle_gamma   90.00000000
_symmetry_Int_Tables_number   1
_chemical_formula_structural   Sr4Ho3Tm5Se16
_chemical_formula_sum   'Sr4 Ho3 Tm5 Se16'
_cell_volume   774.42027106
_cell_formula_units_Z   1
loop_
 _symmetry_equiv_pos_site_id
 _symmetry_equiv_pos_as_xyz
  1  'x, y, z'
loop_
 _atom_site_type_symbol
 _atom_site_label
 _atom_site_symmetry_multiplicity
 _atom_site_fract_x
 _atom_site_fract_y
 _atom_site_fract_z
 _atom_site_occupancy
  Sr  Sr0  1  0.250000  0.759884  0.333894  1
  Sr  Sr1  1  0.250000  0.259640  0.165828  1
  Sr  Sr2  1  0.750000  0.239678  0.666711  1
  Sr  Sr3  1  0.750000  0.740659  0.833970  1
  Ho  Ho4  1  0.250000  0.438637  0.388787  1
  Ho  Ho5  1  0.250000  0.938959  0.110783  1
  Ho  Ho6  1  0.750000  0.561253  0.611177  1
  Tm  Tm7  1  0.750000  0.060695  0.888557  1
  Tm  Tm8  1  0.250000  0.416889  0.902962  1
  Tm  Tm9  1  0.250000  0.917654  0.597506  1
  Tm  Tm10  1  0.750000  0.582656  0.096991  1
  Tm  Tm11  1  0.750000  0.082661  0.402920  1
  Se  Se12  1  0.250000  0.204514  0.831395  1
  Se  Se13  1  0.250000  0.706064  0.670022  1
  Se  Se14  1  0.750000  0.794062  0.169917  1
  Se  Se15  1  0.750000  0.293963  0.329977  1
  Se  Se16  1  0.250000  0.127594  0.530084  1
  Se  Se17  1  0.250000  0.627592  0.969788  1
  Se  Se18  1  0.750000  0.872612  0.470286  1
  Se  Se19  1  0.750000  0.372612  0.030183  1
  Se  Se20  1  0.250000  0.028477  0.285170  1
  Se  Se21  1  0.250000  0.528404  0.214570  1
  Se  Se22  1  0.750000  0.972079  0.715178  1
  Se  Se23  1  0.750000  0.471280  0.785483  1
  Se  Se24  1  0.250000  0.409018  0.577280  1
  Se  Se25  1  0.250000  0.910481  0.922200  1
  Se  Se26  1  0.750000  0.590940  0.422768  1
  Se  Se27  1  0.750000  0.091039  0.075614  1
