# generated using pymatgen
data_Mg4As6Ir5Ru2
_symmetry_space_group_name_H-M   'P 1'
_cell_length_a   7.07085929
_cell_length_b   7.07085965
_cell_length_c   7.07085939
_cell_angle_alpha   109.40052654
_cell_angle_beta   109.61270034
_cell_angle_gamma   109.40052193
_symmetry_Int_Tables_number   1
_chemical_formula_structural   Mg4As6Ir5Ru2
_chemical_formula_sum   'Mg4 As6 Ir5 Ru2'
_cell_volume   272.14024191
_cell_formula_units_Z   1
loop_
 _symmetry_equiv_pos_site_id
 _symmetry_equiv_pos_as_xyz
  1  'x, y, z'
loop_
 _atom_site_type_symbol
 _atom_site_label
 _atom_site_symmetry_multiplicity
 _atom_site_fract_x
 _atom_site_fract_y
 _atom_site_fract_z
 _atom_site_occupancy
  Mg  Mg0  1  0.000298  0.000595  0.500298  1
  Mg  Mg1  1  0.499702  0.999405  0.999702  1
  Mg  Mg2  1  0.000298  0.500000  0.999702  1
  Mg  Mg3  1  0.499702  0.500000  0.500298  1
  As  As4  1  0.685078  0.688600  0.996477  1
  As  As5  1  0.307877  0.311400  0.996477  1
  As  As6  1  0.003523  0.688600  0.692123  1
  As  As7  1  0.003523  0.311400  0.314922  1
  As  As8  1  0.689691  0.000000  0.689691  1
  As  As9  1  0.310309  0.000000  0.310309  1
  Ir  Ir10  1  0.749166  0.249572  0.499593  1
  Ir  Ir11  1  0.500407  0.249572  0.749979  1
  Ir  Ir12  1  0.500407  0.750428  0.250834  1
  Ir  Ir13  1  0.750000  0.500000  0.250000  1
  Ir  Ir14  1  0.250021  0.750428  0.499593  1
  Ru  Ru15  1  0.000000  0.000000  0.000000  1
  Ru  Ru16  1  0.250000  0.500000  0.750000  1
