# generated using pymatgen
data_La13Pr3Cd4(CoTc)2
_symmetry_space_group_name_H-M   'P 1'
_cell_length_a   10.00521079
_cell_length_b   9.94771010
_cell_length_c   10.00521014
_cell_angle_alpha   60.14354749
_cell_angle_beta   60.76328679
_cell_angle_gamma   60.14354446
_symmetry_Int_Tables_number   1
_chemical_formula_structural   La13Pr3Cd4(CoTc)2
_chemical_formula_sum   'La13 Pr3 Cd4 Co2 Tc2'
_cell_volume   709.66470921
_cell_formula_units_Z   1
loop_
 _symmetry_equiv_pos_site_id
 _symmetry_equiv_pos_as_xyz
  1  'x, y, z'
loop_
 _atom_site_type_symbol
 _atom_site_label
 _atom_site_symmetry_multiplicity
 _atom_site_fract_x
 _atom_site_fract_y
 _atom_site_fract_z
 _atom_site_occupancy
  La  La0  1  0.684250  0.692314  0.309443  1
  La  La1  1  0.159253  0.151487  0.539611  1
  La  La2  1  0.309443  0.692314  0.684250  1
  La  La3  1  0.159115  0.150115  0.159115  1
  La  La4  1  0.539611  0.151487  0.159253  1
  La  La5  1  0.308143  0.692058  0.308143  1
  La  La6  1  0.309650  0.311922  0.685782  1
  La  La7  1  0.686839  0.312092  0.686839  1
  La  La8  1  0.935773  0.559819  0.556509  1
  La  La9  1  0.556509  0.559819  0.935773  1
  La  La10  1  0.159122  0.534365  0.159122  1
  La  La11  1  0.685782  0.311922  0.309650  1
  La  La12  1  0.941705  0.558933  0.941705  1
  Pr  Pr13  1  0.932673  0.942008  0.562039  1
  Pr  Pr14  1  0.560287  0.940514  0.560287  1
  Pr  Pr15  1  0.562039  0.942008  0.932673  1
  Cd  Cd16  1  0.237017  0.921590  0.920689  1
  Cd  Cd17  1  0.921381  0.921309  0.921381  1
  Cd  Cd18  1  0.920689  0.921590  0.237017  1
  Cd  Cd19  1  0.922187  0.235713  0.922187  1
  Co  Co20  1  0.366981  0.913778  0.366981  1
  Co  Co21  1  0.366781  0.353878  0.366781  1
  Tc  Tc22  1  0.905449  0.364482  0.369317  1
  Tc  Tc23  1  0.369317  0.364482  0.905449  1
