# generated using pymatgen
data_CaPrNdGa8Ag3
_symmetry_space_group_name_H-M   'P 1'
_cell_length_a   4.40685067
_cell_length_b   8.48911004
_cell_length_c   8.48910935
_cell_angle_alpha   69.84437518
_cell_angle_beta   74.95609859
_cell_angle_gamma   74.95609245
_symmetry_Int_Tables_number   1
_chemical_formula_structural   CaPrNdGa8Ag3
_chemical_formula_sum   'Ca1 Pr1 Nd1 Ga8 Ag3'
_cell_volume   282.79871434
_cell_formula_units_Z   1
loop_
 _symmetry_equiv_pos_site_id
 _symmetry_equiv_pos_as_xyz
  1  'x, y, z'
loop_
 _atom_site_type_symbol
 _atom_site_label
 _atom_site_symmetry_multiplicity
 _atom_site_fract_x
 _atom_site_fract_y
 _atom_site_fract_z
 _atom_site_occupancy
  Ca  Ca0  1  0.197223  0.802777  0.802777  1
  Pr  Pr1  1  0.499568  0.500432  0.500432  1
  Nd  Nd2  1  0.799901  0.200099  0.200099  1
  Ga  Ga3  1  0.358807  0.359472  0.922915  1
  Ga  Ga4  1  0.644143  0.636113  0.075602  1
  Ga  Ga5  1  0.358807  0.922915  0.359472  1
  Ga  Ga6  1  0.644143  0.075602  0.636113  1
  Ga  Ga7  1  0.159397  0.471696  0.209509  1
  Ga  Ga8  1  0.837790  0.529066  0.795356  1
  Ga  Ga9  1  0.159397  0.209509  0.471696  1
  Ga  Ga10  1  0.837790  0.795356  0.529066  1
  Ag  Ag11  1  0.500560  0.999440  0.999440  1
  Ag  Ag12  1  0.001238  0.801131  0.196394  1
  Ag  Ag13  1  0.001238  0.196394  0.801131  1
