# generated using pymatgen
data_Th2Zn5Sn
_symmetry_space_group_name_H-M   'P 1'
_cell_length_a   8.56300169
_cell_length_b   8.56300112
_cell_length_c   9.04684900
_cell_angle_alpha   90.00000000
_cell_angle_beta   90.00000000
_cell_angle_gamma   149.49255751
_symmetry_Int_Tables_number   1
_chemical_formula_structural   Th2Zn5Sn
_chemical_formula_sum   'Th4 Zn10 Sn2'
_cell_volume   336.75496141
_cell_formula_units_Z   2
loop_
 _symmetry_equiv_pos_site_id
 _symmetry_equiv_pos_as_xyz
  1  'x, y, z'
loop_
 _atom_site_type_symbol
 _atom_site_label
 _atom_site_symmetry_multiplicity
 _atom_site_fract_x
 _atom_site_fract_y
 _atom_site_fract_z
 _atom_site_occupancy
  Th  Th0  1  0.204664  0.795336  0.250000  1
  Th  Th1  1  0.795336  0.204664  0.750000  1
  Th  Th2  1  0.000000  0.000000  0.500000  1
  Th  Th3  1  0.000000  0.000000  0.000000  1
  Zn  Zn4  1  0.815820  0.184180  0.393920  1
  Zn  Zn5  1  0.184180  0.815820  0.606080  1
  Zn  Zn6  1  0.815820  0.184180  0.106080  1
  Zn  Zn7  1  0.184180  0.815820  0.893920  1
  Zn  Zn8  1  0.657083  0.342917  0.483844  1
  Zn  Zn9  1  0.342917  0.657083  0.516156  1
  Zn  Zn10  1  0.657083  0.342917  0.016156  1
  Zn  Zn11  1  0.342917  0.657083  0.983844  1
  Zn  Zn12  1  0.395301  0.604699  0.250000  1
  Zn  Zn13  1  0.604699  0.395301  0.750000  1
  Sn  Sn14  1  0.555231  0.444769  0.250000  1
  Sn  Sn15  1  0.444769  0.555231  0.750000  1
