# generated using pymatgen
data_Hf7ScTi7Si16Mo5
_symmetry_space_group_name_H-M   'P 1'
_cell_length_a   6.55445749
_cell_length_b   6.73170548
_cell_length_c   12.90994303
_cell_angle_alpha   90.02281322
_cell_angle_beta   89.92027901
_cell_angle_gamma   89.86955844
_symmetry_Int_Tables_number   1
_chemical_formula_structural   Hf7ScTi7Si16Mo5
_chemical_formula_sum   'Hf7 Sc1 Ti7 Si16 Mo5'
_cell_volume   569.61917880
_cell_formula_units_Z   1
loop_
 _symmetry_equiv_pos_site_id
 _symmetry_equiv_pos_as_xyz
  1  'x, y, z'
loop_
 _atom_site_type_symbol
 _atom_site_label
 _atom_site_symmetry_multiplicity
 _atom_site_fract_x
 _atom_site_fract_y
 _atom_site_fract_z
 _atom_site_occupancy
  Hf  Hf0  1  0.004296  0.826504  0.906524  1
  Hf  Hf1  1  0.504513  0.672118  0.907081  1
  Hf  Hf2  1  0.004414  0.828596  0.592105  1
  Hf  Hf3  1  0.496034  0.329869  0.092057  1
  Hf  Hf4  1  0.995008  0.171650  0.407491  1
  Hf  Hf5  1  0.494430  0.328763  0.407932  1
  Hf  Hf6  1  0.505090  0.671796  0.592873  1
  Sc  Sc7  1  0.997808  0.174623  0.092564  1
  Ti  Ti8  1  0.335993  0.168462  0.625277  1
  Ti  Ti9  1  0.666720  0.830980  0.374379  1
  Ti  Ti10  1  0.164124  0.668301  0.374677  1
  Ti  Ti11  1  0.663793  0.831111  0.125489  1
  Ti  Ti12  1  0.834066  0.331819  0.624863  1
  Ti  Ti13  1  0.333920  0.166150  0.875979  1
  Ti  Ti14  1  0.833365  0.334648  0.875255  1
  Si  Si15  1  0.035317  0.116381  0.750449  1
  Si  Si16  1  0.967357  0.883666  0.248522  1
  Si  Si17  1  0.463051  0.616642  0.250730  1
  Si  Si18  1  0.534602  0.383968  0.750424  1
  Si  Si19  1  0.297448  0.860239  0.749796  1
  Si  Si20  1  0.703322  0.140597  0.249078  1
  Si  Si21  1  0.200531  0.359742  0.250610  1
  Si  Si22  1  0.797505  0.640277  0.749490  1
  Si  Si23  1  0.170805  0.460486  0.538854  1
  Si  Si24  1  0.828441  0.538827  0.461474  1
  Si  Si25  1  0.329613  0.960228  0.460694  1
  Si  Si26  1  0.831345  0.538868  0.039541  1
  Si  Si27  1  0.670464  0.039605  0.538666  1
  Si  Si28  1  0.169926  0.458188  0.960330  1
  Si  Si29  1  0.669523  0.038467  0.961013  1
  Si  Si30  1  0.328414  0.959651  0.040012  1
  Mo  Mo31  1  0.161470  0.496277  0.750261  1
  Mo  Mo32  1  0.835200  0.506643  0.251192  1
  Mo  Mo33  1  0.340879  0.997014  0.250384  1
  Mo  Mo34  1  0.661474  0.005177  0.750771  1
  Mo  Mo35  1  0.169735  0.663663  0.123167  1
