# generated using pymatgen
data_ErTm3V6O16
_symmetry_space_group_name_H-M   'P 1'
_cell_length_a   5.07453400
_cell_length_b   6.14618120
_cell_length_c   10.29190859
_cell_angle_alpha   89.86705043
_cell_angle_beta   83.65435156
_cell_angle_gamma   90.04683611
_symmetry_Int_Tables_number   1
_chemical_formula_structural   ErTm3V6O16
_chemical_formula_sum   'Er1 Tm3 V6 O16'
_cell_volume   319.02668400
_cell_formula_units_Z   1
loop_
 _symmetry_equiv_pos_site_id
 _symmetry_equiv_pos_as_xyz
  1  'x, y, z'
loop_
 _atom_site_type_symbol
 _atom_site_label
 _atom_site_symmetry_multiplicity
 _atom_site_fract_x
 _atom_site_fract_y
 _atom_site_fract_z
 _atom_site_occupancy
  Er  Er0  1  0.439730  0.501798  0.223521  1
  Tm  Tm1  1  0.939096  0.001437  0.723870  1
  Tm  Tm2  1  0.060556  0.001898  0.275131  1
  Tm  Tm3  1  0.560414  0.501192  0.775193  1
  V  V4  1  0.000806  0.502880  0.500233  1
  V  V5  1  0.500252  0.233965  0.499529  1
  V  V6  1  0.499245  0.754288  0.500512  1
  V  V7  1  0.501672  0.002734  0.000091  1
  V  V8  1  0.000847  0.734638  0.998301  1
  V  V9  1  0.998049  0.254913  0.001305  1
  O  O10  1  0.678705  0.010579  0.397196  1
  O  O11  1  0.178065  0.512454  0.895789  1
  O  O12  1  0.827368  0.504248  0.102754  1
  O  O13  1  0.322741  0.006214  0.602908  1
  O  O14  1  0.686617  0.496808  0.395109  1
  O  O15  1  0.183909  0.999346  0.895802  1
  O  O16  1  0.810365  0.989447  0.107300  1
  O  O17  1  0.312031  0.493167  0.606267  1
  O  O18  1  0.287010  0.224567  0.120508  1
  O  O19  1  0.787854  0.724741  0.620613  1
  O  O20  1  0.276889  0.777622  0.112871  1
  O  O21  1  0.775927  0.275956  0.613962  1
  O  O22  1  0.210855  0.723971  0.379815  1
  O  O23  1  0.710713  0.222272  0.880170  1
  O  O24  1  0.224782  0.274871  0.386229  1
  O  O25  1  0.725499  0.773993  0.885020  1
