# generated using pymatgen
data_LiTh3Bi5
_symmetry_space_group_name_H-M   'P 1'
_cell_length_a   9.74802700
_cell_length_b   9.74802673
_cell_length_c   6.45103800
_cell_angle_alpha   90.00000000
_cell_angle_beta   90.00000000
_cell_angle_gamma   119.99999751
_symmetry_Int_Tables_number   1
_chemical_formula_structural   LiTh3Bi5
_chemical_formula_sum   'Li2 Th6 Bi10'
_cell_volume   530.87671586
_cell_formula_units_Z   2
loop_
 _symmetry_equiv_pos_site_id
 _symmetry_equiv_pos_as_xyz
  1  'x, y, z'
loop_
 _atom_site_type_symbol
 _atom_site_label
 _atom_site_symmetry_multiplicity
 _atom_site_fract_x
 _atom_site_fract_y
 _atom_site_fract_z
 _atom_site_occupancy
  Li  Li0  1  0.000000  0.000000  0.000000  1
  Li  Li1  1  0.000000  0.000000  0.500000  1
  Th  Th2  1  0.620554  0.000000  0.250000  1
  Th  Th3  1  0.379446  0.000000  0.750000  1
  Th  Th4  1  0.379446  0.379446  0.250000  1
  Th  Th5  1  0.000000  0.620554  0.250000  1
  Th  Th6  1  0.000000  0.379446  0.750000  1
  Th  Th7  1  0.620554  0.620554  0.750000  1
  Bi  Bi8  1  0.266040  0.266040  0.750000  1
  Bi  Bi9  1  0.733960  0.733960  0.250000  1
  Bi  Bi10  1  0.333333  0.666667  0.500000  1
  Bi  Bi11  1  0.000000  0.266040  0.250000  1
  Bi  Bi12  1  0.266040  0.000000  0.250000  1
  Bi  Bi13  1  0.733960  0.000000  0.750000  1
  Bi  Bi14  1  0.666667  0.333333  0.000000  1
  Bi  Bi15  1  0.000000  0.733960  0.750000  1
  Bi  Bi16  1  0.333333  0.666667  0.000000  1
  Bi  Bi17  1  0.666667  0.333333  0.500000  1
