# generated using pymatgen
data_CsTeP2
_symmetry_space_group_name_H-M   'P 1'
_cell_length_a   6.68797000
_cell_length_b   7.84688966
_cell_length_c   10.71161309
_cell_angle_alpha   90.90167821
_cell_angle_beta   90.00000000
_cell_angle_gamma   90.00000000
_symmetry_Int_Tables_number   1
_chemical_formula_structural   CsTeP2
_chemical_formula_sum   'Cs4 Te4 P8'
_cell_volume   562.07330320
_cell_formula_units_Z   4
loop_
 _symmetry_equiv_pos_site_id
 _symmetry_equiv_pos_as_xyz
  1  'x, y, z'
loop_
 _atom_site_type_symbol
 _atom_site_label
 _atom_site_symmetry_multiplicity
 _atom_site_fract_x
 _atom_site_fract_y
 _atom_site_fract_z
 _atom_site_occupancy
  Cs  Cs0  1  0.250000  0.023711  0.394161  1
  Cs  Cs1  1  0.750000  0.976289  0.605839  1
  Cs  Cs2  1  0.250000  0.224354  0.014755  1
  Cs  Cs3  1  0.750000  0.775646  0.985245  1
  Te  Te4  1  0.250000  0.687288  0.128082  1
  Te  Te5  1  0.750000  0.312712  0.871918  1
  Te  Te6  1  0.250000  0.806398  0.740179  1
  Te  Te7  1  0.750000  0.193602  0.259821  1
  P  P8  1  0.494401  0.403214  0.575556  1
  P  P9  1  0.994401  0.596786  0.424444  1
  P  P10  1  0.505599  0.596786  0.424444  1
  P  P11  1  0.005599  0.403214  0.575556  1
  P  P12  1  0.250000  0.492723  0.308540  1
  P  P13  1  0.750000  0.507277  0.691460  1
  P  P14  1  0.250000  0.489891  0.704379  1
  P  P15  1  0.750000  0.510109  0.295621  1
