# generated using pymatgen
data_B(Pd3Au)8
_symmetry_space_group_name_H-M   'P 1'
_cell_length_a   8.06279500
_cell_length_b   8.06279500
_cell_length_c   8.06279500
_cell_angle_alpha   90.00000000
_cell_angle_beta   90.00000000
_cell_angle_gamma   90.00000000
_symmetry_Int_Tables_number   1
_chemical_formula_structural   B(Pd3Au)8
_chemical_formula_sum   'B1 Pd24 Au8'
_cell_volume   524.15152470
_cell_formula_units_Z   1
loop_
 _symmetry_equiv_pos_site_id
 _symmetry_equiv_pos_as_xyz
  1  'x, y, z'
loop_
 _atom_site_type_symbol
 _atom_site_label
 _atom_site_symmetry_multiplicity
 _atom_site_fract_x
 _atom_site_fract_y
 _atom_site_fract_z
 _atom_site_occupancy
  B  B0  1  0.000000  0.000000  0.000000  1
  Pd  Pd1  1  0.252095  0.500000  0.000000  1
  Pd  Pd2  1  0.747905  0.500000  0.000000  1
  Pd  Pd3  1  0.000000  0.252095  0.500000  1
  Pd  Pd4  1  0.500000  0.252095  0.000000  1
  Pd  Pd5  1  0.000000  0.747905  0.500000  1
  Pd  Pd6  1  0.500000  0.747905  0.000000  1
  Pd  Pd7  1  0.500000  0.000000  0.252095  1
  Pd  Pd8  1  0.252095  0.000000  0.500000  1
  Pd  Pd9  1  0.500000  0.000000  0.747905  1
  Pd  Pd10  1  0.747905  0.000000  0.500000  1
  Pd  Pd11  1  0.000000  0.500000  0.252095  1
  Pd  Pd12  1  0.000000  0.500000  0.747905  1
  Pd  Pd13  1  0.250317  0.500000  0.500000  1
  Pd  Pd14  1  0.749683  0.500000  0.500000  1
  Pd  Pd15  1  0.500000  0.250317  0.500000  1
  Pd  Pd16  1  0.500000  0.749683  0.500000  1
  Pd  Pd17  1  0.500000  0.500000  0.250317  1
  Pd  Pd18  1  0.500000  0.500000  0.749683  1
  Pd  Pd19  1  0.258245  0.000000  0.000000  1
  Pd  Pd20  1  0.741755  0.000000  0.000000  1
  Pd  Pd21  1  0.000000  0.258245  0.000000  1
  Pd  Pd22  1  0.000000  0.741755  0.000000  1
  Pd  Pd23  1  0.000000  0.000000  0.258245  1
  Pd  Pd24  1  0.000000  0.000000  0.741755  1
  Au  Au25  1  0.252058  0.252058  0.252058  1
  Au  Au26  1  0.747942  0.747942  0.747942  1
  Au  Au27  1  0.747942  0.747942  0.252058  1
  Au  Au28  1  0.747942  0.252058  0.747942  1
  Au  Au29  1  0.252058  0.252058  0.747942  1
  Au  Au30  1  0.252058  0.747942  0.252058  1
  Au  Au31  1  0.252058  0.747942  0.747942  1
  Au  Au32  1  0.747942  0.252058  0.252058  1
