# generated using pymatgen
data_Ta6Be7Co16
_symmetry_space_group_name_H-M   'P 1'
_cell_length_a   7.69767262
_cell_length_b   7.69696363
_cell_length_c   7.69696208
_cell_angle_alpha   59.99362719
_cell_angle_beta   59.99694906
_cell_angle_gamma   59.99693743
_symmetry_Int_Tables_number   1
_chemical_formula_structural   Ta6Be7Co16
_chemical_formula_sum   'Ta6 Be7 Co16'
_cell_volume   322.43504125
_cell_formula_units_Z   1
loop_
 _symmetry_equiv_pos_site_id
 _symmetry_equiv_pos_as_xyz
  1  'x, y, z'
loop_
 _atom_site_type_symbol
 _atom_site_label
 _atom_site_symmetry_multiplicity
 _atom_site_fract_x
 _atom_site_fract_y
 _atom_site_fract_z
 _atom_site_occupancy
  Ta  Ta0  1  0.205567  0.794433  0.794433  1
  Ta  Ta1  1  0.205577  0.794354  0.205646  1
  Ta  Ta2  1  0.794433  0.205567  0.205567  1
  Ta  Ta3  1  0.794423  0.205646  0.794354  1
  Ta  Ta4  1  0.794509  0.794419  0.205581  1
  Ta  Ta5  1  0.205491  0.205581  0.794419  1
  Be  Be6  1  0.000000  0.000000  0.500000  1
  Be  Be7  1  0.500000  0.500000  0.000000  1
  Be  Be8  1  0.000000  0.500000  0.500000  1
  Be  Be9  1  0.500000  0.000000  0.500000  1
  Be  Be10  1  0.500000  0.500000  0.500000  1
  Be  Be11  1  0.000000  0.500000  0.000000  1
  Be  Be12  1  0.500000  0.000000  0.000000  1
  Co  Co13  1  0.380632  0.380603  0.380630  1
  Co  Co14  1  0.507970  0.830668  0.830680  1
  Co  Co15  1  0.619373  0.619349  0.141958  1
  Co  Co16  1  0.169319  0.169325  0.492030  1
  Co  Co17  1  0.830681  0.830675  0.507970  1
  Co  Co18  1  0.169318  0.169320  0.169332  1
  Co  Co19  1  0.830682  0.830680  0.830668  1
  Co  Co20  1  0.380627  0.380651  0.858042  1
  Co  Co21  1  0.830672  0.507970  0.830675  1
  Co  Co22  1  0.619368  0.619397  0.619370  1
  Co  Co23  1  0.380681  0.858042  0.380651  1
  Co  Co24  1  0.141863  0.619370  0.619397  1
  Co  Co25  1  0.619319  0.141958  0.619349  1
  Co  Co26  1  0.169328  0.492030  0.169325  1
  Co  Co27  1  0.858137  0.380630  0.380603  1
  Co  Co28  1  0.492030  0.169332  0.169320  1
