# generated using pymatgen
data_Tb7PSe6
_symmetry_space_group_name_H-M   'P 1'
_cell_length_a   5.77004420
_cell_length_b   7.06454221
_cell_length_c   9.08633600
_cell_angle_alpha   97.62121820
_cell_angle_beta   90.16246279
_cell_angle_gamma   65.78665777
_symmetry_Int_Tables_number   1
_chemical_formula_structural   Tb7PSe6
_chemical_formula_sum   'Tb7 P1 Se6'
_cell_volume   334.27015439
_cell_formula_units_Z   1
loop_
 _symmetry_equiv_pos_site_id
 _symmetry_equiv_pos_as_xyz
  1  'x, y, z'
loop_
 _atom_site_type_symbol
 _atom_site_label
 _atom_site_symmetry_multiplicity
 _atom_site_fract_x
 _atom_site_fract_y
 _atom_site_fract_z
 _atom_site_occupancy
  Tb  Tb0  1  0.085816  0.118191  0.248736  1
  Tb  Tb1  1  0.381166  0.528090  0.385550  1
  Tb  Tb2  1  0.676714  0.937641  0.522266  1
  Tb  Tb3  1  0.527692  0.240620  0.957896  1
  Tb  Tb4  1  0.237636  0.815316  0.813295  1
  Tb  Tb5  1  0.950673  0.394586  0.659761  1
  Tb  Tb6  1  0.812765  0.661677  0.111332  1
  P  P7  1  0.881189  0.527891  0.385485  1
  Se  Se8  1  0.596010  0.097788  0.242051  1
  Se  Se9  1  0.166357  0.958475  0.529132  1
  Se  Se10  1  0.457856  0.380366  0.670621  1
  Se  Se11  1  0.305795  0.675580  0.100487  1
  Se  Se12  1  0.025399  0.244128  0.952998  1
  Se  Se13  1  0.739888  0.811894  0.818021  1
