# generated using pymatgen
data_Dy3TmNb2(B2Ru5)2
_symmetry_space_group_name_H-M   'P 1'
_cell_length_a   9.67448938
_cell_length_b   9.67448938
_cell_length_c   3.13226400
_cell_angle_alpha   90.00000000
_cell_angle_beta   90.00000000
_cell_angle_gamma   90.12082795
_symmetry_Int_Tables_number   1
_chemical_formula_structural   Dy3TmNb2(B2Ru5)2
_chemical_formula_sum   'Dy3 Tm1 Nb2 B4 Ru10'
_cell_volume   293.16592987
_cell_formula_units_Z   1
loop_
 _symmetry_equiv_pos_site_id
 _symmetry_equiv_pos_as_xyz
  1  'x, y, z'
loop_
 _atom_site_type_symbol
 _atom_site_label
 _atom_site_symmetry_multiplicity
 _atom_site_fract_x
 _atom_site_fract_y
 _atom_site_fract_z
 _atom_site_occupancy
  Dy  Dy0  1  0.825328  0.674641  0.000000  1
  Dy  Dy1  1  0.174641  0.325328  0.000000  1
  Dy  Dy2  1  0.325555  0.825555  0.000000  1
  Tm  Tm3  1  0.674940  0.174940  0.000000  1
  Nb  Nb4  1  0.500160  0.499580  0.000000  1
  Nb  Nb5  1  0.999580  0.000160  0.000000  1
  B  B6  1  0.620457  0.880125  0.000000  1
  B  B7  1  0.380125  0.120457  0.000000  1
  B  B8  1  0.120293  0.620293  0.000000  1
  B  B9  1  0.878962  0.378962  0.000000  1
  Ru  Ru10  1  0.571000  0.718544  0.500000  1
  Ru  Ru11  1  0.430173  0.281323  0.500000  1
  Ru  Ru12  1  0.071569  0.781601  0.500000  1
  Ru  Ru13  1  0.926958  0.218064  0.500000  1
  Ru  Ru14  1  0.281601  0.571569  0.500000  1
  Ru  Ru15  1  0.718064  0.426958  0.500000  1
  Ru  Ru16  1  0.218544  0.071000  0.500000  1
  Ru  Ru17  1  0.781323  0.930173  0.500000  1
  Ru  Ru18  1  0.501013  0.001013  0.500000  1
  Ru  Ru19  1  0.999714  0.499714  0.500000  1
