# generated using pymatgen
data_LiCo4Ni2As3P
_symmetry_space_group_name_H-M   'P 1'
_cell_length_a   6.79763013
_cell_length_b   6.78641390
_cell_length_c   3.44650000
_cell_angle_alpha   90.00000000
_cell_angle_beta   90.00000000
_cell_angle_gamma   120.07720605
_symmetry_Int_Tables_number   1
_chemical_formula_structural   LiCo4Ni2As3P
_chemical_formula_sum   'Li1 Co4 Ni2 As3 P1'
_cell_volume   137.58414533
_cell_formula_units_Z   1
loop_
 _symmetry_equiv_pos_site_id
 _symmetry_equiv_pos_as_xyz
  1  'x, y, z'
loop_
 _atom_site_type_symbol
 _atom_site_label
 _atom_site_symmetry_multiplicity
 _atom_site_fract_x
 _atom_site_fract_y
 _atom_site_fract_z
 _atom_site_occupancy
  Li  Li0  1  0.998843  0.998079  0.000000  1
  Co  Co1  1  0.209123  0.419124  0.500000  1
  Co  Co2  1  0.937686  0.467394  0.000000  1
  Co  Co3  1  0.529490  0.463888  0.000000  1
  Co  Co4  1  0.587402  0.795170  0.500000  1
  Ni  Ni5  1  0.205578  0.797109  0.500000  1
  Ni  Ni6  1  0.529510  0.060909  0.000000  1
  As  As7  1  0.825882  0.182609  0.500000  1
  As  As8  1  0.358574  0.185828  0.500000  1
  As  As9  1  0.814781  0.634528  0.500000  1
  P  P10  1  0.336464  0.662030  0.000000  1
