# generated using pymatgen
data_YbDyAl6Si4Pt
_symmetry_space_group_name_H-M   'P 1'
_cell_length_a   4.14442398
_cell_length_b   4.14444279
_cell_length_c   17.49228592
_cell_angle_alpha   96.69926925
_cell_angle_beta   83.30073589
_cell_angle_gamma   120.02750504
_symmetry_Int_Tables_number   1
_chemical_formula_structural   YbDyAl6Si4Pt
_chemical_formula_sum   'Yb1 Dy1 Al6 Si4 Pt1'
_cell_volume   257.75777745
_cell_formula_units_Z   1
loop_
 _symmetry_equiv_pos_site_id
 _symmetry_equiv_pos_as_xyz
  1  'x, y, z'
loop_
 _atom_site_type_symbol
 _atom_site_label
 _atom_site_symmetry_multiplicity
 _atom_site_fract_x
 _atom_site_fract_y
 _atom_site_fract_z
 _atom_site_occupancy
  Yb  Yb0  1  0.566104  0.433845  0.300877  1
  Dy  Dy1  1  0.434261  0.565769  0.698723  1
  Al  Al2  1  0.317339  0.682677  0.048837  1
  Al  Al3  1  0.950695  0.049260  0.146260  1
  Al  Al4  1  0.183602  0.816379  0.449734  1
  Al  Al5  1  0.813907  0.186092  0.557529  1
  Al  Al6  1  0.051102  0.948949  0.848478  1
  Al  Al7  1  0.683711  0.316302  0.948212  1
  Si  Si8  1  0.267125  0.732838  0.197346  1
  Si  Si9  1  0.863204  0.136758  0.410246  1
  Si  Si10  1  0.133339  0.866663  0.599936  1
  Si  Si11  1  0.734541  0.265514  0.797321  1
  Pt  Pt12  1  0.001066  0.998954  0.996501  1
