# generated using pymatgen
data_BaCr2(Pd3O8)2
_symmetry_space_group_name_H-M   'P 1'
_cell_length_a   6.19145559
_cell_length_b   7.34019797
_cell_length_c   7.39382523
_cell_angle_alpha   87.61493763
_cell_angle_beta   77.89187673
_cell_angle_gamma   77.81759302
_symmetry_Int_Tables_number   1
_chemical_formula_structural   BaCr2(Pd3O8)2
_chemical_formula_sum   'Ba1 Cr2 Pd6 O16'
_cell_volume   321.14830789
_cell_formula_units_Z   1
loop_
 _symmetry_equiv_pos_site_id
 _symmetry_equiv_pos_as_xyz
  1  'x, y, z'
loop_
 _atom_site_type_symbol
 _atom_site_label
 _atom_site_symmetry_multiplicity
 _atom_site_fract_x
 _atom_site_fract_y
 _atom_site_fract_z
 _atom_site_occupancy
  Ba  Ba0  1  0.240635  0.994972  0.019555  1
  Cr  Cr1  1  0.078110  0.184481  0.488448  1
  Cr  Cr2  1  0.580969  0.183189  0.480612  1
  Pd  Pd3  1  0.322752  0.512691  0.181896  1
  Pd  Pd4  1  0.821772  0.517759  0.182329  1
  Pd  Pd5  1  0.173172  0.478725  0.815954  1
  Pd  Pd6  1  0.673456  0.475007  0.816309  1
  Pd  Pd7  1  0.413146  0.819172  0.515181  1
  Pd  Pd8  1  0.911891  0.818805  0.519674  1
  O  O9  1  0.390243  0.050111  0.353741  1
  O  O10  1  0.900662  0.048757  0.356457  1
  O  O11  1  0.083550  0.364999  0.280196  1
  O  O12  1  0.583648  0.373057  0.285403  1
  O  O13  1  0.075281  0.648535  0.048178  1
  O  O14  1  0.569628  0.647711  0.048069  1
  O  O15  1  0.271574  0.285672  0.619911  1
  O  O16  1  0.769040  0.292914  0.612042  1
  O  O17  1  0.223264  0.724965  0.362740  1
  O  O18  1  0.725513  0.727407  0.363488  1
  O  O19  1  0.420368  0.342820  0.951200  1
  O  O20  1  0.925170  0.344525  0.951514  1
  O  O21  1  0.409635  0.630632  0.724426  1
  O  O22  1  0.906722  0.628023  0.724261  1
  O  O23  1  0.593080  0.953262  0.647684  1
  O  O24  1  0.099295  0.951809  0.650734  1
