# generated using pymatgen
data_Tb2HoNb3(B2Ru5)2
_symmetry_space_group_name_H-M   'P 1'
_cell_length_a   9.62123216
_cell_length_b   9.62123195
_cell_length_c   3.12535200
_cell_angle_alpha   90.00000000
_cell_angle_beta   90.00000000
_cell_angle_gamma   90.29203648
_symmetry_Int_Tables_number   1
_chemical_formula_structural   Tb2HoNb3(B2Ru5)2
_chemical_formula_sum   'Tb2 Ho1 Nb3 B4 Ru10'
_cell_volume   289.30415779
_cell_formula_units_Z   1
loop_
 _symmetry_equiv_pos_site_id
 _symmetry_equiv_pos_as_xyz
  1  'x, y, z'
loop_
 _atom_site_type_symbol
 _atom_site_label
 _atom_site_symmetry_multiplicity
 _atom_site_fract_x
 _atom_site_fract_y
 _atom_site_fract_z
 _atom_site_occupancy
  Tb  Tb0  1  0.823950  0.674933  0.000000  1
  Tb  Tb1  1  0.174933  0.323950  0.000000  1
  Ho  Ho2  1  0.325780  0.825780  0.000000  1
  Nb  Nb3  1  0.675580  0.175580  0.000000  1
  Nb  Nb4  1  0.497910  0.503052  0.000000  1
  Nb  Nb5  1  0.003052  0.997910  0.000000  1
  B  B6  1  0.623099  0.881633  0.000000  1
  B  B7  1  0.381633  0.123099  0.000000  1
  B  B8  1  0.119445  0.619445  0.000000  1
  B  B9  1  0.875555  0.375555  0.000000  1
  Ru  Ru10  1  0.570121  0.722716  0.500000  1
  Ru  Ru11  1  0.441339  0.280283  0.500000  1
  Ru  Ru12  1  0.070147  0.780608  0.500000  1
  Ru  Ru13  1  0.915237  0.213078  0.500000  1
  Ru  Ru14  1  0.280608  0.570147  0.500000  1
  Ru  Ru15  1  0.713078  0.415237  0.500000  1
  Ru  Ru16  1  0.222716  0.070121  0.500000  1
  Ru  Ru17  1  0.780283  0.941339  0.500000  1
  Ru  Ru18  1  0.509563  0.009563  0.500000  1
  Ru  Ru19  1  0.995969  0.495969  0.500000  1
