# generated using pymatgen
data_La15Y5Ir11Ru
_symmetry_space_group_name_H-M   'P 1'
_cell_length_a   11.35575105
_cell_length_b   11.34385108
_cell_length_c   6.53117087
_cell_angle_alpha   89.86361457
_cell_angle_beta   89.93167988
_cell_angle_gamma   90.12814344
_symmetry_Int_Tables_number   1
_chemical_formula_structural   La15Y5Ir11Ru
_chemical_formula_sum   'La15 Y5 Ir11 Ru1'
_cell_volume   841.32694356
_cell_formula_units_Z   1
loop_
 _symmetry_equiv_pos_site_id
 _symmetry_equiv_pos_as_xyz
  1  'x, y, z'
loop_
 _atom_site_type_symbol
 _atom_site_label
 _atom_site_symmetry_multiplicity
 _atom_site_fract_x
 _atom_site_fract_y
 _atom_site_fract_z
 _atom_site_occupancy
  La  La0  1  0.287734  0.089597  0.381417  1
  La  La1  1  0.289650  0.912530  0.886333  1
  La  La2  1  0.710488  0.087865  0.887485  1
  La  La3  1  0.710517  0.912268  0.383455  1
  La  La4  1  0.588288  0.789563  0.885998  1
  La  La5  1  0.587760  0.210312  0.383364  1
  La  La6  1  0.411867  0.789513  0.382964  1
  La  La7  1  0.410735  0.210533  0.887808  1
  La  La8  1  0.210748  0.408993  0.615940  1
  La  La9  1  0.210762  0.585161  0.115487  1
  La  La10  1  0.790536  0.410952  0.115786  1
  La  La11  1  0.787695  0.588780  0.615892  1
  La  La12  1  0.911898  0.712066  0.115996  1
  La  La13  1  0.913608  0.287512  0.615833  1
  La  La14  1  0.088856  0.712426  0.616224  1
  Y  Y15  1  0.086922  0.290621  0.113532  1
  Y  Y16  1  0.999910  0.000559  0.498324  1
  Y  Y17  1  0.001541  0.003214  0.999872  1
  Y  Y18  1  0.499971  0.499147  0.999676  1
  Y  Y19  1  0.499705  0.499752  0.499119  1
  Ir  Ir20  1  0.853604  0.151860  0.247346  1
  Ir  Ir21  1  0.850734  0.850193  0.749687  1
  Ir  Ir22  1  0.148880  0.150781  0.752355  1
  Ir  Ir23  1  0.149513  0.850249  0.249826  1
  Ir  Ir24  1  0.649440  0.350851  0.749409  1
  Ir  Ir25  1  0.649959  0.649524  0.249482  1
  Ir  Ir26  1  0.346957  0.349735  0.248608  1
  Ir  Ir27  1  0.350247  0.649265  0.749811  1
  Ir  Ir28  1  0.500134  0.000111  0.620496  1
  Ir  Ir29  1  0.001113  0.497195  0.882129  1
  Ir  Ir30  1  0.000440  0.498686  0.379426  1
  Ru  Ru31  1  0.499787  0.000188  0.120913  1
