# generated using pymatgen
data_ZrAl(Ni7B2)3
_symmetry_space_group_name_H-M   'P 1'
_cell_length_a   7.43236310
_cell_length_b   7.43236316
_cell_length_c   7.43236300
_cell_angle_alpha   59.99999624
_cell_angle_beta   59.99999601
_cell_angle_gamma   60.00000014
_symmetry_Int_Tables_number   1
_chemical_formula_structural   ZrAl(Ni7B2)3
_chemical_formula_sum   'Zr1 Al1 Ni21 B6'
_cell_volume   290.31249644
_cell_formula_units_Z   1
loop_
 _symmetry_equiv_pos_site_id
 _symmetry_equiv_pos_as_xyz
  1  'x, y, z'
loop_
 _atom_site_type_symbol
 _atom_site_label
 _atom_site_symmetry_multiplicity
 _atom_site_fract_x
 _atom_site_fract_y
 _atom_site_fract_z
 _atom_site_occupancy
  Zr  Zr0  1  0.250000  0.250000  0.250000  1
  Al  Al1  1  0.750000  0.750000  0.750000  1
  Ni  Ni2  1  0.388789  0.388789  0.388789  1
  Ni  Ni3  1  0.619732  0.619732  0.619732  1
  Ni  Ni4  1  0.388789  0.388789  0.833631  1
  Ni  Ni5  1  0.388789  0.833631  0.388789  1
  Ni  Ni6  1  0.619732  0.619732  0.140804  1
  Ni  Ni7  1  0.619732  0.140804  0.619732  1
  Ni  Ni8  1  0.833631  0.388789  0.388789  1
  Ni  Ni9  1  0.140804  0.619732  0.619732  1
  Ni  Ni10  1  0.338245  0.000243  0.000243  1
  Ni  Ni11  1  0.661268  0.000243  0.000243  1
  Ni  Ni12  1  0.000243  0.338245  0.661268  1
  Ni  Ni13  1  0.000243  0.661268  0.338245  1
  Ni  Ni14  1  0.000243  0.338245  0.000243  1
  Ni  Ni15  1  0.661268  0.000243  0.338245  1
  Ni  Ni16  1  0.000243  0.661268  0.000243  1
  Ni  Ni17  1  0.338245  0.000243  0.661268  1
  Ni  Ni18  1  0.000243  0.000243  0.338245  1
  Ni  Ni19  1  0.000243  0.000243  0.661268  1
  Ni  Ni20  1  0.661268  0.338245  0.000243  1
  Ni  Ni21  1  0.338245  0.661268  0.000243  1
  Ni  Ni22  1  0.000000  0.000000  0.000000  1
  B  B23  1  0.729551  0.270449  0.270449  1
  B  B24  1  0.270449  0.729551  0.729551  1
  B  B25  1  0.270449  0.729551  0.270449  1
  B  B26  1  0.729551  0.270449  0.729551  1
  B  B27  1  0.270449  0.270449  0.729551  1
  B  B28  1  0.729551  0.729551  0.270449  1
