# generated using pymatgen
data_Ho10Er10Si15Pd
_symmetry_space_group_name_H-M   'P 1'
_cell_length_a   7.40065627
_cell_length_b   7.63194081
_cell_length_c   14.48859031
_cell_angle_alpha   90.24463010
_cell_angle_beta   90.49794119
_cell_angle_gamma   90.20471581
_symmetry_Int_Tables_number   1
_chemical_formula_structural   Ho10Er10Si15Pd
_chemical_formula_sum   'Ho10 Er10 Si15 Pd1'
_cell_volume   818.29174492
_cell_formula_units_Z   1
loop_
 _symmetry_equiv_pos_site_id
 _symmetry_equiv_pos_as_xyz
  1  'x, y, z'
loop_
 _atom_site_type_symbol
 _atom_site_label
 _atom_site_symmetry_multiplicity
 _atom_site_fract_x
 _atom_site_fract_y
 _atom_site_fract_z
 _atom_site_occupancy
  Ho  Ho0  1  0.026311  0.817535  0.600290  1
  Ho  Ho1  1  0.525156  0.679874  0.599203  1
  Ho  Ho2  1  0.319181  0.820283  0.121702  1
  Ho  Ho3  1  0.816653  0.679259  0.122518  1
  Ho  Ho4  1  0.852830  0.506129  0.749380  1
  Ho  Ho5  1  0.470441  0.317481  0.099058  1
  Ho  Ho6  1  0.029174  0.817201  0.901265  1
  Ho  Ho7  1  0.471020  0.320337  0.400850  1
  Ho  Ho8  1  0.651996  0.011495  0.254487  1
  Ho  Ho9  1  0.530944  0.682757  0.900076  1
  Er  Er10  1  0.681564  0.178837  0.877378  1
  Er  Er11  1  0.178627  0.321359  0.623700  1
  Er  Er12  1  0.184167  0.322926  0.876446  1
  Er  Er13  1  0.820152  0.682647  0.379661  1
  Er  Er14  1  0.320010  0.825179  0.377558  1
  Er  Er15  1  0.351811  0.990061  0.747678  1
  Er  Er16  1  0.682211  0.168826  0.620838  1
  Er  Er17  1  0.147864  0.490330  0.250917  1
  Er  Er18  1  0.970007  0.182739  0.098538  1
  Er  Er19  1  0.974186  0.180243  0.400107  1
  Si  Si20  1  0.234025  0.628338  0.750925  1
  Si  Si21  1  0.342332  0.028886  0.541608  1
  Si  Si22  1  0.025103  0.894457  0.247547  1
  Si  Si23  1  0.734006  0.869755  0.751994  1
  Si  Si24  1  0.267069  0.128752  0.246893  1
  Si  Si25  1  0.850403  0.470425  0.541455  1
  Si  Si26  1  0.480691  0.392086  0.749464  1
  Si  Si27  1  0.147812  0.530521  0.460653  1
  Si  Si28  1  0.145582  0.527413  0.040603  1
  Si  Si29  1  0.978268  0.104620  0.752194  1
  Si  Si30  1  0.767652  0.375004  0.249331  1
  Si  Si31  1  0.352803  0.030204  0.959167  1
  Si  Si32  1  0.855452  0.470438  0.958828  1
  Si  Si33  1  0.645529  0.971839  0.039430  1
  Si  Si34  1  0.521340  0.606347  0.248910  1
  Pd  Pd35  1  0.647628  0.975415  0.459343  1
