# generated using pymatgen
data_Ta9V2GeRh2
_symmetry_space_group_name_H-M   'P 1'
_cell_length_a   5.11192745
_cell_length_b   9.93883616
_cell_length_c   9.93883593
_cell_angle_alpha   86.27515852
_cell_angle_beta   75.12374407
_cell_angle_gamma   75.12376043
_symmetry_Int_Tables_number   1
_chemical_formula_structural   Ta9V2GeRh2
_chemical_formula_sum   'Ta18 V4 Ge2 Rh4'
_cell_volume   471.67578710
_cell_formula_units_Z   2
loop_
 _symmetry_equiv_pos_site_id
 _symmetry_equiv_pos_as_xyz
  1  'x, y, z'
loop_
 _atom_site_type_symbol
 _atom_site_label
 _atom_site_symmetry_multiplicity
 _atom_site_fract_x
 _atom_site_fract_y
 _atom_site_fract_z
 _atom_site_occupancy
  Ta  Ta0  1  0.750000  0.499877  0.500123  1
  Ta  Ta1  1  0.250000  0.500123  0.499877  1
  Ta  Ta2  1  0.794324  0.771551  0.639656  1
  Ta  Ta3  1  0.205676  0.228449  0.360344  1
  Ta  Ta4  1  0.705676  0.360344  0.228449  1
  Ta  Ta5  1  0.294324  0.639656  0.771551  1
  Ta  Ta6  1  0.566025  0.639485  0.228187  1
  Ta  Ta7  1  0.433975  0.360515  0.771813  1
  Ta  Ta8  1  0.066025  0.228187  0.639485  1
  Ta  Ta9  1  0.933975  0.771813  0.360515  1
  Ta  Ta10  1  0.584763  0.074120  0.756561  1
  Ta  Ta11  1  0.415237  0.925880  0.243439  1
  Ta  Ta12  1  0.915237  0.243439  0.925880  1
  Ta  Ta13  1  0.084763  0.756561  0.074120  1
  Ta  Ta14  1  0.658785  0.756843  0.925677  1
  Ta  Ta15  1  0.341215  0.243157  0.074323  1
  Ta  Ta16  1  0.158785  0.925677  0.756843  1
  Ta  Ta17  1  0.841215  0.074323  0.243157  1
  V  V18  1  0.500000  0.000000  0.500000  1
  V  V19  1  0.000000  0.000000  0.500000  1
  V  V20  1  0.500000  0.500000  0.000000  1
  V  V21  1  0.000000  0.500000  0.000000  1
  Ge  Ge22  1  0.250000  0.999877  0.000123  1
  Ge  Ge23  1  0.750000  0.000123  0.999877  1
  Rh  Rh24  1  0.130478  0.500092  0.238996  1
  Rh  Rh25  1  0.869522  0.499908  0.761004  1
  Rh  Rh26  1  0.369522  0.761004  0.499908  1
  Rh  Rh27  1  0.630478  0.238996  0.500092  1
