# generated using pymatgen
data_NpPa3(GeIr)4
_symmetry_space_group_name_H-M   'P 1'
_cell_length_a   4.32807200
_cell_length_b   6.89957221
_cell_length_c   7.69334369
_cell_angle_alpha   90.14516219
_cell_angle_beta   90.00000000
_cell_angle_gamma   90.00000000
_symmetry_Int_Tables_number   1
_chemical_formula_structural   NpPa3(GeIr)4
_chemical_formula_sum   'Np1 Pa3 Ge4 Ir4'
_cell_volume   229.73670173
_cell_formula_units_Z   1
loop_
 _symmetry_equiv_pos_site_id
 _symmetry_equiv_pos_as_xyz
  1  'x, y, z'
loop_
 _atom_site_type_symbol
 _atom_site_label
 _atom_site_symmetry_multiplicity
 _atom_site_fract_x
 _atom_site_fract_y
 _atom_site_fract_z
 _atom_site_occupancy
  Np  Np0  1  0.750000  0.505450  0.799248  1
  Pa  Pa1  1  0.250000  0.993417  0.300246  1
  Pa  Pa2  1  0.250000  0.493084  0.200677  1
  Pa  Pa3  1  0.750000  0.008350  0.703187  1
  Ge  Ge4  1  0.250000  0.325440  0.586833  1
  Ge  Ge5  1  0.250000  0.815187  0.913202  1
  Ge  Ge6  1  0.750000  0.681003  0.417077  1
  Ge  Ge7  1  0.750000  0.179859  0.083596  1
  Ir  Ir8  1  0.250000  0.229205  0.911448  1
  Ir  Ir9  1  0.250000  0.726393  0.586550  1
  Ir  Ir10  1  0.750000  0.768344  0.085998  1
  Ir  Ir11  1  0.750000  0.274269  0.411938  1
