# generated using pymatgen
data_Mn6Si6Tc11Ir
_symmetry_space_group_name_H-M   'P 1'
_cell_length_a   4.19648000
_cell_length_b   5.98133900
_cell_length_c   12.62111301
_cell_angle_alpha   90.00000000
_cell_angle_beta   89.99446372
_cell_angle_gamma   90.00000000
_symmetry_Int_Tables_number   1
_chemical_formula_structural   Mn6Si6Tc11Ir
_chemical_formula_sum   'Mn6 Si6 Tc11 Ir1'
_cell_volume   316.79712312
_cell_formula_units_Z   1
loop_
 _symmetry_equiv_pos_site_id
 _symmetry_equiv_pos_as_xyz
  1  'x, y, z'
loop_
 _atom_site_type_symbol
 _atom_site_label
 _atom_site_symmetry_multiplicity
 _atom_site_fract_x
 _atom_site_fract_y
 _atom_site_fract_z
 _atom_site_occupancy
  Mn  Mn0  1  0.000000  0.504312  0.000000  1
  Mn  Mn1  1  0.499803  0.997943  0.169210  1
  Mn  Mn2  1  0.999808  0.500050  0.333471  1
  Mn  Mn3  1  0.500000  0.000384  0.500000  1
  Mn  Mn4  1  0.000192  0.500050  0.666529  1
  Mn  Mn5  1  0.500196  0.997943  0.830790  1
  Si  Si6  1  0.000000  0.998079  0.000000  1
  Si  Si7  1  0.499796  0.500364  0.166755  1
  Si  Si8  1  0.999785  0.001317  0.332520  1
  Si  Si9  1  0.500000  0.499180  0.500000  1
  Si  Si10  1  0.000215  0.001317  0.667480  1
  Si  Si11  1  0.500203  0.500364  0.833245  1
  Tc  Tc12  1  0.500000  0.746247  0.000000  1
  Tc  Tc13  1  0.999828  0.250165  0.165160  1
  Tc  Tc14  1  0.999818  0.750317  0.166641  1
  Tc  Tc15  1  0.499795  0.251620  0.332660  1
  Tc  Tc16  1  0.499789  0.750996  0.333309  1
  Tc  Tc17  1  0.000000  0.248622  0.500000  1
  Tc  Tc18  1  0.000000  0.750508  0.500000  1
  Tc  Tc19  1  0.500204  0.251620  0.667340  1
  Tc  Tc20  1  0.500210  0.750996  0.666691  1
  Tc  Tc21  1  0.000174  0.250165  0.834840  1
  Tc  Tc22  1  0.000184  0.750317  0.833359  1
  Ir  Ir23  1  0.500000  0.247125  0.000000  1
