# generated using pymatgen
data_Ba14Na17YN6
_symmetry_space_group_name_H-M   'P 1'
_cell_length_a   11.11565099
_cell_length_b   12.18695544
_cell_length_c   13.38940266
_cell_angle_alpha   67.12295467
_cell_angle_beta   67.81707675
_cell_angle_gamma   79.07167402
_symmetry_Int_Tables_number   1
_chemical_formula_structural   Ba14Na17YN6
_chemical_formula_sum   'Ba14 Na17 Y1 N6'
_cell_volume   1545.49536760
_cell_formula_units_Z   1
loop_
 _symmetry_equiv_pos_site_id
 _symmetry_equiv_pos_as_xyz
  1  'x, y, z'
loop_
 _atom_site_type_symbol
 _atom_site_label
 _atom_site_symmetry_multiplicity
 _atom_site_fract_x
 _atom_site_fract_y
 _atom_site_fract_z
 _atom_site_occupancy
  Ba  Ba0  1  0.366762  0.781004  0.445197  1
  Ba  Ba1  1  0.633238  0.218996  0.554803  1
  Ba  Ba2  1  0.268891  0.308819  0.701704  1
  Ba  Ba3  1  0.731109  0.691181  0.298296  1
  Ba  Ba4  1  0.259671  0.520297  0.398651  1
  Ba  Ba5  1  0.740329  0.479703  0.601349  1
  Ba  Ba6  1  0.379565  0.568096  0.744687  1
  Ba  Ba7  1  0.620435  0.431904  0.255313  1
  Ba  Ba8  1  0.346811  0.165901  0.455632  1
  Ba  Ba9  1  0.653189  0.834099  0.544368  1
  Ba  Ba10  1  0.478144  0.788523  0.118011  1
  Ba  Ba11  1  0.521856  0.211477  0.881989  1
  Ba  Ba12  1  0.034650  0.621423  0.675348  1
  Ba  Ba13  1  0.965350  0.378577  0.324652  1
  Na  Na14  1  0.000000  0.000000  0.500000  1
  Na  Na15  1  0.239963  0.097492  0.205523  1
  Na  Na16  1  0.760037  0.902508  0.794477  1
  Na  Na17  1  0.632587  0.600470  0.894649  1
  Na  Na18  1  0.367413  0.399530  0.105351  1
  Na  Na19  1  0.042509  0.815719  0.310597  1
  Na  Na20  1  0.957491  0.184281  0.689403  1
  Na  Na21  1  0.134641  0.891532  0.756731  1
  Na  Na22  1  0.865359  0.108468  0.243269  1
  Na  Na23  1  0.586186  0.082878  0.186688  1
  Na  Na24  1  0.413814  0.917122  0.813312  1
  Na  Na25  1  0.906489  0.643952  0.983564  1
  Na  Na26  1  0.093511  0.356048  0.016436  1
  Na  Na27  1  0.850483  0.973206  0.990563  1
  Na  Na28  1  0.149517  0.026794  0.009437  1
  Na  Na29  1  0.168513  0.688065  0.058325  1
  Na  Na30  1  0.831487  0.311935  0.941675  1
  Y  Y31  1  0.500000  0.500000  0.500000  1
  N  N32  1  0.486086  0.634423  0.310445  1
  N  N33  1  0.513914  0.365577  0.689555  1
  N  N34  1  0.429625  0.333714  0.475601  1
  N  N35  1  0.570375  0.666286  0.524399  1
  N  N36  1  0.729509  0.445468  0.406443  1
  N  N37  1  0.270491  0.554532  0.593557  1
