# generated using pymatgen
data_DyInTeO6
_symmetry_space_group_name_H-M   'P 1'
_cell_length_a   9.07263000
_cell_length_b   9.07263045
_cell_length_c   5.11936500
_cell_angle_alpha   90.00000000
_cell_angle_beta   90.00000000
_cell_angle_gamma   120.00000566
_symmetry_Int_Tables_number   1
_chemical_formula_structural   DyInTeO6
_chemical_formula_sum   'Dy3 In3 Te3 O18'
_cell_volume   364.93298800
_cell_formula_units_Z   3
loop_
 _symmetry_equiv_pos_site_id
 _symmetry_equiv_pos_as_xyz
  1  'x, y, z'
loop_
 _atom_site_type_symbol
 _atom_site_label
 _atom_site_symmetry_multiplicity
 _atom_site_fract_x
 _atom_site_fract_y
 _atom_site_fract_z
 _atom_site_occupancy
  Dy  Dy0  1  0.622296  0.000000  0.000000  1
  Dy  Dy1  1  0.000000  0.622296  0.000000  1
  Dy  Dy2  1  0.377704  0.377704  0.000000  1
  In  In3  1  0.289400  0.000000  0.500000  1
  In  In4  1  0.000000  0.289400  0.500000  1
  In  In5  1  0.710600  0.710600  0.500000  1
  Te  Te6  1  0.000000  0.000000  0.000000  1
  Te  Te7  1  0.333333  0.666667  0.502772  1
  Te  Te8  1  0.666667  0.333333  0.497228  1
  O  O9  1  0.088331  0.883080  0.786599  1
  O  O10  1  0.116920  0.205251  0.786599  1
  O  O11  1  0.794749  0.911669  0.786599  1
  O  O12  1  0.205251  0.116920  0.213401  1
  O  O13  1  0.911669  0.794749  0.213401  1
  O  O14  1  0.883080  0.088331  0.213401  1
  O  O15  1  0.461139  0.593272  0.719908  1
  O  O16  1  0.406728  0.867866  0.719908  1
  O  O17  1  0.132134  0.538861  0.719908  1
  O  O18  1  0.867866  0.406728  0.280092  1
  O  O19  1  0.538861  0.132134  0.280092  1
  O  O20  1  0.593272  0.461139  0.280092  1
  O  O21  1  0.224858  0.763856  0.286885  1
  O  O22  1  0.236144  0.461002  0.286885  1
  O  O23  1  0.538998  0.775142  0.286885  1
  O  O24  1  0.461002  0.236144  0.713115  1
  O  O25  1  0.775142  0.538998  0.713115  1
  O  O26  1  0.763856  0.224858  0.713115  1
