# generated using pymatgen
data_Hf9V11Si16
_symmetry_space_group_name_H-M   'P 1'
_cell_length_a   6.64344729
_cell_length_b   6.64342929
_cell_length_c   12.28930701
_cell_angle_alpha   89.89044650
_cell_angle_beta   89.89044665
_cell_angle_gamma   89.97227951
_symmetry_Int_Tables_number   1
_chemical_formula_structural   Hf9V11Si16
_chemical_formula_sum   'Hf9 V11 Si16'
_cell_volume   542.38986574
_cell_formula_units_Z   1
loop_
 _symmetry_equiv_pos_site_id
 _symmetry_equiv_pos_as_xyz
  1  'x, y, z'
loop_
 _atom_site_type_symbol
 _atom_site_label
 _atom_site_symmetry_multiplicity
 _atom_site_fract_x
 _atom_site_fract_y
 _atom_site_fract_z
 _atom_site_occupancy
  Hf  Hf0  1  0.332263  0.667769  0.250000  1
  Hf  Hf1  1  0.000411  0.337599  0.220391  1
  Hf  Hf2  1  0.996799  0.660583  0.720196  1
  Hf  Hf3  1  0.504038  0.161777  0.532144  1
  Hf  Hf4  1  0.498325  0.839884  0.028047  1
  Hf  Hf5  1  0.662381  0.999599  0.279584  1
  Hf  Hf6  1  0.339393  0.003215  0.779812  1
  Hf  Hf7  1  0.838234  0.495966  0.967860  1
  Hf  Hf8  1  0.160131  0.501652  0.471962  1
  V  V9  1  0.165145  0.165409  0.997535  1
  V  V10  1  0.834598  0.834873  0.502470  1
  V  V11  1  0.667468  0.332529  0.750008  1
  V  V12  1  0.996365  0.160275  0.623127  1
  V  V13  1  0.004521  0.841480  0.121472  1
  V  V14  1  0.497978  0.341544  0.125275  1
  V  V15  1  0.504943  0.659588  0.629110  1
  V  V16  1  0.839692  0.003632  0.876873  1
  V  V17  1  0.158520  0.995483  0.378517  1
  V  V18  1  0.658444  0.502037  0.374725  1
  V  V19  1  0.340395  0.495071  0.870904  1
  Si  Si20  1  0.294987  0.373030  0.678407  1
  Si  Si21  1  0.712167  0.627519  0.175788  1
  Si  Si22  1  0.795047  0.127447  0.071032  1
  Si  Si23  1  0.205338  0.873208  0.572965  1
  Si  Si24  1  0.626970  0.705024  0.821604  1
  Si  Si25  1  0.372492  0.287822  0.324205  1
  Si  Si26  1  0.872550  0.205013  0.428942  1
  Si  Si27  1  0.126771  0.794701  0.927067  1
  Si  Si28  1  0.039436  0.289204  0.813517  1
  Si  Si29  1  0.951143  0.709730  0.317248  1
  Si  Si30  1  0.539497  0.209905  0.934939  1
  Si  Si31  1  0.466026  0.793563  0.441432  1
  Si  Si32  1  0.710764  0.960582  0.686512  1
  Si  Si33  1  0.290252  0.048860  0.182722  1
  Si  Si34  1  0.790092  0.460474  0.565080  1
  Si  Si35  1  0.206420  0.533949  0.058534  1
