# generated using pymatgen
data_Tb5Nd(Al3Os)8
_symmetry_space_group_name_H-M   'P 1'
_cell_length_a   8.85369000
_cell_length_b   8.84605323
_cell_length_c   9.60834600
_cell_angle_alpha   90.00000000
_cell_angle_beta   90.00000000
_cell_angle_gamma   120.02856176
_symmetry_Int_Tables_number   1
_chemical_formula_structural   Tb5Nd(Al3Os)8
_chemical_formula_sum   'Tb5 Nd1 Al24 Os8'
_cell_volume   651.52046239
_cell_formula_units_Z   1
loop_
 _symmetry_equiv_pos_site_id
 _symmetry_equiv_pos_as_xyz
  1  'x, y, z'
loop_
 _atom_site_type_symbol
 _atom_site_label
 _atom_site_symmetry_multiplicity
 _atom_site_fract_x
 _atom_site_fract_y
 _atom_site_fract_z
 _atom_site_occupancy
  Tb  Tb0  1  0.806770  0.613540  0.750000  1
  Tb  Tb1  1  0.613833  0.807332  0.250000  1
  Tb  Tb2  1  0.386239  0.193168  0.750000  1
  Tb  Tb3  1  0.193499  0.807332  0.250000  1
  Tb  Tb4  1  0.806929  0.193168  0.750000  1
  Nd  Nd5  1  0.192056  0.384112  0.250000  1
  Al  Al6  1  0.333808  0.667617  0.014535  1
  Al  Al7  1  0.666506  0.333011  0.983130  1
  Al  Al8  1  0.666506  0.333011  0.516870  1
  Al  Al9  1  0.333808  0.667617  0.485465  1
  Al  Al10  1  0.163558  0.327116  0.576461  1
  Al  Al11  1  0.836538  0.673077  0.426057  1
  Al  Al12  1  0.673201  0.836446  0.574168  1
  Al  Al13  1  0.836538  0.673077  0.073943  1
  Al  Al14  1  0.327917  0.163245  0.427052  1
  Al  Al15  1  0.163558  0.327116  0.923539  1
  Al  Al16  1  0.163246  0.836446  0.574168  1
  Al  Al17  1  0.327917  0.163245  0.072948  1
  Al  Al18  1  0.835327  0.163245  0.427052  1
  Al  Al19  1  0.673201  0.836446  0.925832  1
  Al  Al20  1  0.835327  0.163245  0.072948  1
  Al  Al21  1  0.163246  0.836446  0.925832  1
  Al  Al22  1  0.561235  0.122469  0.250000  1
  Al  Al23  1  0.438827  0.877655  0.750000  1
  Al  Al24  1  0.875976  0.439405  0.250000  1
  Al  Al25  1  0.122373  0.561338  0.750000  1
  Al  Al26  1  0.563429  0.439405  0.250000  1
  Al  Al27  1  0.438965  0.561338  0.750000  1
  Al  Al28  1  0.998704  0.997409  0.250000  1
  Al  Al29  1  0.999635  0.999269  0.750000  1
  Os  Os30  1  0.500054  0.000109  0.999761  1
  Os  Os31  1  0.999396  0.500466  0.999074  1
  Os  Os32  1  0.500054  0.000109  0.500239  1
  Os  Os33  1  0.501070  0.500466  0.999074  1
  Os  Os34  1  0.999396  0.500466  0.500926  1
  Os  Os35  1  0.501070  0.500466  0.500926  1
  Os  Os36  1  0.000145  0.000289  0.999662  1
  Os  Os37  1  0.000145  0.000289  0.500338  1
