# generated using pymatgen
data_Ba3AsI2
_symmetry_space_group_name_H-M   'P 1'
_cell_length_a   16.31277078
_cell_length_b   15.56722116
_cell_length_c   8.61627826
_cell_angle_alpha   79.15549883
_cell_angle_beta   69.59543088
_cell_angle_gamma   31.24906784
_symmetry_Int_Tables_number   1
_chemical_formula_structural   Ba3AsI2
_chemical_formula_sum   'Ba12 As4 I8'
_cell_volume   1036.30969982
_cell_formula_units_Z   4
loop_
 _symmetry_equiv_pos_site_id
 _symmetry_equiv_pos_as_xyz
  1  'x, y, z'
loop_
 _atom_site_type_symbol
 _atom_site_label
 _atom_site_symmetry_multiplicity
 _atom_site_fract_x
 _atom_site_fract_y
 _atom_site_fract_z
 _atom_site_occupancy
  Ba  Ba0  1  0.378530  0.941519  0.587803  1
  Ba  Ba1  1  0.587803  0.092150  0.378530  1
  Ba  Ba2  1  0.308481  0.871470  0.157850  1
  Ba  Ba3  1  0.941519  0.378530  0.092150  1
  Ba  Ba4  1  0.461613  0.038387  0.038387  1
  Ba  Ba5  1  0.871470  0.308481  0.662197  1
  Ba  Ba6  1  0.092150  0.587803  0.941519  1
  Ba  Ba7  1  0.662197  0.157850  0.871470  1
  Ba  Ba8  1  0.788387  0.211613  0.211613  1
  Ba  Ba9  1  0.211613  0.788387  0.788387  1
  Ba  Ba10  1  0.157850  0.662197  0.308481  1
  Ba  Ba11  1  0.038387  0.461613  0.461613  1
  As  As12  1  0.084219  0.084219  0.915781  1
  As  As13  1  0.915781  0.915781  0.084219  1
  As  As14  1  0.165781  0.165781  0.334219  1
  As  As15  1  0.334219  0.334219  0.165781  1
  I  I16  1  0.671913  0.671913  0.828087  1
  I  I17  1  0.746559  0.746559  0.253441  1
  I  I18  1  0.253441  0.253441  0.746559  1
  I  I19  1  0.578087  0.578087  0.421913  1
  I  I20  1  0.996559  0.996559  0.503441  1
  I  I21  1  0.828087  0.828087  0.671913  1
  I  I22  1  0.421913  0.421913  0.578087  1
  I  I23  1  0.503441  0.503441  0.996559  1
