# generated using pymatgen
data_Li2TbTmSi3
_symmetry_space_group_name_H-M   'P 1'
_cell_length_a   9.23649413
_cell_length_b   9.23649424
_cell_length_c   6.71225000
_cell_angle_alpha   90.00000000
_cell_angle_beta   90.00000000
_cell_angle_gamma   153.58401233
_symmetry_Int_Tables_number   1
_chemical_formula_structural   Li2TbTmSi3
_chemical_formula_sum   'Li4 Tb2 Tm2 Si6'
_cell_volume   254.75945184
_cell_formula_units_Z   2
loop_
 _symmetry_equiv_pos_site_id
 _symmetry_equiv_pos_as_xyz
  1  'x, y, z'
loop_
 _atom_site_type_symbol
 _atom_site_label
 _atom_site_symmetry_multiplicity
 _atom_site_fract_x
 _atom_site_fract_y
 _atom_site_fract_z
 _atom_site_occupancy
  Li  Li0  1  0.190861  0.809139  0.060133  1
  Li  Li1  1  0.190861  0.809139  0.439867  1
  Li  Li2  1  0.809139  0.190861  0.939867  1
  Li  Li3  1  0.809139  0.190861  0.560133  1
  Tb  Tb4  1  0.553522  0.446478  0.250000  1
  Tb  Tb5  1  0.446478  0.553522  0.750000  1
  Tm  Tm6  1  0.345428  0.654572  0.250000  1
  Tm  Tm7  1  0.654572  0.345428  0.750000  1
  Si  Si8  1  0.722547  0.277453  0.250000  1
  Si  Si9  1  0.277453  0.722547  0.750000  1
  Si  Si10  1  0.059711  0.940289  0.927200  1
  Si  Si11  1  0.940289  0.059711  0.072800  1
  Si  Si12  1  0.940289  0.059711  0.427200  1
  Si  Si13  1  0.059711  0.940289  0.572800  1
