# generated using pymatgen
data_AgSn2(PO4)3
_symmetry_space_group_name_H-M   'P 1'
_cell_length_a   8.66114552
_cell_length_b   8.60371369
_cell_length_c   9.22856664
_cell_angle_alpha   62.30156175
_cell_angle_beta   62.90485830
_cell_angle_gamma   60.11178876
_symmetry_Int_Tables_number   1
_chemical_formula_structural   AgSn2(PO4)3
_chemical_formula_sum   'Ag2 Sn4 P6 O24'
_cell_volume   504.96361234
_cell_formula_units_Z   2
loop_
 _symmetry_equiv_pos_site_id
 _symmetry_equiv_pos_as_xyz
  1  'x, y, z'
loop_
 _atom_site_type_symbol
 _atom_site_label
 _atom_site_symmetry_multiplicity
 _atom_site_fract_x
 _atom_site_fract_y
 _atom_site_fract_z
 _atom_site_occupancy
  Ag  Ag0  1  0.845969  0.523323  0.471470  1
  Ag  Ag1  1  0.154031  0.476677  0.528530  1
  Sn  Sn2  1  0.149641  0.647227  0.058348  1
  Sn  Sn3  1  0.653178  0.144697  0.551669  1
  Sn  Sn4  1  0.346822  0.855303  0.448331  1
  Sn  Sn5  1  0.850359  0.352773  0.941652  1
  P  P6  1  0.529377  0.455773  0.757823  1
  P  P7  1  0.749437  0.964062  0.251991  1
  P  P8  1  0.037375  0.250180  0.251017  1
  P  P9  1  0.962625  0.749820  0.748983  1
  P  P10  1  0.250563  0.035938  0.748009  1
  P  P11  1  0.470623  0.544227  0.242177  1
  O  O12  1  0.897835  0.769835  0.225056  1
  O  O13  1  0.507343  0.648941  0.612344  1
  O  O14  1  0.380995  0.473428  0.928556  1
  O  O15  1  0.726777  0.391102  0.773398  1
  O  O16  1  0.103686  0.399686  0.230837  1
  O  O17  1  0.779861  0.119979  0.080899  1
  O  O18  1  0.523665  0.312089  0.707534  1
  O  O19  1  0.216280  0.020919  0.605024  1
  O  O20  1  0.851653  0.273422  0.400836  1
  O  O21  1  0.552421  0.967354  0.304623  1
  O  O22  1  0.009761  0.288622  0.083074  1
  O  O23  1  0.184404  0.051482  0.291942  1
  O  O24  1  0.815596  0.948518  0.708058  1
  O  O25  1  0.990239  0.711378  0.916926  1
  O  O26  1  0.447579  0.032646  0.695377  1
  O  O27  1  0.148347  0.726578  0.599164  1
  O  O28  1  0.783720  0.979081  0.394976  1
  O  O29  1  0.476335  0.687911  0.292466  1
  O  O30  1  0.220139  0.880021  0.919101  1
  O  O31  1  0.896314  0.600314  0.769163  1
  O  O32  1  0.273223  0.608898  0.226602  1
  O  O33  1  0.619005  0.526572  0.071444  1
  O  O34  1  0.492657  0.351059  0.387656  1
  O  O35  1  0.102165  0.230165  0.774944  1
