# generated using pymatgen
data_Pr2(IrRh)3
_symmetry_space_group_name_H-M   'P 1'
_cell_length_a   5.37892600
_cell_length_b   5.37892638
_cell_length_c   17.74952100
_cell_angle_alpha   90.00000000
_cell_angle_beta   90.00000000
_cell_angle_gamma   119.99999766
_symmetry_Int_Tables_number   1
_chemical_formula_structural   Pr2(IrRh)3
_chemical_formula_sum   'Pr6 Ir9 Rh9'
_cell_volume   444.74231171
_cell_formula_units_Z   3
loop_
 _symmetry_equiv_pos_site_id
 _symmetry_equiv_pos_as_xyz
  1  'x, y, z'
loop_
 _atom_site_type_symbol
 _atom_site_label
 _atom_site_symmetry_multiplicity
 _atom_site_fract_x
 _atom_site_fract_y
 _atom_site_fract_z
 _atom_site_occupancy
  Pr  Pr0  1  0.333333  0.666667  0.958601  1
  Pr  Pr1  1  0.666667  0.333333  0.042286  1
  Pr  Pr2  1  0.666667  0.333333  0.459091  1
  Pr  Pr3  1  0.333333  0.666667  0.541250  1
  Pr  Pr4  1  0.333333  0.666667  0.749697  1
  Pr  Pr5  1  0.666667  0.333333  0.250988  1
  Ir  Ir6  1  0.166765  0.833235  0.371190  1
  Ir  Ir7  1  0.166765  0.333529  0.371190  1
  Ir  Ir8  1  0.666471  0.833235  0.371190  1
  Ir  Ir9  1  0.833125  0.166875  0.628433  1
  Ir  Ir10  1  0.833125  0.666250  0.628433  1
  Ir  Ir11  1  0.333750  0.166875  0.628433  1
  Ir  Ir12  1  0.833000  0.167000  0.872142  1
  Ir  Ir13  1  0.833000  0.666001  0.872142  1
  Ir  Ir14  1  0.333999  0.167000  0.872142  1
  Rh  Rh15  1  0.166470  0.833530  0.127461  1
  Rh  Rh16  1  0.166470  0.332938  0.127461  1
  Rh  Rh17  1  0.667062  0.833530  0.127461  1
  Rh  Rh18  1  0.333333  0.666667  0.249717  1
  Rh  Rh19  1  0.666667  0.333333  0.750349  1
  Rh  Rh20  1  0.000000  0.000000  0.249932  1
  Rh  Rh21  1  0.000000  0.000000  0.750312  1
  Rh  Rh22  1  0.000000  0.000000  0.500270  1
  Rh  Rh23  1  0.000000  0.000000  0.999831  1
