# generated using pymatgen
data_Pr2NdIn3HgIr2
_symmetry_space_group_name_H-M   'P 1'
_cell_length_a   7.92416481
_cell_length_b   7.93425586
_cell_length_c   4.03149200
_cell_angle_alpha   90.00000000
_cell_angle_beta   90.00000000
_cell_angle_gamma   120.03500943
_symmetry_Int_Tables_number   1
_chemical_formula_structural   Pr2NdIn3HgIr2
_chemical_formula_sum   'Pr2 Nd1 In3 Hg1 Ir2'
_cell_volume   219.43344294
_cell_formula_units_Z   1
loop_
 _symmetry_equiv_pos_site_id
 _symmetry_equiv_pos_as_xyz
  1  'x, y, z'
loop_
 _atom_site_type_symbol
 _atom_site_label
 _atom_site_symmetry_multiplicity
 _atom_site_fract_x
 _atom_site_fract_y
 _atom_site_fract_z
 _atom_site_occupancy
  Pr  Pr0  1  0.390130  0.417340  0.500000  1
  Pr  Pr1  1  0.583179  0.973073  0.500000  1
  Nd  Nd2  1  0.027340  0.609864  0.500000  1
  In  In3  1  0.751614  0.753056  0.000000  1
  In  In4  1  0.246563  0.996664  0.000000  1
  In  In5  1  0.001804  0.249422  0.000000  1
  Hg  Hg6  1  0.667375  0.334059  0.000000  1
  Ir  Ir7  1  0.000526  0.999951  0.500000  1
  Ir  Ir8  1  0.331467  0.666571  0.000000  1
