# generated using pymatgen
data_NdTh(CoC2)2
_symmetry_space_group_name_H-M   'P 1'
_cell_length_a   3.79737703
_cell_length_b   3.79238942
_cell_length_c   7.44274634
_cell_angle_alpha   81.78745493
_cell_angle_beta   81.70073113
_cell_angle_gamma   90.07371447
_symmetry_Int_Tables_number   1
_chemical_formula_structural   NdTh(CoC2)2
_chemical_formula_sum   'Nd1 Th1 Co2 C4'
_cell_volume   104.94758229
_cell_formula_units_Z   1
loop_
 _symmetry_equiv_pos_site_id
 _symmetry_equiv_pos_as_xyz
  1  'x, y, z'
loop_
 _atom_site_type_symbol
 _atom_site_label
 _atom_site_symmetry_multiplicity
 _atom_site_fract_x
 _atom_site_fract_y
 _atom_site_fract_z
 _atom_site_occupancy
  Nd  Nd0  1  0.924193  0.069881  0.952358  1
  Th  Th1  1  0.068238  0.926315  0.453156  1
  Co  Co2  1  0.626080  0.483116  0.258160  1
  Co  Co3  1  0.483581  0.625200  0.756006  1
  C  C4  1  0.403146  0.554535  0.024536  1
  C  C5  1  0.555879  0.403859  0.525005  1
  C  C6  1  0.505652  0.142282  0.679695  1
  C  C7  1  0.145231  0.506811  0.177085  1
