# generated using pymatgen
data_LaScP7IrRu11
_symmetry_space_group_name_H-M   'P 1'
_cell_length_a   9.42529018
_cell_length_b   9.46250389
_cell_length_c   3.95017800
_cell_angle_alpha   90.00000000
_cell_angle_beta   90.00000000
_cell_angle_gamma   119.76237136
_symmetry_Int_Tables_number   1
_chemical_formula_structural   LaScP7IrRu11
_chemical_formula_sum   'La1 Sc1 P7 Ir1 Ru11'
_cell_volume   305.83208530
_cell_formula_units_Z   1
loop_
 _symmetry_equiv_pos_site_id
 _symmetry_equiv_pos_as_xyz
  1  'x, y, z'
loop_
 _atom_site_type_symbol
 _atom_site_label
 _atom_site_symmetry_multiplicity
 _atom_site_fract_x
 _atom_site_fract_y
 _atom_site_fract_z
 _atom_site_occupancy
  La  La0  1  0.331880  0.663707  0.000000  1
  Sc  Sc1  1  0.667289  0.334184  0.500000  1
  P  P2  1  0.606452  0.715048  0.500000  1
  P  P3  1  0.999294  0.999726  0.000000  1
  P  P4  1  0.277170  0.884773  0.500000  1
  P  P5  1  0.112501  0.393567  0.500000  1
  P  P6  1  0.885479  0.569851  0.000000  1
  P  P7  1  0.431981  0.316102  0.000000  1
  P  P8  1  0.687986  0.119879  0.000000  1
  Ir  Ir9  1  0.557475  0.955549  0.500000  1
  Ru  Ru10  1  0.397122  0.438559  0.500000  1
  Ru  Ru11  1  0.913762  0.120111  0.500000  1
  Ru  Ru12  1  0.205721  0.085554  0.500000  1
  Ru  Ru13  1  0.880642  0.796785  0.500000  1
  Ru  Ru14  1  0.726681  0.894077  0.000000  1
  Ru  Ru15  1  0.108100  0.835829  0.000000  1
  Ru  Ru16  1  0.164497  0.270691  0.000000  1
  Ru  Ru17  1  0.426846  0.074390  0.000000  1
  Ru  Ru18  1  0.928184  0.352697  0.000000  1
  Ru  Ru19  1  0.648865  0.576607  0.000000  1
  Ru  Ru20  1  0.042074  0.602315  0.500000  1
