# generated using pymatgen
data_Gd4LuCo2
_symmetry_space_group_name_H-M   'P 1'
_cell_length_a   6.37455726
_cell_length_b   7.04735945
_cell_length_c   8.62005100
_cell_angle_alpha   96.39521708
_cell_angle_beta   111.70031075
_cell_angle_gamma   89.99999834
_symmetry_Int_Tables_number   1
_chemical_formula_structural   Gd4LuCo2
_chemical_formula_sum   'Gd8 Lu2 Co4'
_cell_volume   357.20672018
_cell_formula_units_Z   2
loop_
 _symmetry_equiv_pos_site_id
 _symmetry_equiv_pos_as_xyz
  1  'x, y, z'
loop_
 _atom_site_type_symbol
 _atom_site_label
 _atom_site_symmetry_multiplicity
 _atom_site_fract_x
 _atom_site_fract_y
 _atom_site_fract_z
 _atom_site_occupancy
  Gd  Gd0  1  0.515262  0.090175  0.814782  1
  Gd  Gd1  1  0.484738  0.909825  0.185218  1
  Gd  Gd2  1  0.700482  0.409825  0.185218  1
  Gd  Gd3  1  0.299518  0.590175  0.814782  1
  Gd  Gd4  1  0.285108  0.316477  0.426975  1
  Gd  Gd5  1  0.714892  0.683523  0.573025  1
  Gd  Gd6  1  0.858134  0.183523  0.573025  1
  Gd  Gd7  1  0.141866  0.816477  0.426975  1
  Lu  Lu8  1  0.069086  0.250000  0.000000  1
  Lu  Lu9  1  0.930914  0.750000  0.000000  1
  Co  Co10  1  0.319970  0.573682  0.219413  1
  Co  Co11  1  0.680030  0.426318  0.780587  1
  Co  Co12  1  0.100557  0.926318  0.780587  1
  Co  Co13  1  0.899443  0.073682  0.219413  1
