# generated using pymatgen
data_K6GaFeSe6
_symmetry_space_group_name_H-M   'P 1'
_cell_length_a   13.29998800
_cell_length_b   8.19413237
_cell_length_c   10.55149227
_cell_angle_alpha   52.43225297
_cell_angle_beta   90.00000000
_cell_angle_gamma   90.00000000
_symmetry_Int_Tables_number   1
_chemical_formula_structural   K6GaFeSe6
_chemical_formula_sum   'K12 Ga2 Fe2 Se12'
_cell_volume   911.46552876
_cell_formula_units_Z   2
loop_
 _symmetry_equiv_pos_site_id
 _symmetry_equiv_pos_as_xyz
  1  'x, y, z'
loop_
 _atom_site_type_symbol
 _atom_site_label
 _atom_site_symmetry_multiplicity
 _atom_site_fract_x
 _atom_site_fract_y
 _atom_site_fract_z
 _atom_site_occupancy
  K  K0  1  0.310163  0.151966  0.074323  1
  K  K1  1  0.689660  0.849931  0.923965  1
  K  K2  1  0.810163  0.848034  0.425677  1
  K  K3  1  0.897946  0.321473  0.400719  1
  K  K4  1  0.618222  0.373660  0.471131  1
  K  K5  1  0.118222  0.626340  0.028869  1
  K  K6  1  0.382173  0.625786  0.530258  1
  K  K7  1  0.882173  0.374214  0.969742  1
  K  K8  1  0.601746  0.321616  0.899562  1
  K  K9  1  0.101746  0.678384  0.600438  1
  K  K10  1  0.397946  0.678527  0.099281  1
  K  K11  1  0.189660  0.150069  0.576035  1
  Ga  Ga12  1  0.062752  0.942460  0.158804  1
  Ga  Ga13  1  0.562752  0.057540  0.341196  1
  Fe  Fe14  1  0.437398  0.942933  0.656481  1
  Fe  Fe15  1  0.937398  0.057067  0.843519  1
  Se  Se16  1  0.397169  0.174609  0.367029  1
  Se  Se17  1  0.897169  0.825391  0.132971  1
  Se  Se18  1  0.602479  0.825034  0.634334  1
  Se  Se19  1  0.102479  0.174966  0.865666  1
  Se  Se20  1  0.688206  0.327983  0.197583  1
  Se  Se21  1  0.188206  0.672017  0.302417  1
  Se  Se22  1  0.313113  0.676762  0.801535  1
  Se  Se23  1  0.813113  0.323238  0.698465  1
  Se  Se24  1  0.546299  0.867667  0.236226  1
  Se  Se25  1  0.046299  0.132333  0.263774  1
  Se  Se26  1  0.452674  0.128906  0.761540  1
  Se  Se27  1  0.952674  0.871094  0.738460  1
