# generated using pymatgen
data_TbTm2Sn3Ir2Rh
_symmetry_space_group_name_H-M   'P 1'
_cell_length_a   7.67482608
_cell_length_b   7.64846079
_cell_length_c   3.70748500
_cell_angle_alpha   90.00000000
_cell_angle_beta   90.00000000
_cell_angle_gamma   119.88642628
_symmetry_Int_Tables_number   1
_chemical_formula_structural   TbTm2Sn3Ir2Rh
_chemical_formula_sum   'Tb1 Tm2 Sn3 Ir2 Rh1'
_cell_volume   188.68983765
_cell_formula_units_Z   1
loop_
 _symmetry_equiv_pos_site_id
 _symmetry_equiv_pos_as_xyz
  1  'x, y, z'
loop_
 _atom_site_type_symbol
 _atom_site_label
 _atom_site_symmetry_multiplicity
 _atom_site_fract_x
 _atom_site_fract_y
 _atom_site_fract_z
 _atom_site_occupancy
  Tb  Tb0  1  0.000000  0.403653  0.000000  1
  Tm  Tm1  1  0.596781  0.596715  0.000000  1
  Tm  Tm2  1  0.403219  0.999934  0.000000  1
  Sn  Sn3  1  0.267791  0.265272  0.500000  1
  Sn  Sn4  1  0.000000  0.734999  0.500000  1
  Sn  Sn5  1  0.732209  0.997481  0.500000  1
  Ir  Ir6  1  0.663554  0.332920  0.500000  1
  Ir  Ir7  1  0.336446  0.669366  0.500000  1
  Rh  Rh8  1  0.000000  0.999661  0.000000  1
