# generated using pymatgen
data_Er4Lu8Tl2Fe3
_symmetry_space_group_name_H-M   'P 1'
_cell_length_a   8.21209009
_cell_length_b   8.21209175
_cell_length_c   8.21209100
_cell_angle_alpha   108.43771831
_cell_angle_beta   108.43772217
_cell_angle_gamma   111.55860016
_symmetry_Int_Tables_number   1
_chemical_formula_structural   Er4Lu8Tl2Fe3
_chemical_formula_sum   'Er4 Lu8 Tl2 Fe3'
_cell_volume   425.89749905
_cell_formula_units_Z   1
loop_
 _symmetry_equiv_pos_site_id
 _symmetry_equiv_pos_as_xyz
  1  'x, y, z'
loop_
 _atom_site_type_symbol
 _atom_site_label
 _atom_site_symmetry_multiplicity
 _atom_site_fract_x
 _atom_site_fract_y
 _atom_site_fract_z
 _atom_site_occupancy
  Er  Er0  1  0.307158  0.307158  0.614316  1
  Er  Er1  1  0.692842  0.692842  0.385684  1
  Er  Er2  1  0.692842  0.307158  0.000000  1
  Er  Er3  1  0.307158  0.692842  0.000000  1
  Lu  Lu4  1  0.189744  0.425170  0.235426  1
  Lu  Lu5  1  0.810256  0.574830  0.764574  1
  Lu  Lu6  1  0.189744  0.954317  0.764574  1
  Lu  Lu7  1  0.954317  0.189744  0.764574  1
  Lu  Lu8  1  0.810256  0.045683  0.235426  1
  Lu  Lu9  1  0.045683  0.810256  0.235426  1
  Lu  Lu10  1  0.425170  0.189744  0.235426  1
  Lu  Lu11  1  0.574830  0.810256  0.764574  1
  Tl  Tl12  1  0.000000  0.500000  0.500000  1
  Tl  Tl13  1  0.500000  0.000000  0.500000  1
  Fe  Fe14  1  0.383612  0.383612  0.000000  1
  Fe  Fe15  1  0.616388  0.616388  0.000000  1
  Fe  Fe16  1  0.000000  0.000000  0.000000  1
