# generated using pymatgen
data_Tm7Co4Sn23Os2
_symmetry_space_group_name_H-M   'P 1'
_cell_length_a   9.69971006
_cell_length_b   9.69970914
_cell_length_c   10.00350694
_cell_angle_alpha   90.53263644
_cell_angle_beta   89.46736433
_cell_angle_gamma   119.90460121
_symmetry_Int_Tables_number   1
_chemical_formula_structural   Tm7Co4Sn23Os2
_chemical_formula_sum   'Tm7 Co4 Sn23 Os2'
_cell_volume   815.81561410
_cell_formula_units_Z   1
loop_
 _symmetry_equiv_pos_site_id
 _symmetry_equiv_pos_as_xyz
  1  'x, y, z'
loop_
 _atom_site_type_symbol
 _atom_site_label
 _atom_site_symmetry_multiplicity
 _atom_site_fract_x
 _atom_site_fract_y
 _atom_site_fract_z
 _atom_site_occupancy
  Tm  Tm0  1  0.000000  0.000000  0.000000  1
  Tm  Tm1  1  0.480994  0.519006  0.307166  1
  Tm  Tm2  1  0.519006  0.480994  0.692834  1
  Tm  Tm3  1  0.484061  0.962245  0.304648  1
  Tm  Tm4  1  0.515939  0.037755  0.695352  1
  Tm  Tm5  1  0.037755  0.515939  0.304648  1
  Tm  Tm6  1  0.962245  0.484061  0.695352  1
  Co  Co7  1  0.829739  0.661217  0.198401  1
  Co  Co8  1  0.170261  0.338783  0.801599  1
  Co  Co9  1  0.338783  0.170261  0.198401  1
  Co  Co10  1  0.661217  0.829739  0.801599  1
  Sn  Sn11  1  0.349891  0.003766  0.004368  1
  Sn  Sn12  1  0.650109  0.996234  0.995632  1
  Sn  Sn13  1  0.003766  0.349891  0.995632  1
  Sn  Sn14  1  0.996234  0.650109  0.004368  1
  Sn  Sn15  1  0.654003  0.654003  0.000000  1
  Sn  Sn16  1  0.345997  0.345997  0.000000  1
  Sn  Sn17  1  0.334783  0.665217  0.818359  1
  Sn  Sn18  1  0.665217  0.334783  0.181641  1
  Sn  Sn19  1  0.000000  0.000000  0.500000  1
  Sn  Sn20  1  0.779691  0.220309  0.460448  1
  Sn  Sn21  1  0.220309  0.779691  0.539552  1
  Sn  Sn22  1  0.782116  0.563718  0.451997  1
  Sn  Sn23  1  0.217884  0.436282  0.548003  1
  Sn  Sn24  1  0.436282  0.217884  0.451997  1
  Sn  Sn25  1  0.563718  0.782116  0.548003  1
  Sn  Sn26  1  0.334021  0.665979  0.121591  1
  Sn  Sn27  1  0.665979  0.334021  0.878409  1
  Sn  Sn28  1  0.117902  0.882098  0.269977  1
  Sn  Sn29  1  0.882098  0.117902  0.730023  1
  Sn  Sn30  1  0.125403  0.238042  0.275788  1
  Sn  Sn31  1  0.874597  0.761958  0.724212  1
  Sn  Sn32  1  0.761958  0.874597  0.275788  1
  Sn  Sn33  1  0.238042  0.125403  0.724212  1
  Os  Os34  1  0.832196  0.167804  0.199496  1
  Os  Os35  1  0.167804  0.832196  0.800504  1
