# generated using pymatgen
data_Sc5Tc23Os
_symmetry_space_group_name_H-M   'P 1'
_cell_length_a   8.39084016
_cell_length_b   8.40206549
_cell_length_c   8.39086078
_cell_angle_alpha   109.54127868
_cell_angle_beta   109.36361433
_cell_angle_gamma   109.54197452
_symmetry_Int_Tables_number   1
_chemical_formula_structural   Sc5Tc23Os
_chemical_formula_sum   'Sc5 Tc23 Os1'
_cell_volume   455.19447834
_cell_formula_units_Z   1
loop_
 _symmetry_equiv_pos_site_id
 _symmetry_equiv_pos_as_xyz
  1  'x, y, z'
loop_
 _atom_site_type_symbol
 _atom_site_label
 _atom_site_symmetry_multiplicity
 _atom_site_fract_x
 _atom_site_fract_y
 _atom_site_fract_z
 _atom_site_occupancy
  Sc  Sc0  1  0.000145  0.000276  0.000145  1
  Sc  Sc1  1  0.624557  0.999469  0.999222  1
  Sc  Sc2  1  0.999457  0.625895  0.999452  1
  Sc  Sc3  1  0.999205  0.999454  0.624545  1
  Sc  Sc4  1  0.374268  0.373977  0.374266  1
  Tc  Tc5  1  0.393207  0.672171  0.999234  1
  Tc  Tc6  1  0.720649  0.327290  0.327685  1
  Tc  Tc7  1  0.394277  0.999075  0.672096  1
  Tc  Tc8  1  0.673440  0.393290  0.000594  1
  Tc  Tc9  1  0.000588  0.393287  0.673432  1
  Tc  Tc10  1  0.326736  0.719364  0.326736  1
  Tc  Tc11  1  0.327682  0.327292  0.720649  1
  Tc  Tc12  1  0.999230  0.672164  0.393204  1
  Tc  Tc13  1  0.672099  0.999078  0.394279  1
  Tc  Tc14  1  0.606089  0.608913  0.282277  1
  Tc  Tc15  1  0.282270  0.608913  0.606088  1
  Tc  Tc16  1  0.608374  0.282545  0.608373  1
  Tc  Tc17  1  0.374188  0.192412  0.999562  1
  Tc  Tc18  1  0.180754  0.806291  0.806273  1
  Tc  Tc19  1  0.374411  0.999775  0.192408  1
  Tc  Tc20  1  0.191862  0.373655  0.998989  1
  Tc  Tc21  1  0.998990  0.373655  0.191864  1
  Tc  Tc22  1  0.807589  0.182688  0.807586  1
  Tc  Tc23  1  0.806275  0.806290  0.180755  1
  Tc  Tc24  1  0.999558  0.192410  0.374186  1
  Tc  Tc25  1  0.192406  0.999770  0.374409  1
  Tc  Tc26  1  0.625581  0.625994  0.818514  1
  Tc  Tc27  1  0.818510  0.625988  0.625577  1
  Os  Os28  1  0.627598  0.818615  0.627602  1
