# generated using pymatgen
data_Y4GeI6
_symmetry_space_group_name_H-M   'P 1'
_cell_length_a   4.22501600
_cell_length_b   14.01894700
_cell_length_c   14.80907300
_cell_angle_alpha   90.00000000
_cell_angle_beta   90.00000000
_cell_angle_gamma   90.00000000
_symmetry_Int_Tables_number   1
_chemical_formula_structural   Y4GeI6
_chemical_formula_sum   'Y8 Ge2 I12'
_cell_volume   877.14547189
_cell_formula_units_Z   2
loop_
 _symmetry_equiv_pos_site_id
 _symmetry_equiv_pos_as_xyz
  1  'x, y, z'
loop_
 _atom_site_type_symbol
 _atom_site_label
 _atom_site_symmetry_multiplicity
 _atom_site_fract_x
 _atom_site_fract_y
 _atom_site_fract_z
 _atom_site_occupancy
  Y  Y0  1  0.500000  0.114751  0.346506  1
  Y  Y1  1  0.500000  0.885249  0.653494  1
  Y  Y2  1  0.500000  0.614751  0.153494  1
  Y  Y3  1  0.500000  0.385249  0.846506  1
  Y  Y4  1  0.000000  0.112495  0.575198  1
  Y  Y5  1  0.000000  0.887505  0.424802  1
  Y  Y6  1  0.000000  0.612495  0.924802  1
  Y  Y7  1  0.000000  0.387505  0.075198  1
  Ge  Ge8  1  0.500000  0.000000  0.500000  1
  Ge  Ge9  1  0.500000  0.500000  0.000000  1
  I  I10  1  0.500000  0.244242  0.161498  1
  I  I11  1  0.500000  0.755758  0.838502  1
  I  I12  1  0.500000  0.744242  0.338502  1
  I  I13  1  0.500000  0.255758  0.661498  1
  I  I14  1  0.000000  0.259082  0.413972  1
  I  I15  1  0.000000  0.740918  0.586028  1
  I  I16  1  0.000000  0.759082  0.086028  1
  I  I17  1  0.000000  0.240918  0.913972  1
  I  I18  1  0.000000  0.998810  0.240059  1
  I  I19  1  0.000000  0.001190  0.759941  1
  I  I20  1  0.000000  0.498810  0.259941  1
  I  I21  1  0.000000  0.501190  0.740059  1
