# generated using pymatgen
data_Ho20Ir10RuRh
_symmetry_space_group_name_H-M   'P 1'
_cell_length_a   10.81838200
_cell_length_b   10.81838200
_cell_length_c   6.38371300
_cell_angle_alpha   90.00000000
_cell_angle_beta   90.00000000
_cell_angle_gamma   90.00000000
_symmetry_Int_Tables_number   1
_chemical_formula_structural   Ho20Ir10RuRh
_chemical_formula_sum   'Ho20 Ir10 Ru1 Rh1'
_cell_volume   747.13310227
_cell_formula_units_Z   1
loop_
 _symmetry_equiv_pos_site_id
 _symmetry_equiv_pos_as_xyz
  1  'x, y, z'
loop_
 _atom_site_type_symbol
 _atom_site_label
 _atom_site_symmetry_multiplicity
 _atom_site_fract_x
 _atom_site_fract_y
 _atom_site_fract_z
 _atom_site_occupancy
  Ho  Ho0  1  0.292437  0.087135  0.376810  1
  Ho  Ho1  1  0.292736  0.912741  0.879577  1
  Ho  Ho2  1  0.707264  0.087259  0.879577  1
  Ho  Ho3  1  0.707563  0.912865  0.376810  1
  Ho  Ho4  1  0.587259  0.792736  0.879577  1
  Ho  Ho5  1  0.587135  0.207563  0.376810  1
  Ho  Ho6  1  0.412865  0.792437  0.376810  1
  Ho  Ho7  1  0.412741  0.207264  0.879577  1
  Ho  Ho8  1  0.209183  0.411722  0.621097  1
  Ho  Ho9  1  0.209287  0.588219  0.122228  1
  Ho  Ho10  1  0.790713  0.411781  0.122228  1
  Ho  Ho11  1  0.790817  0.588278  0.621097  1
  Ho  Ho12  1  0.911781  0.709287  0.122228  1
  Ho  Ho13  1  0.911722  0.290817  0.621097  1
  Ho  Ho14  1  0.088278  0.709183  0.621097  1
  Ho  Ho15  1  0.088219  0.290713  0.122228  1
  Ho  Ho16  1  0.000000  0.000000  0.499256  1
  Ho  Ho17  1  0.000000  0.000000  0.999207  1
  Ho  Ho18  1  0.500000  0.500000  0.999207  1
  Ho  Ho19  1  0.500000  0.500000  0.499256  1
  Ir  Ir20  1  0.847132  0.153955  0.250145  1
  Ir  Ir21  1  0.847274  0.846289  0.750025  1
  Ir  Ir22  1  0.152726  0.153711  0.750025  1
  Ir  Ir23  1  0.152868  0.846045  0.250145  1
  Ir  Ir24  1  0.653711  0.347274  0.750025  1
  Ir  Ir25  1  0.653955  0.652868  0.250145  1
  Ir  Ir26  1  0.346045  0.347132  0.250145  1
  Ir  Ir27  1  0.346289  0.652726  0.750025  1
  Ir  Ir28  1  0.500000  0.000000  0.622888  1
  Ir  Ir29  1  0.000000  0.500000  0.378487  1
  Ru  Ru30  1  0.500000  0.000000  0.123426  1
  Rh  Rh31  1  0.000000  0.500000  0.878755  1
