# generated using pymatgen
data_LiTa3(GeRu3)2
_symmetry_space_group_name_H-M   'P 1'
_cell_length_a   4.39265500
_cell_length_b   6.17744700
_cell_length_c   13.09283400
_cell_angle_alpha   90.00000000
_cell_angle_beta   89.99994766
_cell_angle_gamma   90.00000000
_symmetry_Int_Tables_number   1
_chemical_formula_structural   LiTa3(GeRu3)2
_chemical_formula_sum   'Li2 Ta6 Ge4 Ru12'
_cell_volume   355.27920199
_cell_formula_units_Z   2
loop_
 _symmetry_equiv_pos_site_id
 _symmetry_equiv_pos_as_xyz
  1  'x, y, z'
loop_
 _atom_site_type_symbol
 _atom_site_label
 _atom_site_symmetry_multiplicity
 _atom_site_fract_x
 _atom_site_fract_y
 _atom_site_fract_z
 _atom_site_occupancy
  Li  Li0  1  0.000161  0.500000  0.667436  1
  Li  Li1  1  0.500164  0.000000  0.832564  1
  Ta  Ta2  1  0.000008  0.000000  0.991776  1
  Ta  Ta3  1  0.499851  0.500000  0.164145  1
  Ta  Ta4  1  0.999852  0.000000  0.335856  1
  Ta  Ta5  1  0.500005  0.500000  0.508223  1
  Ta  Ta6  1  0.000141  0.000000  0.671491  1
  Ta  Ta7  1  0.500142  0.500000  0.828509  1
  Ge  Ge8  1  0.999996  0.500000  0.995048  1
  Ge  Ge9  1  0.499834  0.000000  0.164785  1
  Ge  Ge10  1  0.999838  0.500000  0.335214  1
  Ge  Ge11  1  0.499992  0.000000  0.504954  1
  Ru  Ru12  1  0.500002  0.249241  0.003054  1
  Ru  Ru13  1  0.500002  0.750758  0.003054  1
  Ru  Ru14  1  0.999862  0.251828  0.168376  1
  Ru  Ru15  1  0.999862  0.748172  0.168376  1
  Ru  Ru16  1  0.499864  0.248170  0.331624  1
  Ru  Ru17  1  0.499864  0.751830  0.331624  1
  Ru  Ru18  1  0.999998  0.250759  0.496946  1
  Ru  Ru19  1  0.999998  0.749240  0.496946  1
  Ru  Ru20  1  0.500141  0.250143  0.665950  1
  Ru  Ru21  1  0.500141  0.749857  0.665950  1
  Ru  Ru22  1  0.000143  0.249859  0.834049  1
  Ru  Ru23  1  0.000143  0.750141  0.834049  1
