# generated using pymatgen
data_Sc3Zn3O
_symmetry_space_group_name_H-M   'P 1'
_cell_length_a   8.54158177
_cell_length_b   8.54073807
_cell_length_c   8.54208394
_cell_angle_alpha   59.99597797
_cell_angle_beta   60.00194189
_cell_angle_gamma   59.99674311
_symmetry_Int_Tables_number   1
_chemical_formula_structural   Sc3Zn3O
_chemical_formula_sum   'Sc12 Zn12 O4'
_cell_volume   440.62082783
_cell_formula_units_Z   4
loop_
 _symmetry_equiv_pos_site_id
 _symmetry_equiv_pos_as_xyz
  1  'x, y, z'
loop_
 _atom_site_type_symbol
 _atom_site_label
 _atom_site_symmetry_multiplicity
 _atom_site_fract_x
 _atom_site_fract_y
 _atom_site_fract_z
 _atom_site_occupancy
  Sc  Sc0  1  0.437006  0.062577  0.437355  1
  Sc  Sc1  1  0.063062  0.062577  0.437355  1
  Sc  Sc2  1  0.813020  0.187096  0.186863  1
  Sc  Sc3  1  0.187283  0.812757  0.187041  1
  Sc  Sc4  1  0.812919  0.812757  0.187041  1
  Sc  Sc5  1  0.186871  0.812802  0.813456  1
  Sc  Sc6  1  0.812736  0.187318  0.812973  1
  Sc  Sc7  1  0.186973  0.187318  0.812973  1
  Sc  Sc8  1  0.437188  0.062723  0.062903  1
  Sc  Sc9  1  0.062798  0.436948  0.063060  1
  Sc  Sc10  1  0.437193  0.436948  0.063060  1
  Sc  Sc11  1  0.062856  0.436954  0.437333  1
  Zn  Zn12  1  0.418178  0.418043  0.745601  1
  Zn  Zn13  1  0.418069  0.418144  0.418141  1
  Zn  Zn14  1  0.745646  0.418144  0.418141  1
  Zn  Zn15  1  0.418320  0.745377  0.417983  1
  Zn  Zn16  1  0.831940  0.832229  0.503892  1
  Zn  Zn17  1  0.832035  0.832034  0.831766  1
  Zn  Zn18  1  0.504167  0.832034  0.831766  1
  Zn  Zn19  1  0.831858  0.504465  0.831818  1
  Zn  Zn20  1  0.625101  0.625142  0.124655  1
  Zn  Zn21  1  0.624878  0.625554  0.624714  1
  Zn  Zn22  1  0.124855  0.625554  0.624714  1
  Zn  Zn23  1  0.625225  0.124952  0.624598  1
  O  O24  1  0.124595  0.125181  0.625630  1
  O  O25  1  0.125255  0.124881  0.124888  1
  O  O26  1  0.624977  0.124881  0.124888  1
  O  O27  1  0.124998  0.624611  0.125394  1
