# generated using pymatgen
data_SmLu2MgNi8
_symmetry_space_group_name_H-M   'P 1'
_cell_length_a   4.97983000
_cell_length_b   4.97982974
_cell_length_c   8.67264600
_cell_angle_alpha   73.31559972
_cell_angle_beta   90.00000000
_cell_angle_gamma   120.00000173
_symmetry_Int_Tables_number   1
_chemical_formula_structural   SmLu2MgNi8
_chemical_formula_sum   'Sm1 Lu2 Mg1 Ni8'
_cell_volume   175.72366292
_cell_formula_units_Z   1
loop_
 _symmetry_equiv_pos_site_id
 _symmetry_equiv_pos_as_xyz
  1  'x, y, z'
loop_
 _atom_site_type_symbol
 _atom_site_label
 _atom_site_symmetry_multiplicity
 _atom_site_fract_x
 _atom_site_fract_y
 _atom_site_fract_z
 _atom_site_occupancy
  Sm  Sm0  1  0.003326  0.006651  0.990023  1
  Lu  Lu1  1  0.496060  0.992118  0.511822  1
  Lu  Lu2  1  0.875504  0.751009  0.373487  1
  Mg  Mg3  1  0.375319  0.750638  0.874043  1
  Ni  Ni4  1  0.436190  0.371974  0.191836  1
  Ni  Ni5  1  0.936277  0.379629  0.684095  1
  Ni  Ni6  1  0.436190  0.872381  0.191836  1
  Ni  Ni7  1  0.936277  0.872553  0.684095  1
  Ni  Ni8  1  0.187577  0.375155  0.437268  1
  Ni  Ni9  1  0.688146  0.376292  0.935562  1
  Ni  Ni10  1  0.935782  0.371974  0.191836  1
  Ni  Ni11  1  0.443352  0.379629  0.684095  1
