# generated using pymatgen
data_Nd19PaIr3Rh13
_symmetry_space_group_name_H-M   'P 1'
_cell_length_a   7.56454631
_cell_length_b   7.70375542
_cell_length_c   14.99137938
_cell_angle_alpha   90.06555862
_cell_angle_beta   90.09176741
_cell_angle_gamma   90.00553794
_symmetry_Int_Tables_number   1
_chemical_formula_structural   Nd19PaIr3Rh13
_chemical_formula_sum   'Nd19 Pa1 Ir3 Rh13'
_cell_volume   873.62715180
_cell_formula_units_Z   1
loop_
 _symmetry_equiv_pos_site_id
 _symmetry_equiv_pos_as_xyz
  1  'x, y, z'
loop_
 _atom_site_type_symbol
 _atom_site_label
 _atom_site_symmetry_multiplicity
 _atom_site_fract_x
 _atom_site_fract_y
 _atom_site_fract_z
 _atom_site_occupancy
  Nd  Nd0  1  0.164563  0.334431  0.877272  1
  Nd  Nd1  1  0.337797  0.833826  0.122876  1
  Nd  Nd2  1  0.838467  0.669127  0.379900  1
  Nd  Nd3  1  0.337676  0.836065  0.379564  1
  Nd  Nd4  1  0.836877  0.667897  0.123240  1
  Nd  Nd5  1  0.663493  0.163311  0.877603  1
  Nd  Nd6  1  0.160151  0.335837  0.619345  1
  Nd  Nd7  1  0.511817  0.683244  0.593089  1
  Nd  Nd8  1  0.018434  0.812658  0.911660  1
  Nd  Nd9  1  0.484549  0.317629  0.091137  1
  Nd  Nd10  1  0.988072  0.183955  0.405261  1
  Nd  Nd11  1  0.487647  0.320739  0.407889  1
  Nd  Nd12  1  0.989284  0.181761  0.091835  1
  Nd  Nd13  1  0.510939  0.684820  0.909203  1
  Nd  Nd14  1  0.009960  0.821508  0.592146  1
  Nd  Nd15  1  0.826524  0.514976  0.751341  1
  Nd  Nd16  1  0.315138  0.987495  0.752157  1
  Nd  Nd17  1  0.175841  0.490626  0.249240  1
  Nd  Nd18  1  0.676783  0.012841  0.250959  1
  Pa  Pa19  1  0.661516  0.161900  0.622776  1
  Ir  Ir20  1  0.691460  0.975652  0.471747  1
  Ir  Ir21  1  0.175429  0.531425  0.041764  1
  Ir  Ir22  1  0.321896  0.031708  0.957617  1
  Rh  Rh23  1  0.802777  0.441910  0.542838  1
  Rh  Rh24  1  0.346649  0.039801  0.548559  1
  Rh  Rh25  1  0.822263  0.471180  0.957091  1
  Rh  Rh26  1  0.678192  0.968209  0.041557  1
  Rh  Rh27  1  0.168345  0.533155  0.458207  1
  Rh  Rh28  1  0.473136  0.372946  0.737192  1
  Rh  Rh29  1  0.939241  0.115058  0.736424  1
  Rh  Rh30  1  0.541557  0.604729  0.253608  1
  Rh  Rh31  1  0.041539  0.901392  0.251697  1
  Rh  Rh32  1  0.687350  0.863655  0.742611  1
  Rh  Rh33  1  0.216029  0.631725  0.747862  1
  Rh  Rh34  1  0.302103  0.145193  0.251778  1
  Rh  Rh35  1  0.796507  0.357615  0.250955  1
