# generated using pymatgen
data_Hf2Sc4Si6Tc5Os
_symmetry_space_group_name_H-M   'P 1'
_cell_length_a   7.75660726
_cell_length_b   7.75669969
_cell_length_c   7.75670064
_cell_angle_alpha   126.63580204
_cell_angle_beta   128.06928636
_cell_angle_gamma   77.68210278
_symmetry_Int_Tables_number   1
_chemical_formula_structural   Hf2Sc4Si6Tc5Os
_chemical_formula_sum   'Hf2 Sc4 Si6 Tc5 Os1'
_cell_volume   285.85732102
_cell_formula_units_Z   1
loop_
 _symmetry_equiv_pos_site_id
 _symmetry_equiv_pos_as_xyz
  1  'x, y, z'
loop_
 _atom_site_type_symbol
 _atom_site_label
 _atom_site_symmetry_multiplicity
 _atom_site_fract_x
 _atom_site_fract_y
 _atom_site_fract_z
 _atom_site_occupancy
  Hf  Hf0  1  0.749163  0.893100  0.641912  1
  Hf  Hf1  1  0.250837  0.892749  0.143936  1
  Sc  Sc2  1  0.551514  0.101456  0.049533  1
  Sc  Sc3  1  0.448486  0.498018  0.549941  1
  Sc  Sc4  1  0.948502  0.497998  0.049104  1
  Sc  Sc5  1  0.051498  0.100601  0.549497  1
  Si  Si6  1  0.331535  0.827963  0.497499  1
  Si  Si7  1  0.668465  0.165964  0.496428  1
  Si  Si8  1  0.831466  0.829734  0.997218  1
  Si  Si9  1  0.168534  0.165752  0.998266  1
  Si  Si10  1  0.749869  0.494406  0.243833  1
  Si  Si11  1  0.250131  0.493964  0.744536  1
  Tc  Tc12  1  0.126817  0.754599  0.628167  1
  Tc  Tc13  1  0.873183  0.501350  0.627782  1
  Tc  Tc14  1  0.627246  0.754818  0.127201  1
  Tc  Tc15  1  0.372754  0.499954  0.127572  1
  Tc  Tc16  1  0.500000  0.234737  0.734737  1
  Os  Os17  1  0.000000  0.236839  0.236839  1
