# generated using pymatgen
data_KZn4Ga5Se12
_symmetry_space_group_name_H-M   'P 1'
_cell_length_a   8.87143218
_cell_length_b   8.90911326
_cell_length_c   9.10521800
_cell_angle_alpha   108.20638295
_cell_angle_beta   106.84389725
_cell_angle_gamma   107.98753882
_symmetry_Int_Tables_number   1
_chemical_formula_structural   KZn4Ga5Se12
_chemical_formula_sum   'K1 Zn4 Ga5 Se12'
_cell_volume   587.79539842
_cell_formula_units_Z   1
loop_
 _symmetry_equiv_pos_site_id
 _symmetry_equiv_pos_as_xyz
  1  'x, y, z'
loop_
 _atom_site_type_symbol
 _atom_site_label
 _atom_site_symmetry_multiplicity
 _atom_site_fract_x
 _atom_site_fract_y
 _atom_site_fract_z
 _atom_site_occupancy
  K  K0  1  0.994790  0.999971  0.002452  1
  Zn  Zn1  1  0.490466  0.343961  0.934267  1
  Zn  Zn2  1  0.622725  0.703229  0.398740  1
  Zn  Zn3  1  0.408476  0.637144  0.716862  1
  Zn  Zn4  1  0.711508  0.407452  0.635159  1
  Ga  Ga5  1  0.188319  0.555027  0.022086  1
  Ga  Ga6  1  0.023221  0.184347  0.560175  1
  Ga  Ga7  1  0.563484  0.022751  0.188283  1
  Ga  Ga8  1  0.933247  0.477818  0.336038  1
  Ga  Ga9  1  0.331681  0.935462  0.481702  1
  Se  Se10  1  0.853979  0.630488  0.547976  1
  Se  Se11  1  0.549202  0.859069  0.626801  1
  Se  Se12  1  0.640265  0.566180  0.857150  1
  Se  Se13  1  0.373796  0.438294  0.146214  1
  Se  Se14  1  0.154447  0.381225  0.449761  1
  Se  Se15  1  0.444668  0.151298  0.378428  1
  Se  Se16  1  0.068922  0.686991  0.224311  1
  Se  Se17  1  0.225989  0.073186  0.687229  1
  Se  Se18  1  0.696812  0.221771  0.074771  1
  Se  Se19  1  0.778750  0.923800  0.304110  1
  Se  Se20  1  0.301941  0.781203  0.931531  1
  Se  Se21  1  0.924514  0.300534  0.777159  1
