# generated using pymatgen
data_Cs5SrTaP4
_symmetry_space_group_name_H-M   'P 1'
_cell_length_a   10.97102500
_cell_length_b   10.97102387
_cell_length_c   8.23037442
_cell_angle_alpha   87.13730312
_cell_angle_beta   87.13729849
_cell_angle_gamma   121.17435280
_symmetry_Int_Tables_number   1
_chemical_formula_structural   Cs5SrTaP4
_chemical_formula_sum   'Cs10 Sr2 Ta2 P8'
_cell_volume   843.18969126
_cell_formula_units_Z   2
loop_
 _symmetry_equiv_pos_site_id
 _symmetry_equiv_pos_as_xyz
  1  'x, y, z'
loop_
 _atom_site_type_symbol
 _atom_site_label
 _atom_site_symmetry_multiplicity
 _atom_site_fract_x
 _atom_site_fract_y
 _atom_site_fract_z
 _atom_site_occupancy
  Cs  Cs0  1  0.461074  0.526340  0.491481  1
  Cs  Cs1  1  0.067465  0.531815  0.500080  1
  Cs  Cs2  1  0.526340  0.461074  0.991481  1
  Cs  Cs3  1  0.531815  0.067465  0.000080  1
  Cs  Cs4  1  0.866368  0.140043  0.681295  1
  Cs  Cs5  1  0.288452  0.147801  0.729572  1
  Cs  Cs6  1  0.857493  0.716655  0.646916  1
  Cs  Cs7  1  0.140043  0.866368  0.181295  1
  Cs  Cs8  1  0.716655  0.857493  0.146916  1
  Cs  Cs9  1  0.147801  0.288452  0.229572  1
  Sr  Sr10  1  0.465313  0.939972  0.500221  1
  Sr  Sr11  1  0.939972  0.465313  0.000221  1
  Ta  Ta12  1  0.673570  0.326165  0.392994  1
  Ta  Ta13  1  0.326165  0.673570  0.892994  1
  P  P14  1  0.692747  0.342053  0.684173  1
  P  P15  1  0.342053  0.692747  0.184173  1
  P  P16  1  0.785857  0.201212  0.289582  1
  P  P17  1  0.422414  0.186832  0.342833  1
  P  P18  1  0.795640  0.564719  0.255140  1
  P  P19  1  0.201212  0.785857  0.789582  1
  P  P20  1  0.564719  0.795640  0.755140  1
  P  P21  1  0.186832  0.422414  0.842833  1
