# generated using pymatgen
data_Pm4MgMn3O12
_symmetry_space_group_name_H-M   'P 1'
_cell_length_a   5.41828956
_cell_length_b   5.70528587
_cell_length_c   7.76093093
_cell_angle_alpha   90.38797198
_cell_angle_beta   90.30552351
_cell_angle_gamma   89.35589437
_symmetry_Int_Tables_number   1
_chemical_formula_structural   Pm4MgMn3O12
_chemical_formula_sum   'Pm4 Mg1 Mn3 O12'
_cell_volume   239.88883675
_cell_formula_units_Z   1
loop_
 _symmetry_equiv_pos_site_id
 _symmetry_equiv_pos_as_xyz
  1  'x, y, z'
loop_
 _atom_site_type_symbol
 _atom_site_label
 _atom_site_symmetry_multiplicity
 _atom_site_fract_x
 _atom_site_fract_y
 _atom_site_fract_z
 _atom_site_occupancy
  Pm  Pm0  1  0.988020  0.062508  0.249400  1
  Pm  Pm1  1  0.518471  0.566045  0.247430  1
  Pm  Pm2  1  0.481529  0.433955  0.752570  1
  Pm  Pm3  1  0.011980  0.937492  0.750600  1
  Mg  Mg4  1  0.500001  0.000000  0.000000  1
  Mn  Mn5  1  0.000000  0.499999  0.000000  1
  Mn  Mn6  1  0.500001  0.000000  0.500000  1
  Mn  Mn7  1  0.000000  0.499999  0.500000  1
  O  O8  1  0.713002  0.308001  0.047451  1
  O  O9  1  0.809794  0.786880  0.050920  1
  O  O10  1  0.099048  0.471017  0.241414  1
  O  O11  1  0.409501  0.974342  0.256663  1
  O  O12  1  0.713608  0.314235  0.449017  1
  O  O13  1  0.796953  0.806706  0.451500  1
  O  O14  1  0.203047  0.193294  0.548500  1
  O  O15  1  0.286392  0.685764  0.550983  1
  O  O16  1  0.590499  0.025659  0.743337  1
  O  O17  1  0.900952  0.528983  0.758586  1
  O  O18  1  0.190206  0.213120  0.949081  1
  O  O19  1  0.286998  0.691998  0.952550  1
