# generated using pymatgen
data_Rb10Ti4Zn4S17
_symmetry_space_group_name_H-M   'P 1'
_cell_length_a   10.17671777
_cell_length_b   10.17671770
_cell_length_c   10.17671762
_cell_angle_alpha   90.51923576
_cell_angle_beta   90.51923097
_cell_angle_gamma   90.51923343
_symmetry_Int_Tables_number   1
_chemical_formula_structural   Rb10Ti4Zn4S17
_chemical_formula_sum   'Rb10 Ti4 Zn4 S17'
_cell_volume   1053.82707768
_cell_formula_units_Z   1
loop_
 _symmetry_equiv_pos_site_id
 _symmetry_equiv_pos_as_xyz
  1  'x, y, z'
loop_
 _atom_site_type_symbol
 _atom_site_label
 _atom_site_symmetry_multiplicity
 _atom_site_fract_x
 _atom_site_fract_y
 _atom_site_fract_z
 _atom_site_occupancy
  Rb  Rb0  1  0.999910  0.500337  0.999910  1
  Rb  Rb1  1  0.999910  0.999910  0.500337  1
  Rb  Rb2  1  0.500337  0.999910  0.999910  1
  Rb  Rb3  1  0.033473  0.501421  0.501421  1
  Rb  Rb4  1  0.501421  0.033473  0.501421  1
  Rb  Rb5  1  0.501421  0.501421  0.033473  1
  Rb  Rb6  1  0.333289  0.682992  0.333289  1
  Rb  Rb7  1  0.333289  0.333289  0.682992  1
  Rb  Rb8  1  0.682992  0.333289  0.333289  1
  Rb  Rb9  1  0.667016  0.667016  0.667016  1
  Ti  Ti10  1  0.214304  0.784235  0.784235  1
  Ti  Ti11  1  0.784235  0.214304  0.784235  1
  Ti  Ti12  1  0.784235  0.784235  0.214304  1
  Ti  Ti13  1  0.218058  0.218058  0.218058  1
  Zn  Zn14  1  0.867943  0.867943  0.867943  1
  Zn  Zn15  1  0.131199  0.868605  0.131199  1
  Zn  Zn16  1  0.868605  0.131199  0.131199  1
  Zn  Zn17  1  0.131199  0.131199  0.868605  1
  S  S18  1  0.000482  0.000482  0.000482  1
  S  S19  1  0.334917  0.656265  0.656265  1
  S  S20  1  0.656265  0.334917  0.656265  1
  S  S21  1  0.656265  0.656265  0.334917  1
  S  S22  1  0.345564  0.345564  0.345564  1
  S  S23  1  0.998465  0.732909  0.732909  1
  S  S24  1  0.732909  0.998465  0.732909  1
  S  S25  1  0.732909  0.732909  0.998465  1
  S  S26  1  0.999789  0.733862  0.266502  1
  S  S27  1  0.267714  0.003058  0.267714  1
  S  S28  1  0.266502  0.733862  0.999789  1
  S  S29  1  0.003058  0.267714  0.267714  1
  S  S30  1  0.733862  0.999789  0.266502  1
  S  S31  1  0.733862  0.266502  0.999789  1
  S  S32  1  0.999789  0.266502  0.733862  1
  S  S33  1  0.266502  0.999789  0.733862  1
  S  S34  1  0.267714  0.267714  0.003058  1
