# generated using pymatgen
data_Er2Lu2B12OsW
_symmetry_space_group_name_H-M   'P 1'
_cell_length_a   3.59125100
_cell_length_b   9.13864218
_cell_length_c   11.53824000
_cell_angle_alpha   89.83037254
_cell_angle_beta   90.00000000
_cell_angle_gamma   90.00000000
_symmetry_Int_Tables_number   1
_chemical_formula_structural   Er2Lu2B12OsW
_chemical_formula_sum   'Er4 Lu4 B24 Os2 W2'
_cell_volume   378.67366050
_cell_formula_units_Z   2
loop_
 _symmetry_equiv_pos_site_id
 _symmetry_equiv_pos_as_xyz
  1  'x, y, z'
loop_
 _atom_site_type_symbol
 _atom_site_label
 _atom_site_symmetry_multiplicity
 _atom_site_fract_x
 _atom_site_fract_y
 _atom_site_fract_z
 _atom_site_occupancy
  Er  Er0  1  0.000000  0.321406  0.413944  1
  Er  Er1  1  0.000000  0.678594  0.586056  1
  Er  Er2  1  0.000000  0.820941  0.086232  1
  Er  Er3  1  0.000000  0.179059  0.913768  1
  Lu  Lu4  1  0.000000  0.945097  0.371594  1
  Lu  Lu5  1  0.000000  0.054903  0.628406  1
  Lu  Lu6  1  0.000000  0.442606  0.127278  1
  Lu  Lu7  1  0.000000  0.557394  0.872722  1
  B  B8  1  0.500000  0.551429  0.434340  1
  B  B9  1  0.500000  0.448571  0.565660  1
  B  B10  1  0.500000  0.054100  0.066600  1
  B  B11  1  0.500000  0.945900  0.933400  1
  B  B12  1  0.500000  0.752517  0.421366  1
  B  B13  1  0.500000  0.247483  0.578634  1
  B  B14  1  0.500000  0.249777  0.080841  1
  B  B15  1  0.500000  0.750223  0.919159  1
  B  B16  1  0.500000  0.796547  0.263282  1
  B  B17  1  0.500000  0.203453  0.736717  1
  B  B18  1  0.500000  0.290884  0.233478  1
  B  B19  1  0.500000  0.709116  0.766523  1
  B  B20  1  0.500000  0.630910  0.181402  1
  B  B21  1  0.500000  0.369090  0.818598  1
  B  B22  1  0.500000  0.129931  0.313850  1
  B  B23  1  0.500000  0.870069  0.686150  1
  B  B24  1  0.500000  0.982688  0.212046  1
  B  B25  1  0.500000  0.017312  0.787954  1
  B  B26  1  0.500000  0.477046  0.285757  1
  B  B27  1  0.500000  0.522954  0.714243  1
  B  B28  1  0.500000  0.601954  0.027233  1
  B  B29  1  0.500000  0.398046  0.972767  1
  B  B30  1  0.500000  0.101196  0.471157  1
  B  B31  1  0.500000  0.898804  0.528843  1
  Os  Os32  1  0.000000  0.138008  0.178381  1
  Os  Os33  1  0.000000  0.861992  0.821619  1
  W  W34  1  0.000000  0.638988  0.319093  1
  W  W35  1  0.000000  0.361012  0.680907  1
