# generated using pymatgen
data_La3Tb5Cd2OsPt
_symmetry_space_group_name_H-M   'P 1'
_cell_length_a   9.86979990
_cell_length_b   9.86980035
_cell_length_c   9.93451900
_cell_angle_alpha   59.78285352
_cell_angle_beta   59.78285198
_cell_angle_gamma   59.74380589
_symmetry_Int_Tables_number   1
_chemical_formula_structural   La3Tb5Cd2OsPt
_chemical_formula_sum   'La6 Tb10 Cd4 Os2 Pt2'
_cell_volume   680.72689423
_cell_formula_units_Z   2
loop_
 _symmetry_equiv_pos_site_id
 _symmetry_equiv_pos_as_xyz
  1  'x, y, z'
loop_
 _atom_site_type_symbol
 _atom_site_label
 _atom_site_symmetry_multiplicity
 _atom_site_fract_x
 _atom_site_fract_y
 _atom_site_fract_z
 _atom_site_occupancy
  La  La0  1  0.192478  0.801581  0.811542  1
  La  La1  1  0.801581  0.192478  0.194400  1
  La  La2  1  0.801581  0.192478  0.811542  1
  La  La3  1  0.192478  0.801581  0.194400  1
  La  La4  1  0.808753  0.808753  0.191247  1
  La  La5  1  0.194418  0.194418  0.805582  1
  Tb  Tb6  1  0.597237  0.597237  0.601863  1
  Tb  Tb7  1  0.597237  0.597237  0.203664  1
  Tb  Tb8  1  0.593779  0.211295  0.597463  1
  Tb  Tb9  1  0.211295  0.593779  0.597463  1
  Tb  Tb10  1  0.067192  0.435829  0.438568  1
  Tb  Tb11  1  0.435829  0.067192  0.058411  1
  Tb  Tb12  1  0.435829  0.067192  0.438568  1
  Tb  Tb13  1  0.067192  0.435829  0.058411  1
  Tb  Tb14  1  0.436397  0.436397  0.063603  1
  Tb  Tb15  1  0.059841  0.059841  0.440159  1
  Cd  Cd16  1  0.828283  0.828283  0.828647  1
  Cd  Cd17  1  0.828283  0.828283  0.514786  1
  Cd  Cd18  1  0.829196  0.512960  0.828923  1
  Cd  Cd19  1  0.512960  0.829196  0.828923  1
  Os  Os20  1  0.393572  0.393572  0.387095  1
  Os  Os21  1  0.393572  0.393572  0.825762  1
  Pt  Pt22  1  0.394509  0.826512  0.389490  1
  Pt  Pt23  1  0.826512  0.394509  0.389490  1
