# generated using pymatgen
data_HoEr7Re(B8Ir)3
_symmetry_space_group_name_H-M   'P 1'
_cell_length_a   3.64044600
_cell_length_b   9.14442471
_cell_length_c   11.47735207
_cell_angle_alpha   90.14219319
_cell_angle_beta   90.00000000
_cell_angle_gamma   90.00000000
_symmetry_Int_Tables_number   1
_chemical_formula_structural   HoEr7Re(B8Ir)3
_chemical_formula_sum   'Ho1 Er7 Re1 B24 Ir3'
_cell_volume   382.07739868
_cell_formula_units_Z   1
loop_
 _symmetry_equiv_pos_site_id
 _symmetry_equiv_pos_as_xyz
  1  'x, y, z'
loop_
 _atom_site_type_symbol
 _atom_site_label
 _atom_site_symmetry_multiplicity
 _atom_site_fract_x
 _atom_site_fract_y
 _atom_site_fract_z
 _atom_site_occupancy
  Ho  Ho0  1  0.000000  0.320824  0.413518  1
  Er  Er1  1  0.000000  0.683371  0.590728  1
  Er  Er2  1  0.000000  0.820777  0.082771  1
  Er  Er3  1  0.000000  0.175832  0.912157  1
  Er  Er4  1  0.000000  0.943650  0.373252  1
  Er  Er5  1  0.000000  0.053872  0.626178  1
  Er  Er6  1  0.000000  0.443554  0.125957  1
  Er  Er7  1  0.000000  0.557391  0.875196  1
  Re  Re8  1  0.000000  0.862675  0.821318  1
  B  B9  1  0.500000  0.553487  0.434459  1
  B  B10  1  0.500000  0.447896  0.566577  1
  B  B11  1  0.500000  0.053065  0.066150  1
  B  B12  1  0.500000  0.947008  0.933406  1
  B  B13  1  0.500000  0.750136  0.420888  1
  B  B14  1  0.500000  0.250662  0.579006  1
  B  B15  1  0.500000  0.248839  0.078755  1
  B  B16  1  0.500000  0.751991  0.920210  1
  B  B17  1  0.500000  0.792112  0.265054  1
  B  B18  1  0.500000  0.207737  0.733350  1
  B  B19  1  0.500000  0.292824  0.234768  1
  B  B20  1  0.500000  0.707874  0.766276  1
  B  B21  1  0.500000  0.631221  0.184496  1
  B  B22  1  0.500000  0.368148  0.815706  1
  B  B23  1  0.500000  0.131931  0.315421  1
  B  B24  1  0.500000  0.868846  0.685488  1
  B  B25  1  0.500000  0.981245  0.212710  1
  B  B26  1  0.500000  0.017760  0.786600  1
  B  B27  1  0.500000  0.481078  0.287422  1
  B  B28  1  0.500000  0.518423  0.713937  1
  B  B29  1  0.500000  0.608747  0.031370  1
  B  B30  1  0.500000  0.388844  0.970009  1
  B  B31  1  0.500000  0.109545  0.469165  1
  B  B32  1  0.500000  0.891236  0.528849  1
  Ir  Ir33  1  0.000000  0.637205  0.322632  1
  Ir  Ir34  1  0.000000  0.362878  0.678110  1
  Ir  Ir35  1  0.000000  0.137316  0.178110  1
