# generated using pymatgen
data_Hf2Zr8GaCuSb6
_symmetry_space_group_name_H-M   'P 1'
_cell_length_a   8.65020000
_cell_length_b   8.65020178
_cell_length_c   5.84967400
_cell_angle_alpha   90.00000000
_cell_angle_beta   90.00000000
_cell_angle_gamma   119.99999320
_symmetry_Int_Tables_number   1
_chemical_formula_structural   Hf2Zr8GaCuSb6
_chemical_formula_sum   'Hf2 Zr8 Ga1 Cu1 Sb6'
_cell_volume   379.06589486
_cell_formula_units_Z   1
loop_
 _symmetry_equiv_pos_site_id
 _symmetry_equiv_pos_as_xyz
  1  'x, y, z'
loop_
 _atom_site_type_symbol
 _atom_site_label
 _atom_site_symmetry_multiplicity
 _atom_site_fract_x
 _atom_site_fract_y
 _atom_site_fract_z
 _atom_site_occupancy
  Hf  Hf0  1  0.666667  0.333333  0.000000  1
  Hf  Hf1  1  0.333333  0.666667  0.000000  1
  Zr  Zr2  1  0.333333  0.666667  0.500000  1
  Zr  Zr3  1  0.666667  0.333333  0.500000  1
  Zr  Zr4  1  0.732969  0.732969  0.751552  1
  Zr  Zr5  1  0.267031  0.000000  0.751552  1
  Zr  Zr6  1  0.000000  0.267031  0.751552  1
  Zr  Zr7  1  0.267031  0.267031  0.248448  1
  Zr  Zr8  1  0.732969  0.000000  0.248448  1
  Zr  Zr9  1  0.000000  0.732969  0.248448  1
  Ga  Ga10  1  0.000000  0.000000  0.500000  1
  Cu  Cu11  1  0.000000  0.000000  0.000000  1
  Sb  Sb12  1  0.386838  0.386838  0.751253  1
  Sb  Sb13  1  0.613162  0.000000  0.751253  1
  Sb  Sb14  1  0.000000  0.613162  0.751253  1
  Sb  Sb15  1  0.613162  0.613162  0.248747  1
  Sb  Sb16  1  0.386838  0.000000  0.248747  1
  Sb  Sb17  1  0.000000  0.386838  0.248747  1
