# generated using pymatgen
data_TbU7B24MoW3
_symmetry_space_group_name_H-M   'P 1'
_cell_length_a   3.68887800
_cell_length_b   9.28943240
_cell_length_c   11.38314442
_cell_angle_alpha   89.99882874
_cell_angle_beta   90.00000000
_cell_angle_gamma   90.00000000
_symmetry_Int_Tables_number   1
_chemical_formula_structural   TbU7B24MoW3
_chemical_formula_sum   'Tb1 U7 B24 Mo1 W3'
_cell_volume   390.07284386
_cell_formula_units_Z   1
loop_
 _symmetry_equiv_pos_site_id
 _symmetry_equiv_pos_as_xyz
  1  'x, y, z'
loop_
 _atom_site_type_symbol
 _atom_site_label
 _atom_site_symmetry_multiplicity
 _atom_site_fract_x
 _atom_site_fract_y
 _atom_site_fract_z
 _atom_site_occupancy
  Tb  Tb0  1  0.000000  0.335295  0.407889  1
  U  U1  1  0.000000  0.664491  0.592437  1
  U  U2  1  0.000000  0.834580  0.092374  1
  U  U3  1  0.000000  0.165446  0.907501  1
  U  U4  1  0.000000  0.956110  0.394495  1
  U  U5  1  0.000000  0.044347  0.604839  1
  U  U6  1  0.000000  0.456468  0.105439  1
  U  U7  1  0.000000  0.543550  0.895354  1
  B  B8  1  0.500000  0.553238  0.433375  1
  B  B9  1  0.500000  0.451318  0.569027  1
  B  B10  1  0.500000  0.049523  0.066292  1
  B  B11  1  0.500000  0.949947  0.932809  1
  B  B12  1  0.500000  0.743271  0.424616  1
  B  B13  1  0.500000  0.255277  0.576973  1
  B  B14  1  0.500000  0.243794  0.075647  1
  B  B15  1  0.500000  0.756397  0.924284  1
  B  B16  1  0.500000  0.803941  0.272787  1
  B  B17  1  0.500000  0.196110  0.727634  1
  B  B18  1  0.500000  0.302925  0.224967  1
  B  B19  1  0.500000  0.696092  0.772569  1
  B  B20  1  0.500000  0.644716  0.187610  1
  B  B21  1  0.500000  0.355165  0.813030  1
  B  B22  1  0.500000  0.142750  0.311726  1
  B  B23  1  0.500000  0.855098  0.687404  1
  B  B24  1  0.500000  0.985642  0.218021  1
  B  B25  1  0.500000  0.014177  0.781321  1
  B  B26  1  0.500000  0.488183  0.280021  1
  B  B27  1  0.500000  0.514984  0.718469  1
  B  B28  1  0.500000  0.642463  0.039504  1
  B  B29  1  0.500000  0.358342  0.960980  1
  B  B30  1  0.500000  0.137426  0.461603  1
  B  B31  1  0.500000  0.857585  0.539629  1
  Mo  Mo32  1  0.000000  0.648456  0.319102  1
  W  W33  1  0.000000  0.354993  0.682792  1
  W  W34  1  0.000000  0.143044  0.177195  1
  W  W35  1  0.000000  0.854857  0.820282  1
