# generated using pymatgen
data_PrTeClO3
_symmetry_space_group_name_H-M   'P 1'
_cell_length_a   7.08367700
_cell_length_b   8.19372094
_cell_length_c   8.79352762
_cell_angle_alpha   71.28444987
_cell_angle_beta   90.00000000
_cell_angle_gamma   90.00000000
_symmetry_Int_Tables_number   1
_chemical_formula_structural   PrTeClO3
_chemical_formula_sum   'Pr4 Te4 Cl4 O12'
_cell_volume   483.40321934
_cell_formula_units_Z   4
loop_
 _symmetry_equiv_pos_site_id
 _symmetry_equiv_pos_as_xyz
  1  'x, y, z'
loop_
 _atom_site_type_symbol
 _atom_site_label
 _atom_site_symmetry_multiplicity
 _atom_site_fract_x
 _atom_site_fract_y
 _atom_site_fract_z
 _atom_site_occupancy
  Pr  Pr0  1  0.838260  0.325850  0.403445  1
  Pr  Pr1  1  0.161740  0.674150  0.596555  1
  Pr  Pr2  1  0.338260  0.174150  0.596555  1
  Pr  Pr3  1  0.661740  0.825850  0.403445  1
  Te  Te4  1  0.187736  0.031184  0.249661  1
  Te  Te5  1  0.812264  0.968816  0.750339  1
  Te  Te6  1  0.312264  0.531184  0.249661  1
  Te  Te7  1  0.687736  0.468816  0.750339  1
  Cl  Cl8  1  0.676719  0.155498  0.160137  1
  Cl  Cl9  1  0.823281  0.655498  0.160137  1
  Cl  Cl10  1  0.323281  0.844502  0.839863  1
  Cl  Cl11  1  0.176719  0.344502  0.839863  1
  O  O12  1  0.495582  0.618344  0.632436  1
  O  O13  1  0.339655  0.963215  0.441253  1
  O  O14  1  0.839655  0.536785  0.558747  1
  O  O15  1  0.885254  0.762102  0.712811  1
  O  O16  1  0.995582  0.881656  0.367564  1
  O  O17  1  0.660345  0.036785  0.558747  1
  O  O18  1  0.004418  0.118344  0.632436  1
  O  O19  1  0.385254  0.737898  0.287189  1
  O  O20  1  0.160345  0.463215  0.441253  1
  O  O21  1  0.504418  0.381656  0.367564  1
  O  O22  1  0.114746  0.237898  0.287189  1
  O  O23  1  0.614746  0.262102  0.712811  1
