# generated using pymatgen
data_Ho4Al13Si5(IrOs2)2
_symmetry_space_group_name_H-M   'P 1'
_cell_length_a   7.49463834
_cell_length_b   7.44395462
_cell_length_c   9.33504591
_cell_angle_alpha   90.03278903
_cell_angle_beta   89.97750979
_cell_angle_gamma   119.60861491
_symmetry_Int_Tables_number   1
_chemical_formula_structural   Ho4Al13Si5(IrOs2)2
_chemical_formula_sum   'Ho4 Al13 Si5 Ir2 Os4'
_cell_volume   452.79407244
_cell_formula_units_Z   1
loop_
 _symmetry_equiv_pos_site_id
 _symmetry_equiv_pos_as_xyz
  1  'x, y, z'
loop_
 _atom_site_type_symbol
 _atom_site_label
 _atom_site_symmetry_multiplicity
 _atom_site_fract_x
 _atom_site_fract_y
 _atom_site_fract_z
 _atom_site_occupancy
  Ho  Ho0  1  0.994942  0.672562  0.246944  1
  Ho  Ho1  1  0.005736  0.334861  0.754424  1
  Ho  Ho2  1  0.683381  0.001107  0.245775  1
  Ho  Ho3  1  0.310889  0.991521  0.751264  1
  Al  Al4  1  0.341005  0.005467  0.421843  1
  Al  Al5  1  0.003581  0.331022  0.425528  1
  Al  Al6  1  0.665486  0.000220  0.576177  1
  Al  Al7  1  0.658355  0.994865  0.922034  1
  Al  Al8  1  0.342494  0.006375  0.077679  1
  Al  Al9  1  0.333642  0.331271  0.558355  1
  Al  Al10  1  0.661836  0.666511  0.442556  1
  Al  Al11  1  0.660264  0.665085  0.054766  1
  Al  Al12  1  0.338248  0.333277  0.945084  1
  Al  Al13  1  0.334615  0.549982  0.248912  1
  Al  Al14  1  0.666780  0.453036  0.751761  1
  Al  Al15  1  0.551127  0.341260  0.249133  1
  Al  Al16  1  0.452706  0.660633  0.750657  1
  Si  Si17  1  0.130858  0.124681  0.251025  1
  Si  Si18  1  0.866282  0.875285  0.750297  1
  Si  Si19  1  0.004643  0.333818  0.073701  1
  Si  Si20  1  0.994948  0.666102  0.931734  1
  Si  Si21  1  0.997351  0.664167  0.568186  1
  Ir  Ir22  1  0.320235  0.670346  0.501920  1
  Ir  Ir23  1  0.680431  0.336579  0.500260  1
  Os  Os24  1  0.688859  0.336548  0.001424  1
  Os  Os25  1  0.311032  0.663486  0.997344  1
  Os  Os26  1  0.999949  0.999047  0.000009  1
  Os  Os27  1  0.000324  0.990885  0.501210  1
