# generated using pymatgen
data_Co7Si16Pd
_symmetry_space_group_name_H-M   'P 1'
_cell_length_a   6.63199962
_cell_length_b   6.63199923
_cell_length_c   7.64142800
_cell_angle_alpha   89.48335468
_cell_angle_beta   89.48335471
_cell_angle_gamma   109.51455325
_symmetry_Int_Tables_number   1
_chemical_formula_structural   Co7Si16Pd
_chemical_formula_sum   'Co7 Si16 Pd1'
_cell_volume   316.75095121
_cell_formula_units_Z   1
loop_
 _symmetry_equiv_pos_site_id
 _symmetry_equiv_pos_as_xyz
  1  'x, y, z'
loop_
 _atom_site_type_symbol
 _atom_site_label
 _atom_site_symmetry_multiplicity
 _atom_site_fract_x
 _atom_site_fract_y
 _atom_site_fract_z
 _atom_site_occupancy
  Co  Co0  1  0.251579  0.251579  0.252977  1
  Co  Co1  1  0.748051  0.748051  0.747081  1
  Co  Co2  1  0.749501  0.749501  0.247294  1
  Co  Co3  1  0.247553  0.748240  0.498289  1
  Co  Co4  1  0.250237  0.754222  0.001026  1
  Co  Co5  1  0.748240  0.247553  0.498289  1
  Co  Co6  1  0.754222  0.250237  0.001026  1
  Si  Si7  1  0.376676  0.627425  0.249856  1
  Si  Si8  1  0.116370  0.854940  0.748522  1
  Si  Si9  1  0.122591  0.875147  0.250149  1
  Si  Si10  1  0.380322  0.645954  0.750002  1
  Si  Si11  1  0.645954  0.380322  0.750002  1
  Si  Si12  1  0.875147  0.122591  0.250149  1
  Si  Si13  1  0.854940  0.116370  0.748522  1
  Si  Si14  1  0.627425  0.376676  0.249856  1
  Si  Si15  1  0.121029  0.385969  0.017387  1
  Si  Si16  1  0.380449  0.116559  0.488144  1
  Si  Si17  1  0.872295  0.623432  0.495368  1
  Si  Si18  1  0.626155  0.874704  0.000339  1
  Si  Si19  1  0.874704  0.626155  0.000339  1
  Si  Si20  1  0.623432  0.872295  0.495368  1
  Si  Si21  1  0.116559  0.380449  0.488144  1
  Si  Si22  1  0.385969  0.121029  0.017387  1
  Pd  Pd23  1  0.250598  0.250598  0.754481  1
