# generated using pymatgen
data_Zr5Sc3(Mn3Si4)4
_symmetry_space_group_name_H-M   'P 1'
_cell_length_a   9.74851021
_cell_length_b   9.75299876
_cell_length_c   13.06442000
_cell_angle_alpha   53.56032625
_cell_angle_beta   53.53064375
_cell_angle_gamma   30.52948229
_symmetry_Int_Tables_number   1
_chemical_formula_structural   Zr5Sc3(Mn3Si4)4
_chemical_formula_sum   'Zr5 Sc3 Mn12 Si16'
_cell_volume   497.09303512
_cell_formula_units_Z   1
loop_
 _symmetry_equiv_pos_site_id
 _symmetry_equiv_pos_as_xyz
  1  'x, y, z'
loop_
 _atom_site_type_symbol
 _atom_site_label
 _atom_site_symmetry_multiplicity
 _atom_site_fract_x
 _atom_site_fract_y
 _atom_site_fract_z
 _atom_site_occupancy
  Zr  Zr0  1  0.565684  0.295048  0.140991  1
  Zr  Zr1  1  0.033046  0.293931  0.643614  1
  Zr  Zr2  1  0.707294  0.966160  0.856046  1
  Zr  Zr3  1  0.965941  0.707162  0.356559  1
  Zr  Zr4  1  0.292512  0.033171  0.143755  1
  Sc  Sc5  1  0.294694  0.565627  0.642359  1
  Sc  Sc6  1  0.433598  0.706992  0.857377  1
  Sc  Sc7  1  0.705177  0.434524  0.358297  1
  Mn  Mn8  1  0.643404  0.835965  0.276384  1
  Mn  Mn9  1  0.164958  0.356546  0.223280  1
  Mn  Mn10  1  0.756390  0.488624  0.059652  1
  Mn  Mn11  1  0.835622  0.643944  0.776351  1
  Mn  Mn12  1  0.900002  0.144485  0.584880  1
  Mn  Mn13  1  0.852508  0.102887  0.917133  1
  Mn  Mn14  1  0.100323  0.855253  0.415087  1
  Mn  Mn15  1  0.147588  0.895737  0.084281  1
  Mn  Mn16  1  0.242925  0.512353  0.940659  1
  Mn  Mn17  1  0.488274  0.756417  0.559887  1
  Mn  Mn18  1  0.512898  0.243086  0.439317  1
  Mn  Mn19  1  0.356275  0.164663  0.723603  1
  Si  Si20  1  0.879697  0.121418  0.249508  1
  Si  Si21  1  0.121268  0.878840  0.750475  1
  Si  Si22  1  0.386546  0.614483  0.249989  1
  Si  Si23  1  0.614843  0.384937  0.750377  1
  Si  Si24  1  0.964627  0.254498  0.897879  1
  Si  Si25  1  0.747061  0.034596  0.602239  1
  Si  Si26  1  0.033699  0.746805  0.102265  1
  Si  Si27  1  0.252305  0.966265  0.397454  1
  Si  Si28  1  0.576703  0.082673  0.064696  1
  Si  Si29  1  0.914479  0.423503  0.434595  1
  Si  Si30  1  0.422939  0.915163  0.934760  1
  Si  Si31  1  0.086680  0.575505  0.565347  1
  Si  Si32  1  0.392210  0.139558  0.396406  1
  Si  Si33  1  0.861438  0.605325  0.104335  1
  Si  Si34  1  0.607245  0.861115  0.604206  1
  Si  Si35  1  0.139153  0.392741  0.895961  1
