# generated using pymatgen
data_Ho2Er6Ti12Si15Pb
_symmetry_space_group_name_H-M   'P 1'
_cell_length_a   7.10140038
_cell_length_b   7.05728447
_cell_length_c   12.98616211
_cell_angle_alpha   89.97682737
_cell_angle_beta   89.68103528
_cell_angle_gamma   89.90036730
_symmetry_Int_Tables_number   1
_chemical_formula_structural   Ho2Er6Ti12Si15Pb
_chemical_formula_sum   'Ho2 Er6 Ti12 Si15 Pb1'
_cell_volume   650.81120663
_cell_formula_units_Z   1
loop_
 _symmetry_equiv_pos_site_id
 _symmetry_equiv_pos_as_xyz
  1  'x, y, z'
loop_
 _atom_site_type_symbol
 _atom_site_label
 _atom_site_symmetry_multiplicity
 _atom_site_fract_x
 _atom_site_fract_y
 _atom_site_fract_z
 _atom_site_occupancy
  Ho  Ho0  1  0.345100  0.998045  0.460058  1
  Ho  Ho1  1  0.507362  0.834396  0.718545  1
  Er  Er2  1  0.501919  0.159698  0.216782  1
  Er  Er3  1  0.841289  0.497834  0.282046  1
  Er  Er4  1  0.158750  0.511136  0.786727  1
  Er  Er5  1  0.661113  0.996570  0.969303  1
  Er  Er6  1  0.990389  0.350889  0.526054  1
  Er  Er7  1  0.999180  0.658720  0.034298  1
  Ti  Ti8  1  0.325921  0.326869  0.001367  1
  Ti  Ti9  1  0.173897  0.826132  0.249667  1
  Ti  Ti10  1  0.813644  0.175286  0.752596  1
  Ti  Ti11  1  0.672814  0.672840  0.499399  1
  Ti  Ti12  1  0.152084  0.007327  0.884264  1
  Ti  Ti13  1  0.492646  0.650150  0.126447  1
  Ti  Ti14  1  0.517329  0.355298  0.626251  1
  Ti  Ti15  1  0.653946  0.493532  0.876105  1
  Ti  Ti16  1  0.348086  0.509036  0.372960  1
  Ti  Ti17  1  0.847360  0.992623  0.375350  1
  Ti  Ti18  1  0.009157  0.151583  0.123784  1
  Ti  Ti19  1  0.977752  0.832147  0.618328  1
  Si  Si20  1  0.370446  0.703324  0.935631  1
  Si  Si21  1  0.628665  0.296955  0.431830  1
  Si  Si22  1  0.703721  0.368991  0.067249  1
  Si  Si23  1  0.297050  0.631133  0.566082  1
  Si  Si24  1  0.797051  0.869473  0.183648  1
  Si  Si25  1  0.130304  0.203296  0.315576  1
  Si  Si26  1  0.870101  0.799656  0.817184  1
  Si  Si27  1  0.292735  0.952257  0.067269  1
  Si  Si28  1  0.550114  0.789209  0.313120  1
  Si  Si29  1  0.460523  0.210478  0.821565  1
  Si  Si30  1  0.794952  0.543933  0.687283  1
  Si  Si31  1  0.209146  0.452920  0.185277  1
  Si  Si32  1  0.706864  0.048154  0.564317  1
  Si  Si33  1  0.952566  0.291855  0.935447  1
  Si  Si34  1  0.048417  0.711132  0.432406  1
  Pb  Pb35  1  0.197606  0.127124  0.675785  1
