# generated using pymatgen
data_La2Pr2Co6O19
_symmetry_space_group_name_H-M   'P 1'
_cell_length_a   7.54872036
_cell_length_b   7.54487254
_cell_length_c   7.54512720
_cell_angle_alpha   109.44642879
_cell_angle_beta   109.47929867
_cell_angle_gamma   109.46416906
_symmetry_Int_Tables_number   1
_chemical_formula_structural   La2Pr2Co6O19
_chemical_formula_sum   'La2 Pr2 Co6 O19'
_cell_volume   330.90033319
_cell_formula_units_Z   1
loop_
 _symmetry_equiv_pos_site_id
 _symmetry_equiv_pos_as_xyz
  1  'x, y, z'
loop_
 _atom_site_type_symbol
 _atom_site_label
 _atom_site_symmetry_multiplicity
 _atom_site_fract_x
 _atom_site_fract_y
 _atom_site_fract_z
 _atom_site_occupancy
  La  La0  1  0.670373  0.670744  0.670841  1
  La  La1  1  0.329670  0.000447  0.000356  1
  Pr  Pr2  1  0.000047  0.000385  0.332126  1
  Pr  Pr3  1  0.999987  0.332086  0.000374  1
  Co  Co4  1  0.342447  0.499692  0.842631  1
  Co  Co5  1  0.843204  0.342008  0.499864  1
  Co  Co6  1  0.500014  0.157129  0.657134  1
  Co  Co7  1  0.156750  0.656621  0.498753  1
  Co  Co8  1  0.499990  0.842557  0.342576  1
  Co  Co9  1  0.657520  0.500172  0.157225  1
  O  O10  1  0.356304  0.000090  0.356489  1
  O  O11  1  0.356112  0.356557  0.000020  1
  O  O12  1  0.000051  0.642676  0.642610  1
  O  O13  1  0.643907  0.643892  0.000466  1
  O  O14  1  0.000024  0.355464  0.355428  1
  O  O15  1  0.643682  0.000199  0.643839  1
  O  O16  1  0.000006  0.002831  0.002825  1
  O  O17  1  0.362609  0.320085  0.618991  1
  O  O18  1  0.041785  0.296208  0.678435  1
  O  O19  1  0.745245  0.380621  0.702738  1
  O  O20  1  0.379629  0.700982  0.743779  1
  O  O21  1  0.254800  0.957486  0.635395  1
  O  O22  1  0.620323  0.364167  0.321295  1
  O  O23  1  0.320627  0.618659  0.362812  1
  O  O24  1  0.679287  0.042082  0.297922  1
  O  O25  1  0.958230  0.636718  0.254545  1
  O  O26  1  0.703551  0.745724  0.380844  1
  O  O27  1  0.637464  0.256476  0.957549  1
  O  O28  1  0.296364  0.677241  0.042138  1
