# generated using pymatgen
data_Ta10Ga5SiC
_symmetry_space_group_name_H-M   'P 1'
_cell_length_a   7.71962444
_cell_length_b   7.72177806
_cell_length_c   5.30392092
_cell_angle_alpha   90.06749842
_cell_angle_beta   89.96623517
_cell_angle_gamma   120.00922695
_symmetry_Int_Tables_number   1
_chemical_formula_structural   Ta10Ga5SiC
_chemical_formula_sum   'Ta10 Ga5 Si1 C1'
_cell_volume   273.77921280
_cell_formula_units_Z   1
loop_
 _symmetry_equiv_pos_site_id
 _symmetry_equiv_pos_as_xyz
  1  'x, y, z'
loop_
 _atom_site_type_symbol
 _atom_site_label
 _atom_site_symmetry_multiplicity
 _atom_site_fract_x
 _atom_site_fract_y
 _atom_site_fract_z
 _atom_site_occupancy
  Ta  Ta0  1  0.327025  0.661928  0.499081  1
  Ta  Ta1  1  0.672975  0.334902  0.499081  1
  Ta  Ta2  1  0.671112  0.334265  0.000752  1
  Ta  Ta3  1  0.328888  0.663155  0.000752  1
  Ta  Ta4  1  0.000000  0.762579  0.252456  1
  Ta  Ta5  1  0.231470  0.235106  0.251214  1
  Ta  Ta6  1  0.768530  0.003636  0.251214  1
  Ta  Ta7  1  0.000000  0.238833  0.748236  1
  Ta  Ta8  1  0.766254  0.766141  0.749384  1
  Ta  Ta9  1  0.233746  0.999887  0.749384  1
  Ga  Ga10  1  0.597550  0.598323  0.246290  1
  Ga  Ga11  1  0.402450  0.000772  0.246290  1
  Ga  Ga12  1  0.000000  0.600251  0.754274  1
  Ga  Ga13  1  0.403834  0.401410  0.753939  1
  Ga  Ga14  1  0.596166  0.997576  0.753939  1
  Si  Si15  1  0.000000  0.401519  0.242406  1
  C  C16  1  0.000000  0.999723  0.501304  1
