# generated using pymatgen
data_Dy5Ho5InPb5
_symmetry_space_group_name_H-M   'P 1'
_cell_length_a   9.02622800
_cell_length_b   9.02858304
_cell_length_c   6.65560900
_cell_angle_alpha   90.00000000
_cell_angle_beta   90.00000000
_cell_angle_gamma   119.99137176
_symmetry_Int_Tables_number   1
_chemical_formula_structural   Dy5Ho5InPb5
_chemical_formula_sum   'Dy5 Ho5 In1 Pb5'
_cell_volume   469.76654116
_cell_formula_units_Z   1
loop_
 _symmetry_equiv_pos_site_id
 _symmetry_equiv_pos_as_xyz
  1  'x, y, z'
loop_
 _atom_site_type_symbol
 _atom_site_label
 _atom_site_symmetry_multiplicity
 _atom_site_fract_x
 _atom_site_fract_y
 _atom_site_fract_z
 _atom_site_occupancy
  Dy  Dy0  1  0.238953  0.000000  0.250000  1
  Dy  Dy1  1  0.237269  0.237034  0.750000  1
  Dy  Dy2  1  0.000235  0.762966  0.750000  1
  Dy  Dy3  1  0.995875  0.234456  0.250000  1
  Dy  Dy4  1  0.761419  0.765544  0.250000  1
  Ho  Ho5  1  0.335837  0.669512  0.001648  1
  Ho  Ho6  1  0.666325  0.330488  0.498352  1
  Ho  Ho7  1  0.666325  0.330488  0.001648  1
  Ho  Ho8  1  0.335837  0.669512  0.498352  1
  Ho  Ho9  1  0.762458  0.000000  0.750000  1
  In  In10  1  0.603505  0.000000  0.250000  1
  Pb  Pb11  1  0.605113  0.604409  0.750000  1
  Pb  Pb12  1  0.000704  0.395591  0.750000  1
  Pb  Pb13  1  0.999933  0.605314  0.250000  1
  Pb  Pb14  1  0.394619  0.394686  0.250000  1
  Pb  Pb15  1  0.395594  0.000000  0.750000  1
