# generated using pymatgen
data_Ba3AlSe4Br
_symmetry_space_group_name_H-M   'P 1'
_cell_length_a   8.91481300
_cell_length_b   10.06904800
_cell_length_c   12.95823500
_cell_angle_alpha   90.00000000
_cell_angle_beta   90.00000000
_cell_angle_gamma   90.00000000
_symmetry_Int_Tables_number   1
_chemical_formula_structural   Ba3AlSe4Br
_chemical_formula_sum   'Ba12 Al4 Se16 Br4'
_cell_volume   1163.17886001
_cell_formula_units_Z   4
loop_
 _symmetry_equiv_pos_site_id
 _symmetry_equiv_pos_as_xyz
  1  'x, y, z'
loop_
 _atom_site_type_symbol
 _atom_site_label
 _atom_site_symmetry_multiplicity
 _atom_site_fract_x
 _atom_site_fract_y
 _atom_site_fract_z
 _atom_site_occupancy
  Ba  Ba0  1  0.916724  0.750000  0.480511  1
  Ba  Ba1  1  0.583276  0.750000  0.980511  1
  Ba  Ba2  1  0.083276  0.250000  0.519489  1
  Ba  Ba3  1  0.416724  0.250000  0.019489  1
  Ba  Ba4  1  0.586077  0.479812  0.665965  1
  Ba  Ba5  1  0.913923  0.020188  0.165965  1
  Ba  Ba6  1  0.413923  0.979812  0.334035  1
  Ba  Ba7  1  0.086077  0.520188  0.834035  1
  Ba  Ba8  1  0.413923  0.520188  0.334035  1
  Ba  Ba9  1  0.086077  0.979812  0.834035  1
  Ba  Ba10  1  0.586077  0.020188  0.665965  1
  Ba  Ba11  1  0.913923  0.479812  0.165965  1
  Al  Al12  1  0.312629  0.750000  0.605910  1
  Al  Al13  1  0.187371  0.750000  0.105910  1
  Al  Al14  1  0.687371  0.250000  0.394090  1
  Al  Al15  1  0.812629  0.250000  0.894090  1
  Se  Se16  1  0.813117  0.451820  0.428022  1
  Se  Se17  1  0.686883  0.048180  0.928022  1
  Se  Se18  1  0.186883  0.951820  0.571978  1
  Se  Se19  1  0.313117  0.548180  0.071978  1
  Se  Se20  1  0.186883  0.548180  0.571978  1
  Se  Se21  1  0.313117  0.951820  0.071978  1
  Se  Se22  1  0.813117  0.048180  0.428022  1
  Se  Se23  1  0.686883  0.451820  0.928022  1
  Se  Se24  1  0.140091  0.750000  0.287282  1
  Se  Se25  1  0.359909  0.750000  0.787282  1
  Se  Se26  1  0.859909  0.250000  0.712718  1
  Se  Se27  1  0.640091  0.250000  0.212718  1
  Se  Se28  1  0.538578  0.750000  0.505881  1
  Se  Se29  1  0.961422  0.750000  0.005881  1
  Se  Se30  1  0.461422  0.250000  0.494119  1
  Se  Se31  1  0.038578  0.250000  0.994119  1
  Br  Br32  1  0.668146  0.750000  0.229704  1
  Br  Br33  1  0.831854  0.750000  0.729704  1
  Br  Br34  1  0.331854  0.250000  0.770296  1
  Br  Br35  1  0.168146  0.250000  0.270296  1
