# generated using pymatgen
data_TbDy2SiSe2
_symmetry_space_group_name_H-M   'P 1'
_cell_length_a   7.15338651
_cell_length_b   7.15338802
_cell_length_c   7.15338745
_cell_angle_alpha   146.61537218
_cell_angle_beta   132.44077337
_cell_angle_gamma   59.34794565
_symmetry_Int_Tables_number   1
_chemical_formula_structural   TbDy2SiSe2
_chemical_formula_sum   'Tb1 Dy2 Si1 Se2'
_cell_volume   147.33905730
_cell_formula_units_Z   1
loop_
 _symmetry_equiv_pos_site_id
 _symmetry_equiv_pos_as_xyz
  1  'x, y, z'
loop_
 _atom_site_type_symbol
 _atom_site_label
 _atom_site_symmetry_multiplicity
 _atom_site_fract_x
 _atom_site_fract_y
 _atom_site_fract_z
 _atom_site_occupancy
  Tb  Tb0  1  0.500000  0.000000  0.500000  1
  Dy  Dy1  1  0.843719  0.343719  0.500000  1
  Dy  Dy2  1  0.156281  0.656281  0.500000  1
  Si  Si3  1  0.000000  0.000000  0.000000  1
  Se  Se4  1  0.669433  0.669433  0.000000  1
  Se  Se5  1  0.330567  0.330567  0.000000  1
