# generated using pymatgen
data_Ta12Al7VTc3PtC4
_symmetry_space_group_name_H-M   'P 1'
_cell_length_a   8.35597551
_cell_length_b   8.35597495
_cell_length_c   8.35597300
_cell_angle_alpha   59.68789753
_cell_angle_beta   59.68789183
_cell_angle_gamma   59.68789228
_symmetry_Int_Tables_number   1
_chemical_formula_structural   Ta12Al7VTc3PtC4
_chemical_formula_sum   'Ta12 Al7 V1 Tc3 Pt1 C4'
_cell_volume   409.62476856
_cell_formula_units_Z   1
loop_
 _symmetry_equiv_pos_site_id
 _symmetry_equiv_pos_as_xyz
  1  'x, y, z'
loop_
 _atom_site_type_symbol
 _atom_site_label
 _atom_site_symmetry_multiplicity
 _atom_site_fract_x
 _atom_site_fract_y
 _atom_site_fract_z
 _atom_site_occupancy
  Ta  Ta0  1  0.558324  0.940916  0.558324  1
  Ta  Ta1  1  0.310487  0.688853  0.688853  1
  Ta  Ta2  1  0.683653  0.312800  0.312800  1
  Ta  Ta3  1  0.312800  0.683653  0.312800  1
  Ta  Ta4  1  0.688853  0.688853  0.310487  1
  Ta  Ta5  1  0.312800  0.312800  0.683653  1
  Ta  Ta6  1  0.558324  0.558324  0.940916  1
  Ta  Ta7  1  0.940916  0.558324  0.558324  1
  Ta  Ta8  1  0.569099  0.936801  0.936801  1
  Ta  Ta9  1  0.936801  0.936801  0.569099  1
  Ta  Ta10  1  0.688853  0.310487  0.688853  1
  Ta  Ta11  1  0.936801  0.569099  0.936801  1
  Al  Al12  1  0.996630  0.334242  0.334242  1
  Al  Al13  1  0.334242  0.996630  0.334242  1
  Al  Al14  1  0.334242  0.334242  0.996630  1
  Al  Al15  1  0.915768  0.256033  0.915768  1
  Al  Al16  1  0.915768  0.915768  0.256033  1
  Al  Al17  1  0.256033  0.915768  0.915768  1
  Al  Al18  1  0.333594  0.333594  0.333594  1
  V  V19  1  0.922888  0.922888  0.922888  1
  Tc  Tc20  1  0.630040  0.119555  0.119555  1
  Tc  Tc21  1  0.119555  0.630040  0.119555  1
  Tc  Tc22  1  0.119555  0.119555  0.630040  1
  Pt  Pt23  1  0.125560  0.125560  0.125560  1
  C  C24  1  0.624754  0.624754  0.624754  1
  C  C25  1  0.124215  0.624720  0.624720  1
  C  C26  1  0.624720  0.124215  0.624720  1
  C  C27  1  0.624720  0.624720  0.124215  1
