# generated using pymatgen
data_YErSi2NiRu
_symmetry_space_group_name_H-M   'P 1'
_cell_length_a   4.20955400
_cell_length_b   6.87508777
_cell_length_c   7.20074569
_cell_angle_alpha   91.58836966
_cell_angle_beta   90.00000000
_cell_angle_gamma   90.00000000
_symmetry_Int_Tables_number   1
_chemical_formula_structural   YErSi2NiRu
_chemical_formula_sum   'Y2 Er2 Si4 Ni2 Ru2'
_cell_volume   208.31709015
_cell_formula_units_Z   2
loop_
 _symmetry_equiv_pos_site_id
 _symmetry_equiv_pos_as_xyz
  1  'x, y, z'
loop_
 _atom_site_type_symbol
 _atom_site_label
 _atom_site_symmetry_multiplicity
 _atom_site_fract_x
 _atom_site_fract_y
 _atom_site_fract_z
 _atom_site_occupancy
  Y  Y0  1  0.250000  0.992997  0.797849  1
  Y  Y1  1  0.750000  0.007003  0.202151  1
  Er  Er2  1  0.250000  0.491268  0.685492  1
  Er  Er3  1  0.750000  0.508732  0.314508  1
  Si  Si4  1  0.250000  0.300543  0.097401  1
  Si  Si5  1  0.750000  0.699457  0.902599  1
  Si  Si6  1  0.250000  0.802150  0.401378  1
  Si  Si7  1  0.750000  0.197850  0.598622  1
  Ni  Ni8  1  0.750000  0.829349  0.575678  1
  Ni  Ni9  1  0.250000  0.170651  0.424322  1
  Ru  Ru10  1  0.750000  0.344184  0.929097  1
  Ru  Ru11  1  0.250000  0.655816  0.070903  1
