# generated using pymatgen
data_Tb6TiAl23(CoOs3)2
_symmetry_space_group_name_H-M   'P 1'
_cell_length_a   8.83830400
_cell_length_b   8.83830455
_cell_length_c   9.50198400
_cell_angle_alpha   90.00000000
_cell_angle_beta   90.00000000
_cell_angle_gamma   119.99999047
_symmetry_Int_Tables_number   1
_chemical_formula_structural   Tb6TiAl23(CoOs3)2
_chemical_formula_sum   'Tb6 Ti1 Al23 Co2 Os6'
_cell_volume   642.81035748
_cell_formula_units_Z   1
loop_
 _symmetry_equiv_pos_site_id
 _symmetry_equiv_pos_as_xyz
  1  'x, y, z'
loop_
 _atom_site_type_symbol
 _atom_site_label
 _atom_site_symmetry_multiplicity
 _atom_site_fract_x
 _atom_site_fract_y
 _atom_site_fract_z
 _atom_site_occupancy
  Tb  Tb0  1  0.193900  0.387800  0.252002  1
  Tb  Tb1  1  0.806565  0.613130  0.746815  1
  Tb  Tb2  1  0.612200  0.806100  0.252002  1
  Tb  Tb3  1  0.386870  0.193435  0.746815  1
  Tb  Tb4  1  0.193900  0.806100  0.252002  1
  Tb  Tb5  1  0.806565  0.193435  0.746815  1
  Ti  Ti6  1  0.333333  0.666667  0.988861  1
  Al  Al7  1  0.666667  0.333333  0.986577  1
  Al  Al8  1  0.666667  0.333333  0.515916  1
  Al  Al9  1  0.333333  0.666667  0.482887  1
  Al  Al10  1  0.159479  0.318958  0.575333  1
  Al  Al11  1  0.840342  0.680684  0.425096  1
  Al  Al12  1  0.681042  0.840521  0.575333  1
  Al  Al13  1  0.841066  0.682132  0.076061  1
  Al  Al14  1  0.319316  0.159658  0.425096  1
  Al  Al15  1  0.155777  0.311553  0.926175  1
  Al  Al16  1  0.159479  0.840521  0.575333  1
  Al  Al17  1  0.317868  0.158934  0.076061  1
  Al  Al18  1  0.840342  0.159658  0.425096  1
  Al  Al19  1  0.688447  0.844223  0.926175  1
  Al  Al20  1  0.841066  0.158934  0.076061  1
  Al  Al21  1  0.155777  0.844223  0.926175  1
  Al  Al22  1  0.560940  0.121880  0.253177  1
  Al  Al23  1  0.440740  0.881481  0.748774  1
  Al  Al24  1  0.878120  0.439060  0.253177  1
  Al  Al25  1  0.118519  0.559260  0.748774  1
  Al  Al26  1  0.560940  0.439060  0.253177  1
  Al  Al27  1  0.440740  0.559260  0.748774  1
  Al  Al28  1  0.000000  0.000000  0.250646  1
  Al  Al29  1  0.000000  0.000000  0.749084  1
  Co  Co30  1  0.000000  0.000000  0.000786  1
  Co  Co31  1  0.000000  0.000000  0.499453  1
  Os  Os32  1  0.498694  0.997387  0.003097  1
  Os  Os33  1  0.002613  0.501306  0.003097  1
  Os  Os34  1  0.499865  0.999731  0.502066  1
  Os  Os35  1  0.498694  0.501306  0.003097  1
  Os  Os36  1  0.000269  0.500135  0.502066  1
  Os  Os37  1  0.499865  0.500135  0.502066  1
