# generated using pymatgen
data_Ho6Th2Mg2IrRh
_symmetry_space_group_name_H-M   'P 1'
_cell_length_a   9.77876315
_cell_length_b   9.77876308
_cell_length_c   9.78254700
_cell_angle_alpha   59.98720226
_cell_angle_beta   59.98720251
_cell_angle_gamma   59.98607387
_symmetry_Int_Tables_number   1
_chemical_formula_structural   Ho6Th2Mg2IrRh
_chemical_formula_sum   'Ho12 Th4 Mg4 Ir2 Rh2'
_cell_volume   661.26425993
_cell_formula_units_Z   2
loop_
 _symmetry_equiv_pos_site_id
 _symmetry_equiv_pos_as_xyz
  1  'x, y, z'
loop_
 _atom_site_type_symbol
 _atom_site_label
 _atom_site_symmetry_multiplicity
 _atom_site_fract_x
 _atom_site_fract_y
 _atom_site_fract_z
 _atom_site_occupancy
  Ho  Ho0  1  0.812694  0.186981  0.187023  1
  Ho  Ho1  1  0.186981  0.812694  0.813303  1
  Ho  Ho2  1  0.186981  0.812694  0.187023  1
  Ho  Ho3  1  0.812694  0.186981  0.813303  1
  Ho  Ho4  1  0.187346  0.187346  0.812654  1
  Ho  Ho5  1  0.813255  0.813255  0.186745  1
  Ho  Ho6  1  0.934739  0.566149  0.565322  1
  Ho  Ho7  1  0.566149  0.934739  0.933791  1
  Ho  Ho8  1  0.566149  0.934739  0.565322  1
  Ho  Ho9  1  0.934739  0.566149  0.933791  1
  Ho  Ho10  1  0.565584  0.565584  0.934416  1
  Ho  Ho11  1  0.934100  0.934100  0.565900  1
  Th  Th12  1  0.348613  0.348613  0.348145  1
  Th  Th13  1  0.348613  0.348613  0.954628  1
  Th  Th14  1  0.349004  0.953829  0.348583  1
  Th  Th15  1  0.953829  0.349004  0.348583  1
  Mg  Mg16  1  0.580471  0.580471  0.580923  1
  Mg  Mg17  1  0.580471  0.580471  0.258135  1
  Mg  Mg18  1  0.580286  0.258011  0.580851  1
  Mg  Mg19  1  0.258011  0.580286  0.580851  1
  Ir  Ir20  1  0.142569  0.570366  0.143534  1
  Ir  Ir21  1  0.570366  0.142569  0.143534  1
  Rh  Rh22  1  0.143180  0.143180  0.144182  1
  Rh  Rh23  1  0.143180  0.143180  0.569460  1
