# generated using pymatgen
data_Ba2UCuSe5
_symmetry_space_group_name_H-M   'P 1'
_cell_length_a   12.39637819
_cell_length_b   8.77045900
_cell_length_c   9.46046428
_cell_angle_alpha   90.00000000
_cell_angle_beta   89.96087698
_cell_angle_gamma   90.00000000
_symmetry_Int_Tables_number   1
_chemical_formula_structural   Ba2UCuSe5
_chemical_formula_sum   'Ba8 U4 Cu4 Se20'
_cell_volume   1028.55966433
_cell_formula_units_Z   4
loop_
 _symmetry_equiv_pos_site_id
 _symmetry_equiv_pos_as_xyz
  1  'x, y, z'
loop_
 _atom_site_type_symbol
 _atom_site_label
 _atom_site_symmetry_multiplicity
 _atom_site_fract_x
 _atom_site_fract_y
 _atom_site_fract_z
 _atom_site_occupancy
  Ba  Ba0  1  0.830359  0.004494  0.113152  1
  Ba  Ba1  1  0.830359  0.495506  0.113152  1
  Ba  Ba2  1  0.330345  0.004427  0.386933  1
  Ba  Ba3  1  0.330345  0.495573  0.386933  1
  Ba  Ba4  1  0.669616  0.504367  0.612903  1
  Ba  Ba5  1  0.669616  0.995633  0.612903  1
  Ba  Ba6  1  0.169592  0.504484  0.887087  1
  Ba  Ba7  1  0.169592  0.995516  0.887087  1
  U  U8  1  0.504459  0.750000  0.017402  1
  U  U9  1  0.004295  0.750000  0.482730  1
  U  U10  1  0.995896  0.249999  0.517375  1
  U  U11  1  0.495514  0.249999  0.982240  1
  Cu  Cu12  1  0.098021  0.249999  0.188040  1
  Cu  Cu13  1  0.597946  0.249999  0.312597  1
  Cu  Cu14  1  0.401934  0.750000  0.687053  1
  Cu  Cu15  1  0.901675  0.750000  0.812902  1
  Se  Se16  1  0.005532  0.750000  0.024235  1
  Se  Se17  1  0.294781  0.249999  0.109616  1
  Se  Se18  1  0.302586  0.750000  0.120734  1
  Se  Se19  1  0.560302  0.020572  0.170617  1
  Se  Se20  1  0.560302  0.479428  0.170617  1
  Se  Se21  1  0.060611  0.020165  0.329347  1
  Se  Se22  1  0.060611  0.479835  0.329347  1
  Se  Se23  1  0.802401  0.750000  0.379164  1
  Se  Se24  1  0.794972  0.249999  0.390036  1
  Se  Se25  1  0.505554  0.750000  0.475602  1
  Se  Se26  1  0.494424  0.249999  0.523948  1
  Se  Se27  1  0.205161  0.750000  0.610055  1
  Se  Se28  1  0.197736  0.249999  0.621247  1
  Se  Se29  1  0.939611  0.520241  0.670808  1
  Se  Se30  1  0.939611  0.979758  0.670808  1
  Se  Se31  1  0.439601  0.520471  0.828955  1
  Se  Se32  1  0.439601  0.979528  0.828955  1
  Se  Se33  1  0.697332  0.249999  0.879055  1
  Se  Se34  1  0.705231  0.750000  0.890161  1
  Se  Se35  1  0.994478  0.249999  0.976208  1
