# generated using pymatgen
data_TbSc6Fe4Co2Sn23
_symmetry_space_group_name_H-M   'P 1'
_cell_length_a   9.55311106
_cell_length_b   9.54515910
_cell_length_c   9.80693829
_cell_angle_alpha   89.99999755
_cell_angle_beta   89.94894595
_cell_angle_gamma   119.97246483
_symmetry_Int_Tables_number   1
_chemical_formula_structural   TbSc6Fe4Co2Sn23
_chemical_formula_sum   'Tb1 Sc6 Fe4 Co2 Sn23'
_cell_volume   774.66204168
_cell_formula_units_Z   1
loop_
 _symmetry_equiv_pos_site_id
 _symmetry_equiv_pos_as_xyz
  1  'x, y, z'
loop_
 _atom_site_type_symbol
 _atom_site_label
 _atom_site_symmetry_multiplicity
 _atom_site_fract_x
 _atom_site_fract_y
 _atom_site_fract_z
 _atom_site_occupancy
  Tb  Tb0  1  0.000000  0.000000  0.000000  1
  Sc  Sc1  1  0.487686  0.516103  0.305273  1
  Sc  Sc2  1  0.512314  0.483897  0.694727  1
  Sc  Sc3  1  0.487686  0.971582  0.305273  1
  Sc  Sc4  1  0.512314  0.028418  0.694727  1
  Sc  Sc5  1  0.027779  0.513889  0.303428  1
  Sc  Sc6  1  0.972221  0.486111  0.696572  1
  Fe  Fe7  1  0.829995  0.170018  0.201261  1
  Fe  Fe8  1  0.170005  0.829982  0.798739  1
  Fe  Fe9  1  0.829995  0.659976  0.201261  1
  Fe  Fe10  1  0.170005  0.340024  0.798739  1
  Co  Co11  1  0.341325  0.170662  0.199586  1
  Co  Co12  1  0.658675  0.829338  0.800414  1
  Sn  Sn13  1  0.347161  0.998213  0.000052  1
  Sn  Sn14  1  0.652839  0.001787  0.999948  1
  Sn  Sn15  1  0.000000  0.346953  0.000000  1
  Sn  Sn16  1  0.000000  0.653047  0.000000  1
  Sn  Sn17  1  0.652839  0.651052  0.999948  1
  Sn  Sn18  1  0.347161  0.348948  0.000052  1
  Sn  Sn19  1  0.331786  0.665894  0.821914  1
  Sn  Sn20  1  0.668214  0.334106  0.178086  1
  Sn  Sn21  1  0.000000  0.000000  0.500000  1
  Sn  Sn22  1  0.780371  0.219915  0.457660  1
  Sn  Sn23  1  0.219629  0.780085  0.542340  1
  Sn  Sn24  1  0.780371  0.560456  0.457660  1
  Sn  Sn25  1  0.219629  0.439544  0.542340  1
  Sn  Sn26  1  0.439795  0.219897  0.456691  1
  Sn  Sn27  1  0.560205  0.780103  0.543309  1
  Sn  Sn28  1  0.333460  0.666731  0.140029  1
  Sn  Sn29  1  0.666540  0.333269  0.859971  1
  Sn  Sn30  1  0.121607  0.879383  0.274037  1
  Sn  Sn31  1  0.878393  0.120617  0.725963  1
  Sn  Sn32  1  0.121607  0.242226  0.274037  1
  Sn  Sn33  1  0.878393  0.757774  0.725963  1
  Sn  Sn34  1  0.757062  0.878532  0.271390  1
  Sn  Sn35  1  0.242938  0.121468  0.728610  1
