# generated using pymatgen
data_Th6TcOsPd6
_symmetry_space_group_name_H-M   'P 1'
_cell_length_a   8.03017158
_cell_length_b   8.03017173
_cell_length_c   8.03017100
_cell_angle_alpha   113.78116325
_cell_angle_beta   113.78118091
_cell_angle_gamma   113.78117773
_symmetry_Int_Tables_number   1
_chemical_formula_structural   Th6TcOsPd6
_chemical_formula_sum   'Th6 Tc1 Os1 Pd6'
_cell_volume   319.63943683
_cell_formula_units_Z   1
loop_
 _symmetry_equiv_pos_site_id
 _symmetry_equiv_pos_as_xyz
  1  'x, y, z'
loop_
 _atom_site_type_symbol
 _atom_site_label
 _atom_site_symmetry_multiplicity
 _atom_site_fract_x
 _atom_site_fract_y
 _atom_site_fract_z
 _atom_site_occupancy
  Th  Th0  1  0.400122  0.043424  0.283061  1
  Th  Th1  1  0.043424  0.283061  0.400122  1
  Th  Th2  1  0.283061  0.400122  0.043424  1
  Th  Th3  1  0.599878  0.956576  0.716939  1
  Th  Th4  1  0.956576  0.716939  0.599878  1
  Th  Th5  1  0.716939  0.599878  0.956576  1
  Tc  Tc6  1  0.500000  0.500000  0.500000  1
  Os  Os7  1  0.000000  0.000000  0.000000  1
  Pd  Pd8  1  0.234955  0.073156  0.578490  1
  Pd  Pd9  1  0.073156  0.578490  0.234955  1
  Pd  Pd10  1  0.578490  0.234955  0.073156  1
  Pd  Pd11  1  0.765045  0.926844  0.421510  1
  Pd  Pd12  1  0.926844  0.421510  0.765045  1
  Pd  Pd13  1  0.421510  0.765045  0.926844  1
