# generated using pymatgen
data_Ba2Sb4PtRh
_symmetry_space_group_name_H-M   'P 1'
_cell_length_a   9.68337805
_cell_length_b   9.68337758
_cell_length_c   4.96606200
_cell_angle_alpha   90.00000000
_cell_angle_beta   90.00000000
_cell_angle_gamma   150.79632702
_symmetry_Int_Tables_number   1
_chemical_formula_structural   Ba2Sb4PtRh
_chemical_formula_sum   'Ba2 Sb4 Pt1 Rh1'
_cell_volume   227.20119463
_cell_formula_units_Z   1
loop_
 _symmetry_equiv_pos_site_id
 _symmetry_equiv_pos_as_xyz
  1  'x, y, z'
loop_
 _atom_site_type_symbol
 _atom_site_label
 _atom_site_symmetry_multiplicity
 _atom_site_fract_x
 _atom_site_fract_y
 _atom_site_fract_z
 _atom_site_occupancy
  Ba  Ba0  1  0.394029  0.605971  0.750000  1
  Ba  Ba1  1  0.607626  0.392374  0.250000  1
  Sb  Sb2  1  0.042954  0.957046  0.750000  1
  Sb  Sb3  1  0.952707  0.047293  0.250000  1
  Sb  Sb4  1  0.250502  0.749498  0.250000  1
  Sb  Sb5  1  0.754193  0.245807  0.750000  1
  Pt  Pt6  1  0.186223  0.813777  0.750000  1
  Rh  Rh7  1  0.811764  0.188236  0.250000  1
