# generated using pymatgen
data_Lu16In4Ir3Ru
_symmetry_space_group_name_H-M   'P 1'
_cell_length_a   9.49093626
_cell_length_b   9.49093658
_cell_length_c   9.49093543
_cell_angle_alpha   59.80113357
_cell_angle_beta   59.80113287
_cell_angle_gamma   59.80113098
_symmetry_Int_Tables_number   1
_chemical_formula_structural   Lu16In4Ir3Ru
_chemical_formula_sum   'Lu16 In4 Ir3 Ru1'
_cell_volume   601.79298032
_cell_formula_units_Z   1
loop_
 _symmetry_equiv_pos_site_id
 _symmetry_equiv_pos_as_xyz
  1  'x, y, z'
loop_
 _atom_site_type_symbol
 _atom_site_label
 _atom_site_symmetry_multiplicity
 _atom_site_fract_x
 _atom_site_fract_y
 _atom_site_fract_z
 _atom_site_occupancy
  Lu  Lu0  1  0.599764  0.599764  0.599764  1
  Lu  Lu1  1  0.598201  0.598201  0.205894  1
  Lu  Lu2  1  0.598201  0.205894  0.598201  1
  Lu  Lu3  1  0.205894  0.598201  0.598201  1
  Lu  Lu4  1  0.058147  0.441807  0.441807  1
  Lu  Lu5  1  0.441582  0.057020  0.057020  1
  Lu  Lu6  1  0.441807  0.058147  0.441807  1
  Lu  Lu7  1  0.057020  0.441582  0.057020  1
  Lu  Lu8  1  0.441807  0.441807  0.058147  1
  Lu  Lu9  1  0.057020  0.057020  0.441582  1
  Lu  Lu10  1  0.190762  0.808905  0.808905  1
  Lu  Lu11  1  0.808113  0.191132  0.191132  1
  Lu  Lu12  1  0.808905  0.190762  0.808905  1
  Lu  Lu13  1  0.191132  0.808113  0.191132  1
  Lu  Lu14  1  0.808905  0.808905  0.190762  1
  Lu  Lu15  1  0.191132  0.191132  0.808113  1
  In  In16  1  0.833616  0.833616  0.833616  1
  In  In17  1  0.834136  0.834136  0.499546  1
  In  In18  1  0.834136  0.499546  0.834136  1
  In  In19  1  0.499546  0.834136  0.834136  1
  Ir  Ir20  1  0.391415  0.391415  0.828303  1
  Ir  Ir21  1  0.391415  0.828303  0.391415  1
  Ir  Ir22  1  0.828303  0.391415  0.391415  1
  Ru  Ru23  1  0.389043  0.389043  0.389043  1
