# generated using pymatgen
data_Pr2SiGe(PIr2)2
_symmetry_space_group_name_H-M   'P 1'
_cell_length_a   4.28455100
_cell_length_b   4.28455100
_cell_length_c   9.63952000
_cell_angle_alpha   90.00000000
_cell_angle_beta   90.00000000
_cell_angle_gamma   90.00000000
_symmetry_Int_Tables_number   1
_chemical_formula_structural   Pr2SiGe(PIr2)2
_chemical_formula_sum   'Pr2 Si1 Ge1 P2 Ir4'
_cell_volume   176.95630536
_cell_formula_units_Z   1
loop_
 _symmetry_equiv_pos_site_id
 _symmetry_equiv_pos_as_xyz
  1  'x, y, z'
loop_
 _atom_site_type_symbol
 _atom_site_label
 _atom_site_symmetry_multiplicity
 _atom_site_fract_x
 _atom_site_fract_y
 _atom_site_fract_z
 _atom_site_occupancy
  Pr  Pr0  1  0.000000  0.500000  0.265087  1
  Pr  Pr1  1  0.500000  0.000000  0.736450  1
  Si  Si2  1  0.000000  0.500000  0.865433  1
  Ge  Ge3  1  0.500000  0.000000  0.134409  1
  P  P4  1  0.000000  0.000000  0.502928  1
  P  P5  1  0.500000  0.500000  0.502928  1
  Ir  Ir6  1  0.000000  0.500000  0.610347  1
  Ir  Ir7  1  0.500000  0.000000  0.396936  1
  Ir  Ir8  1  0.000000  0.000000  0.992740  1
  Ir  Ir9  1  0.500000  0.500000  0.992740  1
