# generated using pymatgen
data_Ca2InSn3Ir2
_symmetry_space_group_name_H-M   'P 1'
_cell_length_a   5.89915675
_cell_length_b   5.89915626
_cell_length_c   7.53138746
_cell_angle_alpha   89.64858723
_cell_angle_beta   90.35141604
_cell_angle_gamma   135.74692664
_symmetry_Int_Tables_number   1
_chemical_formula_structural   Ca2InSn3Ir2
_chemical_formula_sum   'Ca2 In1 Sn3 Ir2'
_cell_volume   182.89180586
_cell_formula_units_Z   1
loop_
 _symmetry_equiv_pos_site_id
 _symmetry_equiv_pos_as_xyz
  1  'x, y, z'
loop_
 _atom_site_type_symbol
 _atom_site_label
 _atom_site_symmetry_multiplicity
 _atom_site_fract_x
 _atom_site_fract_y
 _atom_site_fract_z
 _atom_site_occupancy
  Ca  Ca0  1  0.932138  0.067862  0.750659  1
  Ca  Ca1  1  0.068697  0.931303  0.250998  1
  In  In2  1  0.642346  0.357654  0.952523  1
  Sn  Sn3  1  0.644117  0.355883  0.551398  1
  Sn  Sn4  1  0.352967  0.647033  0.046730  1
  Sn  Sn5  1  0.356957  0.643043  0.449561  1
  Ir  Ir6  1  0.212980  0.787020  0.743420  1
  Ir  Ir7  1  0.789797  0.210203  0.254712  1
