# generated using pymatgen
data_Ho3Mg2CdAu3
_symmetry_space_group_name_H-M   'P 1'
_cell_length_a   7.73238036
_cell_length_b   7.73238029
_cell_length_c   3.92971700
_cell_angle_alpha   90.00000000
_cell_angle_beta   90.00000000
_cell_angle_gamma   119.63906630
_symmetry_Int_Tables_number   1
_chemical_formula_structural   Ho3Mg2CdAu3
_chemical_formula_sum   'Ho3 Mg2 Cd1 Au3'
_cell_volume   204.21441365
_cell_formula_units_Z   1
loop_
 _symmetry_equiv_pos_site_id
 _symmetry_equiv_pos_as_xyz
  1  'x, y, z'
loop_
 _atom_site_type_symbol
 _atom_site_label
 _atom_site_symmetry_multiplicity
 _atom_site_fract_x
 _atom_site_fract_y
 _atom_site_fract_z
 _atom_site_occupancy
  Ho  Ho0  1  0.593651  0.991658  0.000000  1
  Ho  Ho1  1  0.991658  0.593651  0.000000  1
  Ho  Ho2  1  0.415624  0.415624  0.000000  1
  Mg  Mg3  1  0.254995  0.001110  0.500000  1
  Mg  Mg4  1  0.001110  0.254995  0.500000  1
  Cd  Cd5  1  0.741195  0.741195  0.500000  1
  Au  Au6  1  0.320950  0.664162  0.500000  1
  Au  Au7  1  0.664162  0.320950  0.500000  1
  Au  Au8  1  0.016655  0.016655  0.000000  1
