# generated using pymatgen
data_Ho2TmTh(Al3Rh)6
_symmetry_space_group_name_H-M   'P 1'
_cell_length_a   7.57263400
_cell_length_b   7.59082847
_cell_length_c   9.46629300
_cell_angle_alpha   90.00000000
_cell_angle_beta   90.00000000
_cell_angle_gamma   119.35662384
_symmetry_Int_Tables_number   1
_chemical_formula_structural   Ho2TmTh(Al3Rh)6
_chemical_formula_sum   'Ho2 Tm1 Th1 Al18 Rh6'
_cell_volume   474.27030834
_cell_formula_units_Z   1
loop_
 _symmetry_equiv_pos_site_id
 _symmetry_equiv_pos_as_xyz
  1  'x, y, z'
loop_
 _atom_site_type_symbol
 _atom_site_label
 _atom_site_symmetry_multiplicity
 _atom_site_fract_x
 _atom_site_fract_y
 _atom_site_fract_z
 _atom_site_occupancy
  Ho  Ho0  1  0.004153  0.327518  0.750000  1
  Ho  Ho1  1  0.672508  0.994337  0.250000  1
  Tm  Tm2  1  0.327487  0.005255  0.750000  1
  Th  Th3  1  0.994320  0.671387  0.250000  1
  Al  Al4  1  0.131103  0.132832  0.250000  1
  Al  Al5  1  0.872575  0.875103  0.750000  1
  Al  Al6  1  0.001144  0.330981  0.072513  1
  Al  Al7  1  0.999854  0.664169  0.917012  1
  Al  Al8  1  0.999854  0.664169  0.582988  1
  Al  Al9  1  0.340543  0.005078  0.427538  1
  Al  Al10  1  0.001144  0.330981  0.427487  1
  Al  Al11  1  0.664116  0.001024  0.576979  1
  Al  Al12  1  0.664116  0.001024  0.923021  1
  Al  Al13  1  0.340543  0.005078  0.072462  1
  Al  Al14  1  0.331881  0.331898  0.555841  1
  Al  Al15  1  0.663267  0.666768  0.456500  1
  Al  Al16  1  0.663267  0.666768  0.043500  1
  Al  Al17  1  0.331881  0.331898  0.944159  1
  Al  Al18  1  0.344787  0.549178  0.250000  1
  Al  Al19  1  0.657827  0.447168  0.750000  1
  Al  Al20  1  0.545091  0.336051  0.250000  1
  Al  Al21  1  0.448232  0.661198  0.750000  1
  Rh  Rh22  1  0.672907  0.328865  0.999952  1
  Rh  Rh23  1  0.326780  0.671826  0.999973  1
  Rh  Rh24  1  0.326780  0.671826  0.500027  1
  Rh  Rh25  1  0.672907  0.328865  0.500048  1
  Rh  Rh26  1  0.000467  0.999378  0.999927  1
  Rh  Rh27  1  0.000467  0.999378  0.500073  1
