# generated using pymatgen
data_DyEr5Al18
_symmetry_space_group_name_H-M   'P 1'
_cell_length_a   14.52620736
_cell_length_b   14.52639953
_cell_length_c   14.52656323
_cell_angle_alpha   24.46388171
_cell_angle_beta   24.47740238
_cell_angle_gamma   24.46918181
_symmetry_Int_Tables_number   1
_chemical_formula_structural   DyEr5Al18
_chemical_formula_sum   'Dy1 Er5 Al18'
_cell_volume   462.39344668
_cell_formula_units_Z   1
loop_
 _symmetry_equiv_pos_site_id
 _symmetry_equiv_pos_as_xyz
  1  'x, y, z'
loop_
 _atom_site_type_symbol
 _atom_site_label
 _atom_site_symmetry_multiplicity
 _atom_site_fract_x
 _atom_site_fract_y
 _atom_site_fract_z
 _atom_site_occupancy
  Dy  Dy0  1  0.109126  0.109182  0.109143  1
  Er  Er1  1  0.891089  0.890954  0.891032  1
  Er  Er2  1  0.390681  0.390571  0.390638  1
  Er  Er3  1  0.999745  0.999742  0.999745  1
  Er  Er4  1  0.500166  0.500161  0.500165  1
  Er  Er5  1  0.609190  0.609318  0.609239  1
  Al  Al6  1  0.921903  0.372052  0.372038  1
  Al  Al7  1  0.422611  0.870658  0.870646  1
  Al  Al8  1  0.372037  0.372057  0.921902  1
  Al  Al9  1  0.870642  0.870662  0.422612  1
  Al  Al10  1  0.372039  0.921904  0.372052  1
  Al  Al11  1  0.870648  0.422613  0.870656  1
  Al  Al12  1  0.577871  0.128471  0.128477  1
  Al  Al13  1  0.077577  0.628634  0.628646  1
  Al  Al14  1  0.128478  0.128466  0.577876  1
  Al  Al15  1  0.628643  0.628630  0.077583  1
  Al  Al16  1  0.128473  0.577879  0.128466  1
  Al  Al17  1  0.628640  0.077584  0.628630  1
  Al  Al18  1  0.499316  0.499319  0.000657  1
  Al  Al19  1  0.000513  0.000515  0.500132  1
  Al  Al20  1  0.499315  0.000658  0.499317  1
  Al  Al21  1  0.000512  0.500132  0.000513  1
  Al  Al22  1  0.000655  0.499319  0.499317  1
  Al  Al23  1  0.500128  0.000516  0.000514  1
