# generated using pymatgen
data_HoLu7Sc12Si15B
_symmetry_space_group_name_H-M   'P 1'
_cell_length_a   6.96103238
_cell_length_b   7.31914164
_cell_length_c   13.80981261
_cell_angle_alpha   90.03060447
_cell_angle_beta   90.01519089
_cell_angle_gamma   89.35359317
_symmetry_Int_Tables_number   1
_chemical_formula_structural   HoLu7Sc12Si15B
_chemical_formula_sum   'Ho1 Lu7 Sc12 Si15 B1'
_cell_volume   703.54823049
_cell_formula_units_Z   1
loop_
 _symmetry_equiv_pos_site_id
 _symmetry_equiv_pos_as_xyz
  1  'x, y, z'
loop_
 _atom_site_type_symbol
 _atom_site_label
 _atom_site_symmetry_multiplicity
 _atom_site_fract_x
 _atom_site_fract_y
 _atom_site_fract_z
 _atom_site_occupancy
  Ho  Ho0  1  0.490191  0.677908  0.596853  1
  Lu  Lu1  1  0.009217  0.179528  0.095964  1
  Lu  Lu2  1  0.989460  0.828270  0.903732  1
  Lu  Lu3  1  0.490366  0.678910  0.902562  1
  Lu  Lu4  1  0.989442  0.828772  0.596910  1
  Lu  Lu5  1  0.510109  0.323896  0.094524  1
  Lu  Lu6  1  0.008714  0.179189  0.403617  1
  Lu  Lu7  1  0.510422  0.323862  0.404675  1
  Sc  Sc8  1  0.169867  0.512810  0.750417  1
  Sc  Sc9  1  0.836737  0.496667  0.249883  1
  Sc  Sc10  1  0.337006  0.005142  0.249734  1
  Sc  Sc11  1  0.674241  0.995697  0.750364  1
  Sc  Sc12  1  0.315264  0.174062  0.629701  1
  Sc  Sc13  1  0.668604  0.824157  0.375587  1
  Sc  Sc14  1  0.166458  0.678259  0.375500  1
  Sc  Sc15  1  0.668200  0.823316  0.124097  1
  Sc  Sc16  1  0.851406  0.308062  0.632562  1
  Sc  Sc17  1  0.315627  0.174382  0.870713  1
  Sc  Sc18  1  0.851585  0.308165  0.868341  1
  Sc  Sc19  1  0.166129  0.677764  0.124559  1
  Si  Si20  1  0.965362  0.887700  0.249858  1
  Si  Si21  1  0.466333  0.613820  0.249915  1
  Si  Si22  1  0.540292  0.381399  0.750494  1
  Si  Si23  1  0.268062  0.883053  0.750475  1
  Si  Si24  1  0.710825  0.132737  0.249627  1
  Si  Si25  1  0.213487  0.370274  0.249817  1
  Si  Si26  1  0.789700  0.625253  0.750904  1
  Si  Si27  1  0.160008  0.466624  0.539486  1
  Si  Si28  1  0.837924  0.533482  0.464836  1
  Si  Si29  1  0.336877  0.967154  0.462526  1
  Si  Si30  1  0.837051  0.533729  0.034715  1
  Si  Si31  1  0.657444  0.038646  0.540132  1
  Si  Si32  1  0.162768  0.467638  0.960377  1
  Si  Si33  1  0.656544  0.036726  0.959348  1
  Si  Si34  1  0.336726  0.965468  0.036915  1
  B  B35  1  0.041556  0.097478  0.750279  1
