# generated using pymatgen
data_KRb3Al4Co4(PO4)8
_symmetry_space_group_name_H-M   'P 1'
_cell_length_a   9.44275886
_cell_length_b   9.44275949
_cell_length_c   8.86254400
_cell_angle_alpha   82.58223010
_cell_angle_beta   82.58222960
_cell_angle_gamma   88.94198786
_symmetry_Int_Tables_number   1
_chemical_formula_structural   KRb3Al4Co4(PO4)8
_chemical_formula_sum   'K1 Rb3 Al4 Co4 P8 O32'
_cell_volume   777.06230967
_cell_formula_units_Z   1
loop_
 _symmetry_equiv_pos_site_id
 _symmetry_equiv_pos_as_xyz
  1  'x, y, z'
loop_
 _atom_site_type_symbol
 _atom_site_label
 _atom_site_symmetry_multiplicity
 _atom_site_fract_x
 _atom_site_fract_y
 _atom_site_fract_z
 _atom_site_occupancy
  K  K0  1  0.062522  0.587137  0.219472  1
  Rb  Rb1  1  0.915504  0.440677  0.782830  1
  Rb  Rb2  1  0.576977  0.060299  0.724421  1
  Rb  Rb3  1  0.442245  0.915206  0.282848  1
  Al  Al4  1  0.447687  0.699754  0.951910  1
  Al  Al5  1  0.188710  0.072418  0.612100  1
  Al  Al6  1  0.699286  0.446305  0.451380  1
  Al  Al7  1  0.074536  0.190693  0.113436  1
  Co  Co8  1  0.935887  0.805296  0.878992  1
  Co  Co9  1  0.295660  0.537905  0.555667  1
  Co  Co10  1  0.805604  0.934529  0.379242  1
  Co  Co11  1  0.538995  0.297828  0.055996  1
  P  P12  1  0.213218  0.938539  0.964272  1
  P  P13  1  0.278538  0.424569  0.919147  1
  P  P14  1  0.582902  0.699510  0.595280  1
  P  P15  1  0.066003  0.791320  0.516851  1
  P  P16  1  0.938910  0.213157  0.463907  1
  P  P17  1  0.421884  0.279464  0.416780  1
  P  P18  1  0.701985  0.583869  0.095369  1
  P  P19  1  0.793742  0.066042  0.018942  1
  O  O20  1  0.846442  0.647504  0.023229  1
  O  O21  1  0.837077  0.983268  0.881339  1
  O  O22  1  0.101598  0.821138  0.992530  1
  O  O23  1  0.323120  0.558538  0.991769  1
  O  O24  1  0.663123  0.153720  0.976622  1
  O  O25  1  0.402697  0.319191  0.905084  1
  O  O26  1  0.539677  0.712470  0.768031  1
  O  O27  1  0.969957  0.756383  0.670771  1
  O  O28  1  0.215061  0.028375  0.805264  1
  O  O29  1  0.220708  0.470888  0.767216  1
  O  O30  1  0.689963  0.570643  0.585837  1
  O  O31  1  0.647875  0.842401  0.520539  1
  O  O32  1  0.868403  0.363564  0.475315  1
  O  O33  1  0.453811  0.670046  0.516575  1
  O  O34  1  0.171937  0.916404  0.528193  1
  O  O35  1  0.042268  0.191123  0.588926  1
  O  O36  1  0.982634  0.834561  0.379742  1
  O  O37  1  0.821314  0.101956  0.489135  1
  O  O38  1  0.556316  0.323496  0.489011  1
  O  O39  1  0.152059  0.660205  0.472182  1
  O  O40  1  0.353541  0.151269  0.531546  1
  O  O41  1  0.317441  0.404229  0.402271  1
  O  O42  1  0.712540  0.540168  0.268399  1
  O  O43  1  0.758125  0.968149  0.171297  1
  O  O44  1  0.032339  0.215138  0.307035  1
  O  O45  1  0.468408  0.220707  0.265426  1
  O  O46  1  0.574184  0.692170  0.084021  1
  O  O47  1  0.363552  0.868084  0.976532  1
  O  O48  1  0.671793  0.455677  0.015493  1
  O  O49  1  0.918647  0.171657  0.030978  1
  O  O50  1  0.192856  0.044531  0.086548  1
  O  O51  1  0.149736  0.357829  0.034308  1
