# generated using pymatgen
data_Tb4Pd3Pt
_symmetry_space_group_name_H-M   'P 1'
_cell_length_a   4.58728700
_cell_length_b   5.63201228
_cell_length_c   7.04621106
_cell_angle_alpha   90.11201208
_cell_angle_beta   90.00000000
_cell_angle_gamma   90.00000000
_symmetry_Int_Tables_number   1
_chemical_formula_structural   Tb4Pd3Pt
_chemical_formula_sum   'Tb4 Pd3 Pt1'
_cell_volume   182.04314228
_cell_formula_units_Z   1
loop_
 _symmetry_equiv_pos_site_id
 _symmetry_equiv_pos_as_xyz
  1  'x, y, z'
loop_
 _atom_site_type_symbol
 _atom_site_label
 _atom_site_symmetry_multiplicity
 _atom_site_fract_x
 _atom_site_fract_y
 _atom_site_fract_z
 _atom_site_occupancy
  Tb  Tb0  1  0.250000  0.356324  0.686050  1
  Tb  Tb1  1  0.250000  0.144477  0.179161  1
  Tb  Tb2  1  0.750000  0.639892  0.317602  1
  Tb  Tb3  1  0.750000  0.859010  0.818040  1
  Pd  Pd4  1  0.250000  0.847407  0.542115  1
  Pd  Pd5  1  0.250000  0.655664  0.044235  1
  Pd  Pd6  1  0.750000  0.150957  0.456520  1
  Pt  Pt7  1  0.750000  0.346269  0.956276  1
