# generated using pymatgen
data_Ti4TcMoIr2
_symmetry_space_group_name_H-M   'P 1'
_cell_length_a   6.20530000
_cell_length_b   4.40879100
_cell_length_c   8.82267500
_cell_angle_alpha   90.00000000
_cell_angle_beta   90.00032855
_cell_angle_gamma   90.00000000
_symmetry_Int_Tables_number   1
_chemical_formula_structural   Ti4TcMoIr2
_chemical_formula_sum   'Ti8 Tc2 Mo2 Ir4'
_cell_volume   241.36960269
_cell_formula_units_Z   2
loop_
 _symmetry_equiv_pos_site_id
 _symmetry_equiv_pos_as_xyz
  1  'x, y, z'
loop_
 _atom_site_type_symbol
 _atom_site_label
 _atom_site_symmetry_multiplicity
 _atom_site_fract_x
 _atom_site_fract_y
 _atom_site_fract_z
 _atom_site_occupancy
  Ti  Ti0  1  0.000664  0.749999  0.124657  1
  Ti  Ti1  1  0.499389  0.749999  0.124667  1
  Ti  Ti2  1  0.999388  0.249999  0.375337  1
  Ti  Ti3  1  0.500682  0.249999  0.375342  1
  Ti  Ti4  1  0.500072  0.749999  0.625166  1
  Ti  Ti5  1  0.999856  0.749999  0.625177  1
  Ti  Ti6  1  0.499859  0.249999  0.874827  1
  Ti  Ti7  1  0.000093  0.249999  0.874830  1
  Tc  Tc8  1  0.749948  0.249999  0.625828  1
  Tc  Tc9  1  0.249987  0.749999  0.874174  1
  Mo  Mo10  1  0.749996  0.249999  0.124064  1
  Mo  Mo11  1  0.250061  0.749999  0.375932  1
  Ir  Ir12  1  0.250032  0.249999  0.124325  1
  Ir  Ir13  1  0.750039  0.749999  0.375680  1
  Ir  Ir14  1  0.249963  0.249999  0.625886  1
  Ir  Ir15  1  0.749969  0.749999  0.874109  1
