# generated using pymatgen
data_Sm3Dy5Re2(OsC4)2
_symmetry_space_group_name_H-M   'P 1'
_cell_length_a   5.18358100
_cell_length_b   6.57690299
_cell_length_c   9.88371124
_cell_angle_alpha   89.56161134
_cell_angle_beta   90.00000000
_cell_angle_gamma   90.00000000
_symmetry_Int_Tables_number   1
_chemical_formula_structural   Sm3Dy5Re2(OsC4)2
_chemical_formula_sum   'Sm3 Dy5 Re2 Os2 C8'
_cell_volume   336.94472484
_cell_formula_units_Z   1
loop_
 _symmetry_equiv_pos_site_id
 _symmetry_equiv_pos_as_xyz
  1  'x, y, z'
loop_
 _atom_site_type_symbol
 _atom_site_label
 _atom_site_symmetry_multiplicity
 _atom_site_fract_x
 _atom_site_fract_y
 _atom_site_fract_z
 _atom_site_occupancy
  Sm  Sm0  1  0.750000  0.469463  0.787110  1
  Sm  Sm1  1  0.750000  0.971263  0.711571  1
  Sm  Sm2  1  0.250000  0.028883  0.287898  1
  Dy  Dy3  1  0.250000  0.678596  0.554424  1
  Dy  Dy4  1  0.750000  0.322416  0.444805  1
  Dy  Dy5  1  0.750000  0.820179  0.055525  1
  Dy  Dy6  1  0.250000  0.178807  0.945144  1
  Dy  Dy7  1  0.250000  0.531173  0.214048  1
  Re  Re8  1  0.250000  0.723713  0.864089  1
  Re  Re9  1  0.750000  0.276637  0.136318  1
  Os  Os10  1  0.750000  0.774155  0.362830  1
  Os  Os11  1  0.250000  0.226159  0.636251  1
  C  C12  1  0.250000  0.458234  0.759597  1
  C  C13  1  0.750000  0.542420  0.239655  1
  C  C14  1  0.750000  0.041999  0.258406  1
  C  C15  1  0.250000  0.958640  0.741766  1
  C  C16  1  0.250000  0.820310  0.048743  1
  C  C17  1  0.750000  0.175490  0.953233  1
  C  C18  1  0.750000  0.674512  0.545921  1
  C  C19  1  0.250000  0.326952  0.452669  1
