# generated using pymatgen
data_Sm2YSi6(Pd7Pt3)2
_symmetry_space_group_name_H-M   'P 1'
_cell_length_a   8.74052284
_cell_length_b   8.76011117
_cell_length_c   8.76011100
_cell_angle_alpha   60.00000440
_cell_angle_beta   59.92584191
_cell_angle_gamma   59.92583864
_symmetry_Int_Tables_number   1
_chemical_formula_structural   Sm2YSi6(Pd7Pt3)2
_chemical_formula_sum   'Sm2 Y1 Si6 Pd14 Pt6'
_cell_volume   473.75513847
_cell_formula_units_Z   1
loop_
 _symmetry_equiv_pos_site_id
 _symmetry_equiv_pos_as_xyz
  1  'x, y, z'
loop_
 _atom_site_type_symbol
 _atom_site_label
 _atom_site_symmetry_multiplicity
 _atom_site_fract_x
 _atom_site_fract_y
 _atom_site_fract_z
 _atom_site_occupancy
  Sm  Sm0  1  0.251622  0.249459  0.249459  1
  Sm  Sm1  1  0.748378  0.750541  0.750541  1
  Y  Y2  1  0.000000  0.000000  0.000000  1
  Si  Si3  1  0.730972  0.267937  0.267937  1
  Si  Si4  1  0.269028  0.732063  0.732063  1
  Si  Si5  1  0.269028  0.732063  0.266847  1
  Si  Si6  1  0.730972  0.267937  0.733153  1
  Si  Si7  1  0.269028  0.266847  0.732063  1
  Si  Si8  1  0.730972  0.733153  0.267937  1
  Pd  Pd9  1  0.851802  0.382732  0.382732  1
  Pd  Pd10  1  0.148198  0.617268  0.617268  1
  Pd  Pd11  1  0.345283  0.999907  0.999907  1
  Pd  Pd12  1  0.654717  0.000093  0.000093  1
  Pd  Pd13  1  0.000000  0.345159  0.654841  1
  Pd  Pd14  1  0.000000  0.654841  0.345159  1
  Pd  Pd15  1  0.000000  0.345159  0.000000  1
  Pd  Pd16  1  0.654717  0.000093  0.345096  1
  Pd  Pd17  1  0.000000  0.654841  0.000000  1
  Pd  Pd18  1  0.345283  0.999907  0.654904  1
  Pd  Pd19  1  0.000000  0.000000  0.345159  1
  Pd  Pd20  1  0.000000  0.000000  0.654841  1
  Pd  Pd21  1  0.654717  0.345096  0.000093  1
  Pd  Pd22  1  0.345283  0.654904  0.999907  1
  Pt  Pt23  1  0.381904  0.386699  0.386699  1
  Pt  Pt24  1  0.618096  0.613301  0.613301  1
  Pt  Pt25  1  0.381904  0.386699  0.844697  1
  Pt  Pt26  1  0.381904  0.844697  0.386699  1
  Pt  Pt27  1  0.618096  0.613301  0.155303  1
  Pt  Pt28  1  0.618096  0.155303  0.613301  1
