# generated using pymatgen
data_Tb9Lu(InSb)4
_symmetry_space_group_name_H-M   'P 1'
_cell_length_a   8.82866212
_cell_length_b   8.82866111
_cell_length_c   8.11817588
_cell_angle_alpha   90.09394129
_cell_angle_beta   90.09394375
_cell_angle_gamma   125.16507562
_symmetry_Int_Tables_number   1
_chemical_formula_structural   Tb9Lu(InSb)4
_chemical_formula_sum   'Tb9 Lu1 In4 Sb4'
_cell_volume   517.28649421
_cell_formula_units_Z   1
loop_
 _symmetry_equiv_pos_site_id
 _symmetry_equiv_pos_as_xyz
  1  'x, y, z'
loop_
 _atom_site_type_symbol
 _atom_site_label
 _atom_site_symmetry_multiplicity
 _atom_site_fract_x
 _atom_site_fract_y
 _atom_site_fract_z
 _atom_site_occupancy
  Tb  Tb0  1  0.033088  0.308252  0.332230  1
  Tb  Tb1  1  0.966912  0.691748  0.667770  1
  Tb  Tb2  1  0.466109  0.190277  0.833054  1
  Tb  Tb3  1  0.809723  0.533891  0.166946  1
  Tb  Tb4  1  0.533891  0.809723  0.166946  1
  Tb  Tb5  1  0.190277  0.466109  0.833054  1
  Tb  Tb6  1  0.691748  0.966912  0.667770  1
  Tb  Tb7  1  0.308252  0.033088  0.332230  1
  Tb  Tb8  1  0.500000  0.500000  0.500000  1
  Lu  Lu9  1  0.000000  0.000000  0.000000  1
  In  In10  1  0.370332  0.370332  0.126721  1
  In  In11  1  0.629668  0.629668  0.873279  1
  In  In12  1  0.127127  0.127127  0.629214  1
  In  In13  1  0.872873  0.872873  0.370786  1
  Sb  Sb14  1  0.797968  0.202032  0.000000  1
  Sb  Sb15  1  0.202032  0.797968  0.000000  1
  Sb  Sb16  1  0.703444  0.296556  0.500000  1
  Sb  Sb17  1  0.296556  0.703444  0.500000  1
