# generated using pymatgen
data_Ca2Ce(BPt2)3
_symmetry_space_group_name_H-M   'P 1'
_cell_length_a   5.52995370
_cell_length_b   5.52994591
_cell_length_c   7.70895203
_cell_angle_alpha   89.99143042
_cell_angle_beta   90.00854011
_cell_angle_gamma   120.98115821
_symmetry_Int_Tables_number   1
_chemical_formula_structural   Ca2Ce(BPt2)3
_chemical_formula_sum   'Ca2 Ce1 B3 Pt6'
_cell_volume   202.11060045
_cell_formula_units_Z   1
loop_
 _symmetry_equiv_pos_site_id
 _symmetry_equiv_pos_as_xyz
  1  'x, y, z'
loop_
 _atom_site_type_symbol
 _atom_site_label
 _atom_site_symmetry_multiplicity
 _atom_site_fract_x
 _atom_site_fract_y
 _atom_site_fract_z
 _atom_site_occupancy
  Ca  Ca0  1  0.000009  0.500009  0.673131  1
  Ca  Ca1  1  0.500009  0.000009  0.993536  1
  Ce  Ce2  1  0.500013  0.500012  0.333332  1
  B  B3  1  0.000031  0.499991  0.159671  1
  B  B4  1  0.499955  0.499956  0.833335  1
  B  B5  1  0.499988  0.000028  0.506996  1
  Pt  Pt6  1  0.294551  0.152202  0.663912  1
  Pt  Pt7  1  0.152534  0.847416  0.333300  1
  Pt  Pt8  1  0.847833  0.705459  0.002701  1
  Pt  Pt9  1  0.847416  0.152531  0.333366  1
  Pt  Pt10  1  0.152204  0.294554  0.002755  1
  Pt  Pt11  1  0.705459  0.847833  0.663966  1
