# generated using pymatgen
data_Sr6TlIn(FeO6)2
_symmetry_space_group_name_H-M   'P 1'
_cell_length_a   6.85205819
_cell_length_b   6.85167254
_cell_length_c   6.85186635
_cell_angle_alpha   91.91877338
_cell_angle_beta   91.91695892
_cell_angle_gamma   91.91590925
_symmetry_Int_Tables_number   1
_chemical_formula_structural   Sr6TlIn(FeO6)2
_chemical_formula_sum   'Sr6 Tl1 In1 Fe2 O12'
_cell_volume   321.12923318
_cell_formula_units_Z   1
loop_
 _symmetry_equiv_pos_site_id
 _symmetry_equiv_pos_as_xyz
  1  'x, y, z'
loop_
 _atom_site_type_symbol
 _atom_site_label
 _atom_site_symmetry_multiplicity
 _atom_site_fract_x
 _atom_site_fract_y
 _atom_site_fract_z
 _atom_site_occupancy
  Sr  Sr0  1  0.615814  0.884152  0.250018  1
  Sr  Sr1  1  0.884193  0.250001  0.615816  1
  Sr  Sr2  1  0.249983  0.615854  0.884173  1
  Sr  Sr3  1  0.115030  0.749996  0.384955  1
  Sr  Sr4  1  0.750016  0.384919  0.115049  1
  Sr  Sr5  1  0.384969  0.115079  0.749985  1
  Tl  Tl6  1  0.250000  0.250014  0.249985  1
  In  In7  1  0.750014  0.749987  0.750001  1
  Fe  Fe8  1  0.502121  0.502120  0.502127  1
  Fe  Fe9  1  0.997865  0.997876  0.997875  1
  O  O10  1  0.549834  0.214656  0.415193  1
  O  O11  1  0.214678  0.415176  0.549799  1
  O  O12  1  0.415190  0.549815  0.214668  1
  O  O13  1  0.040469  0.908255  0.711162  1
  O  O14  1  0.908283  0.711131  0.040465  1
  O  O15  1  0.711151  0.040449  0.908282  1
  O  O16  1  0.459521  0.788859  0.591737  1
  O  O17  1  0.788838  0.591737  0.459541  1
  O  O18  1  0.591721  0.459535  0.788853  1
  O  O19  1  0.950186  0.084820  0.285327  1
  O  O20  1  0.084795  0.285354  0.950180  1
  O  O21  1  0.285327  0.950215  0.084810  1
