# generated using pymatgen
data_YThBRh6
_symmetry_space_group_name_H-M   'P 1'
_cell_length_a   5.88622888
_cell_length_b   5.88622807
_cell_length_c   5.88622900
_cell_angle_alpha   60.00000038
_cell_angle_beta   60.00000496
_cell_angle_gamma   59.99999873
_symmetry_Int_Tables_number   1
_chemical_formula_structural   YThBRh6
_chemical_formula_sum   'Y1 Th1 B1 Rh6'
_cell_volume   144.21033984
_cell_formula_units_Z   1
loop_
 _symmetry_equiv_pos_site_id
 _symmetry_equiv_pos_as_xyz
  1  'x, y, z'
loop_
 _atom_site_type_symbol
 _atom_site_label
 _atom_site_symmetry_multiplicity
 _atom_site_fract_x
 _atom_site_fract_y
 _atom_site_fract_z
 _atom_site_occupancy
  Y  Y0  1  0.750000  0.750000  0.750000  1
  Th  Th1  1  0.250000  0.250000  0.250000  1
  B  B2  1  0.000000  0.000000  0.000000  1
  Rh  Rh3  1  0.744073  0.255928  0.255928  1
  Rh  Rh4  1  0.255928  0.744073  0.255928  1
  Rh  Rh5  1  0.744072  0.744072  0.255929  1
  Rh  Rh6  1  0.255929  0.744072  0.744072  1
  Rh  Rh7  1  0.255928  0.255928  0.744073  1
  Rh  Rh8  1  0.744072  0.255929  0.744072  1
