# generated using pymatgen
data_NaAg3(NO3)8
_symmetry_space_group_name_H-M   'P 1'
_cell_length_a   7.89471371
_cell_length_b   7.89471371
_cell_length_c   7.89471371
_cell_angle_alpha   89.65276453
_cell_angle_beta   90.34723547
_cell_angle_gamma   89.65276453
_symmetry_Int_Tables_number   1
_chemical_formula_structural   NaAg3(NO3)8
_chemical_formula_sum   'Na1 Ag3 N8 O24'
_cell_volume   492.02269204
_cell_formula_units_Z   1
loop_
 _symmetry_equiv_pos_site_id
 _symmetry_equiv_pos_as_xyz
  1  'x, y, z'
loop_
 _atom_site_type_symbol
 _atom_site_label
 _atom_site_symmetry_multiplicity
 _atom_site_fract_x
 _atom_site_fract_y
 _atom_site_fract_z
 _atom_site_occupancy
  Na  Na0  1  0.000000  0.500001  0.500001  1
  Ag  Ag1  1  0.000000  0.000000  0.000000  1
  Ag  Ag2  1  0.500001  0.500001  0.000000  1
  Ag  Ag3  1  0.500001  0.000000  0.500001  1
  N  N4  1  0.824830  0.331715  0.162104  1
  N  N5  1  0.668131  0.831869  0.168131  1
  N  N6  1  0.337895  0.324829  0.331715  1
  N  N7  1  0.168284  0.837896  0.324829  1
  N  N8  1  0.831716  0.162104  0.675170  1
  N  N9  1  0.662104  0.675170  0.668284  1
  N  N10  1  0.331868  0.168131  0.831869  1
  N  N11  1  0.175170  0.668284  0.837896  1
  O  O12  1  0.722480  0.309846  0.039154  1
  O  O13  1  0.768856  0.810856  0.046562  1
  O  O14  1  0.948250  0.228123  0.179126  1
  O  O15  1  0.546562  0.731144  0.189146  1
  O  O16  1  0.320875  0.448251  0.228123  1
  O  O17  1  0.190155  0.960846  0.222480  1
  O  O18  1  0.807209  0.449614  0.263971  1
  O  O19  1  0.689145  0.953438  0.268855  1
  O  O20  1  0.460847  0.222480  0.309846  1
  O  O21  1  0.050387  0.736028  0.307208  1
  O  O22  1  0.236028  0.307208  0.449614  1
  O  O23  1  0.271876  0.820876  0.448251  1
  O  O24  1  0.728123  0.179126  0.551750  1
  O  O25  1  0.763972  0.692792  0.550387  1
  O  O26  1  0.949613  0.263971  0.692792  1
  O  O27  1  0.539154  0.777520  0.690154  1
  O  O28  1  0.310855  0.046562  0.731144  1
  O  O29  1  0.192793  0.550387  0.736028  1
  O  O30  1  0.809847  0.039154  0.777520  1
  O  O31  1  0.679125  0.551750  0.771877  1
  O  O32  1  0.453439  0.268855  0.810856  1
  O  O33  1  0.051750  0.771877  0.820876  1
  O  O34  1  0.231144  0.189146  0.953438  1
  O  O35  1  0.277519  0.690154  0.960846  1
