# generated using pymatgen
data_CaPrPaIr3
_symmetry_space_group_name_H-M   'P 1'
_cell_length_a   5.41923694
_cell_length_b   5.91171603
_cell_length_c   5.91171500
_cell_angle_alpha   60.00000015
_cell_angle_beta   56.94539681
_cell_angle_gamma   56.94539792
_symmetry_Int_Tables_number   1
_chemical_formula_structural   CaPrPaIr3
_chemical_formula_sum   'Ca1 Pr1 Pa1 Ir3'
_cell_volume   127.40110997
_cell_formula_units_Z   1
loop_
 _symmetry_equiv_pos_site_id
 _symmetry_equiv_pos_as_xyz
  1  'x, y, z'
loop_
 _atom_site_type_symbol
 _atom_site_label
 _atom_site_symmetry_multiplicity
 _atom_site_fract_x
 _atom_site_fract_y
 _atom_site_fract_z
 _atom_site_occupancy
  Ca  Ca0  1  0.507968  0.497344  0.497344  1
  Pr  Pr1  1  0.765981  0.744673  0.744673  1
  Pa  Pa2  1  0.619395  0.126868  0.126868  1
  Ir  Ir3  1  0.118885  0.127288  0.127288  1
  Ir  Ir4  1  0.118885  0.127288  0.626539  1
  Ir  Ir5  1  0.118885  0.626539  0.127288  1
