# generated using pymatgen
data_La6IrO12
_symmetry_space_group_name_H-M   'P 1'
_cell_length_a   6.83927020
_cell_length_b   6.83926988
_cell_length_c   6.83926934
_cell_angle_alpha   98.44824742
_cell_angle_beta   98.44824026
_cell_angle_gamma   98.44825170
_symmetry_Int_Tables_number   1
_chemical_formula_structural   La6IrO12
_chemical_formula_sum   'La6 Ir1 O12'
_cell_volume   308.32932917
_cell_formula_units_Z   1
loop_
 _symmetry_equiv_pos_site_id
 _symmetry_equiv_pos_as_xyz
  1  'x, y, z'
loop_
 _atom_site_type_symbol
 _atom_site_label
 _atom_site_symmetry_multiplicity
 _atom_site_fract_x
 _atom_site_fract_y
 _atom_site_fract_z
 _atom_site_occupancy
  La  La0  1  0.143240  0.305046  0.606723  1
  La  La1  1  0.393277  0.856760  0.694954  1
  La  La2  1  0.694954  0.393277  0.856760  1
  La  La3  1  0.305046  0.606723  0.143240  1
  La  La4  1  0.606723  0.143240  0.305046  1
  La  La5  1  0.856760  0.694954  0.393277  1
  Ir  Ir6  1  0.000000  0.000000  0.000000  1
  O  O7  1  0.067533  0.284859  0.968771  1
  O  O8  1  0.031229  0.932467  0.715141  1
  O  O9  1  0.405745  0.559664  0.822964  1
  O  O10  1  0.177036  0.594255  0.440336  1
  O  O11  1  0.715141  0.031229  0.932467  1
  O  O12  1  0.440336  0.177036  0.594255  1
  O  O13  1  0.559664  0.822964  0.405745  1
  O  O14  1  0.284859  0.968771  0.067533  1
  O  O15  1  0.822964  0.405745  0.559664  1
  O  O16  1  0.594255  0.440336  0.177036  1
  O  O17  1  0.968771  0.067533  0.284859  1
  O  O18  1  0.932467  0.715141  0.031229  1
