# generated using pymatgen
data_Tc3Pt4
_symmetry_space_group_name_H-M   'P 1'
_cell_length_a   7.43574602
_cell_length_b   7.43555043
_cell_length_c   4.42569400
_cell_angle_alpha   90.00000000
_cell_angle_beta   90.00000000
_cell_angle_gamma   59.99844284
_symmetry_Int_Tables_number   1
_chemical_formula_structural   Tc3Pt4
_chemical_formula_sum   'Tc6 Pt8'
_cell_volume   211.90581296
_cell_formula_units_Z   2
loop_
 _symmetry_equiv_pos_site_id
 _symmetry_equiv_pos_as_xyz
  1  'x, y, z'
loop_
 _atom_site_type_symbol
 _atom_site_label
 _atom_site_symmetry_multiplicity
 _atom_site_fract_x
 _atom_site_fract_y
 _atom_site_fract_z
 _atom_site_occupancy
  Tc  Tc0  1  0.702064  0.441541  0.000000  1
  Tc  Tc1  1  0.298673  0.570650  0.000000  1
  Tc  Tc2  1  0.427804  0.844966  0.000000  1
  Tc  Tc3  1  0.524568  0.393137  0.499999  1
  Tc  Tc4  1  0.653690  0.667443  0.499999  1
  Tc  Tc5  1  0.250297  0.796544  0.499999  1
  Pt  Pt6  1  0.009426  0.991667  0.000000  1
  Pt  Pt7  1  0.570315  0.152266  0.000000  1
  Pt  Pt8  1  0.142857  0.285686  0.000000  1
  Pt  Pt9  1  0.848805  0.713190  0.000000  1
  Pt  Pt10  1  0.382035  0.085805  0.499999  1
  Pt  Pt11  1  0.942945  0.246412  0.499999  1
  Pt  Pt12  1  0.103555  0.524888  0.499999  1
  Pt  Pt13  1  0.809534  0.952367  0.499999  1
