# generated using pymatgen
data_PrEr2Al7Cu2
_symmetry_space_group_name_H-M   'P 1'
_cell_length_a   9.10984414
_cell_length_b   9.10984547
_cell_length_c   9.10984419
_cell_angle_alpha   35.20074430
_cell_angle_beta   35.20074269
_cell_angle_gamma   35.20073928
_symmetry_Int_Tables_number   1
_chemical_formula_structural   PrEr2Al7Cu2
_chemical_formula_sum   'Pr1 Er2 Al7 Cu2'
_cell_volume   224.38212872
_cell_formula_units_Z   1
loop_
 _symmetry_equiv_pos_site_id
 _symmetry_equiv_pos_as_xyz
  1  'x, y, z'
loop_
 _atom_site_type_symbol
 _atom_site_label
 _atom_site_symmetry_multiplicity
 _atom_site_fract_x
 _atom_site_fract_y
 _atom_site_fract_z
 _atom_site_occupancy
  Pr  Pr0  1  0.000000  0.000000  0.000000  1
  Er  Er1  1  0.857580  0.857580  0.857580  1
  Er  Er2  1  0.142420  0.142420  0.142420  1
  Al  Al3  1  0.416824  0.416824  0.926513  1
  Al  Al4  1  0.926513  0.416824  0.416824  1
  Al  Al5  1  0.416824  0.926513  0.416824  1
  Al  Al6  1  0.500000  0.500000  0.500000  1
  Al  Al7  1  0.583176  0.073487  0.583176  1
  Al  Al8  1  0.073487  0.583176  0.583176  1
  Al  Al9  1  0.583176  0.583176  0.073487  1
  Cu  Cu10  1  0.664730  0.664730  0.664730  1
  Cu  Cu11  1  0.335270  0.335270  0.335270  1
