# generated using pymatgen
data_Tb4Tm3Lu3Si8
_symmetry_space_group_name_H-M   'P 1'
_cell_length_a   7.33965100
_cell_length_b   7.61735909
_cell_length_c   14.43163317
_cell_angle_alpha   89.98231333
_cell_angle_beta   90.00000000
_cell_angle_gamma   90.00000000
_symmetry_Int_Tables_number   1
_chemical_formula_structural   Tb4Tm3Lu3Si8
_chemical_formula_sum   'Tb8 Tm6 Lu6 Si16'
_cell_volume   806.85463754
_cell_formula_units_Z   2
loop_
 _symmetry_equiv_pos_site_id
 _symmetry_equiv_pos_as_xyz
  1  'x, y, z'
loop_
 _atom_site_type_symbol
 _atom_site_label
 _atom_site_symmetry_multiplicity
 _atom_site_fract_x
 _atom_site_fract_y
 _atom_site_fract_z
 _atom_site_occupancy
  Tb  Tb0  1  0.524426  0.680156  0.597953  1
  Tb  Tb1  1  0.024426  0.819844  0.902047  1
  Tb  Tb2  1  0.475564  0.319831  0.097843  1
  Tb  Tb3  1  0.975564  0.180169  0.402157  1
  Tb  Tb4  1  0.475434  0.319866  0.402147  1
  Tb  Tb5  1  0.975434  0.180134  0.097853  1
  Tb  Tb6  1  0.524474  0.680085  0.902059  1
  Tb  Tb7  1  0.024474  0.819915  0.597941  1
  Tm  Tm8  1  0.679326  0.179039  0.623456  1
  Tm  Tm9  1  0.179326  0.320961  0.876544  1
  Tm  Tm10  1  0.320695  0.821023  0.123309  1
  Tm  Tm11  1  0.820695  0.678977  0.376691  1
  Tm  Tm12  1  0.320699  0.821019  0.376662  1
  Tm  Tm13  1  0.820699  0.678981  0.123338  1
  Lu  Lu14  1  0.679294  0.178975  0.876518  1
  Lu  Lu15  1  0.179294  0.321025  0.623482  1
  Lu  Lu16  1  0.849455  0.510396  0.750014  1
  Lu  Lu17  1  0.349455  0.989604  0.749986  1
  Lu  Lu18  1  0.150608  0.489384  0.250014  1
  Lu  Lu19  1  0.650608  0.010616  0.249986  1
  Si  Si20  1  0.648793  0.970469  0.459599  1
  Si  Si21  1  0.148793  0.529531  0.040401  1
  Si  Si22  1  0.351574  0.029793  0.959471  1
  Si  Si23  1  0.851574  0.470207  0.540529  1
  Si  Si24  1  0.350848  0.029926  0.540540  1
  Si  Si25  1  0.850848  0.470074  0.959460  1
  Si  Si26  1  0.648943  0.970698  0.040192  1
  Si  Si27  1  0.148943  0.529302  0.459808  1
  Si  Si28  1  0.477095  0.391716  0.750011  1
  Si  Si29  1  0.977095  0.108284  0.749989  1
  Si  Si30  1  0.522889  0.607890  0.249985  1
  Si  Si31  1  0.022889  0.892110  0.250015  1
  Si  Si32  1  0.729185  0.873306  0.750108  1
  Si  Si33  1  0.229185  0.626694  0.749892  1
  Si  Si34  1  0.270700  0.126857  0.250007  1
  Si  Si35  1  0.770700  0.373143  0.249993  1
