# generated using pymatgen
data_K4CaMnCr2F14
_symmetry_space_group_name_H-M   'P 1'
_cell_length_a   7.94250348
_cell_length_b   7.94250325
_cell_length_c   7.90264031
_cell_angle_alpha   120.63478059
_cell_angle_beta   117.35783087
_cell_angle_gamma   92.04898746
_symmetry_Int_Tables_number   1
_chemical_formula_structural   K4CaMnCr2F14
_chemical_formula_sum   'K4 Ca1 Mn1 Cr2 F14'
_cell_volume   356.41537601
_cell_formula_units_Z   1
loop_
 _symmetry_equiv_pos_site_id
 _symmetry_equiv_pos_as_xyz
  1  'x, y, z'
loop_
 _atom_site_type_symbol
 _atom_site_label
 _atom_site_symmetry_multiplicity
 _atom_site_fract_x
 _atom_site_fract_y
 _atom_site_fract_z
 _atom_site_occupancy
  K  K0  1  0.500000  0.500000  0.000000  1
  K  K1  1  0.000000  0.000000  0.000000  1
  K  K2  1  0.000000  0.500000  0.000000  1
  K  K3  1  0.000000  0.000000  0.500000  1
  Ca  Ca4  1  0.500000  0.500000  0.500000  1
  Mn  Mn5  1  0.500000  0.000000  0.000000  1
  Cr  Cr6  1  0.000000  0.500000  0.500000  1
  Cr  Cr7  1  0.500000  0.000000  0.500000  1
  F  F8  1  0.875389  0.584844  0.292377  1
  F  F9  1  0.207534  0.916988  0.292377  1
  F  F10  1  0.185210  0.792405  0.751372  1
  F  F11  1  0.454908  0.707216  0.379771  1
  F  F12  1  0.458966  0.066162  0.751372  1
  F  F13  1  0.172555  0.424863  0.379771  1
  F  F14  1  0.827445  0.575137  0.620229  1
  F  F15  1  0.541034  0.933838  0.248628  1
  F  F16  1  0.545092  0.292784  0.620229  1
  F  F17  1  0.814790  0.207595  0.248628  1
  F  F18  1  0.383575  0.238264  0.121839  1
  F  F19  1  0.124611  0.415156  0.707623  1
  F  F20  1  0.792466  0.083012  0.707623  1
  F  F21  1  0.616425  0.761736  0.878161  1
