# generated using pymatgen
data_Y15HoIn4OsRh3
_symmetry_space_group_name_H-M   'P 1'
_cell_length_a   9.69782728
_cell_length_b   9.73234720
_cell_length_c   9.69782689
_cell_angle_alpha   59.94043062
_cell_angle_beta   59.79959128
_cell_angle_gamma   59.94043443
_symmetry_Int_Tables_number   1
_chemical_formula_structural   Y15HoIn4OsRh3
_chemical_formula_sum   'Y15 Ho1 In4 Os1 Rh3'
_cell_volume   645.65265898
_cell_formula_units_Z   1
loop_
 _symmetry_equiv_pos_site_id
 _symmetry_equiv_pos_as_xyz
  1  'x, y, z'
loop_
 _atom_site_type_symbol
 _atom_site_label
 _atom_site_symmetry_multiplicity
 _atom_site_fract_x
 _atom_site_fract_y
 _atom_site_fract_z
 _atom_site_occupancy
  Y  Y0  1  0.188199  0.189487  0.811429  1
  Y  Y1  1  0.600659  0.601113  0.200962  1
  Y  Y2  1  0.440895  0.056233  0.440895  1
  Y  Y3  1  0.440168  0.441550  0.057761  1
  Y  Y4  1  0.811768  0.189090  0.811768  1
  Y  Y5  1  0.191288  0.812794  0.191288  1
  Y  Y6  1  0.439037  0.057019  0.061350  1
  Y  Y7  1  0.190721  0.813088  0.805860  1
  Y  Y8  1  0.058913  0.439912  0.058913  1
  Y  Y9  1  0.805860  0.813088  0.190721  1
  Y  Y10  1  0.200962  0.601113  0.600659  1
  Y  Y11  1  0.057761  0.441550  0.440168  1
  Y  Y12  1  0.061350  0.057019  0.439037  1
  Y  Y13  1  0.811429  0.189487  0.188199  1
  Y  Y14  1  0.601210  0.199408  0.601210  1
  Ho  Ho15  1  0.597558  0.598492  0.597558  1
  In  In16  1  0.833060  0.833542  0.833060  1
  In  In17  1  0.832820  0.833317  0.500662  1
  In  In18  1  0.500662  0.833317  0.832820  1
  In  In19  1  0.832363  0.501645  0.832363  1
  Os  Os20  1  0.393205  0.823826  0.393205  1
  Rh  Rh21  1  0.392106  0.390242  0.392106  1
  Rh  Rh22  1  0.824887  0.391834  0.393119  1
  Rh  Rh23  1  0.393119  0.391834  0.824887  1
