# generated using pymatgen
data_DyCoSi3Rh4
_symmetry_space_group_name_H-M   'P 1'
_cell_length_a   3.85143400
_cell_length_b   10.93426000
_cell_length_c   12.52465900
_cell_angle_alpha   90.00000000
_cell_angle_beta   90.00000000
_cell_angle_gamma   90.00000000
_symmetry_Int_Tables_number   1
_chemical_formula_structural   DyCoSi3Rh4
_chemical_formula_sum   'Dy4 Co4 Si12 Rh16'
_cell_volume   527.44571324
_cell_formula_units_Z   4
loop_
 _symmetry_equiv_pos_site_id
 _symmetry_equiv_pos_as_xyz
  1  'x, y, z'
loop_
 _atom_site_type_symbol
 _atom_site_label
 _atom_site_symmetry_multiplicity
 _atom_site_fract_x
 _atom_site_fract_y
 _atom_site_fract_z
 _atom_site_occupancy
  Dy  Dy0  1  0.250000  0.585470  0.707921  1
  Dy  Dy1  1  0.250000  0.914530  0.207921  1
  Dy  Dy2  1  0.750000  0.414530  0.292079  1
  Dy  Dy3  1  0.750000  0.085470  0.792079  1
  Co  Co4  1  0.250000  0.470195  0.932487  1
  Co  Co5  1  0.250000  0.029805  0.432487  1
  Co  Co6  1  0.750000  0.529805  0.067513  1
  Co  Co7  1  0.750000  0.970195  0.567513  1
  Si  Si8  1  0.250000  0.420068  0.104366  1
  Si  Si9  1  0.250000  0.079932  0.604366  1
  Si  Si10  1  0.750000  0.579932  0.895634  1
  Si  Si11  1  0.750000  0.920068  0.395634  1
  Si  Si12  1  0.250000  0.275944  0.874268  1
  Si  Si13  1  0.250000  0.224056  0.374268  1
  Si  Si14  1  0.750000  0.724056  0.125732  1
  Si  Si15  1  0.750000  0.775944  0.625732  1
  Si  Si16  1  0.250000  0.602873  0.392463  1
  Si  Si17  1  0.250000  0.897127  0.892463  1
  Si  Si18  1  0.750000  0.397127  0.607537  1
  Si  Si19  1  0.750000  0.102873  0.107537  1
  Rh  Rh20  1  0.250000  0.707015  0.988509  1
  Rh  Rh21  1  0.250000  0.792985  0.488509  1
  Rh  Rh22  1  0.750000  0.292985  0.011491  1
  Rh  Rh23  1  0.750000  0.207015  0.511491  1
  Rh  Rh24  1  0.250000  0.405745  0.485664  1
  Rh  Rh25  1  0.250000  0.094255  0.985664  1
  Rh  Rh26  1  0.750000  0.594255  0.514336  1
  Rh  Rh27  1  0.750000  0.905745  0.014336  1
  Rh  Rh28  1  0.250000  0.224466  0.178666  1
  Rh  Rh29  1  0.250000  0.275534  0.678666  1
  Rh  Rh30  1  0.750000  0.775534  0.821334  1
  Rh  Rh31  1  0.750000  0.724466  0.321334  1
  Rh  Rh32  1  0.250000  0.889607  0.699524  1
  Rh  Rh33  1  0.250000  0.610393  0.199524  1
  Rh  Rh34  1  0.750000  0.110393  0.300476  1
  Rh  Rh35  1  0.750000  0.389607  0.800476  1
