# generated using pymatgen
data_Cs3HoV2O8
_symmetry_space_group_name_H-M   'P 1'
_cell_length_a   6.15025700
_cell_length_b   6.15025606
_cell_length_c   8.43442500
_cell_angle_alpha   90.00000000
_cell_angle_beta   90.00000000
_cell_angle_gamma   119.99999970
_symmetry_Int_Tables_number   1
_chemical_formula_structural   Cs3HoV2O8
_chemical_formula_sum   'Cs3 Ho1 V2 O8'
_cell_volume   276.29471326
_cell_formula_units_Z   1
loop_
 _symmetry_equiv_pos_site_id
 _symmetry_equiv_pos_as_xyz
  1  'x, y, z'
loop_
 _atom_site_type_symbol
 _atom_site_label
 _atom_site_symmetry_multiplicity
 _atom_site_fract_x
 _atom_site_fract_y
 _atom_site_fract_z
 _atom_site_occupancy
  Cs  Cs0  1  0.333333  0.666667  0.726905  1
  Cs  Cs1  1  0.666667  0.333333  0.273095  1
  Cs  Cs2  1  0.000000  0.000000  0.000000  1
  Ho  Ho3  1  0.000000  0.000000  0.500000  1
  V  V4  1  0.333333  0.666667  0.279258  1
  V  V5  1  0.666667  0.333333  0.720742  1
  O  O6  1  0.333333  0.666667  0.078491  1
  O  O7  1  0.666667  0.333333  0.921509  1
  O  O8  1  0.175358  0.824642  0.345292  1
  O  O9  1  0.824642  0.175358  0.654708  1
  O  O10  1  0.175358  0.350716  0.345292  1
  O  O11  1  0.824642  0.649284  0.654708  1
  O  O12  1  0.649284  0.824642  0.345292  1
  O  O13  1  0.350716  0.175358  0.654708  1
