# generated using pymatgen
data_Tb3YFe4(CoO5)4
_symmetry_space_group_name_H-M   'P 1'
_cell_length_a   5.76764100
_cell_length_b   7.32270701
_cell_length_c   8.52757801
_cell_angle_alpha   90.00657067
_cell_angle_beta   90.00000000
_cell_angle_gamma   90.00000000
_symmetry_Int_Tables_number   1
_chemical_formula_structural   Tb3YFe4(CoO5)4
_chemical_formula_sum   'Tb3 Y1 Fe4 Co4 O20'
_cell_volume   360.16008217
_cell_formula_units_Z   1
loop_
 _symmetry_equiv_pos_site_id
 _symmetry_equiv_pos_as_xyz
  1  'x, y, z'
loop_
 _atom_site_type_symbol
 _atom_site_label
 _atom_site_symmetry_multiplicity
 _atom_site_fract_x
 _atom_site_fract_y
 _atom_site_fract_z
 _atom_site_occupancy
  Tb  Tb0  1  0.500000  0.365448  0.329804  1
  Tb  Tb1  1  0.500000  0.634624  0.670090  1
  Tb  Tb2  1  0.500000  0.134332  0.830086  1
  Y  Y3  1  0.500000  0.864874  0.170106  1
  Fe  Fe4  1  0.000000  0.110320  0.146602  1
  Fe  Fe5  1  0.000000  0.889498  0.853508  1
  Fe  Fe6  1  0.000000  0.389468  0.646519  1
  Fe  Fe7  1  0.000000  0.610737  0.353279  1
  Co  Co8  1  0.250080  0.000012  0.499898  1
  Co  Co9  1  0.749920  0.000012  0.499898  1
  Co  Co10  1  0.749963  0.500094  0.000029  1
  Co  Co11  1  0.250037  0.500094  0.000029  1
  O  O12  1  0.233369  0.999739  0.000314  1
  O  O13  1  0.766631  0.999739  0.000314  1
  O  O14  1  0.767025  0.500019  0.499949  1
  O  O15  1  0.232975  0.500019  0.499949  1
  O  O16  1  0.000000  0.353478  0.068229  1
  O  O17  1  0.000000  0.646573  0.931855  1
  O  O18  1  0.000000  0.146654  0.568063  1
  O  O19  1  0.000000  0.853557  0.432098  1
  O  O20  1  0.258579  0.104229  0.297700  1
  O  O21  1  0.741520  0.895462  0.702175  1
  O  O22  1  0.258480  0.895462  0.702175  1
  O  O23  1  0.741506  0.395497  0.797898  1
  O  O24  1  0.741421  0.104229  0.297700  1
  O  O25  1  0.258588  0.605135  0.202161  1
  O  O26  1  0.741412  0.605135  0.202161  1
  O  O27  1  0.258494  0.395497  0.797898  1
  O  O28  1  0.500000  0.342683  0.055483  1
  O  O29  1  0.500000  0.657504  0.944726  1
  O  O30  1  0.500000  0.157302  0.555333  1
  O  O31  1  0.500000  0.842574  0.443975  1
