# generated using pymatgen
data_Zr8Fe2Co6Si13Ge
_symmetry_space_group_name_H-M   'P 1'
_cell_length_a   9.52163570
_cell_length_b   9.52150732
_cell_length_c   9.50124818
_cell_angle_alpha   94.13817032
_cell_angle_beta   94.13942799
_cell_angle_gamma   148.86656651
_symmetry_Int_Tables_number   1
_chemical_formula_structural   Zr8Fe2Co6Si13Ge
_chemical_formula_sum   'Zr8 Fe2 Co6 Si13 Ge1'
_cell_volume   428.95638019
_cell_formula_units_Z   1
loop_
 _symmetry_equiv_pos_site_id
 _symmetry_equiv_pos_as_xyz
  1  'x, y, z'
loop_
 _atom_site_type_symbol
 _atom_site_label
 _atom_site_symmetry_multiplicity
 _atom_site_fract_x
 _atom_site_fract_y
 _atom_site_fract_z
 _atom_site_occupancy
  Zr  Zr0  1  0.695371  0.498014  0.197209  1
  Zr  Zr1  1  0.498524  0.696735  0.198861  1
  Zr  Zr2  1  0.498150  0.300817  0.802802  1
  Zr  Zr3  1  0.299671  0.497878  0.801128  1
  Zr  Zr4  1  0.862665  0.862449  0.722408  1
  Zr  Zr5  1  0.139922  0.863177  0.000013  1
  Zr  Zr6  1  0.862952  0.140307  0.999989  1
  Zr  Zr7  1  0.140295  0.140073  0.277604  1
  Fe  Fe8  1  0.897981  0.102802  0.500628  1
  Fe  Fe9  1  0.397343  0.602174  0.499369  1
  Co  Co10  1  0.102779  0.897786  0.500448  1
  Co  Co11  1  0.897976  0.397250  0.794349  1
  Co  Co12  1  0.602257  0.102417  0.205661  1
  Co  Co13  1  0.103627  0.602910  0.205652  1
  Co  Co14  1  0.602331  0.397342  0.499544  1
  Co  Co15  1  0.396596  0.896753  0.794327  1
  Si  Si16  1  0.250218  0.250312  0.999994  1
  Si  Si17  1  0.091556  0.498874  0.588531  1
  Si  Si18  1  0.500469  0.092987  0.591688  1
  Si  Si19  1  0.503049  0.910352  0.411478  1
  Si  Si20  1  0.908789  0.501299  0.408324  1
  Si  Si21  1  0.696148  0.998193  0.696970  1
  Si  Si22  1  0.998712  0.696053  0.697432  1
  Si  Si23  1  0.711409  0.711984  0.421851  1
  Si  Si24  1  0.290098  0.711564  0.999989  1
  Si  Si25  1  0.301298  0.998640  0.302585  1
  Si  Si26  1  0.711711  0.290012  0.999987  1
  Si  Si27  1  0.289604  0.290162  0.578171  1
  Si  Si28  1  0.999180  0.301229  0.303004  1
  Ge  Ge29  1  0.749317  0.749459  0.000005  1
