# generated using pymatgen
data_Ho2Al5Ga4Ir3
_symmetry_space_group_name_H-M   'P 1'
_cell_length_a   7.53383840
_cell_length_b   7.53207669
_cell_length_c   9.54600376
_cell_angle_alpha   90.11139790
_cell_angle_beta   89.85018842
_cell_angle_gamma   119.68132135
_symmetry_Int_Tables_number   1
_chemical_formula_structural   Ho2Al5Ga4Ir3
_chemical_formula_sum   'Ho4 Al10 Ga8 Ir6'
_cell_volume   470.61670248
_cell_formula_units_Z   2
loop_
 _symmetry_equiv_pos_site_id
 _symmetry_equiv_pos_as_xyz
  1  'x, y, z'
loop_
 _atom_site_type_symbol
 _atom_site_label
 _atom_site_symmetry_multiplicity
 _atom_site_fract_x
 _atom_site_fract_y
 _atom_site_fract_z
 _atom_site_occupancy
  Ho  Ho0  1  0.996413  0.666851  0.245761  1
  Ho  Ho1  1  0.003587  0.333149  0.754239  1
  Ho  Ho2  1  0.672332  0.998621  0.249129  1
  Ho  Ho3  1  0.327668  0.001379  0.750871  1
  Al  Al4  1  0.997686  0.665319  0.570843  1
  Al  Al5  1  0.334392  0.000631  0.427558  1
  Al  Al6  1  0.002314  0.334681  0.429157  1
  Al  Al7  1  0.665608  0.999369  0.572442  1
  Al  Al8  1  0.664156  0.997137  0.926651  1
  Al  Al9  1  0.335844  0.002863  0.073349  1
  Al  Al10  1  0.333530  0.333477  0.556447  1
  Al  Al11  1  0.666470  0.666523  0.443553  1
  Al  Al12  1  0.666837  0.666261  0.054872  1
  Al  Al13  1  0.333163  0.333739  0.945128  1
  Ga  Ga14  1  0.129615  0.126340  0.250579  1
  Ga  Ga15  1  0.870385  0.873660  0.749421  1
  Ga  Ga16  1  0.999634  0.333539  0.079610  1
  Ga  Ga17  1  0.000366  0.666461  0.920390  1
  Ga  Ga18  1  0.340758  0.548652  0.250803  1
  Ga  Ga19  1  0.659242  0.451348  0.749197  1
  Ga  Ga20  1  0.546488  0.339259  0.250014  1
  Ga  Ga21  1  0.453512  0.660741  0.749986  1
  Ir  Ir22  1  0.667333  0.325853  0.999145  1
  Ir  Ir23  1  0.332667  0.674147  0.000855  1
  Ir  Ir24  1  0.327909  0.671786  0.500815  1
  Ir  Ir25  1  0.672091  0.328214  0.499185  1
  Ir  Ir26  1  0.000000  0.000000  0.000000  1
  Ir  Ir27  1  0.000000  0.000000  0.500000  1
