# generated using pymatgen
data_Dy3ErPa(FeB3)2
_symmetry_space_group_name_H-M   'P 1'
_cell_length_a   5.42554491
_cell_length_b   5.42554450
_cell_length_c   7.92445675
_cell_angle_alpha   69.98116198
_cell_angle_beta   69.98116035
_cell_angle_gamma   59.99997802
_symmetry_Int_Tables_number   1
_chemical_formula_structural   Dy3ErPa(FeB3)2
_chemical_formula_sum   'Dy3 Er1 Pa1 Fe2 B6'
_cell_volume   185.56370829
_cell_formula_units_Z   1
loop_
 _symmetry_equiv_pos_site_id
 _symmetry_equiv_pos_as_xyz
  1  'x, y, z'
loop_
 _atom_site_type_symbol
 _atom_site_label
 _atom_site_symmetry_multiplicity
 _atom_site_fract_x
 _atom_site_fract_y
 _atom_site_fract_z
 _atom_site_occupancy
  Dy  Dy0  1  0.745731  0.745731  0.762806  1
  Dy  Dy1  1  0.412467  0.412467  0.762598  1
  Dy  Dy2  1  0.587479  0.587479  0.237563  1
  Er  Er3  1  0.253648  0.253648  0.239057  1
  Pa  Pa4  1  0.999529  0.999529  0.001414  1
  Fe  Fe5  1  0.108320  0.108320  0.675042  1
  Fe  Fe6  1  0.891744  0.891744  0.324766  1
  B  B7  1  0.167356  0.833286  0.499459  1
  B  B8  1  0.833286  0.499899  0.499459  1
  B  B9  1  0.499899  0.167356  0.499459  1
  B  B10  1  0.167356  0.499899  0.499459  1
  B  B11  1  0.499899  0.833286  0.499459  1
  B  B12  1  0.833286  0.167356  0.499459  1
