# generated using pymatgen
data_Dy4Er5TmRu4
_symmetry_space_group_name_H-M   'P 1'
_cell_length_a   6.30648722
_cell_length_b   7.24936581
_cell_length_c   8.41194316
_cell_angle_alpha   96.74563991
_cell_angle_beta   112.01523915
_cell_angle_gamma   89.99999893
_symmetry_Int_Tables_number   1
_chemical_formula_structural   Dy4Er5TmRu4
_chemical_formula_sum   'Dy4 Er5 Tm1 Ru4'
_cell_volume   353.66240829
_cell_formula_units_Z   1
loop_
 _symmetry_equiv_pos_site_id
 _symmetry_equiv_pos_as_xyz
  1  'x, y, z'
loop_
 _atom_site_type_symbol
 _atom_site_label
 _atom_site_symmetry_multiplicity
 _atom_site_fract_x
 _atom_site_fract_y
 _atom_site_fract_z
 _atom_site_occupancy
  Dy  Dy0  1  0.790509  0.083697  0.813021  1
  Dy  Dy1  1  0.977489  0.416303  0.186979  1
  Dy  Dy2  1  0.209353  0.915905  0.186927  1
  Dy  Dy3  1  0.022426  0.584095  0.813073  1
  Er  Er4  1  0.205859  0.184471  0.565600  1
  Er  Er5  1  0.640259  0.315529  0.434400  1
  Er  Er6  1  0.794091  0.815270  0.434192  1
  Er  Er7  1  0.359899  0.684730  0.565808  1
  Er  Er8  1  0.419586  0.250000  0.000000  1
  Tm  Tm9  1  0.579802  0.750000  0.000000  1
  Ru  Ru10  1  0.602152  0.424281  0.779640  1
  Ru  Ru11  1  0.822511  0.075719  0.220360  1
  Ru  Ru12  1  0.398283  0.576266  0.220503  1
  Ru  Ru13  1  0.177781  0.923734  0.779497  1
