# generated using pymatgen
data_Y3ZnIn3Rh2
_symmetry_space_group_name_H-M   'P 1'
_cell_length_a   7.73746900
_cell_length_b   7.73746863
_cell_length_c   3.81438700
_cell_angle_alpha   90.00000000
_cell_angle_beta   90.00000000
_cell_angle_gamma   120.00000585
_symmetry_Int_Tables_number   1
_chemical_formula_structural   Y3ZnIn3Rh2
_chemical_formula_sum   'Y3 Zn1 In3 Rh2'
_cell_volume   197.76670738
_cell_formula_units_Z   1
loop_
 _symmetry_equiv_pos_site_id
 _symmetry_equiv_pos_as_xyz
  1  'x, y, z'
loop_
 _atom_site_type_symbol
 _atom_site_label
 _atom_site_symmetry_multiplicity
 _atom_site_fract_x
 _atom_site_fract_y
 _atom_site_fract_z
 _atom_site_occupancy
  Y  Y0  1  0.977953  0.588753  0.500000  1
  Y  Y1  1  0.411247  0.389200  0.500000  1
  Y  Y2  1  0.610800  0.022047  0.500000  1
  Zn  Zn3  1  0.333333  0.666667  0.000000  1
  In  In4  1  0.005515  0.263842  0.000000  1
  In  In5  1  0.258327  0.994485  0.000000  1
  In  In6  1  0.736158  0.741673  0.000000  1
  Rh  Rh7  1  0.000000  0.000000  0.500000  1
  Rh  Rh8  1  0.666667  0.333333  0.000000  1
