# generated using pymatgen
data_Sc2Al8GaIr3
_symmetry_space_group_name_H-M   'P 1'
_cell_length_a   7.45349445
_cell_length_b   7.45349282
_cell_length_c   9.38118000
_cell_angle_alpha   90.00000000
_cell_angle_beta   90.00000000
_cell_angle_gamma   119.47201154
_symmetry_Int_Tables_number   1
_chemical_formula_structural   Sc2Al8GaIr3
_chemical_formula_sum   'Sc4 Al16 Ga2 Ir6'
_cell_volume   453.72632133
_cell_formula_units_Z   2
loop_
 _symmetry_equiv_pos_site_id
 _symmetry_equiv_pos_as_xyz
  1  'x, y, z'
loop_
 _atom_site_type_symbol
 _atom_site_label
 _atom_site_symmetry_multiplicity
 _atom_site_fract_x
 _atom_site_fract_y
 _atom_site_fract_z
 _atom_site_occupancy
  Sc  Sc0  1  0.994179  0.675313  0.250000  1
  Sc  Sc1  1  0.005821  0.324687  0.750000  1
  Sc  Sc2  1  0.675313  0.994179  0.250000  1
  Sc  Sc3  1  0.324687  0.005821  0.750000  1
  Al  Al4  1  0.999021  0.335570  0.075558  1
  Al  Al5  1  0.000979  0.664430  0.924442  1
  Al  Al6  1  0.000979  0.664430  0.575558  1
  Al  Al7  1  0.335570  0.999021  0.424442  1
  Al  Al8  1  0.999021  0.335570  0.424442  1
  Al  Al9  1  0.664430  0.000979  0.575558  1
  Al  Al10  1  0.664430  0.000979  0.924442  1
  Al  Al11  1  0.335570  0.999021  0.075558  1
  Al  Al12  1  0.331800  0.331800  0.558792  1
  Al  Al13  1  0.668200  0.668200  0.441208  1
  Al  Al14  1  0.668200  0.668200  0.058792  1
  Al  Al15  1  0.331800  0.331800  0.941208  1
  Al  Al16  1  0.339182  0.554727  0.250000  1
  Al  Al17  1  0.660818  0.445273  0.750000  1
  Al  Al18  1  0.554727  0.339182  0.250000  1
  Al  Al19  1  0.445273  0.660818  0.750000  1
  Ga  Ga20  1  0.132545  0.132545  0.250000  1
  Ga  Ga21  1  0.867455  0.867455  0.750000  1
  Ir  Ir22  1  0.671858  0.328142  0.000000  1
  Ir  Ir23  1  0.328142  0.671858  0.000000  1
  Ir  Ir24  1  0.328142  0.671858  0.500000  1
  Ir  Ir25  1  0.671858  0.328142  0.500000  1
  Ir  Ir26  1  0.000000  0.000000  0.000000  1
  Ir  Ir27  1  0.000000  0.000000  0.500000  1
