# generated using pymatgen
data_NaPu4(PaH8)3
_symmetry_space_group_name_H-M   'P 1'
_cell_length_a   6.69062604
_cell_length_b   6.62813804
_cell_length_c   6.69532700
_cell_angle_alpha   90.00000000
_cell_angle_beta   90.00000000
_cell_angle_gamma   89.98754260
_symmetry_Int_Tables_number   1
_chemical_formula_structural   NaPu4(PaH8)3
_chemical_formula_sum   'Na1 Pu4 Pa3 H24'
_cell_volume   296.91359511
_cell_formula_units_Z   1
loop_
 _symmetry_equiv_pos_site_id
 _symmetry_equiv_pos_as_xyz
  1  'x, y, z'
loop_
 _atom_site_type_symbol
 _atom_site_label
 _atom_site_symmetry_multiplicity
 _atom_site_fract_x
 _atom_site_fract_y
 _atom_site_fract_z
 _atom_site_occupancy
  Na  Na0  1  0.249335  0.999475  0.500000  1
  Pu  Pu1  1  0.751638  0.999871  0.500000  1
  Pu  Pu2  1  0.003515  0.499917  0.254814  1
  Pu  Pu3  1  0.003515  0.499917  0.745186  1
  Pu  Pu4  1  0.497086  0.752929  0.000000  1
  Pa  Pa5  1  0.997651  0.998288  0.000000  1
  Pa  Pa6  1  0.501536  0.501574  0.500000  1
  Pa  Pa7  1  0.498474  0.248988  0.000000  1
  H  H8  1  0.983098  0.157737  0.289534  1
  H  H9  1  0.515602  0.208457  0.661581  1
  H  H10  1  0.517963  0.792697  0.342077  1
  H  H11  1  0.802154  0.653932  0.500000  1
  H  H12  1  0.196350  0.647307  0.500000  1
  H  H13  1  0.346673  0.494566  0.800738  1
  H  H14  1  0.652070  0.495747  0.803101  1
  H  H15  1  0.304772  0.005421  0.145177  1
  H  H16  1  0.157596  0.297915  0.000000  1
  H  H17  1  0.845535  0.697406  0.000000  1
  H  H18  1  0.304772  0.005421  0.854823  1
  H  H19  1  0.842805  0.300373  0.000000  1
  H  H20  1  0.695898  0.004869  0.152465  1
  H  H21  1  0.695898  0.004869  0.847535  1
  H  H22  1  0.156043  0.699794  0.000000  1
  H  H23  1  0.982533  0.841601  0.709251  1
  H  H24  1  0.983098  0.157737  0.710466  1
  H  H25  1  0.982533  0.841601  0.290749  1
  H  H26  1  0.652070  0.495747  0.196899  1
  H  H27  1  0.346673  0.494566  0.199262  1
  H  H28  1  0.801703  0.346519  0.500000  1
  H  H29  1  0.197848  0.353607  0.500000  1
  H  H30  1  0.517963  0.792697  0.657923  1
  H  H31  1  0.515602  0.208457  0.338419  1
