# generated using pymatgen
data_Eu17Th(PaPt8)2
_symmetry_space_group_name_H-M   'P 1'
_cell_length_a   7.70813001
_cell_length_b   7.78882949
_cell_length_c   15.05292700
_cell_angle_alpha   89.98696491
_cell_angle_beta   90.00222252
_cell_angle_gamma   89.84558007
_symmetry_Int_Tables_number   1
_chemical_formula_structural   Eu17Th(PaPt8)2
_chemical_formula_sum   'Eu17 Th1 Pa2 Pt16'
_cell_volume   903.73394288
_cell_formula_units_Z   1
loop_
 _symmetry_equiv_pos_site_id
 _symmetry_equiv_pos_as_xyz
  1  'x, y, z'
loop_
 _atom_site_type_symbol
 _atom_site_label
 _atom_site_symmetry_multiplicity
 _atom_site_fract_x
 _atom_site_fract_y
 _atom_site_fract_z
 _atom_site_occupancy
  Eu  Eu0  1  0.850913  0.663022  0.377314  1
  Eu  Eu1  1  0.353080  0.833550  0.378545  1
  Eu  Eu2  1  0.853726  0.664414  0.117529  1
  Eu  Eu3  1  0.644459  0.165332  0.882398  1
  Eu  Eu4  1  0.148106  0.331931  0.621770  1
  Eu  Eu5  1  0.493427  0.674286  0.594261  1
  Eu  Eu6  1  0.991502  0.825994  0.906092  1
  Eu  Eu7  1  0.507830  0.325758  0.095615  1
  Eu  Eu8  1  0.007289  0.180766  0.405033  1
  Eu  Eu9  1  0.506324  0.320938  0.402929  1
  Eu  Eu10  1  0.999514  0.181822  0.095366  1
  Eu  Eu11  1  0.498954  0.680829  0.906209  1
  Eu  Eu12  1  0.998016  0.812532  0.592797  1
  Eu  Eu13  1  0.804942  0.513572  0.750937  1
  Eu  Eu14  1  0.307446  0.981476  0.752239  1
  Eu  Eu15  1  0.185232  0.487707  0.249330  1
  Eu  Eu16  1  0.696604  0.007940  0.250403  1
  Th  Th17  1  0.649636  0.159347  0.624389  1
  Pa  Pa18  1  0.151943  0.341443  0.877746  1
  Pa  Pa19  1  0.347559  0.841879  0.122058  1
  Pt  Pt20  1  0.692480  0.969088  0.464550  1
  Pt  Pt21  1  0.205240  0.550668  0.033108  1
  Pt  Pt22  1  0.292978  0.053111  0.966485  1
  Pt  Pt23  1  0.804161  0.448563  0.541936  1
  Pt  Pt24  1  0.329262  0.032587  0.545907  1
  Pt  Pt25  1  0.845646  0.457411  0.953905  1
  Pt  Pt26  1  0.651311  0.956449  0.046038  1
  Pt  Pt27  1  0.182743  0.531693  0.457921  1
  Pt  Pt28  1  0.437983  0.370617  0.753465  1
  Pt  Pt29  1  0.949935  0.131885  0.761215  1
  Pt  Pt30  1  0.545305  0.629514  0.236604  1
  Pt  Pt31  1  0.068562  0.877176  0.239729  1
  Pt  Pt32  1  0.691439  0.876086  0.745683  1
  Pt  Pt33  1  0.178699  0.621836  0.760670  1
  Pt  Pt34  1  0.324837  0.127759  0.241093  1
  Pt  Pt35  1  0.802917  0.371019  0.248732  1
