# generated using pymatgen
data_Li4FeNi9As7
_symmetry_space_group_name_H-M   'P 1'
_cell_length_a   9.41718752
_cell_length_b   9.44065456
_cell_length_c   3.72783700
_cell_angle_alpha   90.00000000
_cell_angle_beta   90.00000000
_cell_angle_gamma   120.41726469
_symmetry_Int_Tables_number   1
_chemical_formula_structural   Li4FeNi9As7
_chemical_formula_sum   'Li4 Fe1 Ni9 As7'
_cell_volume   285.80473668
_cell_formula_units_Z   1
loop_
 _symmetry_equiv_pos_site_id
 _symmetry_equiv_pos_as_xyz
  1  'x, y, z'
loop_
 _atom_site_type_symbol
 _atom_site_label
 _atom_site_symmetry_multiplicity
 _atom_site_fract_x
 _atom_site_fract_y
 _atom_site_fract_z
 _atom_site_occupancy
  Li  Li0  1  0.446058  0.215507  0.500000  1
  Li  Li1  1  0.788325  0.235330  0.500000  1
  Li  Li2  1  0.336553  0.672224  0.000000  1
  Li  Li3  1  0.998094  0.999808  0.500000  1
  Fe  Fe4  1  0.753767  0.542115  0.500000  1
  Ni  Ni5  1  0.280181  0.375938  0.500000  1
  Ni  Ni6  1  0.620770  0.899508  0.500000  1
  Ni  Ni7  1  0.097711  0.718940  0.500000  1
  Ni  Ni8  1  0.497898  0.450121  0.000000  1
  Ni  Ni9  1  0.550412  0.054674  0.000000  1
  Ni  Ni10  1  0.956965  0.500777  0.000000  1
  Ni  Ni11  1  0.719968  0.762183  0.000000  1
  Ni  Ni12  1  0.234433  0.951738  0.000000  1
  Ni  Ni13  1  0.046007  0.284947  0.000000  1
  As  As14  1  0.954436  0.747417  0.000000  1
  As  As15  1  0.238923  0.201637  0.000000  1
  As  As16  1  0.793233  0.037269  0.000000  1
  As  As17  1  0.673480  0.347235  0.000000  1
  As  As18  1  0.545782  0.621986  0.500000  1
  As  As19  1  0.376338  0.915689  0.500000  1
  As  As20  1  0.090667  0.464956  0.500000  1
