# generated using pymatgen
data_Tb4DyHo3(ReC2)4
_symmetry_space_group_name_H-M   'P 1'
_cell_length_a   5.12504400
_cell_length_b   6.59290911
_cell_length_c   9.87647017
_cell_angle_alpha   90.02136653
_cell_angle_beta   90.00000000
_cell_angle_gamma   90.00000000
_symmetry_Int_Tables_number   1
_chemical_formula_structural   Tb4DyHo3(ReC2)4
_chemical_formula_sum   'Tb4 Dy1 Ho3 Re4 C8'
_cell_volume   333.71552669
_cell_formula_units_Z   1
loop_
 _symmetry_equiv_pos_site_id
 _symmetry_equiv_pos_as_xyz
  1  'x, y, z'
loop_
 _atom_site_type_symbol
 _atom_site_label
 _atom_site_symmetry_multiplicity
 _atom_site_fract_x
 _atom_site_fract_y
 _atom_site_fract_z
 _atom_site_occupancy
  Tb  Tb0  1  0.750000  0.468202  0.784286  1
  Tb  Tb1  1  0.250000  0.031777  0.284462  1
  Tb  Tb2  1  0.750000  0.968398  0.715499  1
  Tb  Tb3  1  0.250000  0.531617  0.215745  1
  Dy  Dy4  1  0.750000  0.820184  0.056290  1
  Ho  Ho5  1  0.250000  0.679084  0.556643  1
  Ho  Ho6  1  0.750000  0.320854  0.443422  1
  Ho  Ho7  1  0.250000  0.179261  0.943288  1
  Re  Re8  1  0.750000  0.277441  0.134477  1
  Re  Re9  1  0.250000  0.222564  0.634358  1
  Re  Re10  1  0.750000  0.777487  0.365753  1
  Re  Re11  1  0.250000  0.722634  0.865439  1
  C  C12  1  0.750000  0.176437  0.951412  1
  C  C13  1  0.250000  0.824056  0.048343  1
  C  C14  1  0.750000  0.675847  0.548570  1
  C  C15  1  0.250000  0.324144  0.451494  1
  C  C16  1  0.750000  0.044740  0.259430  1
  C  C17  1  0.250000  0.455483  0.759185  1
  C  C18  1  0.750000  0.544279  0.241145  1
  C  C19  1  0.250000  0.955512  0.740758  1
