# generated using pymatgen
data_HoMgPaNi2
_symmetry_space_group_name_H-M   'P 1'
_cell_length_a   7.46218117
_cell_length_b   7.46218117
_cell_length_c   3.53266500
_cell_angle_alpha   90.00000000
_cell_angle_beta   90.00000000
_cell_angle_gamma   93.16670502
_symmetry_Int_Tables_number   1
_chemical_formula_structural   HoMgPaNi2
_chemical_formula_sum   'Ho2 Mg2 Pa2 Ni4'
_cell_volume   196.41306519
_cell_formula_units_Z   2
loop_
 _symmetry_equiv_pos_site_id
 _symmetry_equiv_pos_as_xyz
  1  'x, y, z'
loop_
 _atom_site_type_symbol
 _atom_site_label
 _atom_site_symmetry_multiplicity
 _atom_site_fract_x
 _atom_site_fract_y
 _atom_site_fract_z
 _atom_site_occupancy
  Ho  Ho0  1  0.168407  0.331593  0.500000  1
  Ho  Ho1  1  0.831593  0.668407  0.500000  1
  Mg  Mg2  1  0.000000  0.000000  0.000000  1
  Mg  Mg3  1  0.500000  0.500000  0.000000  1
  Pa  Pa4  1  0.670676  0.170676  0.500000  1
  Pa  Pa5  1  0.329324  0.829324  0.500000  1
  Ni  Ni6  1  0.138651  0.638651  0.000000  1
  Ni  Ni7  1  0.861349  0.361349  0.000000  1
  Ni  Ni8  1  0.617965  0.882035  0.000000  1
  Ni  Ni9  1  0.382035  0.117965  0.000000  1
