# generated using pymatgen
data_Ba4Os6O18F
_symmetry_space_group_name_H-M   'P 1'
_cell_length_a   8.16176948
_cell_length_b   8.16176963
_cell_length_c   8.16177000
_cell_angle_alpha   109.47122156
_cell_angle_beta   109.47122192
_cell_angle_gamma   109.47121898
_symmetry_Int_Tables_number   1
_chemical_formula_structural   Ba4Os6O18F
_chemical_formula_sum   'Ba4 Os6 O18 F1'
_cell_volume   418.53435745
_cell_formula_units_Z   1
loop_
 _symmetry_equiv_pos_site_id
 _symmetry_equiv_pos_as_xyz
  1  'x, y, z'
loop_
 _atom_site_type_symbol
 _atom_site_label
 _atom_site_symmetry_multiplicity
 _atom_site_fract_x
 _atom_site_fract_y
 _atom_site_fract_z
 _atom_site_occupancy
  Ba  Ba0  1  0.000000  0.337918  0.000000  1
  Ba  Ba1  1  0.000000  0.000000  0.337918  1
  Ba  Ba2  1  0.662082  0.662082  0.662082  1
  Ba  Ba3  1  0.337918  0.000000  0.000000  1
  Os  Os4  1  0.500000  0.364023  0.864023  1
  Os  Os5  1  0.500000  0.635977  0.135977  1
  Os  Os6  1  0.364023  0.864023  0.500000  1
  Os  Os7  1  0.635977  0.135977  0.500000  1
  Os  Os8  1  0.864023  0.500000  0.364023  1
  Os  Os9  1  0.135977  0.500000  0.635977  1
  O  O10  1  0.697097  0.346196  0.067851  1
  O  O11  1  0.653804  0.350901  0.721655  1
  O  O12  1  0.278345  0.629246  0.932149  1
  O  O13  1  0.649099  0.302903  0.370754  1
  O  O14  1  0.350901  0.721655  0.653804  1
  O  O15  1  0.932149  0.278345  0.629246  1
  O  O16  1  0.067851  0.697097  0.346196  1
  O  O17  1  0.000000  0.663197  0.663197  1
  O  O18  1  0.663197  0.663197  0.000000  1
  O  O19  1  0.721655  0.653804  0.350901  1
  O  O20  1  0.346196  0.067851  0.697097  1
  O  O21  1  0.663197  0.000000  0.663197  1
  O  O22  1  0.000000  0.336803  0.336803  1
  O  O23  1  0.629246  0.932149  0.278345  1
  O  O24  1  0.370754  0.649099  0.302903  1
  O  O25  1  0.302903  0.370754  0.649099  1
  O  O26  1  0.336803  0.000000  0.336803  1
  O  O27  1  0.336803  0.336803  0.000000  1
  F  F28  1  0.000000  0.000000  0.000000  1
