# generated using pymatgen
data_Dy4CrCo19As12
_symmetry_space_group_name_H-M   'P 1'
_cell_length_a   3.78646900
_cell_length_b   10.69814367
_cell_length_c   12.21417488
_cell_angle_alpha   89.93077141
_cell_angle_beta   90.00000000
_cell_angle_gamma   90.00000000
_symmetry_Int_Tables_number   1
_chemical_formula_structural   Dy4CrCo19As12
_chemical_formula_sum   'Dy4 Cr1 Co19 As12'
_cell_volume   494.77374776
_cell_formula_units_Z   1
loop_
 _symmetry_equiv_pos_site_id
 _symmetry_equiv_pos_as_xyz
  1  'x, y, z'
loop_
 _atom_site_type_symbol
 _atom_site_label
 _atom_site_symmetry_multiplicity
 _atom_site_fract_x
 _atom_site_fract_y
 _atom_site_fract_z
 _atom_site_occupancy
  Dy  Dy0  1  0.250000  0.581320  0.700823  1
  Dy  Dy1  1  0.250000  0.920883  0.202379  1
  Dy  Dy2  1  0.750000  0.419501  0.298308  1
  Dy  Dy3  1  0.750000  0.081870  0.796074  1
  Cr  Cr4  1  0.250000  0.703707  0.990023  1
  Co  Co5  1  0.250000  0.788255  0.490875  1
  Co  Co6  1  0.750000  0.293493  0.010017  1
  Co  Co7  1  0.750000  0.211888  0.508269  1
  Co  Co8  1  0.250000  0.406159  0.488296  1
  Co  Co9  1  0.250000  0.093626  0.988196  1
  Co  Co10  1  0.750000  0.592980  0.513315  1
  Co  Co11  1  0.750000  0.905948  0.011809  1
  Co  Co12  1  0.250000  0.216645  0.177299  1
  Co  Co13  1  0.250000  0.283402  0.676849  1
  Co  Co14  1  0.750000  0.783554  0.823290  1
  Co  Co15  1  0.750000  0.715828  0.324936  1
  Co  Co16  1  0.250000  0.884470  0.696324  1
  Co  Co17  1  0.250000  0.616098  0.198333  1
  Co  Co18  1  0.750000  0.115707  0.302791  1
  Co  Co19  1  0.750000  0.382738  0.802733  1
  Co  Co20  1  0.250000  0.465444  0.932839  1
  Co  Co21  1  0.250000  0.030972  0.431895  1
  Co  Co22  1  0.750000  0.532784  0.066717  1
  Co  Co23  1  0.750000  0.969765  0.567623  1
  As  As24  1  0.250000  0.416297  0.115293  1
  As  As25  1  0.250000  0.084748  0.613135  1
  As  As26  1  0.750000  0.582072  0.883169  1
  As  As27  1  0.750000  0.915796  0.386393  1
  As  As28  1  0.250000  0.267177  0.868609  1
  As  As29  1  0.250000  0.230663  0.369599  1
  As  As30  1  0.750000  0.732139  0.134166  1
  As  As31  1  0.750000  0.770135  0.630304  1
  As  As32  1  0.250000  0.599962  0.392652  1
  As  As33  1  0.250000  0.903232  0.888969  1
  As  As34  1  0.750000  0.398347  0.609030  1
  As  As35  1  0.750000  0.102393  0.108663  1
