# generated using pymatgen
data_Th4Sn2Pt3Rh
_symmetry_space_group_name_H-M   'P 1'
_cell_length_a   7.95247642
_cell_length_b   7.95247642
_cell_length_c   3.81028900
_cell_angle_alpha   90.00000000
_cell_angle_beta   90.00000000
_cell_angle_gamma   90.08944005
_symmetry_Int_Tables_number   1
_chemical_formula_structural   Th4Sn2Pt3Rh
_chemical_formula_sum   'Th4 Sn2 Pt3 Rh1'
_cell_volume   240.96955086
_cell_formula_units_Z   1
loop_
 _symmetry_equiv_pos_site_id
 _symmetry_equiv_pos_as_xyz
  1  'x, y, z'
loop_
 _atom_site_type_symbol
 _atom_site_label
 _atom_site_symmetry_multiplicity
 _atom_site_fract_x
 _atom_site_fract_y
 _atom_site_fract_z
 _atom_site_occupancy
  Th  Th0  1  0.321087  0.821087  0.500000  1
  Th  Th1  1  0.830320  0.673929  0.500000  1
  Th  Th2  1  0.173929  0.330320  0.500000  1
  Th  Th3  1  0.673446  0.173446  0.500000  1
  Sn  Sn4  1  0.496405  0.501352  0.000000  1
  Sn  Sn5  1  0.001352  0.996405  0.000000  1
  Pt  Pt6  1  0.628564  0.871431  0.000000  1
  Pt  Pt7  1  0.871747  0.371747  0.000000  1
  Pt  Pt8  1  0.371431  0.128564  0.000000  1
  Rh  Rh9  1  0.131720  0.631720  0.000000  1
