# generated using pymatgen
data_Er10HgBi5S2
_symmetry_space_group_name_H-M   'P 1'
_cell_length_a   9.03524700
_cell_length_b   9.03524831
_cell_length_c   6.53351900
_cell_angle_alpha   90.00000000
_cell_angle_beta   90.00000000
_cell_angle_gamma   119.98217048
_symmetry_Int_Tables_number   1
_chemical_formula_structural   Er10HgBi5S2
_chemical_formula_sum   'Er10 Hg1 Bi5 S2'
_cell_volume   461.99354798
_cell_formula_units_Z   1
loop_
 _symmetry_equiv_pos_site_id
 _symmetry_equiv_pos_as_xyz
  1  'x, y, z'
loop_
 _atom_site_type_symbol
 _atom_site_label
 _atom_site_symmetry_multiplicity
 _atom_site_fract_x
 _atom_site_fract_y
 _atom_site_fract_z
 _atom_site_occupancy
  Er  Er0  1  0.660401  0.335530  0.497632  1
  Er  Er1  1  0.335530  0.660401  0.497632  1
  Er  Er2  1  0.335530  0.660401  0.002368  1
  Er  Er3  1  0.660401  0.335530  0.002368  1
  Er  Er4  1  0.749058  0.749058  0.250000  1
  Er  Er5  1  0.249012  0.010892  0.250000  1
  Er  Er6  1  0.010892  0.249012  0.250000  1
  Er  Er7  1  0.245722  0.245722  0.750000  1
  Er  Er8  1  0.755068  0.999831  0.750000  1
  Er  Er9  1  0.999831  0.755068  0.750000  1
  Hg  Hg10  1  0.396973  0.396973  0.250000  1
  Bi  Bi11  1  0.607444  0.002237  0.250000  1
  Bi  Bi12  1  0.002237  0.607444  0.250000  1
  Bi  Bi13  1  0.603479  0.603479  0.750000  1
  Bi  Bi14  1  0.394953  0.997582  0.750000  1
  Bi  Bi15  1  0.997582  0.394953  0.750000  1
  S  S16  1  0.997944  0.997944  0.500158  1
  S  S17  1  0.997944  0.997944  0.999842  1
