# generated using pymatgen
data_Pa(BPt4)2
_symmetry_space_group_name_H-M   'P 1'
_cell_length_a   6.12964615
_cell_length_b   6.12964629
_cell_length_c   9.07164917
_cell_angle_alpha   55.18066903
_cell_angle_beta   55.18066576
_cell_angle_gamma   37.78493957
_symmetry_Int_Tables_number   1
_chemical_formula_structural   Pa(BPt4)2
_chemical_formula_sum   'Pa1 B2 Pt8'
_cell_volume   166.51735568
_cell_formula_units_Z   1
loop_
 _symmetry_equiv_pos_site_id
 _symmetry_equiv_pos_as_xyz
  1  'x, y, z'
loop_
 _atom_site_type_symbol
 _atom_site_label
 _atom_site_symmetry_multiplicity
 _atom_site_fract_x
 _atom_site_fract_y
 _atom_site_fract_z
 _atom_site_occupancy
  Pa  Pa0  1  0.500000  0.500000  0.500000  1
  B  B1  1  0.054601  0.054601  0.709989  1
  B  B2  1  0.945399  0.945399  0.290011  1
  Pt  Pt3  1  0.218938  0.218938  0.423473  1
  Pt  Pt4  1  0.827527  0.827527  0.838329  1
  Pt  Pt5  1  0.172473  0.172473  0.161671  1
  Pt  Pt6  1  0.157867  0.157867  0.848110  1
  Pt  Pt7  1  0.481761  0.481761  0.855357  1
  Pt  Pt8  1  0.518239  0.518239  0.144643  1
  Pt  Pt9  1  0.781062  0.781062  0.576527  1
  Pt  Pt10  1  0.842133  0.842133  0.151890  1
