# generated using pymatgen
data_Pr2Sc2Al17GaIr6
_symmetry_space_group_name_H-M   'P 1'
_cell_length_a   7.54958955
_cell_length_b   7.54958953
_cell_length_c   9.49651200
_cell_angle_alpha   90.00000000
_cell_angle_beta   90.00000000
_cell_angle_gamma   119.47722930
_symmetry_Int_Tables_number   1
_chemical_formula_structural   Pr2Sc2Al17GaIr6
_chemical_formula_sum   'Pr2 Sc2 Al17 Ga1 Ir6'
_cell_volume   471.19989416
_cell_formula_units_Z   1
loop_
 _symmetry_equiv_pos_site_id
 _symmetry_equiv_pos_as_xyz
  1  'x, y, z'
loop_
 _atom_site_type_symbol
 _atom_site_label
 _atom_site_symmetry_multiplicity
 _atom_site_fract_x
 _atom_site_fract_y
 _atom_site_fract_z
 _atom_site_occupancy
  Pr  Pr0  1  0.993012  0.674333  0.250000  1
  Pr  Pr1  1  0.674333  0.993012  0.250000  1
  Sc  Sc2  1  0.004021  0.325773  0.750000  1
  Sc  Sc3  1  0.325773  0.004021  0.750000  1
  Al  Al4  1  0.876745  0.876745  0.750000  1
  Al  Al5  1  0.004549  0.335941  0.062521  1
  Al  Al6  1  0.002990  0.663558  0.914785  1
  Al  Al7  1  0.002990  0.663558  0.585215  1
  Al  Al8  1  0.335941  0.004549  0.437479  1
  Al  Al9  1  0.004549  0.335941  0.437479  1
  Al  Al10  1  0.663558  0.002990  0.585215  1
  Al  Al11  1  0.663558  0.002990  0.914785  1
  Al  Al12  1  0.335941  0.004549  0.062521  1
  Al  Al13  1  0.329858  0.329858  0.567625  1
  Al  Al14  1  0.664323  0.664323  0.464220  1
  Al  Al15  1  0.664323  0.664323  0.035780  1
  Al  Al16  1  0.329858  0.329858  0.932375  1
  Al  Al17  1  0.336976  0.544734  0.250000  1
  Al  Al18  1  0.659116  0.442872  0.750000  1
  Al  Al19  1  0.544734  0.336976  0.250000  1
  Al  Al20  1  0.442872  0.659116  0.750000  1
  Ga  Ga21  1  0.139685  0.139685  0.250000  1
  Ir  Ir22  1  0.670760  0.327873  0.997051  1
  Ir  Ir23  1  0.327873  0.670760  0.997051  1
  Ir  Ir24  1  0.327873  0.670760  0.502949  1
  Ir  Ir25  1  0.670760  0.327873  0.502949  1
  Ir  Ir26  1  0.001517  0.001517  0.993536  1
  Ir  Ir27  1  0.001517  0.001517  0.506464  1
