# generated using pymatgen
data_YHo4Er(Si3Ru)8
_symmetry_space_group_name_H-M   'P 1'
_cell_length_a   10.12501323
_cell_length_b   10.12519480
_cell_length_c   8.14379816
_cell_angle_alpha   89.97320619
_cell_angle_beta   89.98740304
_cell_angle_gamma   132.61703821
_symmetry_Int_Tables_number   1
_chemical_formula_structural   YHo4Er(Si3Ru)8
_chemical_formula_sum   'Y1 Ho4 Er1 Si24 Ru8'
_cell_volume   614.38716143
_cell_formula_units_Z   1
loop_
 _symmetry_equiv_pos_site_id
 _symmetry_equiv_pos_as_xyz
  1  'x, y, z'
loop_
 _atom_site_type_symbol
 _atom_site_label
 _atom_site_symmetry_multiplicity
 _atom_site_fract_x
 _atom_site_fract_y
 _atom_site_fract_z
 _atom_site_occupancy
  Y  Y0  1  0.997495  0.497694  0.249642  1
  Ho  Ho1  1  0.497584  0.997398  0.249652  1
  Ho  Ho2  1  0.002579  0.502379  0.750350  1
  Ho  Ho3  1  0.502224  0.002430  0.750342  1
  Ho  Ho4  1  0.499994  0.500023  0.500006  1
  Er  Er5  1  0.000082  0.000012  0.000045  1
  Si  Si6  1  0.388871  0.155142  0.004689  1
  Si  Si7  1  0.654694  0.888025  0.495093  1
  Si  Si8  1  0.112107  0.345391  0.505076  1
  Si  Si9  1  0.844943  0.611268  0.995150  1
  Si  Si10  1  0.611142  0.844835  0.995447  1
  Si  Si11  1  0.345279  0.111978  0.504783  1
  Si  Si12  1  0.887894  0.654670  0.495382  1
  Si  Si13  1  0.155101  0.388737  0.004387  1
  Si  Si14  1  0.613276  0.378828  0.228258  1
  Si  Si15  1  0.877706  0.111918  0.271346  1
  Si  Si16  1  0.887915  0.122166  0.728534  1
  Si  Si17  1  0.621079  0.386584  0.771859  1
  Si  Si18  1  0.386376  0.620951  0.771879  1
  Si  Si19  1  0.122057  0.887727  0.728499  1
  Si  Si20  1  0.705496  0.294085  0.999816  1
  Si  Si21  1  0.794463  0.205107  0.500186  1
  Si  Si22  1  0.294534  0.705923  0.999765  1
  Si  Si23  1  0.205521  0.794906  0.500227  1
  Si  Si24  1  0.168181  0.168190  0.333419  1
  Si  Si25  1  0.667230  0.667239  0.167153  1
  Si  Si26  1  0.332771  0.332777  0.832806  1
  Si  Si27  1  0.831829  0.831837  0.666619  1
  Si  Si28  1  0.379209  0.613709  0.228195  1
  Si  Si29  1  0.112346  0.878087  0.271427  1
  Ru  Ru30  1  0.626420  0.626546  0.873852  1
  Ru  Ru31  1  0.125735  0.125600  0.627981  1
  Ru  Ru32  1  0.874403  0.874254  0.371990  1
  Ru  Ru33  1  0.373444  0.373565  0.126167  1
  Ru  Ru34  1  0.330984  0.669522  0.500212  1
  Ru  Ru35  1  0.168845  0.831688  0.999780  1
  Ru  Ru36  1  0.669021  0.330488  0.500289  1
  Ru  Ru37  1  0.831171  0.168320  0.999696  1
