# generated using pymatgen
data_Sc12N11
_symmetry_space_group_name_H-M   'P 1'
_cell_length_a   8.46340105
_cell_length_b   8.46340113
_cell_length_c   5.53565800
_cell_angle_alpha   90.00039283
_cell_angle_beta   90.00039119
_cell_angle_gamma   44.43036602
_symmetry_Int_Tables_number   1
_chemical_formula_structural   Sc12N11
_chemical_formula_sum   'Sc12 N11'
_cell_volume   277.57678066
_cell_formula_units_Z   1
loop_
 _symmetry_equiv_pos_site_id
 _symmetry_equiv_pos_as_xyz
  1  'x, y, z'
loop_
 _atom_site_type_symbol
 _atom_site_label
 _atom_site_symmetry_multiplicity
 _atom_site_fract_x
 _atom_site_fract_y
 _atom_site_fract_z
 _atom_site_occupancy
  Sc  Sc0  1  0.500000  0.000000  0.500000  1
  Sc  Sc1  1  0.172615  0.654815  0.828920  1
  Sc  Sc2  1  0.827385  0.345185  0.171080  1
  Sc  Sc3  1  0.345185  0.827385  0.171080  1
  Sc  Sc4  1  0.000000  0.500000  0.500000  1
  Sc  Sc5  1  0.654815  0.172615  0.828920  1
  Sc  Sc6  1  0.913960  0.913960  0.347576  1
  Sc  Sc7  1  0.583043  0.583043  0.671347  1
  Sc  Sc8  1  0.248207  0.248207  0.000362  1
  Sc  Sc9  1  0.416957  0.416957  0.328653  1
  Sc  Sc10  1  0.086040  0.086040  0.652424  1
  Sc  Sc11  1  0.751793  0.751793  0.999638  1
  N  N12  1  0.752702  0.247298  0.500000  1
  N  N13  1  0.415012  0.917078  0.834021  1
  N  N14  1  0.082922  0.584988  0.165979  1
  N  N15  1  0.584988  0.082922  0.165979  1
  N  N16  1  0.247298  0.752702  0.500000  1
  N  N17  1  0.917078  0.415012  0.834021  1
  N  N18  1  0.834206  0.834206  0.666003  1
  N  N19  1  0.500000  0.500000  0.000000  1
  N  N20  1  0.165794  0.165794  0.333997  1
  N  N21  1  0.665871  0.665871  0.331135  1
  N  N22  1  0.334129  0.334129  0.668865  1
