# generated using pymatgen
data_Zr5Ti3Co16(SiP3)3
_symmetry_space_group_name_H-M   'P 1'
_cell_length_a   12.01458000
_cell_length_b   12.01458044
_cell_length_c   3.62833100
_cell_angle_alpha   90.00000000
_cell_angle_beta   90.00000000
_cell_angle_gamma   119.99999880
_symmetry_Int_Tables_number   1
_chemical_formula_structural   Zr5Ti3Co16(SiP3)3
_chemical_formula_sum   'Zr5 Ti3 Co16 Si3 P9'
_cell_volume   453.58087994
_cell_formula_units_Z   1
loop_
 _symmetry_equiv_pos_site_id
 _symmetry_equiv_pos_as_xyz
  1  'x, y, z'
loop_
 _atom_site_type_symbol
 _atom_site_label
 _atom_site_symmetry_multiplicity
 _atom_site_fract_x
 _atom_site_fract_y
 _atom_site_fract_z
 _atom_site_occupancy
  Zr  Zr0  1  0.666667  0.333333  0.000000  1
  Zr  Zr1  1  0.333333  0.666667  0.000000  1
  Zr  Zr2  1  0.821213  0.821213  0.500000  1
  Zr  Zr3  1  0.178787  0.000000  0.500000  1
  Zr  Zr4  1  0.000000  0.178787  0.500000  1
  Ti  Ti5  1  0.440513  0.440513  0.000000  1
  Ti  Ti6  1  0.559487  0.000000  0.000000  1
  Ti  Ti7  1  0.000000  0.559487  0.000000  1
  Co  Co8  1  0.199578  0.374312  0.000000  1
  Co  Co9  1  0.174734  0.800422  0.000000  1
  Co  Co10  1  0.825266  0.625688  0.000000  1
  Co  Co11  1  0.800422  0.174734  0.000000  1
  Co  Co12  1  0.374312  0.199578  0.000000  1
  Co  Co13  1  0.127530  0.483117  0.500000  1
  Co  Co14  1  0.355588  0.872470  0.500000  1
  Co  Co15  1  0.516883  0.644412  0.500000  1
  Co  Co16  1  0.644412  0.516883  0.500000  1
  Co  Co17  1  0.872470  0.355588  0.500000  1
  Co  Co18  1  0.483117  0.127530  0.500000  1
  Co  Co19  1  0.000000  0.000000  0.000000  1
  Co  Co20  1  0.718351  0.000000  0.500000  1
  Co  Co21  1  0.000000  0.718351  0.500000  1
  Co  Co22  1  0.625688  0.825266  0.000000  1
  Co  Co23  1  0.281649  0.281649  0.500000  1
  Si  Si24  1  0.646842  0.646842  0.000000  1
  Si  Si25  1  0.353158  0.000000  0.000000  1
  Si  Si26  1  0.000000  0.353158  0.000000  1
  P  P27  1  0.482666  0.312827  0.500000  1
  P  P28  1  0.687173  0.169838  0.500000  1
  P  P29  1  0.830162  0.517334  0.500000  1
  P  P30  1  0.517334  0.830162  0.500000  1
  P  P31  1  0.169838  0.687173  0.500000  1
  P  P32  1  0.823778  0.000000  0.000000  1
  P  P33  1  0.000000  0.823778  0.000000  1
  P  P34  1  0.312827  0.482666  0.500000  1
  P  P35  1  0.176222  0.176222  0.000000  1
