# generated using pymatgen
data_Ba4Na4SrCaAs8
_symmetry_space_group_name_H-M   'P 1'
_cell_length_a   7.74374100
_cell_length_b   8.42904082
_cell_length_c   18.18776066
_cell_angle_alpha   62.22445808
_cell_angle_beta   90.00000000
_cell_angle_gamma   90.00000000
_symmetry_Int_Tables_number   1
_chemical_formula_structural   Ba4Na4SrCaAs8
_chemical_formula_sum   'Ba8 Na8 Sr2 Ca2 As16'
_cell_volume   1050.37286827
_cell_formula_units_Z   2
loop_
 _symmetry_equiv_pos_site_id
 _symmetry_equiv_pos_as_xyz
  1  'x, y, z'
loop_
 _atom_site_type_symbol
 _atom_site_label
 _atom_site_symmetry_multiplicity
 _atom_site_fract_x
 _atom_site_fract_y
 _atom_site_fract_z
 _atom_site_occupancy
  Ba  Ba0  1  0.523393  0.588938  0.098447  1
  Ba  Ba1  1  0.023393  0.411062  0.401553  1
  Ba  Ba2  1  0.478276  0.715005  0.603336  1
  Ba  Ba3  1  0.978276  0.284995  0.896664  1
  Ba  Ba4  1  0.478775  0.414450  0.899793  1
  Ba  Ba5  1  0.978775  0.585550  0.600207  1
  Ba  Ba6  1  0.520622  0.280077  0.402273  1
  Ba  Ba7  1  0.020622  0.719923  0.097727  1
  Na  Na8  1  0.853799  0.254252  0.251439  1
  Na  Na9  1  0.353799  0.745748  0.248561  1
  Na  Na10  1  0.145817  0.756085  0.748796  1
  Na  Na11  1  0.645817  0.243915  0.751204  1
  Na  Na12  1  0.679343  0.049795  0.122912  1
  Na  Na13  1  0.179343  0.950205  0.377088  1
  Na  Na14  1  0.321105  0.950356  0.875965  1
  Na  Na15  1  0.821105  0.049644  0.624035  1
  Sr  Sr16  1  0.674940  0.805808  0.374749  1
  Sr  Sr17  1  0.174940  0.194192  0.125251  1
  Ca  Ca18  1  0.321659  0.195161  0.627831  1
  Ca  Ca19  1  0.821659  0.804839  0.872169  1
  As  As20  1  0.852243  0.437337  0.031104  1
  As  As21  1  0.352243  0.562663  0.468896  1
  As  As22  1  0.148622  0.997742  0.538746  1
  As  As23  1  0.648622  0.002258  0.961254  1
  As  As24  1  0.136754  0.576334  0.959693  1
  As  As25  1  0.636754  0.423666  0.540307  1
  As  As26  1  0.861534  0.001993  0.465393  1
  As  As27  1  0.361534  0.998007  0.034607  1
  As  As28  1  0.736274  0.634013  0.251532  1
  As  As29  1  0.236274  0.365987  0.248468  1
  As  As30  1  0.265134  0.357005  0.747837  1
  As  As31  1  0.765134  0.642995  0.752163  1
  As  As32  1  0.972965  0.846343  0.249950  1
  As  As33  1  0.472965  0.153657  0.250050  1
  As  As34  1  0.028747  0.146072  0.747108  1
  As  As35  1  0.528747  0.853928  0.752892  1
