# generated using pymatgen
data_Cs3Bi(NO3)8
_symmetry_space_group_name_H-M   'P 1'
_cell_length_a   8.55411283
_cell_length_b   8.55411262
_cell_length_c   8.55411200
_cell_angle_alpha   89.90470696
_cell_angle_beta   89.90470696
_cell_angle_gamma   89.90470935
_symmetry_Int_Tables_number   1
_chemical_formula_structural   Cs3Bi(NO3)8
_chemical_formula_sum   'Cs3 Bi1 N8 O24'
_cell_volume   625.92611334
_cell_formula_units_Z   1
loop_
 _symmetry_equiv_pos_site_id
 _symmetry_equiv_pos_as_xyz
  1  'x, y, z'
loop_
 _atom_site_type_symbol
 _atom_site_label
 _atom_site_symmetry_multiplicity
 _atom_site_fract_x
 _atom_site_fract_y
 _atom_site_fract_z
 _atom_site_occupancy
  Cs  Cs0  1  0.500000  0.000000  0.000000  1
  Cs  Cs1  1  0.000000  0.000000  0.500000  1
  Cs  Cs2  1  0.000000  0.500000  0.000000  1
  Bi  Bi3  1  0.500000  0.500000  0.500000  1
  N  N4  1  0.603728  0.829358  0.387657  1
  N  N5  1  0.396272  0.170642  0.612343  1
  N  N6  1  0.110567  0.110567  0.110567  1
  N  N7  1  0.829358  0.387657  0.603728  1
  N  N8  1  0.387657  0.603728  0.829358  1
  N  N9  1  0.889433  0.889433  0.889433  1
  N  N10  1  0.170642  0.612343  0.396272  1
  N  N11  1  0.612343  0.396272  0.170642  1
  O  O12  1  0.990162  0.170406  0.171051  1
  O  O13  1  0.750814  0.490338  0.679009  1
  O  O14  1  0.347284  0.648800  0.962193  1
  O  O15  1  0.009838  0.829594  0.828949  1
  O  O16  1  0.249186  0.509662  0.320991  1
  O  O17  1  0.652716  0.351200  0.037807  1
  O  O18  1  0.171051  0.990162  0.170406  1
  O  O19  1  0.767765  0.328160  0.482452  1
  O  O20  1  0.490338  0.679009  0.750814  1
  O  O21  1  0.828949  0.009838  0.829594  1
  O  O22  1  0.232235  0.671840  0.517548  1
  O  O23  1  0.509662  0.320991  0.249186  1
  O  O24  1  0.170406  0.171051  0.990162  1
  O  O25  1  0.962193  0.347284  0.648800  1
  O  O26  1  0.328160  0.482452  0.767765  1
  O  O27  1  0.829594  0.828949  0.009838  1
  O  O28  1  0.037807  0.652716  0.351200  1
  O  O29  1  0.671840  0.517548  0.232235  1
  O  O30  1  0.648800  0.962193  0.347284  1
  O  O31  1  0.679009  0.750814  0.490338  1
  O  O32  1  0.482452  0.767765  0.328160  1
  O  O33  1  0.351200  0.037807  0.652716  1
  O  O34  1  0.320991  0.249186  0.509662  1
  O  O35  1  0.517548  0.232235  0.671840  1
