# generated using pymatgen
data_K3PaF8
_symmetry_space_group_name_H-M   'P 1'
_cell_length_a   8.64588400
_cell_length_b   8.64588334
_cell_length_c   6.55653300
_cell_angle_alpha   90.00000000
_cell_angle_beta   90.00000000
_cell_angle_gamma   119.99999486
_symmetry_Int_Tables_number   1
_chemical_formula_structural   K3PaF8
_chemical_formula_sum   'K6 Pa2 F16'
_cell_volume   424.44720819
_cell_formula_units_Z   2
loop_
 _symmetry_equiv_pos_site_id
 _symmetry_equiv_pos_as_xyz
  1  'x, y, z'
loop_
 _atom_site_type_symbol
 _atom_site_label
 _atom_site_symmetry_multiplicity
 _atom_site_fract_x
 _atom_site_fract_y
 _atom_site_fract_z
 _atom_site_occupancy
  K  K0  1  0.148441  0.296882  0.244055  1
  K  K1  1  0.851559  0.703118  0.744056  1
  K  K2  1  0.703118  0.851559  0.244055  1
  K  K3  1  0.148441  0.851559  0.244055  1
  K  K4  1  0.851559  0.148441  0.744056  1
  K  K5  1  0.296882  0.148441  0.744056  1
  Pa  Pa6  1  0.333333  0.666667  0.737134  1
  Pa  Pa7  1  0.666667  0.333333  0.237134  1
  F  F8  1  0.000000  0.000000  0.007808  1
  F  F9  1  0.000000  0.000000  0.507808  1
  F  F10  1  0.443684  0.556316  0.523486  1
  F  F11  1  0.556316  0.443684  0.023486  1
  F  F12  1  0.443684  0.887368  0.523486  1
  F  F13  1  0.112632  0.556316  0.523486  1
  F  F14  1  0.887368  0.443684  0.023486  1
  F  F15  1  0.556316  0.112632  0.023486  1
  F  F16  1  0.333333  0.666667  0.068561  1
  F  F17  1  0.666667  0.333333  0.568561  1
  F  F18  1  0.192781  0.807219  0.823009  1
  F  F19  1  0.807219  0.192781  0.323009  1
  F  F20  1  0.192781  0.385562  0.823009  1
  F  F21  1  0.614438  0.807219  0.823009  1
  F  F22  1  0.385562  0.192781  0.323009  1
  F  F23  1  0.807219  0.614438  0.323009  1
