# generated using pymatgen
data_NdY5(SnRh)6
_symmetry_space_group_name_H-M   'P 1'
_cell_length_a   7.51321700
_cell_length_b   7.49915081
_cell_length_c   8.00561100
_cell_angle_alpha   90.00000000
_cell_angle_beta   90.00000000
_cell_angle_gamma   119.93468904
_symmetry_Int_Tables_number   1
_chemical_formula_structural   NdY5(SnRh)6
_chemical_formula_sum   'Nd1 Y5 Sn6 Rh6'
_cell_volume   390.88461373
_cell_formula_units_Z   1
loop_
 _symmetry_equiv_pos_site_id
 _symmetry_equiv_pos_as_xyz
  1  'x, y, z'
loop_
 _atom_site_type_symbol
 _atom_site_label
 _atom_site_symmetry_multiplicity
 _atom_site_fract_x
 _atom_site_fract_y
 _atom_site_fract_z
 _atom_site_occupancy
  Nd  Nd0  1  0.999392  0.410687  0.250000  1
  Y  Y1  1  0.407225  0.000903  0.250000  1
  Y  Y2  1  0.592780  0.592498  0.750000  1
  Y  Y3  1  0.592978  0.593292  0.250000  1
  Y  Y4  1  0.000435  0.406030  0.750000  1
  Y  Y5  1  0.407182  0.999441  0.750000  1
  Sn  Sn6  1  0.259262  0.257458  0.500562  1
  Sn  Sn7  1  0.259262  0.257458  0.999438  1
  Sn  Sn8  1  0.740718  0.998123  0.999371  1
  Sn  Sn9  1  0.000023  0.743971  0.503797  1
  Sn  Sn10  1  0.740718  0.998123  0.500629  1
  Sn  Sn11  1  0.000023  0.743971  0.996203  1
  Rh  Rh12  1  0.664911  0.332618  0.504344  1
  Rh  Rh13  1  0.664911  0.332618  0.995656  1
  Rh  Rh14  1  0.335081  0.667736  0.997030  1
  Rh  Rh15  1  0.335081  0.667736  0.502970  1
  Rh  Rh16  1  0.000051  0.001095  0.750000  1
  Rh  Rh17  1  0.999963  0.996241  0.250000  1
