# generated using pymatgen
data_Gd2YMg3Si2Au
_symmetry_space_group_name_H-M   'P 1'
_cell_length_a   7.28345404
_cell_length_b   7.28345354
_cell_length_c   4.31538700
_cell_angle_alpha   90.00000000
_cell_angle_beta   90.00000000
_cell_angle_gamma   119.92743736
_symmetry_Int_Tables_number   1
_chemical_formula_structural   Gd2YMg3Si2Au
_chemical_formula_sum   'Gd2 Y1 Mg3 Si2 Au1'
_cell_volume   198.40024596
_cell_formula_units_Z   1
loop_
 _symmetry_equiv_pos_site_id
 _symmetry_equiv_pos_as_xyz
  1  'x, y, z'
loop_
 _atom_site_type_symbol
 _atom_site_label
 _atom_site_symmetry_multiplicity
 _atom_site_fract_x
 _atom_site_fract_y
 _atom_site_fract_z
 _atom_site_occupancy
  Gd  Gd0  1  0.581347  0.999585  0.000000  1
  Gd  Gd1  1  0.999585  0.581347  0.000000  1
  Y  Y2  1  0.418045  0.418045  0.000000  1
  Mg  Mg3  1  0.246430  0.000368  0.500000  1
  Mg  Mg4  1  0.000368  0.246430  0.500000  1
  Mg  Mg5  1  0.753372  0.753372  0.500000  1
  Si  Si6  1  0.333749  0.666272  0.500000  1
  Si  Si7  1  0.666272  0.333749  0.500000  1
  Au  Au8  1  0.000831  0.000831  0.000000  1
