# generated using pymatgen
data_TmTh4Np3N12
_symmetry_space_group_name_H-M   'P 1'
_cell_length_a   5.87687625
_cell_length_b   6.00585574
_cell_length_c   8.47304244
_cell_angle_alpha   90.25151271
_cell_angle_beta   90.06658757
_cell_angle_gamma   89.43124023
_symmetry_Int_Tables_number   1
_chemical_formula_structural   TmTh4Np3N12
_chemical_formula_sum   'Tm1 Th4 Np3 N12'
_cell_volume   299.04391546
_cell_formula_units_Z   1
loop_
 _symmetry_equiv_pos_site_id
 _symmetry_equiv_pos_as_xyz
  1  'x, y, z'
loop_
 _atom_site_type_symbol
 _atom_site_label
 _atom_site_symmetry_multiplicity
 _atom_site_fract_x
 _atom_site_fract_y
 _atom_site_fract_z
 _atom_site_occupancy
  Tm  Tm0  1  0.000000  0.500000  0.000000  1
  Th  Th1  1  0.508394  0.545334  0.244970  1
  Th  Th2  1  0.984295  0.052334  0.245687  1
  Th  Th3  1  0.491606  0.454666  0.755030  1
  Th  Th4  1  0.015705  0.947666  0.754313  1
  Np  Np5  1  0.500000  0.000000  0.500000  1
  Np  Np6  1  0.000000  0.500000  0.500000  1
  Np  Np7  1  0.500000  0.000000  0.000000  1
  N  N8  1  0.375613  0.950610  0.254462  1
  N  N9  1  0.116644  0.452524  0.263816  1
  N  N10  1  0.624387  0.049390  0.745538  1
  N  N11  1  0.883356  0.547476  0.736184  1
  N  N12  1  0.788973  0.819166  0.058158  1
  N  N13  1  0.705794  0.307030  0.434533  1
  N  N14  1  0.209204  0.189619  0.567061  1
  N  N15  1  0.314271  0.705051  0.935283  1
  N  N16  1  0.211027  0.180834  0.941842  1
  N  N17  1  0.294206  0.692970  0.565467  1
  N  N18  1  0.790796  0.810381  0.432939  1
  N  N19  1  0.685729  0.294949  0.064717  1
