# generated using pymatgen
data_Li8Pr8BiPb7
_symmetry_space_group_name_H-M   'P 1'
_cell_length_a   9.74484767
_cell_length_b   9.74484380
_cell_length_c   7.75670729
_cell_angle_alpha   89.93649261
_cell_angle_beta   90.06353046
_cell_angle_gamma   119.99136092
_symmetry_Int_Tables_number   1
_chemical_formula_structural   Li8Pr8BiPb7
_chemical_formula_sum   'Li8 Pr8 Bi1 Pb7'
_cell_volume   637.96288849
_cell_formula_units_Z   1
loop_
 _symmetry_equiv_pos_site_id
 _symmetry_equiv_pos_as_xyz
  1  'x, y, z'
loop_
 _atom_site_type_symbol
 _atom_site_label
 _atom_site_symmetry_multiplicity
 _atom_site_fract_x
 _atom_site_fract_y
 _atom_site_fract_z
 _atom_site_occupancy
  Li  Li0  1  0.833129  0.166871  0.715622  1
  Li  Li1  1  0.832183  0.665665  0.712845  1
  Li  Li2  1  0.334334  0.167816  0.712845  1
  Li  Li3  1  0.166894  0.833106  0.213994  1
  Li  Li4  1  0.168831  0.334753  0.211031  1
  Li  Li5  1  0.665248  0.831169  0.211031  1
  Li  Li6  1  0.665896  0.334104  0.332186  1
  Li  Li7  1  0.333620  0.666380  0.830308  1
  Pr  Pr8  1  0.487682  0.512317  0.505054  1
  Pr  Pr9  1  0.485139  0.974849  0.507048  1
  Pr  Pr10  1  0.025151  0.514861  0.507049  1
  Pr  Pr11  1  0.512293  0.487708  0.003884  1
  Pr  Pr12  1  0.509020  0.022167  0.003441  1
  Pr  Pr13  1  0.977833  0.490980  0.003441  1
  Pr  Pr14  1  0.001355  0.998645  0.501733  1
  Pr  Pr15  1  0.001175  0.998825  0.998606  1
  Bi  Bi16  1  0.833238  0.166761  0.267994  1
  Pb  Pb17  1  0.833496  0.666421  0.270543  1
  Pb  Pb18  1  0.333579  0.166503  0.270542  1
  Pb  Pb19  1  0.166688  0.833311  0.769618  1
  Pb  Pb20  1  0.166095  0.333376  0.770256  1
  Pb  Pb21  1  0.666624  0.833905  0.770255  1
  Pb  Pb22  1  0.667403  0.332597  0.734696  1
  Pb  Pb23  1  0.333092  0.666908  0.233984  1
