# generated using pymatgen
data_TbDy4(SiBi)2
_symmetry_space_group_name_H-M   'P 1'
_cell_length_a   8.66953002
_cell_length_b   8.66534624
_cell_length_c   7.93774141
_cell_angle_alpha   89.97320121
_cell_angle_beta   89.99517591
_cell_angle_gamma   125.60713060
_symmetry_Int_Tables_number   1
_chemical_formula_structural   TbDy4(SiBi)2
_chemical_formula_sum   'Tb2 Dy8 Si4 Bi4'
_cell_volume   484.82387625
_cell_formula_units_Z   2
loop_
 _symmetry_equiv_pos_site_id
 _symmetry_equiv_pos_as_xyz
  1  'x, y, z'
loop_
 _atom_site_type_symbol
 _atom_site_label
 _atom_site_symmetry_multiplicity
 _atom_site_fract_x
 _atom_site_fract_y
 _atom_site_fract_z
 _atom_site_occupancy
  Tb  Tb0  1  0.043909  0.288679  0.334165  1
  Tb  Tb1  1  0.956091  0.711321  0.665835  1
  Dy  Dy2  1  0.455997  0.211755  0.834279  1
  Dy  Dy3  1  0.788205  0.544006  0.165701  1
  Dy  Dy4  1  0.544003  0.788245  0.165721  1
  Dy  Dy5  1  0.211795  0.455994  0.834299  1
  Dy  Dy6  1  0.711671  0.956001  0.665714  1
  Dy  Dy7  1  0.288329  0.043999  0.334286  1
  Dy  Dy8  1  0.000000  0.000000  0.000000  1
  Dy  Dy9  1  0.500000  0.500000  0.500000  1
  Si  Si10  1  0.367725  0.367477  0.131310  1
  Si  Si11  1  0.632275  0.632523  0.868690  1
  Si  Si12  1  0.132716  0.132734  0.631666  1
  Si  Si13  1  0.867284  0.867266  0.368334  1
  Bi  Bi14  1  0.792016  0.207765  0.999725  1
  Bi  Bi15  1  0.207984  0.792235  0.000275  1
  Bi  Bi16  1  0.707361  0.291871  0.499930  1
  Bi  Bi17  1  0.292639  0.708129  0.500070  1
