# generated using pymatgen
data_Er6Tm3Th3Co4
_symmetry_space_group_name_H-M   'P 1'
_cell_length_a   6.26452615
_cell_length_b   6.88196546
_cell_length_c   9.49450404
_cell_angle_alpha   89.99612091
_cell_angle_beta   89.98998484
_cell_angle_gamma   91.06564721
_symmetry_Int_Tables_number   1
_chemical_formula_structural   Er6Tm3Th3Co4
_chemical_formula_sum   'Er6 Tm3 Th3 Co4'
_cell_volume   409.25865300
_cell_formula_units_Z   1
loop_
 _symmetry_equiv_pos_site_id
 _symmetry_equiv_pos_as_xyz
  1  'x, y, z'
loop_
 _atom_site_type_symbol
 _atom_site_label
 _atom_site_symmetry_multiplicity
 _atom_site_fract_x
 _atom_site_fract_y
 _atom_site_fract_z
 _atom_site_occupancy
  Er  Er0  1  0.823911  0.829085  0.928505  1
  Er  Er1  1  0.675590  0.329470  0.930313  1
  Er  Er2  1  0.823893  0.829240  0.571560  1
  Er  Er3  1  0.327543  0.672344  0.431512  1
  Er  Er4  1  0.170874  0.170340  0.069127  1
  Er  Er5  1  0.355721  0.957210  0.749869  1
  Tm  Tm6  1  0.327707  0.672181  0.068549  1
  Tm  Tm7  1  0.170921  0.170547  0.431101  1
  Tm  Tm8  1  0.675616  0.329207  0.569688  1
  Th  Th9  1  0.846003  0.550155  0.250110  1
  Th  Th10  1  0.652548  0.052899  0.250357  1
  Th  Th11  1  0.157376  0.449130  0.749682  1
  Co  Co12  1  0.034923  0.870971  0.249890  1
  Co  Co13  1  0.462317  0.371676  0.250385  1
  Co  Co14  1  0.960172  0.132407  0.749312  1
  Co  Co15  1  0.534887  0.613138  0.750041  1
