# generated using pymatgen
data_Ta12Fe8Os4CN3
_symmetry_space_group_name_H-M   'P 1'
_cell_length_a   8.09707203
_cell_length_b   8.09693852
_cell_length_c   8.09690498
_cell_angle_alpha   59.90865749
_cell_angle_beta   59.90665324
_cell_angle_gamma   59.90566238
_symmetry_Int_Tables_number   1
_chemical_formula_structural   Ta12Fe8Os4CN3
_chemical_formula_sum   'Ta12 Fe8 Os4 C1 N3'
_cell_volume   374.57222397
_cell_formula_units_Z   1
loop_
 _symmetry_equiv_pos_site_id
 _symmetry_equiv_pos_as_xyz
  1  'x, y, z'
loop_
 _atom_site_type_symbol
 _atom_site_label
 _atom_site_symmetry_multiplicity
 _atom_site_fract_x
 _atom_site_fract_y
 _atom_site_fract_z
 _atom_site_occupancy
  Ta  Ta0  1  0.805374  0.805384  0.195287  1
  Ta  Ta1  1  0.195227  0.195226  0.804614  1
  Ta  Ta2  1  0.805367  0.195287  0.805384  1
  Ta  Ta3  1  0.195221  0.804619  0.195225  1
  Ta  Ta4  1  0.195282  0.805372  0.805378  1
  Ta  Ta5  1  0.804637  0.195211  0.195215  1
  Ta  Ta6  1  0.444626  0.444616  0.054713  1
  Ta  Ta7  1  0.054773  0.054774  0.445386  1
  Ta  Ta8  1  0.444633  0.054713  0.444616  1
  Ta  Ta9  1  0.054779  0.445381  0.054775  1
  Ta  Ta10  1  0.054718  0.444628  0.444622  1
  Ta  Ta11  1  0.445363  0.054789  0.054785  1
  Fe  Fe12  1  0.730706  0.423363  0.423359  1
  Fe  Fe13  1  0.423376  0.730709  0.423359  1
  Fe  Fe14  1  0.423373  0.423359  0.730709  1
  Fe  Fe15  1  0.423128  0.423119  0.423115  1
  Fe  Fe16  1  0.519294  0.826637  0.826641  1
  Fe  Fe17  1  0.826624  0.519291  0.826641  1
  Fe  Fe18  1  0.826627  0.826641  0.519291  1
  Fe  Fe19  1  0.826872  0.826881  0.826885  1
  Os  Os20  1  0.125000  0.625000  0.625000  1
  Os  Os21  1  0.625000  0.125000  0.625000  1
  Os  Os22  1  0.625000  0.625000  0.125000  1
  Os  Os23  1  0.625000  0.625000  0.625000  1
  C  C24  1  0.125000  0.125000  0.125000  1
  N  N25  1  0.625000  0.125000  0.125000  1
  N  N26  1  0.125000  0.625000  0.125000  1
  N  N27  1  0.125000  0.125000  0.625000  1
