# generated using pymatgen
data_LiHo6Th2MgCo2
_symmetry_space_group_name_H-M   'P 1'
_cell_length_a   9.56780727
_cell_length_b   9.56780710
_cell_length_c   9.57544600
_cell_angle_alpha   59.97358575
_cell_angle_beta   59.97358635
_cell_angle_gamma   60.04524898
_symmetry_Int_Tables_number   1
_chemical_formula_structural   LiHo6Th2MgCo2
_chemical_formula_sum   'Li2 Ho12 Th4 Mg2 Co4'
_cell_volume   619.78849935
_cell_formula_units_Z   2
loop_
 _symmetry_equiv_pos_site_id
 _symmetry_equiv_pos_as_xyz
  1  'x, y, z'
loop_
 _atom_site_type_symbol
 _atom_site_label
 _atom_site_symmetry_multiplicity
 _atom_site_fract_x
 _atom_site_fract_y
 _atom_site_fract_z
 _atom_site_occupancy
  Li  Li0  1  0.579448  0.579448  0.579250  1
  Li  Li1  1  0.579448  0.579448  0.261853  1
  Ho  Ho2  1  0.814097  0.185450  0.186330  1
  Ho  Ho3  1  0.185450  0.814097  0.814123  1
  Ho  Ho4  1  0.185450  0.814097  0.186330  1
  Ho  Ho5  1  0.814097  0.185450  0.814123  1
  Ho  Ho6  1  0.186661  0.186661  0.813339  1
  Ho  Ho7  1  0.815338  0.815338  0.184662  1
  Ho  Ho8  1  0.934264  0.565192  0.565313  1
  Ho  Ho9  1  0.565192  0.934264  0.935231  1
  Ho  Ho10  1  0.565192  0.934264  0.565313  1
  Ho  Ho11  1  0.934264  0.565192  0.935231  1
  Ho  Ho12  1  0.565143  0.565143  0.934857  1
  Ho  Ho13  1  0.934641  0.934641  0.565359  1
  Th  Th14  1  0.344913  0.344913  0.344108  1
  Th  Th15  1  0.344913  0.344913  0.966068  1
  Th  Th16  1  0.344554  0.966096  0.344676  1
  Th  Th17  1  0.966096  0.344554  0.344676  1
  Mg  Mg18  1  0.580479  0.260619  0.579450  1
  Mg  Mg19  1  0.260619  0.580479  0.579450  1
  Co  Co20  1  0.144910  0.144910  0.144712  1
  Co  Co21  1  0.144910  0.144910  0.565468  1
  Co  Co22  1  0.144535  0.565384  0.145040  1
  Co  Co23  1  0.565384  0.144535  0.145040  1
