# generated using pymatgen
data_Cs6Ir(RhBr6)3
_symmetry_space_group_name_H-M   'P 1'
_cell_length_a   7.74024700
_cell_length_b   7.74024715
_cell_length_c   19.67161800
_cell_angle_alpha   90.00000000
_cell_angle_beta   90.00000000
_cell_angle_gamma   119.99999507
_symmetry_Int_Tables_number   1
_chemical_formula_structural   Cs6Ir(RhBr6)3
_chemical_formula_sum   'Cs6 Ir1 Rh3 Br18'
_cell_volume   1020.65832841
_cell_formula_units_Z   1
loop_
 _symmetry_equiv_pos_site_id
 _symmetry_equiv_pos_as_xyz
  1  'x, y, z'
loop_
 _atom_site_type_symbol
 _atom_site_label
 _atom_site_symmetry_multiplicity
 _atom_site_fract_x
 _atom_site_fract_y
 _atom_site_fract_z
 _atom_site_occupancy
  Cs  Cs0  1  0.666667  0.333333  0.932522  1
  Cs  Cs1  1  0.333333  0.666667  0.432171  1
  Cs  Cs2  1  0.666667  0.333333  0.567424  1
  Cs  Cs3  1  0.333333  0.666667  0.067718  1
  Cs  Cs4  1  0.000000  0.000000  0.749851  1
  Cs  Cs5  1  0.000000  0.000000  0.249971  1
  Ir  Ir6  1  0.333333  0.666667  0.833206  1
  Rh  Rh7  1  0.333333  0.666667  0.665679  1
  Rh  Rh8  1  0.666667  0.333333  0.166582  1
  Rh  Rh9  1  0.666667  0.333333  0.333414  1
  Br  Br10  1  0.819618  0.639234  0.405179  1
  Br  Br11  1  0.180058  0.360117  0.905376  1
  Br  Br12  1  0.180058  0.819942  0.905376  1
  Br  Br13  1  0.180172  0.360343  0.594389  1
  Br  Br14  1  0.639883  0.819942  0.905376  1
  Br  Br15  1  0.360766  0.180382  0.405179  1
  Br  Br16  1  0.041553  0.520777  0.750492  1
  Br  Br17  1  0.819618  0.180382  0.405179  1
  Br  Br18  1  0.519993  0.039986  0.250062  1
  Br  Br19  1  0.479223  0.520777  0.750492  1
  Br  Br20  1  0.519993  0.480007  0.250062  1
  Br  Br21  1  0.960014  0.480007  0.250062  1
  Br  Br22  1  0.360758  0.180379  0.094990  1
  Br  Br23  1  0.479223  0.958447  0.750492  1
  Br  Br24  1  0.819621  0.639242  0.094990  1
  Br  Br25  1  0.180172  0.819828  0.594389  1
  Br  Br26  1  0.639657  0.819828  0.594389  1
  Br  Br27  1  0.819621  0.180379  0.094990  1
