# generated using pymatgen
data_TmZr2(Ni3P2)3
_symmetry_space_group_name_H-M   'P 1'
_cell_length_a   3.67620900
_cell_length_b   10.37174400
_cell_length_c   12.13080300
_cell_angle_alpha   90.00000000
_cell_angle_beta   90.00000000
_cell_angle_gamma   90.00000000
_symmetry_Int_Tables_number   1
_chemical_formula_structural   TmZr2(Ni3P2)3
_chemical_formula_sum   'Tm2 Zr4 Ni18 P12'
_cell_volume   462.53173183
_cell_formula_units_Z   2
loop_
 _symmetry_equiv_pos_site_id
 _symmetry_equiv_pos_as_xyz
  1  'x, y, z'
loop_
 _atom_site_type_symbol
 _atom_site_label
 _atom_site_symmetry_multiplicity
 _atom_site_fract_x
 _atom_site_fract_y
 _atom_site_fract_z
 _atom_site_occupancy
  Tm  Tm0  1  0.751904  0.000000  0.474494  1
  Tm  Tm1  1  0.251904  0.500000  0.525506  1
  Zr  Zr2  1  0.251843  0.679382  0.795138  1
  Zr  Zr3  1  0.251843  0.320618  0.795138  1
  Zr  Zr4  1  0.751843  0.820618  0.204862  1
  Zr  Zr5  1  0.751843  0.179382  0.204862  1
  Ni  Ni6  1  0.751821  0.000000  0.013366  1
  Ni  Ni7  1  0.251821  0.500000  0.986634  1
  Ni  Ni8  1  0.251743  0.198439  0.570861  1
  Ni  Ni9  1  0.251743  0.801561  0.570861  1
  Ni  Ni10  1  0.751743  0.301561  0.429139  1
  Ni  Ni11  1  0.751743  0.698439  0.429139  1
  Ni  Ni12  1  0.251840  0.623518  0.289951  1
  Ni  Ni13  1  0.251840  0.376482  0.289951  1
  Ni  Ni14  1  0.751840  0.876482  0.710049  1
  Ni  Ni15  1  0.751840  0.123518  0.710049  1
  Ni  Ni16  1  0.251713  0.168891  0.003890  1
  Ni  Ni17  1  0.251713  0.831109  0.003890  1
  Ni  Ni18  1  0.751713  0.331109  0.996110  1
  Ni  Ni19  1  0.751713  0.668891  0.996110  1
  Ni  Ni20  1  0.251763  0.000000  0.838237  1
  Ni  Ni21  1  0.751763  0.500000  0.161763  1
  Ni  Ni22  1  0.252196  0.000000  0.297915  1
  Ni  Ni23  1  0.752196  0.500000  0.702085  1
  P  P24  1  0.251842  0.185008  0.382935  1
  P  P25  1  0.251842  0.814992  0.382935  1
  P  P26  1  0.751842  0.314992  0.617065  1
  P  P27  1  0.751842  0.685008  0.617065  1
  P  P28  1  0.251743  0.000000  0.121909  1
  P  P29  1  0.751743  0.500000  0.878091  1
  P  P30  1  0.251772  0.655546  0.111221  1
  P  P31  1  0.251772  0.344454  0.111221  1
  P  P32  1  0.751772  0.844454  0.888779  1
  P  P33  1  0.751772  0.155546  0.888779  1
  P  P34  1  0.251866  0.000000  0.652751  1
  P  P35  1  0.751866  0.500000  0.347249  1
