# generated using pymatgen
data_ErPa2(CoGe)3
_symmetry_space_group_name_H-M   'P 1'
_cell_length_a   6.82377767
_cell_length_b   6.78948656
_cell_length_c   3.84941900
_cell_angle_alpha   90.00000000
_cell_angle_beta   90.00000000
_cell_angle_gamma   119.83390608
_symmetry_Int_Tables_number   1
_chemical_formula_structural   ErPa2(CoGe)3
_chemical_formula_sum   'Er1 Pa2 Co3 Ge3'
_cell_volume   154.70774464
_cell_formula_units_Z   1
loop_
 _symmetry_equiv_pos_site_id
 _symmetry_equiv_pos_as_xyz
  1  'x, y, z'
loop_
 _atom_site_type_symbol
 _atom_site_label
 _atom_site_symmetry_multiplicity
 _atom_site_fract_x
 _atom_site_fract_y
 _atom_site_fract_z
 _atom_site_occupancy
  Er  Er0  1  0.000000  0.591231  0.500000  1
  Pa  Pa1  1  0.583638  0.998888  0.500000  1
  Pa  Pa2  1  0.416363  0.415250  0.500000  1
  Co  Co3  1  0.641409  0.312351  0.000000  1
  Co  Co4  1  0.358591  0.670943  0.000000  1
  Co  Co5  1  0.000000  0.013924  0.500000  1
  Ge  Ge6  1  0.239845  0.989185  0.000000  1
  Ge  Ge7  1  0.000000  0.258885  0.000000  1
  Ge  Ge8  1  0.760156  0.749340  0.000000  1
