# generated using pymatgen
data_ErTm7B24Ir3Ru
_symmetry_space_group_name_H-M   'P 1'
_cell_length_a   3.61090800
_cell_length_b   9.12525768
_cell_length_c   11.43688902
_cell_angle_alpha   90.02556809
_cell_angle_beta   90.00000000
_cell_angle_gamma   90.00000000
_symmetry_Int_Tables_number   1
_chemical_formula_structural   ErTm7B24Ir3Ru
_chemical_formula_sum   'Er1 Tm7 B24 Ir3 Ru1'
_cell_volume   376.85078474
_cell_formula_units_Z   1
loop_
 _symmetry_equiv_pos_site_id
 _symmetry_equiv_pos_as_xyz
  1  'x, y, z'
loop_
 _atom_site_type_symbol
 _atom_site_label
 _atom_site_symmetry_multiplicity
 _atom_site_fract_x
 _atom_site_fract_y
 _atom_site_fract_z
 _atom_site_occupancy
  Er  Er0  1  0.000000  0.320359  0.413279  1
  Tm  Tm1  1  0.000000  0.681070  0.588048  1
  Tm  Tm2  1  0.000000  0.820423  0.084856  1
  Tm  Tm3  1  0.000000  0.177729  0.912996  1
  Tm  Tm4  1  0.000000  0.944112  0.374032  1
  Tm  Tm5  1  0.000000  0.054183  0.627056  1
  Tm  Tm6  1  0.000000  0.444159  0.125714  1
  Tm  Tm7  1  0.000000  0.557682  0.874201  1
  B  B8  1  0.500000  0.553771  0.434941  1
  B  B9  1  0.500000  0.446571  0.565402  1
  B  B10  1  0.500000  0.053201  0.065236  1
  B  B11  1  0.500000  0.946002  0.933939  1
  B  B12  1  0.500000  0.750151  0.421328  1
  B  B13  1  0.500000  0.249876  0.579085  1
  B  B14  1  0.500000  0.249745  0.078780  1
  B  B15  1  0.500000  0.751458  0.920198  1
  B  B16  1  0.500000  0.793613  0.264586  1
  B  B17  1  0.500000  0.206457  0.734799  1
  B  B18  1  0.500000  0.293907  0.235193  1
  B  B19  1  0.500000  0.707350  0.765568  1
  B  B20  1  0.500000  0.631850  0.183601  1
  B  B21  1  0.500000  0.368215  0.816311  1
  B  B22  1  0.500000  0.132075  0.316215  1
  B  B23  1  0.500000  0.868313  0.684886  1
  B  B24  1  0.500000  0.981068  0.213232  1
  B  B25  1  0.500000  0.017352  0.786547  1
  B  B26  1  0.500000  0.481518  0.286351  1
  B  B27  1  0.500000  0.518766  0.713881  1
  B  B28  1  0.500000  0.609136  0.030228  1
  B  B29  1  0.500000  0.390447  0.970077  1
  B  B30  1  0.500000  0.108915  0.470062  1
  B  B31  1  0.500000  0.890812  0.529656  1
  Ir  Ir32  1  0.000000  0.638265  0.321608  1
  Ir  Ir33  1  0.000000  0.362150  0.678885  1
  Ir  Ir34  1  0.000000  0.137520  0.178163  1
  Ru  Ru35  1  0.000000  0.861778  0.821061  1
