# generated using pymatgen
data_Tm8Al2IrRh
_symmetry_space_group_name_H-M   'P 1'
_cell_length_a   9.41922581
_cell_length_b   9.41922624
_cell_length_c   9.44935900
_cell_angle_alpha   59.89410853
_cell_angle_beta   59.89410702
_cell_angle_gamma   59.83955727
_symmetry_Int_Tables_number   1
_chemical_formula_structural   Tm8Al2IrRh
_chemical_formula_sum   'Tm16 Al4 Ir2 Rh2'
_cell_volume   591.14379204
_cell_formula_units_Z   2
loop_
 _symmetry_equiv_pos_site_id
 _symmetry_equiv_pos_as_xyz
  1  'x, y, z'
loop_
 _atom_site_type_symbol
 _atom_site_label
 _atom_site_symmetry_multiplicity
 _atom_site_fract_x
 _atom_site_fract_y
 _atom_site_fract_z
 _atom_site_occupancy
  Tm  Tm0  1  0.061745  0.061745  0.438255  1
  Tm  Tm1  1  0.439081  0.062766  0.435608  1
  Tm  Tm2  1  0.062766  0.439081  0.062546  1
  Tm  Tm3  1  0.056109  0.648639  0.647627  1
  Tm  Tm4  1  0.437333  0.437333  0.062667  1
  Tm  Tm5  1  0.648639  0.056109  0.647627  1
  Tm  Tm6  1  0.193653  0.805896  0.195077  1
  Tm  Tm7  1  0.194479  0.194479  0.805521  1
  Tm  Tm8  1  0.805506  0.805506  0.194494  1
  Tm  Tm9  1  0.439081  0.062766  0.062546  1
  Tm  Tm10  1  0.805896  0.193653  0.195077  1
  Tm  Tm11  1  0.062766  0.439081  0.435608  1
  Tm  Tm12  1  0.805896  0.193653  0.805373  1
  Tm  Tm13  1  0.193653  0.805896  0.805373  1
  Tm  Tm14  1  0.647685  0.647685  0.058875  1
  Tm  Tm15  1  0.647685  0.647685  0.645757  1
  Al  Al16  1  0.421440  0.421440  0.421975  1
  Al  Al17  1  0.735932  0.421334  0.421366  1
  Al  Al18  1  0.421334  0.735932  0.421366  1
  Al  Al19  1  0.421440  0.421440  0.735144  1
  Ir  Ir20  1  0.857370  0.857370  0.425754  1
  Ir  Ir21  1  0.857370  0.857370  0.859506  1
  Rh  Rh22  1  0.426071  0.857075  0.858427  1
  Rh  Rh23  1  0.857075  0.426071  0.858427  1
