# generated using pymatgen
data_BaLi2HoSi4
_symmetry_space_group_name_H-M   'P 1'
_cell_length_a   3.87512100
_cell_length_b   8.06387441
_cell_length_c   10.82156355
_cell_angle_alpha   89.71885246
_cell_angle_beta   90.00000000
_cell_angle_gamma   90.00000000
_symmetry_Int_Tables_number   1
_chemical_formula_structural   BaLi2HoSi4
_chemical_formula_sum   'Ba2 Li4 Ho2 Si8'
_cell_volume   338.15343893
_cell_formula_units_Z   2
loop_
 _symmetry_equiv_pos_site_id
 _symmetry_equiv_pos_as_xyz
  1  'x, y, z'
loop_
 _atom_site_type_symbol
 _atom_site_label
 _atom_site_symmetry_multiplicity
 _atom_site_fract_x
 _atom_site_fract_y
 _atom_site_fract_z
 _atom_site_occupancy
  Ba  Ba0  1  0.250000  0.639145  0.634249  1
  Ba  Ba1  1  0.750000  0.360855  0.365751  1
  Li  Li2  1  0.250000  0.004695  0.384945  1
  Li  Li3  1  0.750000  0.995305  0.615055  1
  Li  Li4  1  0.250000  0.490306  0.103845  1
  Li  Li5  1  0.750000  0.509694  0.896155  1
  Ho  Ho6  1  0.250000  0.120287  0.870135  1
  Ho  Ho7  1  0.750000  0.879713  0.129865  1
  Si  Si8  1  0.750000  0.256182  0.055229  1
  Si  Si9  1  0.250000  0.743818  0.944771  1
  Si  Si10  1  0.750000  0.790863  0.407684  1
  Si  Si11  1  0.250000  0.209137  0.592316  1
  Si  Si12  1  0.750000  0.845919  0.838982  1
  Si  Si13  1  0.250000  0.154081  0.161018  1
  Si  Si14  1  0.750000  0.311516  0.696995  1
  Si  Si15  1  0.250000  0.688484  0.303005  1
