# generated using pymatgen
data_Lu10In8PtRh3
_symmetry_space_group_name_H-M   'P 1'
_cell_length_a   3.54766600
_cell_length_b   7.97348461
_cell_length_c   18.04567312
_cell_angle_alpha   90.06654396
_cell_angle_beta   90.00000000
_cell_angle_gamma   90.00000000
_symmetry_Int_Tables_number   1
_chemical_formula_structural   Lu10In8PtRh3
_chemical_formula_sum   'Lu10 In8 Pt1 Rh3'
_cell_volume   510.46230762
_cell_formula_units_Z   1
loop_
 _symmetry_equiv_pos_site_id
 _symmetry_equiv_pos_as_xyz
  1  'x, y, z'
loop_
 _atom_site_type_symbol
 _atom_site_label
 _atom_site_symmetry_multiplicity
 _atom_site_fract_x
 _atom_site_fract_y
 _atom_site_fract_z
 _atom_site_occupancy
  Lu  Lu0  1  0.000000  0.115954  0.413188  1
  Lu  Lu1  1  0.000000  0.882934  0.587944  1
  Lu  Lu2  1  0.000000  0.383365  0.911950  1
  Lu  Lu3  1  0.000000  0.617565  0.085999  1
  Lu  Lu4  1  0.000000  0.240952  0.221642  1
  Lu  Lu5  1  0.000000  0.755233  0.778412  1
  Lu  Lu6  1  0.000000  0.255194  0.721670  1
  Lu  Lu7  1  0.000000  0.748939  0.278918  1
  Lu  Lu8  1  0.000000  0.999841  0.999801  1
  Lu  Lu9  1  0.000000  0.500300  0.500214  1
  In  In10  1  0.500000  0.424485  0.352389  1
  In  In11  1  0.500000  0.571963  0.649391  1
  In  In12  1  0.500000  0.072690  0.850615  1
  In  In13  1  0.500000  0.928976  0.148656  1
  In  In14  1  0.500000  0.291646  0.065319  1
  In  In15  1  0.500000  0.707293  0.932594  1
  In  In16  1  0.500000  0.206887  0.566950  1
  In  In17  1  0.500000  0.792482  0.433266  1
  Pt  Pt18  1  0.500000  0.524994  0.196480  1
  Rh  Rh19  1  0.500000  0.024377  0.304684  1
  Rh  Rh20  1  0.500000  0.977268  0.695700  1
  Rh  Rh21  1  0.500000  0.476661  0.804217  1
