# generated using pymatgen
data_Nd3CoSn6
_symmetry_space_group_name_H-M   'P 1'
_cell_length_a   8.65600525
_cell_length_b   8.65600524
_cell_length_c   13.35782400
_cell_angle_alpha   90.00000000
_cell_angle_beta   90.00000000
_cell_angle_gamma   148.92402845
_symmetry_Int_Tables_number   1
_chemical_formula_structural   Nd3CoSn6
_chemical_formula_sum   'Nd6 Co2 Sn12'
_cell_volume   516.61501021
_cell_formula_units_Z   2
loop_
 _symmetry_equiv_pos_site_id
 _symmetry_equiv_pos_as_xyz
  1  'x, y, z'
loop_
 _atom_site_type_symbol
 _atom_site_label
 _atom_site_symmetry_multiplicity
 _atom_site_fract_x
 _atom_site_fract_y
 _atom_site_fract_z
 _atom_site_occupancy
  Nd  Nd0  1  0.899484  0.100516  0.091827  1
  Nd  Nd1  1  0.100516  0.899484  0.591827  1
  Nd  Nd2  1  0.898943  0.101057  0.750000  1
  Nd  Nd3  1  0.100516  0.899484  0.908173  1
  Nd  Nd4  1  0.101057  0.898943  0.250000  1
  Nd  Nd5  1  0.899484  0.100516  0.408173  1
  Co  Co6  1  0.299038  0.700962  0.250000  1
  Co  Co7  1  0.700962  0.299038  0.750000  1
  Sn  Sn8  1  0.753642  0.246358  0.571560  1
  Sn  Sn9  1  0.430004  0.569996  0.577568  1
  Sn  Sn10  1  0.569996  0.430004  0.422432  1
  Sn  Sn11  1  0.736807  0.263193  0.250000  1
  Sn  Sn12  1  0.263193  0.736807  0.750000  1
  Sn  Sn13  1  0.246358  0.753642  0.071560  1
  Sn  Sn14  1  0.246358  0.753642  0.428440  1
  Sn  Sn15  1  0.569996  0.430004  0.077568  1
  Sn  Sn16  1  0.452288  0.547712  0.250000  1
  Sn  Sn17  1  0.547712  0.452288  0.750000  1
  Sn  Sn18  1  0.753642  0.246358  0.928440  1
  Sn  Sn19  1  0.430004  0.569996  0.922432  1
