# generated using pymatgen
data_Pr6Ga4RuRh3
_symmetry_space_group_name_H-M   'P 1'
_cell_length_a   5.76943882
_cell_length_b   8.21079106
_cell_length_c   13.75499800
_cell_angle_alpha   90.00000000
_cell_angle_beta   90.00000000
_cell_angle_gamma   90.05964833
_symmetry_Int_Tables_number   1
_chemical_formula_structural   Pr6Ga4RuRh3
_chemical_formula_sum   'Pr12 Ga8 Ru2 Rh6'
_cell_volume   651.59668976
_cell_formula_units_Z   2
loop_
 _symmetry_equiv_pos_site_id
 _symmetry_equiv_pos_as_xyz
  1  'x, y, z'
loop_
 _atom_site_type_symbol
 _atom_site_label
 _atom_site_symmetry_multiplicity
 _atom_site_fract_x
 _atom_site_fract_y
 _atom_site_fract_z
 _atom_site_occupancy
  Pr  Pr0  1  0.147135  0.895631  0.597659  1
  Pr  Pr1  1  0.852865  0.104369  0.097659  1
  Pr  Pr2  1  0.146572  0.600724  0.403384  1
  Pr  Pr3  1  0.853428  0.399276  0.903384  1
  Pr  Pr4  1  0.855094  0.101362  0.402710  1
  Pr  Pr5  1  0.144906  0.898638  0.902710  1
  Pr  Pr6  1  0.853635  0.402000  0.598254  1
  Pr  Pr7  1  0.146365  0.598000  0.098254  1
  Pr  Pr8  1  0.368347  0.260661  0.748553  1
  Pr  Pr9  1  0.631653  0.739339  0.248553  1
  Pr  Pr10  1  0.371197  0.244299  0.249434  1
  Pr  Pr11  1  0.628803  0.755701  0.749434  1
  Ga  Ga12  1  0.862940  0.106046  0.750194  1
  Ga  Ga13  1  0.137060  0.893954  0.250194  1
  Ga  Ga14  1  0.865708  0.393271  0.249954  1
  Ga  Ga15  1  0.134292  0.606729  0.749954  1
  Ga  Ga16  1  0.371629  0.249929  0.501262  1
  Ga  Ga17  1  0.628371  0.750071  0.001262  1
  Ga  Ga18  1  0.626641  0.748323  0.500377  1
  Ga  Ga19  1  0.373359  0.251677  0.000377  1
  Ru  Ru20  1  0.352993  0.531281  0.590117  1
  Ru  Ru21  1  0.647007  0.468719  0.090117  1
  Rh  Rh22  1  0.643476  0.030062  0.591656  1
  Rh  Rh23  1  0.356524  0.969938  0.091656  1
  Rh  Rh24  1  0.642787  0.465599  0.408227  1
  Rh  Rh25  1  0.357213  0.534401  0.908227  1
  Rh  Rh26  1  0.358496  0.970453  0.408220  1
  Rh  Rh27  1  0.641504  0.029547  0.908220  1
