# generated using pymatgen
data_Nd2Re5(Tc4C)3
_symmetry_space_group_name_H-M   'P 1'
_cell_length_a   7.04136391
_cell_length_b   7.03481750
_cell_length_c   7.04136429
_cell_angle_alpha   82.80162630
_cell_angle_beta   82.88554438
_cell_angle_gamma   82.80161630
_symmetry_Int_Tables_number   1
_chemical_formula_structural   Nd2Re5(Tc4C)3
_chemical_formula_sum   'Nd2 Re5 Tc12 C3'
_cell_volume   341.23676452
_cell_formula_units_Z   1
loop_
 _symmetry_equiv_pos_site_id
 _symmetry_equiv_pos_as_xyz
  1  'x, y, z'
loop_
 _atom_site_type_symbol
 _atom_site_label
 _atom_site_symmetry_multiplicity
 _atom_site_fract_x
 _atom_site_fract_y
 _atom_site_fract_z
 _atom_site_occupancy
  Nd  Nd0  1  0.649919  0.650959  0.650045  1
  Nd  Nd1  1  0.349955  0.349041  0.350081  1
  Re  Re2  1  0.999761  0.000067  0.501056  1
  Re  Re3  1  0.498944  0.999933  0.000239  1
  Re  Re4  1  0.000430  0.500000  0.999570  1
  Re  Re5  1  0.722418  0.278130  0.999575  1
  Re  Re6  1  0.000425  0.721870  0.277582  1
  Tc  Tc7  1  0.278329  0.000000  0.721671  1
  Tc  Tc8  1  0.999844  0.278548  0.720638  1
  Tc  Tc9  1  0.721194  0.000000  0.278806  1
  Tc  Tc10  1  0.279362  0.721452  0.000156  1
  Tc  Tc11  1  0.347748  0.867111  0.348100  1
  Tc  Tc12  1  0.347502  0.347632  0.867019  1
  Tc  Tc13  1  0.866730  0.347461  0.347832  1
  Tc  Tc14  1  0.651900  0.132889  0.652252  1
  Tc  Tc15  1  0.652168  0.652539  0.133270  1
  Tc  Tc16  1  0.132981  0.652368  0.652498  1
  Tc  Tc17  1  0.903262  0.902871  0.902914  1
  Tc  Tc18  1  0.097086  0.097129  0.096738  1
  C  C19  1  0.500621  0.499164  0.000042  1
  C  C20  1  0.999958  0.500836  0.499379  1
  C  C21  1  0.499462  0.000000  0.500538  1
