# generated using pymatgen
data_LiTb16Cd3FePd3
_symmetry_space_group_name_H-M   'P 1'
_cell_length_a   9.72351672
_cell_length_b   9.72351575
_cell_length_c   9.72351685
_cell_angle_alpha   59.56490153
_cell_angle_beta   59.56490474
_cell_angle_gamma   59.56490170
_symmetry_Int_Tables_number   1
_chemical_formula_structural   LiTb16Cd3FePd3
_chemical_formula_sum   'Li1 Tb16 Cd3 Fe1 Pd3'
_cell_volume   643.63240866
_cell_formula_units_Z   1
loop_
 _symmetry_equiv_pos_site_id
 _symmetry_equiv_pos_as_xyz
  1  'x, y, z'
loop_
 _atom_site_type_symbol
 _atom_site_label
 _atom_site_symmetry_multiplicity
 _atom_site_fract_x
 _atom_site_fract_y
 _atom_site_fract_z
 _atom_site_occupancy
  Li  Li0  1  0.570647  0.570647  0.570647  1
  Tb  Tb1  1  0.354775  0.354775  0.354775  1
  Tb  Tb2  1  0.343809  0.343809  0.954619  1
  Tb  Tb3  1  0.343809  0.954619  0.343809  1
  Tb  Tb4  1  0.954619  0.343809  0.343809  1
  Tb  Tb5  1  0.820932  0.189365  0.189365  1
  Tb  Tb6  1  0.186243  0.811936  0.811936  1
  Tb  Tb7  1  0.189365  0.820932  0.189365  1
  Tb  Tb8  1  0.811936  0.186243  0.811936  1
  Tb  Tb9  1  0.189365  0.189365  0.820932  1
  Tb  Tb10  1  0.811936  0.811936  0.186243  1
  Tb  Tb11  1  0.934668  0.564801  0.564801  1
  Tb  Tb12  1  0.562510  0.935496  0.935496  1
  Tb  Tb13  1  0.564801  0.934668  0.564801  1
  Tb  Tb14  1  0.935496  0.562510  0.935496  1
  Tb  Tb15  1  0.564801  0.564801  0.934668  1
  Tb  Tb16  1  0.935496  0.935496  0.562510  1
  Cd  Cd17  1  0.582819  0.582819  0.253233  1
  Cd  Cd18  1  0.582819  0.253233  0.582819  1
  Cd  Cd19  1  0.253233  0.582819  0.582819  1
  Fe  Fe20  1  0.143874  0.143874  0.143874  1
  Pd  Pd21  1  0.146092  0.146092  0.569863  1
  Pd  Pd22  1  0.146092  0.569863  0.146092  1
  Pd  Pd23  1  0.569863  0.146092  0.146092  1
