# generated using pymatgen
data_Ho6Lu6GaCo4Sn
_symmetry_space_group_name_H-M   'P 1'
_cell_length_a   8.23089674
_cell_length_b   8.20605702
_cell_length_c   8.20600969
_cell_angle_alpha   111.86687712
_cell_angle_beta   109.52283781
_cell_angle_gamma   106.95744714
_symmetry_Int_Tables_number   1
_chemical_formula_structural   Ho6Lu6GaCo4Sn
_chemical_formula_sum   'Ho6 Lu6 Ga1 Co4 Sn1'
_cell_volume   426.43160582
_cell_formula_units_Z   1
loop_
 _symmetry_equiv_pos_site_id
 _symmetry_equiv_pos_as_xyz
  1  'x, y, z'
loop_
 _atom_site_type_symbol
 _atom_site_label
 _atom_site_symmetry_multiplicity
 _atom_site_fract_x
 _atom_site_fract_y
 _atom_site_fract_z
 _atom_site_occupancy
  Ho  Ho0  1  0.565089  0.266338  0.298705  1
  Ho  Ho1  1  0.434911  0.733662  0.701295  1
  Ho  Ho2  1  0.180288  0.779495  0.961963  1
  Ho  Ho3  1  0.819687  0.781621  0.599149  1
  Ho  Ho4  1  0.180313  0.218379  0.400851  1
  Ho  Ho5  1  0.819712  0.220505  0.038037  1
  Lu  Lu6  1  0.967850  0.266143  0.701664  1
  Lu  Lu7  1  0.032150  0.733857  0.298336  1
  Lu  Lu8  1  0.675317  0.858514  0.186222  1
  Lu  Lu9  1  0.324721  0.510903  0.183240  1
  Lu  Lu10  1  0.324683  0.141486  0.813778  1
  Lu  Lu11  1  0.675279  0.489097  0.816760  1
  Ga  Ga12  1  0.000000  0.500000  0.500000  1
  Co  Co13  1  0.115285  0.116480  0.998802  1
  Co  Co14  1  0.884715  0.883520  0.001198  1
  Co  Co15  1  0.660522  0.500889  0.159639  1
  Co  Co16  1  0.339478  0.499111  0.840361  1
  Sn  Sn17  1  0.500000  0.000000  0.500000  1
