# generated using pymatgen
data_TbYb2(BiRh)3
_symmetry_space_group_name_H-M   'P 1'
_cell_length_a   7.56602403
_cell_length_b   7.56602348
_cell_length_c   4.08135800
_cell_angle_alpha   90.00000000
_cell_angle_beta   90.00000000
_cell_angle_gamma   118.74323495
_symmetry_Int_Tables_number   1
_chemical_formula_structural   TbYb2(BiRh)3
_chemical_formula_sum   'Tb1 Yb2 Bi3 Rh3'
_cell_volume   204.84835494
_cell_formula_units_Z   1
loop_
 _symmetry_equiv_pos_site_id
 _symmetry_equiv_pos_as_xyz
  1  'x, y, z'
loop_
 _atom_site_type_symbol
 _atom_site_label
 _atom_site_symmetry_multiplicity
 _atom_site_fract_x
 _atom_site_fract_y
 _atom_site_fract_z
 _atom_site_occupancy
  Tb  Tb0  1  0.401152  0.401152  0.000000  1
  Yb  Yb1  1  0.600022  0.001502  0.000000  1
  Yb  Yb2  1  0.001502  0.600022  0.000000  1
  Bi  Bi3  1  0.266202  0.993582  0.500000  1
  Bi  Bi4  1  0.993582  0.266202  0.500000  1
  Bi  Bi5  1  0.741230  0.741230  0.500000  1
  Rh  Rh6  1  0.334923  0.651595  0.500000  1
  Rh  Rh7  1  0.651595  0.334923  0.500000  1
  Rh  Rh8  1  0.009790  0.009790  0.000000  1
