# generated using pymatgen
data_TbY2Pa(ReB6)2
_symmetry_space_group_name_H-M   'P 1'
_cell_length_a   3.70703300
_cell_length_b   9.19824104
_cell_length_c   11.56565900
_cell_angle_alpha   89.61077237
_cell_angle_beta   90.00000000
_cell_angle_gamma   90.00000000
_symmetry_Int_Tables_number   1
_chemical_formula_structural   TbY2Pa(ReB6)2
_chemical_formula_sum   'Tb2 Y4 Pa2 Re4 B24'
_cell_volume   394.35885841
_cell_formula_units_Z   2
loop_
 _symmetry_equiv_pos_site_id
 _symmetry_equiv_pos_as_xyz
  1  'x, y, z'
loop_
 _atom_site_type_symbol
 _atom_site_label
 _atom_site_symmetry_multiplicity
 _atom_site_fract_x
 _atom_site_fract_y
 _atom_site_fract_z
 _atom_site_occupancy
  Tb  Tb0  1  0.000000  0.324303  0.414063  1
  Tb  Tb1  1  0.000000  0.675697  0.585937  1
  Y  Y2  1  0.000000  0.444901  0.126861  1
  Y  Y3  1  0.000000  0.555099  0.873139  1
  Y  Y4  1  0.000000  0.943858  0.373528  1
  Y  Y5  1  0.000000  0.056142  0.626472  1
  Pa  Pa6  1  0.000000  0.822301  0.087056  1
  Pa  Pa7  1  0.000000  0.177699  0.912944  1
  Re  Re8  1  0.000000  0.134605  0.174494  1
  Re  Re9  1  0.000000  0.865395  0.825506  1
  Re  Re10  1  0.000000  0.640707  0.318057  1
  Re  Re11  1  0.000000  0.359293  0.681943  1
  B  B12  1  0.500000  0.053083  0.066941  1
  B  B13  1  0.500000  0.946917  0.933060  1
  B  B14  1  0.500000  0.553405  0.432144  1
  B  B15  1  0.500000  0.446595  0.567855  1
  B  B16  1  0.500000  0.247017  0.079910  1
  B  B17  1  0.500000  0.752983  0.920090  1
  B  B18  1  0.500000  0.747242  0.419410  1
  B  B19  1  0.500000  0.252758  0.580590  1
  B  B20  1  0.500000  0.290945  0.233667  1
  B  B21  1  0.500000  0.709055  0.766333  1
  B  B22  1  0.500000  0.792017  0.266106  1
  B  B23  1  0.500000  0.207983  0.733894  1
  B  B24  1  0.500000  0.131588  0.313708  1
  B  B25  1  0.500000  0.868412  0.686292  1
  B  B26  1  0.500000  0.633025  0.186085  1
  B  B27  1  0.500000  0.366975  0.813915  1
  B  B28  1  0.500000  0.482695  0.287427  1
  B  B29  1  0.500000  0.517305  0.712573  1
  B  B30  1  0.500000  0.982995  0.212915  1
  B  B31  1  0.500000  0.017005  0.787085  1
  B  B32  1  0.500000  0.105945  0.470206  1
  B  B33  1  0.500000  0.894055  0.529794  1
  B  B34  1  0.500000  0.614295  0.031562  1
  B  B35  1  0.500000  0.385705  0.968438  1
