# generated using pymatgen
data_Ho12InNi4Ru
_symmetry_space_group_name_H-M   'P 1'
_cell_length_a   8.26929154
_cell_length_b   8.26929098
_cell_length_c   8.26929115
_cell_angle_alpha   111.47148127
_cell_angle_beta   109.86428295
_cell_angle_gamma   107.10769517
_symmetry_Int_Tables_number   1
_chemical_formula_structural   Ho12InNi4Ru
_chemical_formula_sum   'Ho12 In1 Ni4 Ru1'
_cell_volume   434.65218019
_cell_formula_units_Z   1
loop_
 _symmetry_equiv_pos_site_id
 _symmetry_equiv_pos_as_xyz
  1  'x, y, z'
loop_
 _atom_site_type_symbol
 _atom_site_label
 _atom_site_symmetry_multiplicity
 _atom_site_fract_x
 _atom_site_fract_y
 _atom_site_fract_z
 _atom_site_occupancy
  Ho  Ho0  1  0.406882  0.217455  0.189426  1
  Ho  Ho1  1  0.593118  0.782545  0.810574  1
  Ho  Ho2  1  0.028028  0.217455  0.810574  1
  Ho  Ho3  1  0.971972  0.782545  0.189426  1
  Ho  Ho4  1  0.181844  0.288314  0.470157  1
  Ho  Ho5  1  0.818156  0.711686  0.529843  1
  Ho  Ho6  1  0.181844  0.711686  0.893531  1
  Ho  Ho7  1  0.818156  0.288314  0.106469  1
  Ho  Ho8  1  0.321175  0.626489  0.305314  1
  Ho  Ho9  1  0.678825  0.373511  0.694686  1
  Ho  Ho10  1  0.321175  0.015861  0.694686  1
  Ho  Ho11  1  0.678825  0.984139  0.305314  1
  In  In12  1  0.500000  0.500000  0.000000  1
  Ni  Ni13  1  0.361655  0.000000  0.361655  1
  Ni  Ni14  1  0.638345  0.000000  0.638345  1
  Ni  Ni15  1  0.121515  0.621515  0.500000  1
  Ni  Ni16  1  0.878485  0.378485  0.500000  1
  Ru  Ru17  1  0.000000  0.000000  0.000000  1
