# generated using pymatgen
data_Tb3Er3Al23VOs8
_symmetry_space_group_name_H-M   'P 1'
_cell_length_a   8.84484028
_cell_length_b   8.85051576
_cell_length_c   9.55589435
_cell_angle_alpha   90.00502992
_cell_angle_beta   89.99025050
_cell_angle_gamma   119.93648420
_symmetry_Int_Tables_number   1
_chemical_formula_structural   Tb3Er3Al23VOs8
_chemical_formula_sum   'Tb3 Er3 Al23 V1 Os8'
_cell_volume   648.24346048
_cell_formula_units_Z   1
loop_
 _symmetry_equiv_pos_site_id
 _symmetry_equiv_pos_as_xyz
  1  'x, y, z'
loop_
 _atom_site_type_symbol
 _atom_site_label
 _atom_site_symmetry_multiplicity
 _atom_site_fract_x
 _atom_site_fract_y
 _atom_site_fract_z
 _atom_site_occupancy
  Tb  Tb0  1  0.384737  0.192365  0.751048  1
  Tb  Tb1  1  0.194529  0.805709  0.246239  1
  Tb  Tb2  1  0.807833  0.192316  0.750786  1
  Er  Er3  1  0.196899  0.393935  0.244916  1
  Er  Er4  1  0.805489  0.610868  0.750061  1
  Er  Er5  1  0.607474  0.803879  0.245124  1
  Al  Al6  1  0.666972  0.333460  0.978261  1
  Al  Al7  1  0.666550  0.332938  0.518812  1
  Al  Al8  1  0.333727  0.666737  0.481654  1
  Al  Al9  1  0.162568  0.324895  0.574600  1
  Al  Al10  1  0.836996  0.674809  0.425022  1
  Al  Al11  1  0.675803  0.837524  0.574660  1
  Al  Al12  1  0.835471  0.671481  0.076542  1
  Al  Al13  1  0.325710  0.163317  0.424221  1
  Al  Al14  1  0.160750  0.321352  0.925950  1
  Al  Al15  1  0.162046  0.837451  0.575583  1
  Al  Al16  1  0.328947  0.164838  0.077543  1
  Al  Al17  1  0.837495  0.162563  0.424076  1
  Al  Al18  1  0.679411  0.839013  0.925738  1
  Al  Al19  1  0.835923  0.164137  0.077465  1
  Al  Al20  1  0.159988  0.838696  0.925140  1
  Al  Al21  1  0.562643  0.124309  0.253303  1
  Al  Al22  1  0.441476  0.882208  0.750996  1
  Al  Al23  1  0.875822  0.437761  0.253373  1
  Al  Al24  1  0.116984  0.558677  0.751328  1
  Al  Al25  1  0.562031  0.438704  0.253606  1
  Al  Al26  1  0.442161  0.559001  0.751316  1
  Al  Al27  1  0.998878  0.002242  0.250647  1
  Al  Al28  1  0.998199  0.996287  0.749943  1
  V  V29  1  0.333712  0.667150  0.983128  1
  Os  Os30  1  0.495761  0.990409  0.005869  1
  Os  Os31  1  0.009600  0.504621  0.005794  1
  Os  Os32  1  0.499654  0.998357  0.503099  1
  Os  Os33  1  0.495432  0.505406  0.006323  1
  Os  Os34  1  0.001391  0.500830  0.503568  1
  Os  Os35  1  0.499964  0.501186  0.503517  1
  Os  Os36  1  0.000477  0.000192  0.001093  1
  Os  Os37  1  0.000499  0.000378  0.499654  1
