# generated using pymatgen
data_Dy2Tm6Ga3Fe
_symmetry_space_group_name_H-M   'P 1'
_cell_length_a   9.87857200
_cell_length_b   9.87625415
_cell_length_c   6.90397752
_cell_angle_alpha   90.04560065
_cell_angle_beta   90.00000000
_cell_angle_gamma   120.00777046
_symmetry_Int_Tables_number   1
_chemical_formula_structural   Dy2Tm6Ga3Fe
_chemical_formula_sum   'Dy4 Tm12 Ga6 Fe2'
_cell_volume   583.28691407
_cell_formula_units_Z   2
loop_
 _symmetry_equiv_pos_site_id
 _symmetry_equiv_pos_as_xyz
  1  'x, y, z'
loop_
 _atom_site_type_symbol
 _atom_site_label
 _atom_site_symmetry_multiplicity
 _atom_site_fract_x
 _atom_site_fract_y
 _atom_site_fract_z
 _atom_site_occupancy
  Dy  Dy0  1  0.535622  0.071246  0.518089  1
  Dy  Dy1  1  0.928953  0.464412  0.518821  1
  Dy  Dy2  1  0.535458  0.464412  0.518821  1
  Dy  Dy3  1  0.463770  0.927540  0.018430  1
  Tm  Tm4  1  0.072914  0.536217  0.019937  1
  Tm  Tm5  1  0.463304  0.536217  0.019937  1
  Tm  Tm6  1  0.173757  0.347515  0.717393  1
  Tm  Tm7  1  0.653371  0.826256  0.716585  1
  Tm  Tm8  1  0.172885  0.826256  0.716585  1
  Tm  Tm9  1  0.826696  0.653391  0.213857  1
  Tm  Tm10  1  0.346191  0.173483  0.214317  1
  Tm  Tm11  1  0.827292  0.173483  0.214317  1
  Tm  Tm12  1  0.667058  0.334116  0.896357  1
  Tm  Tm13  1  0.333013  0.666028  0.395265  1
  Tm  Tm14  1  0.000325  0.000651  0.493930  1
  Tm  Tm15  1  0.000120  0.000240  0.993939  1
  Ga  Ga16  1  0.836898  0.673798  0.769011  1
  Ga  Ga17  1  0.326074  0.163101  0.769572  1
  Ga  Ga18  1  0.837027  0.163101  0.769572  1
  Ga  Ga19  1  0.163702  0.327406  0.268009  1
  Ga  Ga20  1  0.672990  0.836029  0.268863  1
  Ga  Ga21  1  0.163039  0.836029  0.268863  1
  Fe  Fe22  1  0.666644  0.333285  0.277807  1
  Fe  Fe23  1  0.332894  0.665790  0.779726  1
