# generated using pymatgen
data_Tb4ZnAs5Ir7
_symmetry_space_group_name_H-M   'P 1'
_cell_length_a   7.30192749
_cell_length_b   7.30192801
_cell_length_c   7.30192937
_cell_angle_alpha   108.40283268
_cell_angle_beta   110.00803937
_cell_angle_gamma   110.00804366
_symmetry_Int_Tables_number   1
_chemical_formula_structural   Tb4ZnAs5Ir7
_chemical_formula_sum   'Tb4 Zn1 As5 Ir7'
_cell_volume   299.62481944
_cell_formula_units_Z   1
loop_
 _symmetry_equiv_pos_site_id
 _symmetry_equiv_pos_as_xyz
  1  'x, y, z'
loop_
 _atom_site_type_symbol
 _atom_site_label
 _atom_site_symmetry_multiplicity
 _atom_site_fract_x
 _atom_site_fract_y
 _atom_site_fract_z
 _atom_site_occupancy
  Tb  Tb0  1  0.000000  0.996291  0.494530  1
  Tb  Tb1  1  0.000000  0.494530  0.996291  1
  Tb  Tb2  1  0.501762  0.996291  0.996291  1
  Tb  Tb3  1  0.498238  0.494530  0.494530  1
  Zn  Zn4  1  0.000000  0.694018  0.694018  1
  As  As5  1  0.683006  0.678832  0.995826  1
  As  As6  1  0.316994  0.995826  0.312820  1
  As  As7  1  0.000000  0.331808  0.331808  1
  As  As8  1  0.316994  0.312820  0.995826  1
  As  As9  1  0.683006  0.995826  0.678832  1
  Ir  Ir10  1  0.748827  0.248303  0.499477  1
  Ir  Ir11  1  0.748827  0.499477  0.248303  1
  Ir  Ir12  1  0.500000  0.246750  0.746750  1
  Ir  Ir13  1  0.251173  0.499477  0.750649  1
  Ir  Ir14  1  0.251173  0.750649  0.499477  1
  Ir  Ir15  1  0.500000  0.746750  0.246750  1
  Ir  Ir16  1  0.000000  0.017823  0.017823  1
