# generated using pymatgen
data_Sc8ZnIr4Ru3
_symmetry_space_group_name_H-M   'P 1'
_cell_length_a   6.41343800
_cell_length_b   4.59693000
_cell_length_c   9.18410400
_cell_angle_alpha   90.00000000
_cell_angle_beta   89.99827874
_cell_angle_gamma   90.00000000
_symmetry_Int_Tables_number   1
_chemical_formula_structural   Sc8ZnIr4Ru3
_chemical_formula_sum   'Sc8 Zn1 Ir4 Ru3'
_cell_volume   270.76690709
_cell_formula_units_Z   1
loop_
 _symmetry_equiv_pos_site_id
 _symmetry_equiv_pos_as_xyz
  1  'x, y, z'
loop_
 _atom_site_type_symbol
 _atom_site_label
 _atom_site_symmetry_multiplicity
 _atom_site_fract_x
 _atom_site_fract_y
 _atom_site_fract_z
 _atom_site_occupancy
  Sc  Sc0  1  0.992092  0.750000  0.125007  1
  Sc  Sc1  1  0.507692  0.750000  0.125016  1
  Sc  Sc2  1  0.996377  0.250000  0.379148  1
  Sc  Sc3  1  0.503408  0.250000  0.379179  1
  Sc  Sc4  1  0.499756  0.750000  0.624998  1
  Sc  Sc5  1  0.000466  0.750000  0.625002  1
  Sc  Sc6  1  0.503592  0.250000  0.870849  1
  Sc  Sc7  1  0.996611  0.250000  0.870834  1
  Zn  Zn8  1  0.249919  0.250000  0.125002  1
  Ir  Ir9  1  0.749925  0.250000  0.124990  1
  Ir  Ir10  1  0.249936  0.750000  0.372622  1
  Ir  Ir11  1  0.750073  0.250000  0.624991  1
  Ir  Ir12  1  0.250066  0.750000  0.877419  1
  Ru  Ru13  1  0.749945  0.750000  0.374099  1
  Ru  Ru14  1  0.250078  0.250000  0.624945  1
  Ru  Ru15  1  0.750065  0.750000  0.875894  1
