# generated using pymatgen
data_Y9Mg(ZnTe)4
_symmetry_space_group_name_H-M   'P 1'
_cell_length_a   8.72043827
_cell_length_b   8.72043984
_cell_length_c   7.83653000
_cell_angle_alpha   90.04132710
_cell_angle_beta   90.04132054
_cell_angle_gamma   126.53336950
_symmetry_Int_Tables_number   1
_chemical_formula_structural   Y9Mg(ZnTe)4
_chemical_formula_sum   'Y9 Mg1 Zn4 Te4'
_cell_volume   478.84106713
_cell_formula_units_Z   1
loop_
 _symmetry_equiv_pos_site_id
 _symmetry_equiv_pos_as_xyz
  1  'x, y, z'
loop_
 _atom_site_type_symbol
 _atom_site_label
 _atom_site_symmetry_multiplicity
 _atom_site_fract_x
 _atom_site_fract_y
 _atom_site_fract_z
 _atom_site_occupancy
  Y  Y0  1  0.500000  0.500000  0.500000  1
  Y  Y1  1  0.794059  0.544326  0.161780  1
  Y  Y2  1  0.455674  0.205941  0.838220  1
  Y  Y3  1  0.962494  0.712888  0.668292  1
  Y  Y4  1  0.287112  0.037506  0.331708  1
  Y  Y5  1  0.205941  0.455674  0.838220  1
  Y  Y6  1  0.544326  0.794059  0.161780  1
  Y  Y7  1  0.037506  0.287112  0.331708  1
  Y  Y8  1  0.712888  0.962494  0.668292  1
  Mg  Mg9  1  0.000000  0.000000  0.000000  1
  Zn  Zn10  1  0.869291  0.869291  0.376182  1
  Zn  Zn11  1  0.130709  0.130709  0.623818  1
  Zn  Zn12  1  0.625954  0.625954  0.870919  1
  Zn  Zn13  1  0.374046  0.374046  0.129081  1
  Te  Te14  1  0.205850  0.794150  0.000000  1
  Te  Te15  1  0.704985  0.295015  0.500000  1
  Te  Te16  1  0.794150  0.205850  0.000000  1
  Te  Te17  1  0.295015  0.704985  0.500000  1
