# generated using pymatgen
data_BaSrHf2(NiAs2)2
_symmetry_space_group_name_H-M   'P 1'
_cell_length_a   4.07012400
_cell_length_b   4.07012506
_cell_length_c   14.47362500
_cell_angle_alpha   90.00000000
_cell_angle_beta   90.00000000
_cell_angle_gamma   119.99999142
_symmetry_Int_Tables_number   1
_chemical_formula_structural   BaSrHf2(NiAs2)2
_chemical_formula_sum   'Ba1 Sr1 Hf2 Ni2 As4'
_cell_volume   207.64590910
_cell_formula_units_Z   1
loop_
 _symmetry_equiv_pos_site_id
 _symmetry_equiv_pos_as_xyz
  1  'x, y, z'
loop_
 _atom_site_type_symbol
 _atom_site_label
 _atom_site_symmetry_multiplicity
 _atom_site_fract_x
 _atom_site_fract_y
 _atom_site_fract_z
 _atom_site_occupancy
  Ba  Ba0  1  0.666667  0.333333  0.388942  1
  Sr  Sr1  1  0.333333  0.666667  0.890137  1
  Hf  Hf2  1  0.333333  0.666667  0.632452  1
  Hf  Hf3  1  0.666667  0.333333  0.119320  1
  Ni  Ni4  1  0.000000  0.000000  0.710696  1
  Ni  Ni5  1  0.000000  0.000000  0.197081  1
  As  As6  1  0.333333  0.666667  0.240681  1
  As  As7  1  0.000000  0.000000  0.026167  1
  As  As8  1  0.000000  0.000000  0.539812  1
  As  As9  1  0.666667  0.333333  0.754714  1
