# generated using pymatgen
data_Dy3Er5In3Rh
_symmetry_space_group_name_H-M   'P 1'
_cell_length_a   10.37865700
_cell_length_b   10.37865708
_cell_length_c   7.01913300
_cell_angle_alpha   90.00000000
_cell_angle_beta   90.00000000
_cell_angle_gamma   119.99999656
_symmetry_Int_Tables_number   1
_chemical_formula_structural   Dy3Er5In3Rh
_chemical_formula_sum   'Dy6 Er10 In6 Rh2'
_cell_volume   654.78156021
_cell_formula_units_Z   2
loop_
 _symmetry_equiv_pos_site_id
 _symmetry_equiv_pos_as_xyz
  1  'x, y, z'
loop_
 _atom_site_type_symbol
 _atom_site_label
 _atom_site_symmetry_multiplicity
 _atom_site_fract_x
 _atom_site_fract_y
 _atom_site_fract_z
 _atom_site_occupancy
  Dy  Dy0  1  0.532724  0.065449  0.793732  1
  Dy  Dy1  1  0.934551  0.467276  0.793732  1
  Dy  Dy2  1  0.532724  0.467276  0.793732  1
  Dy  Dy3  1  0.467276  0.934551  0.293732  1
  Dy  Dy4  1  0.065449  0.532724  0.293732  1
  Dy  Dy5  1  0.467276  0.532724  0.293732  1
  Er  Er6  1  0.823626  0.647253  0.498621  1
  Er  Er7  1  0.352747  0.176374  0.498621  1
  Er  Er8  1  0.823626  0.176374  0.498621  1
  Er  Er9  1  0.176374  0.352747  0.998621  1
  Er  Er10  1  0.647253  0.823626  0.998621  1
  Er  Er11  1  0.176374  0.823626  0.998621  1
  Er  Er12  1  0.666667  0.333333  0.175844  1
  Er  Er13  1  0.333333  0.666667  0.675844  1
  Er  Er14  1  0.000000  0.000000  0.778974  1
  Er  Er15  1  0.000000  0.000000  0.278974  1
  In  In16  1  0.837305  0.674612  0.039613  1
  In  In17  1  0.325388  0.162695  0.039613  1
  In  In18  1  0.837305  0.162695  0.039613  1
  In  In19  1  0.162695  0.325388  0.539613  1
  In  In20  1  0.674612  0.837305  0.539613  1
  In  In21  1  0.162695  0.837305  0.539613  1
  Rh  Rh22  1  0.666667  0.333333  0.567235  1
  Rh  Rh23  1  0.333333  0.666667  0.067235  1
