# generated using pymatgen
data_Eu2Cu7Ni3
_symmetry_space_group_name_H-M   'P 1'
_cell_length_a   3.98316500
_cell_length_b   5.12815271
_cell_length_c   8.75949584
_cell_angle_alpha   90.08544283
_cell_angle_beta   90.00000000
_cell_angle_gamma   90.00000000
_symmetry_Int_Tables_number   1
_chemical_formula_structural   Eu2Cu7Ni3
_chemical_formula_sum   'Eu2 Cu7 Ni3'
_cell_volume   178.92370166
_cell_formula_units_Z   1
loop_
 _symmetry_equiv_pos_site_id
 _symmetry_equiv_pos_as_xyz
  1  'x, y, z'
loop_
 _atom_site_type_symbol
 _atom_site_label
 _atom_site_symmetry_multiplicity
 _atom_site_fract_x
 _atom_site_fract_y
 _atom_site_fract_z
 _atom_site_occupancy
  Eu  Eu0  1  0.000000  0.251587  0.753094  1
  Eu  Eu1  1  0.000000  0.748413  0.246906  1
  Cu  Cu2  1  0.000000  0.241575  0.087171  1
  Cu  Cu3  1  0.000000  0.750408  0.587513  1
  Cu  Cu4  1  0.000000  0.758425  0.912829  1
  Cu  Cu5  1  0.000000  0.249592  0.412487  1
  Cu  Cu6  1  0.500000  0.500000  0.500000  1
  Cu  Cu7  1  0.500000  0.500000  0.000000  1
  Cu  Cu8  1  0.500000  0.000000  0.500000  1
  Ni  Ni9  1  0.500000  0.753501  0.750995  1
  Ni  Ni10  1  0.500000  0.246499  0.249005  1
  Ni  Ni11  1  0.500000  0.000000  0.000000  1
