# generated using pymatgen
data_CaLaZn21Ni
_symmetry_space_group_name_H-M   'P 1'
_cell_length_a   8.27898979
_cell_length_b   8.28409731
_cell_length_c   8.28408155
_cell_angle_alpha   99.65385951
_cell_angle_beta   100.16314703
_cell_angle_gamma   131.02366313
_symmetry_Int_Tables_number   1
_chemical_formula_structural   CaLaZn21Ni
_chemical_formula_sum   'Ca1 La1 Zn21 Ni1'
_cell_volume   389.95325702
_cell_formula_units_Z   1
loop_
 _symmetry_equiv_pos_site_id
 _symmetry_equiv_pos_as_xyz
  1  'x, y, z'
loop_
 _atom_site_type_symbol
 _atom_site_label
 _atom_site_symmetry_multiplicity
 _atom_site_fract_x
 _atom_site_fract_y
 _atom_site_fract_z
 _atom_site_occupancy
  Ca  Ca0  1  0.747846  0.249098  0.498747  1
  La  La1  1  0.502744  0.499497  0.003246  1
  Zn  Zn2  1  0.924420  0.595046  0.912435  1
  Zn  Zn3  1  0.847404  0.430913  0.173096  1
  Zn  Zn4  1  0.267406  0.677440  0.828328  1
  Zn  Zn5  1  0.683181  0.005644  0.073768  1
  Zn  Zn6  1  0.400912  0.073880  0.084144  1
  Zn  Zn7  1  0.981228  0.309068  0.909184  1
  Zn  Zn8  1  0.568652  0.142690  0.823046  1
  Zn  Zn9  1  0.326283  0.739152  0.169426  1
  Zn  Zn10  1  0.326283  0.156857  0.587131  1
  Zn  Zn11  1  0.400911  0.316767  0.327031  1
  Zn  Zn12  1  0.981228  0.072045  0.672160  1
  Zn  Zn13  1  0.568652  0.745606  0.425962  1
  Zn  Zn14  1  0.847403  0.674308  0.416491  1
  Zn  Zn15  1  0.267406  0.439078  0.589965  1
  Zn  Zn16  1  0.683181  0.609413  0.677537  1
  Zn  Zn17  1  0.924420  0.011985  0.329375  1
  Zn  Zn18  1  0.124267  0.873103  0.251165  1
  Zn  Zn19  1  0.126805  0.377528  0.250404  1
  Zn  Zn20  1  0.126805  0.876401  0.749278  1
  Zn  Zn21  1  0.267751  0.757672  0.510080  1
  Zn  Zn22  1  0.983419  0.993340  0.990079  1
  Ni  Ni23  1  0.621393  0.873469  0.747925  1
