# generated using pymatgen
data_Hf2Ga2PdPt
_symmetry_space_group_name_H-M   'P 1'
_cell_length_a   7.19281800
_cell_length_b   7.19281840
_cell_length_c   7.00730700
_cell_angle_alpha   90.00000000
_cell_angle_beta   90.00000000
_cell_angle_gamma   120.00000735
_symmetry_Int_Tables_number   1
_chemical_formula_structural   Hf2Ga2PdPt
_chemical_formula_sum   'Hf6 Ga6 Pd3 Pt3'
_cell_volume   313.96404212
_cell_formula_units_Z   3
loop_
 _symmetry_equiv_pos_site_id
 _symmetry_equiv_pos_as_xyz
  1  'x, y, z'
loop_
 _atom_site_type_symbol
 _atom_site_label
 _atom_site_symmetry_multiplicity
 _atom_site_fract_x
 _atom_site_fract_y
 _atom_site_fract_z
 _atom_site_occupancy
  Hf  Hf0  1  0.411844  0.387675  0.249087  1
  Hf  Hf1  1  0.586808  0.973913  0.750293  1
  Hf  Hf2  1  0.387105  0.413192  0.750293  1
  Hf  Hf3  1  0.026087  0.612895  0.750293  1
  Hf  Hf4  1  0.975831  0.588156  0.249087  1
  Hf  Hf5  1  0.612325  0.024169  0.249087  1
  Ga  Ga6  1  0.267531  0.000227  0.999668  1
  Ga  Ga7  1  0.269179  0.002657  0.499417  1
  Ga  Ga8  1  0.997343  0.266522  0.499417  1
  Ga  Ga9  1  0.999773  0.267304  0.999668  1
  Ga  Ga10  1  0.732696  0.732469  0.999668  1
  Ga  Ga11  1  0.733478  0.730821  0.499417  1
  Pd  Pd12  1  0.666667  0.333333  0.538051  1
  Pd  Pd13  1  0.000000  0.000000  0.750100  1
  Pd  Pd14  1  0.000000  0.000000  0.249040  1
  Pt  Pt15  1  0.666667  0.333333  0.967091  1
  Pt  Pt16  1  0.333333  0.666667  0.035459  1
  Pt  Pt17  1  0.333333  0.666667  0.464864  1
