# generated using pymatgen
data_Tb2PrGa4Pd7
_symmetry_space_group_name_H-M   'P 1'
_cell_length_a   8.12776921
_cell_length_b   8.12776977
_cell_length_c   9.71924790
_cell_angle_alpha   56.40903047
_cell_angle_beta   56.40902807
_cell_angle_gamma   29.51532730
_symmetry_Int_Tables_number   1
_chemical_formula_structural   Tb2PrGa4Pd7
_chemical_formula_sum   'Tb2 Pr1 Ga4 Pd7'
_cell_volume   259.42882238
_cell_formula_units_Z   1
loop_
 _symmetry_equiv_pos_site_id
 _symmetry_equiv_pos_as_xyz
  1  'x, y, z'
loop_
 _atom_site_type_symbol
 _atom_site_label
 _atom_site_symmetry_multiplicity
 _atom_site_fract_x
 _atom_site_fract_y
 _atom_site_fract_z
 _atom_site_occupancy
  Tb  Tb0  1  0.671961  0.671961  0.334067  1
  Tb  Tb1  1  0.328039  0.328039  0.665933  1
  Pr  Pr2  1  0.000000  0.000000  0.000000  1
  Ga  Ga3  1  0.335681  0.335681  0.272178  1
  Ga  Ga4  1  0.664319  0.664319  0.727822  1
  Ga  Ga5  1  0.886213  0.886213  0.833417  1
  Ga  Ga6  1  0.113787  0.113787  0.166583  1
  Pd  Pd7  1  0.308828  0.308828  0.036042  1
  Pd  Pd8  1  0.691172  0.691172  0.963958  1
  Pd  Pd9  1  0.506961  0.506961  0.708991  1
  Pd  Pd10  1  0.836633  0.836633  0.427427  1
  Pd  Pd11  1  0.493039  0.493039  0.291009  1
  Pd  Pd12  1  0.163367  0.163367  0.572573  1
  Pd  Pd13  1  0.000000  0.000000  0.500000  1
