# generated using pymatgen
data_LaTbDy2Er3CoI12
_symmetry_space_group_name_H-M   'P 1'
_cell_length_a   9.75211580
_cell_length_b   9.74777938
_cell_length_c   9.75392633
_cell_angle_alpha   106.16059279
_cell_angle_beta   106.22018456
_cell_angle_gamma   106.24790993
_symmetry_Int_Tables_number   1
_chemical_formula_structural   LaTbDy2Er3CoI12
_chemical_formula_sum   'La1 Tb1 Dy2 Er3 Co1 I12'
_cell_volume   788.25747561
_cell_formula_units_Z   1
loop_
 _symmetry_equiv_pos_site_id
 _symmetry_equiv_pos_as_xyz
  1  'x, y, z'
loop_
 _atom_site_type_symbol
 _atom_site_label
 _atom_site_symmetry_multiplicity
 _atom_site_fract_x
 _atom_site_fract_y
 _atom_site_fract_z
 _atom_site_occupancy
  La  La0  1  0.999304  0.998498  0.997947  1
  Tb  Tb1  1  0.515762  0.588543  0.783908  1
  Dy  Dy2  1  0.213740  0.481862  0.409100  1
  Dy  Dy3  1  0.410151  0.213738  0.481950  1
  Er  Er4  1  0.779758  0.515242  0.585892  1
  Er  Er5  1  0.587103  0.779936  0.514661  1
  Er  Er6  1  0.482225  0.411372  0.217575  1
  Co  Co7  1  0.498070  0.498360  0.498512  1
  I  I8  1  0.277547  0.825221  0.427456  1
  I  I9  1  0.427648  0.275992  0.825982  1
  I  I10  1  0.823258  0.427425  0.276095  1
  I  I11  1  0.723813  0.174420  0.571128  1
  I  I12  1  0.570892  0.722195  0.174908  1
  I  I13  1  0.173161  0.571099  0.722969  1
  I  I14  1  0.045031  0.123846  0.353353  1
  I  I15  1  0.354859  0.046986  0.124212  1
  I  I16  1  0.125555  0.353891  0.045100  1
  I  I17  1  0.950595  0.871811  0.642206  1
  I  I18  1  0.643971  0.952275  0.871862  1
  I  I19  1  0.872925  0.642657  0.950553  1
