# generated using pymatgen
data_Ho2Er6In2RuRh
_symmetry_space_group_name_H-M   'P 1'
_cell_length_a   9.58833434
_cell_length_b   9.58680509
_cell_length_c   9.58861069
_cell_angle_alpha   59.89362627
_cell_angle_beta   59.95364850
_cell_angle_gamma   59.98329556
_symmetry_Int_Tables_number   1
_chemical_formula_structural   Ho2Er6In2RuRh
_chemical_formula_sum   'Ho4 Er12 In4 Ru2 Rh2'
_cell_volume   622.44437986
_cell_formula_units_Z   2
loop_
 _symmetry_equiv_pos_site_id
 _symmetry_equiv_pos_as_xyz
  1  'x, y, z'
loop_
 _atom_site_type_symbol
 _atom_site_label
 _atom_site_symmetry_multiplicity
 _atom_site_fract_x
 _atom_site_fract_y
 _atom_site_fract_z
 _atom_site_occupancy
  Ho  Ho0  1  0.189231  0.193523  0.809177  1
  Ho  Ho1  1  0.437908  0.062112  0.062184  1
  Ho  Ho2  1  0.442034  0.059748  0.437714  1
  Ho  Ho3  1  0.060270  0.438251  0.059691  1
  Er  Er4  1  0.651627  0.046492  0.650467  1
  Er  Er5  1  0.191814  0.808310  0.808319  1
  Er  Er6  1  0.060138  0.059377  0.438278  1
  Er  Er7  1  0.808226  0.191929  0.192155  1
  Er  Er8  1  0.808349  0.809019  0.193714  1
  Er  Er9  1  0.651251  0.650514  0.046683  1
  Er  Er10  1  0.653550  0.650264  0.650273  1
  Er  Er11  1  0.059917  0.440195  0.440002  1
  Er  Er12  1  0.045619  0.650537  0.650125  1
  Er  Er13  1  0.808203  0.193702  0.808958  1
  Er  Er14  1  0.442258  0.438033  0.059538  1
  Er  Er15  1  0.189272  0.808978  0.193716  1
  In  In16  1  0.417625  0.747584  0.416970  1
  In  In17  1  0.417761  0.416963  0.747661  1
  In  In18  1  0.749262  0.416784  0.416992  1
  In  In19  1  0.416768  0.417454  0.417100  1
  Ru  Ru20  1  0.858384  0.422644  0.859366  1
  Ru  Ru21  1  0.858741  0.859416  0.422458  1
  Rh  Rh22  1  0.422415  0.858734  0.859155  1
  Rh  Rh23  1  0.859374  0.859435  0.859301  1
