# generated using pymatgen
data_CoN4
_symmetry_space_group_name_H-M   'P 1'
_cell_length_a   6.59064045
_cell_length_b   4.67919753
_cell_length_c   3.83965830
_cell_angle_alpha   99.05360499
_cell_angle_beta   85.05661768
_cell_angle_gamma   134.77304805
_symmetry_Int_Tables_number   1
_chemical_formula_structural   CoN4
_chemical_formula_sum   'Co1 N4'
_cell_volume   82.96151239
_cell_formula_units_Z   1
loop_
 _symmetry_equiv_pos_site_id
 _symmetry_equiv_pos_as_xyz
  1  'x, y, z'
loop_
 _atom_site_type_symbol
 _atom_site_label
 _atom_site_symmetry_multiplicity
 _atom_site_fract_x
 _atom_site_fract_y
 _atom_site_fract_z
 _atom_site_occupancy
  Co  Co0  1  0.703857  0.234995  0.804378  1
  N  N1  1  0.330125  0.878231  0.926225  1
  N  N2  1  0.701037  0.838926  0.682339  1
  N  N3  1  0.084643  0.631447  0.926787  1
  N  N4  1  0.699769  0.592336  0.683220  1
