# generated using pymatgen
data_Ho10Al(GaRu2)3
_symmetry_space_group_name_H-M   'P 1'
_cell_length_a   8.27810606
_cell_length_b   8.27810481
_cell_length_c   8.33843700
_cell_angle_alpha   109.61892530
_cell_angle_beta   109.61892222
_cell_angle_gamma   109.32311908
_symmetry_Int_Tables_number   1
_chemical_formula_structural   Ho10Al(GaRu2)3
_chemical_formula_sum   'Ho10 Al1 Ga3 Ru6'
_cell_volume   439.06593066
_cell_formula_units_Z   1
loop_
 _symmetry_equiv_pos_site_id
 _symmetry_equiv_pos_as_xyz
  1  'x, y, z'
loop_
 _atom_site_type_symbol
 _atom_site_label
 _atom_site_symmetry_multiplicity
 _atom_site_fract_x
 _atom_site_fract_y
 _atom_site_fract_z
 _atom_site_occupancy
  Ho  Ho0  1  0.783815  0.784647  0.784094  1
  Ho  Ho1  1  0.318607  0.567884  0.749364  1
  Ho  Ho2  1  0.750012  0.318741  0.569187  1
  Ho  Ho3  1  0.568729  0.749988  0.319175  1
  Ho  Ho4  1  0.715353  0.499168  0.999447  1
  Ho  Ho5  1  0.000832  0.716185  0.500279  1
  Ho  Ho6  1  0.500000  0.000000  0.714299  1
  Ho  Ho7  1  0.249276  0.181393  0.930757  1
  Ho  Ho8  1  0.932116  0.250724  0.181481  1
  Ho  Ho9  1  0.181259  0.931271  0.250446  1
  Al  Al10  1  0.500000  0.000000  0.089488  1
  Ga  Ga11  1  0.411774  0.411518  0.411731  1
  Ga  Ga12  1  0.088482  0.500256  0.000213  1
  Ga  Ga13  1  0.999744  0.088226  0.499956  1
  Ru  Ru14  1  0.875113  0.125001  0.750007  1
  Ru  Ru15  1  0.747951  0.875016  0.124382  1
  Ru  Ru16  1  0.127065  0.752049  0.876430  1
  Ru  Ru17  1  0.249888  0.624887  0.374894  1
  Ru  Ru18  1  0.374999  0.250112  0.625006  1
  Ru  Ru19  1  0.624984  0.372935  0.249366  1
