# generated using pymatgen
data_Dy3Hf(P3Rh4)2
_symmetry_space_group_name_H-M   'P 1'
_cell_length_a   3.94183800
_cell_length_b   11.21757500
_cell_length_c   12.92717600
_cell_angle_alpha   90.00000000
_cell_angle_beta   90.00000000
_cell_angle_gamma   90.00000000
_symmetry_Int_Tables_number   1
_chemical_formula_structural   Dy3Hf(P3Rh4)2
_chemical_formula_sum   'Dy6 Hf2 P12 Rh16'
_cell_volume   571.61210255
_cell_formula_units_Z   2
loop_
 _symmetry_equiv_pos_site_id
 _symmetry_equiv_pos_as_xyz
  1  'x, y, z'
loop_
 _atom_site_type_symbol
 _atom_site_label
 _atom_site_symmetry_multiplicity
 _atom_site_fract_x
 _atom_site_fract_y
 _atom_site_fract_z
 _atom_site_occupancy
  Dy  Dy0  1  0.000000  0.500000  0.524063  1
  Dy  Dy1  1  0.500000  0.000000  0.475937  1
  Dy  Dy2  1  0.500000  0.820246  0.201648  1
  Dy  Dy3  1  0.500000  0.179754  0.201648  1
  Dy  Dy4  1  0.000000  0.679754  0.798352  1
  Dy  Dy5  1  0.000000  0.320246  0.798352  1
  Hf  Hf6  1  0.500000  0.500000  0.159303  1
  Hf  Hf7  1  0.000000  0.000000  0.840697  1
  P  P8  1  0.500000  0.500000  0.878732  1
  P  P9  1  0.000000  0.000000  0.121268  1
  P  P10  1  0.500000  0.500000  0.360504  1
  P  P11  1  0.000000  0.000000  0.639496  1
  P  P12  1  0.500000  0.313723  0.616741  1
  P  P13  1  0.500000  0.686277  0.616741  1
  P  P14  1  0.000000  0.186277  0.383259  1
  P  P15  1  0.000000  0.813723  0.383259  1
  P  P16  1  0.500000  0.841784  0.887581  1
  P  P17  1  0.500000  0.158216  0.887581  1
  P  P18  1  0.000000  0.658216  0.112419  1
  P  P19  1  0.000000  0.341784  0.112419  1
  Rh  Rh20  1  0.500000  0.500000  0.700886  1
  Rh  Rh21  1  0.000000  0.000000  0.299114  1
  Rh  Rh22  1  0.000000  0.500000  0.985987  1
  Rh  Rh23  1  0.500000  0.000000  0.014013  1
  Rh  Rh24  1  0.500000  0.331754  0.990808  1
  Rh  Rh25  1  0.500000  0.668246  0.990808  1
  Rh  Rh26  1  0.000000  0.168246  0.009192  1
  Rh  Rh27  1  0.000000  0.831754  0.009192  1
  Rh  Rh28  1  0.500000  0.293255  0.432765  1
  Rh  Rh29  1  0.500000  0.706745  0.432765  1
  Rh  Rh30  1  0.000000  0.206745  0.567235  1
  Rh  Rh31  1  0.000000  0.793255  0.567235  1
  Rh  Rh32  1  0.500000  0.873428  0.706007  1
  Rh  Rh33  1  0.500000  0.126572  0.706007  1
  Rh  Rh34  1  0.000000  0.626572  0.293993  1
  Rh  Rh35  1  0.000000  0.373428  0.293993  1
