# generated using pymatgen
data_SrSmBiS4
_symmetry_space_group_name_H-M   'P 1'
_cell_length_a   4.08654800
_cell_length_b   12.22746600
_cell_length_c   14.64137900
_cell_angle_alpha   90.00000000
_cell_angle_beta   90.00000000
_cell_angle_gamma   90.00000000
_symmetry_Int_Tables_number   1
_chemical_formula_structural   SrSmBiS4
_chemical_formula_sum   'Sr4 Sm4 Bi4 S16'
_cell_volume   731.60228134
_cell_formula_units_Z   4
loop_
 _symmetry_equiv_pos_site_id
 _symmetry_equiv_pos_as_xyz
  1  'x, y, z'
loop_
 _atom_site_type_symbol
 _atom_site_label
 _atom_site_symmetry_multiplicity
 _atom_site_fract_x
 _atom_site_fract_y
 _atom_site_fract_z
 _atom_site_occupancy
  Sr  Sr0  1  0.250000  0.755415  0.336897  1
  Sr  Sr1  1  0.250000  0.255415  0.163103  1
  Sr  Sr2  1  0.750000  0.244585  0.663103  1
  Sr  Sr3  1  0.750000  0.744585  0.836897  1
  Sm  Sm4  1  0.250000  0.427035  0.392529  1
  Sm  Sm5  1  0.250000  0.927035  0.107471  1
  Sm  Sm6  1  0.750000  0.572965  0.607471  1
  Sm  Sm7  1  0.750000  0.072965  0.892529  1
  Bi  Bi8  1  0.250000  0.423302  0.898170  1
  Bi  Bi9  1  0.250000  0.923302  0.601830  1
  Bi  Bi10  1  0.750000  0.576698  0.101830  1
  Bi  Bi11  1  0.750000  0.076698  0.398170  1
  S  S12  1  0.250000  0.205737  0.819699  1
  S  S13  1  0.250000  0.705737  0.680301  1
  S  S14  1  0.750000  0.794263  0.180301  1
  S  S15  1  0.750000  0.294263  0.319699  1
  S  S16  1  0.250000  0.134426  0.534446  1
  S  S17  1  0.250000  0.634426  0.965554  1
  S  S18  1  0.750000  0.865574  0.465554  1
  S  S19  1  0.750000  0.365574  0.034446  1
  S  S20  1  0.250000  0.521628  0.217230  1
  S  S21  1  0.250000  0.021628  0.282770  1
  S  S22  1  0.750000  0.478372  0.782770  1
  S  S23  1  0.750000  0.978372  0.717230  1
  S  S24  1  0.250000  0.416286  0.581319  1
  S  S25  1  0.250000  0.916286  0.918681  1
  S  S26  1  0.750000  0.583714  0.418681  1
  S  S27  1  0.750000  0.083714  0.081319  1
