# generated using pymatgen
data_Tb11Dy(TcRh)2
_symmetry_space_group_name_H-M   'P 1'
_cell_length_a   6.35125136
_cell_length_b   7.32735024
_cell_length_c   9.30897677
_cell_angle_alpha   90.01058201
_cell_angle_beta   90.06984835
_cell_angle_gamma   90.02715240
_symmetry_Int_Tables_number   1
_chemical_formula_structural   Tb11Dy(TcRh)2
_chemical_formula_sum   'Tb11 Dy1 Tc2 Rh2'
_cell_volume   433.21932273
_cell_formula_units_Z   1
loop_
 _symmetry_equiv_pos_site_id
 _symmetry_equiv_pos_as_xyz
  1  'x, y, z'
loop_
 _atom_site_type_symbol
 _atom_site_label
 _atom_site_symmetry_multiplicity
 _atom_site_fract_x
 _atom_site_fract_y
 _atom_site_fract_z
 _atom_site_occupancy
  Tb  Tb0  1  0.327425  0.678414  0.068044  1
  Tb  Tb1  1  0.172283  0.178410  0.431548  1
  Tb  Tb2  1  0.665983  0.322442  0.560791  1
  Tb  Tb3  1  0.834381  0.822850  0.939446  1
  Tb  Tb4  1  0.665966  0.322430  0.939470  1
  Tb  Tb5  1  0.834111  0.822634  0.560744  1
  Tb  Tb6  1  0.327648  0.678317  0.431863  1
  Tb  Tb7  1  0.870801  0.537599  0.249829  1
  Tb  Tb8  1  0.629193  0.038065  0.249715  1
  Tb  Tb9  1  0.137869  0.458310  0.750161  1
  Tb  Tb10  1  0.361940  0.958688  0.750255  1
  Dy  Dy11  1  0.172142  0.178284  0.068288  1
  Tc  Tc12  1  0.037763  0.887437  0.249834  1
  Tc  Tc13  1  0.462166  0.386835  0.249705  1
  Rh  Rh14  1  0.950271  0.114650  0.750396  1
  Rh  Rh15  1  0.550057  0.614636  0.749911  1
