# generated using pymatgen
data_LiPrErAgPb2
_symmetry_space_group_name_H-M   'P 1'
_cell_length_a   4.83801500
_cell_length_b   4.83801348
_cell_length_c   7.56831300
_cell_angle_alpha   90.00000000
_cell_angle_beta   90.00000000
_cell_angle_gamma   119.99998991
_symmetry_Int_Tables_number   1
_chemical_formula_structural   LiPrErAgPb2
_chemical_formula_sum   'Li1 Pr1 Er1 Ag1 Pb2'
_cell_volume   153.41366487
_cell_formula_units_Z   1
loop_
 _symmetry_equiv_pos_site_id
 _symmetry_equiv_pos_as_xyz
  1  'x, y, z'
loop_
 _atom_site_type_symbol
 _atom_site_label
 _atom_site_symmetry_multiplicity
 _atom_site_fract_x
 _atom_site_fract_y
 _atom_site_fract_z
 _atom_site_occupancy
  Li  Li0  1  0.666667  0.333333  0.258274  1
  Pr  Pr1  1  0.000000  0.000000  0.495922  1
  Er  Er2  1  0.000000  0.000000  0.993694  1
  Ag  Ag3  1  0.333333  0.666667  0.822111  1
  Pb  Pb4  1  0.333333  0.666667  0.224403  1
  Pb  Pb5  1  0.666667  0.333333  0.719995  1
