# generated using pymatgen
data_TbSm6PI12
_symmetry_space_group_name_H-M   'P 1'
_cell_length_a   9.83113066
_cell_length_b   9.83112990
_cell_length_c   9.83112959
_cell_angle_alpha   107.84774010
_cell_angle_beta   107.84773790
_cell_angle_gamma   107.84773949
_symmetry_Int_Tables_number   1
_chemical_formula_structural   TbSm6PI12
_chemical_formula_sum   'Tb1 Sm6 P1 I12'
_cell_volume   772.29689303
_cell_formula_units_Z   1
loop_
 _symmetry_equiv_pos_site_id
 _symmetry_equiv_pos_as_xyz
  1  'x, y, z'
loop_
 _atom_site_type_symbol
 _atom_site_label
 _atom_site_symmetry_multiplicity
 _atom_site_fract_x
 _atom_site_fract_y
 _atom_site_fract_z
 _atom_site_occupancy
  Tb  Tb0  1  0.500000  0.500000  0.500000  1
  Sm  Sm1  1  0.899627  0.696518  0.970094  1
  Sm  Sm2  1  0.970094  0.899627  0.696518  1
  Sm  Sm3  1  0.696518  0.970094  0.899627  1
  Sm  Sm4  1  0.100373  0.303482  0.029906  1
  Sm  Sm5  1  0.029906  0.100373  0.303482  1
  Sm  Sm6  1  0.303482  0.029906  0.100373  1
  P  P7  1  0.000000  0.000000  0.000000  1
  I  I8  1  0.771074  0.314256  0.923847  1
  I  I9  1  0.923847  0.771074  0.314256  1
  I  I10  1  0.314256  0.923847  0.771074  1
  I  I11  1  0.228926  0.685744  0.076153  1
  I  I12  1  0.076153  0.228926  0.685744  1
  I  I13  1  0.685744  0.076153  0.228926  1
  I  I14  1  0.531130  0.611539  0.841929  1
  I  I15  1  0.841929  0.531130  0.611539  1
  I  I16  1  0.611539  0.841929  0.531130  1
  I  I17  1  0.468870  0.388461  0.158071  1
  I  I18  1  0.158071  0.468870  0.388461  1
  I  I19  1  0.388461  0.158071  0.468870  1
