# generated using pymatgen
data_Ca20MgCd3Ag8
_symmetry_space_group_name_H-M   'P 1'
_cell_length_a   8.22187700
_cell_length_b   8.22187700
_cell_length_c   14.78897900
_cell_angle_alpha   90.00000000
_cell_angle_beta   90.00000000
_cell_angle_gamma   90.00000000
_symmetry_Int_Tables_number   1
_chemical_formula_structural   Ca20MgCd3Ag8
_chemical_formula_sum   'Ca20 Mg1 Cd3 Ag8'
_cell_volume   999.72405731
_cell_formula_units_Z   1
loop_
 _symmetry_equiv_pos_site_id
 _symmetry_equiv_pos_as_xyz
  1  'x, y, z'
loop_
 _atom_site_type_symbol
 _atom_site_label
 _atom_site_symmetry_multiplicity
 _atom_site_fract_x
 _atom_site_fract_y
 _atom_site_fract_z
 _atom_site_occupancy
  Ca  Ca0  1  0.662713  0.168235  0.108140  1
  Ca  Ca1  1  0.167496  0.665602  0.607901  1
  Ca  Ca2  1  0.337287  0.831765  0.108140  1
  Ca  Ca3  1  0.832504  0.334398  0.607901  1
  Ca  Ca4  1  0.831765  0.662713  0.108140  1
  Ca  Ca5  1  0.334398  0.167496  0.607901  1
  Ca  Ca6  1  0.168235  0.337287  0.108140  1
  Ca  Ca7  1  0.665602  0.832504  0.607901  1
  Ca  Ca8  1  0.831765  0.337287  0.891860  1
  Ca  Ca9  1  0.334398  0.832504  0.392099  1
  Ca  Ca10  1  0.168235  0.662713  0.891860  1
  Ca  Ca11  1  0.665602  0.167496  0.392099  1
  Ca  Ca12  1  0.662713  0.831765  0.891860  1
  Ca  Ca13  1  0.167496  0.334398  0.392099  1
  Ca  Ca14  1  0.337287  0.168235  0.891860  1
  Ca  Ca15  1  0.832504  0.665602  0.392099  1
  Ca  Ca16  1  0.500000  0.500000  0.751611  1
  Ca  Ca17  1  0.000000  0.000000  0.251433  1
  Ca  Ca18  1  0.000000  0.000000  0.748567  1
  Ca  Ca19  1  0.500000  0.500000  0.248389  1
  Mg  Mg20  1  0.000000  0.000000  0.000000  1
  Cd  Cd21  1  0.500000  0.500000  0.500000  1
  Cd  Cd22  1  0.500000  0.500000  0.000000  1
  Cd  Cd23  1  0.000000  0.000000  0.500000  1
  Ag  Ag24  1  0.626381  0.125721  0.750420  1
  Ag  Ag25  1  0.125721  0.626381  0.249580  1
  Ag  Ag26  1  0.874279  0.373619  0.249580  1
  Ag  Ag27  1  0.373619  0.874279  0.750420  1
  Ag  Ag28  1  0.874279  0.626381  0.750420  1
  Ag  Ag29  1  0.373619  0.125721  0.249580  1
  Ag  Ag30  1  0.125721  0.373619  0.750420  1
  Ag  Ag31  1  0.626381  0.874279  0.249580  1
