# generated using pymatgen
data_TbCu3AgPt
_symmetry_space_group_name_H-M   'P 1'
_cell_length_a   5.09741981
_cell_length_b   5.09741935
_cell_length_c   5.18407414
_cell_angle_alpha   60.55141939
_cell_angle_beta   60.55142417
_cell_angle_gamma   59.99998872
_symmetry_Int_Tables_number   1
_chemical_formula_structural   TbCu3AgPt
_chemical_formula_sum   'Tb1 Cu3 Ag1 Pt1'
_cell_volume   96.03439915
_cell_formula_units_Z   1
loop_
 _symmetry_equiv_pos_site_id
 _symmetry_equiv_pos_as_xyz
  1  'x, y, z'
loop_
 _atom_site_type_symbol
 _atom_site_label
 _atom_site_symmetry_multiplicity
 _atom_site_fract_x
 _atom_site_fract_y
 _atom_site_fract_z
 _atom_site_occupancy
  Tb  Tb0  1  0.998058  0.998058  0.005826  1
  Cu  Cu1  1  0.625819  0.128773  0.619590  1
  Cu  Cu2  1  0.128773  0.625819  0.619590  1
  Cu  Cu3  1  0.625819  0.625819  0.619590  1
  Ag  Ag4  1  0.245023  0.245023  0.264930  1
  Pt  Pt5  1  0.626509  0.626509  0.120474  1
