# generated using pymatgen
data_LaSm2NiIr8
_symmetry_space_group_name_H-M   'P 1'
_cell_length_a   9.23390293
_cell_length_b   9.23390259
_cell_length_c   9.23390300
_cell_angle_alpha   33.61379572
_cell_angle_beta   33.61379890
_cell_angle_gamma   33.61380197
_symmetry_Int_Tables_number   1
_chemical_formula_structural   LaSm2NiIr8
_chemical_formula_sum   'La1 Sm2 Ni1 Ir8'
_cell_volume   214.94088052
_cell_formula_units_Z   1
loop_
 _symmetry_equiv_pos_site_id
 _symmetry_equiv_pos_as_xyz
  1  'x, y, z'
loop_
 _atom_site_type_symbol
 _atom_site_label
 _atom_site_symmetry_multiplicity
 _atom_site_fract_x
 _atom_site_fract_y
 _atom_site_fract_z
 _atom_site_occupancy
  La  La0  1  0.999511  0.999511  0.999511  1
  Sm  Sm1  1  0.859409  0.859409  0.859409  1
  Sm  Sm2  1  0.139074  0.139074  0.139074  1
  Ni  Ni3  1  0.333059  0.333059  0.333059  1
  Ir  Ir4  1  0.417620  0.922066  0.417620  1
  Ir  Ir5  1  0.417620  0.417620  0.922066  1
  Ir  Ir6  1  0.922066  0.417620  0.417620  1
  Ir  Ir7  1  0.578619  0.085656  0.578619  1
  Ir  Ir8  1  0.578619  0.578619  0.085656  1
  Ir  Ir9  1  0.085656  0.578619  0.578619  1
  Ir  Ir10  1  0.667783  0.667783  0.667783  1
  Ir  Ir11  1  0.500967  0.500967  0.500967  1
