# generated using pymatgen
data_Zr10SnSb6
_symmetry_space_group_name_H-M   'P 1'
_cell_length_a   5.93154038
_cell_length_b   8.65373885
_cell_length_c   8.64843616
_cell_angle_alpha   119.97717809
_cell_angle_beta   89.87073632
_cell_angle_gamma   90.06465371
_symmetry_Int_Tables_number   1
_chemical_formula_structural   Zr10SnSb6
_chemical_formula_sum   'Zr10 Sn1 Sb6'
_cell_volume   384.53707169
_cell_formula_units_Z   1
loop_
 _symmetry_equiv_pos_site_id
 _symmetry_equiv_pos_as_xyz
  1  'x, y, z'
loop_
 _atom_site_type_symbol
 _atom_site_label
 _atom_site_symmetry_multiplicity
 _atom_site_fract_x
 _atom_site_fract_y
 _atom_site_fract_z
 _atom_site_occupancy
  Zr  Zr0  1  0.500114  0.334716  0.668121  1
  Zr  Zr1  1  0.500116  0.665285  0.333408  1
  Zr  Zr2  1  0.000611  0.665938  0.333024  1
  Zr  Zr3  1  0.000611  0.334063  0.667088  1
  Zr  Zr4  1  0.773870  0.266185  0.999771  1
  Zr  Zr5  1  0.773871  0.733812  0.733578  1
  Zr  Zr6  1  0.776967  0.999997  0.264682  1
  Zr  Zr7  1  0.224467  0.733002  0.999826  1
  Zr  Zr8  1  0.224471  0.267007  0.266830  1
  Zr  Zr9  1  0.224291  0.999999  0.734354  1
  Sn  Sn10  1  0.257517  0.000003  0.386701  1
  Sb  Sb11  1  0.745319  0.613149  0.000602  1
  Sb  Sb12  1  0.745332  0.386845  0.387451  1
  Sb  Sb13  1  0.745983  0.999999  0.610841  1
  Sb  Sb14  1  0.253916  0.386796  0.999931  1
  Sb  Sb15  1  0.253915  0.613206  0.613134  1
  Sb  Sb16  1  0.498629  0.000000  0.000658  1
