# generated using pymatgen
data_Tm2B8MoRh
_symmetry_space_group_name_H-M   'P 1'
_cell_length_a   3.57050300
_cell_length_b   5.96596537
_cell_length_c   11.54290853
_cell_angle_alpha   90.33493052
_cell_angle_beta   90.00000000
_cell_angle_gamma   90.00000000
_symmetry_Int_Tables_number   1
_chemical_formula_structural   Tm2B8MoRh
_chemical_formula_sum   'Tm4 B16 Mo2 Rh2'
_cell_volume   245.87703315
_cell_formula_units_Z   2
loop_
 _symmetry_equiv_pos_site_id
 _symmetry_equiv_pos_as_xyz
  1  'x, y, z'
loop_
 _atom_site_type_symbol
 _atom_site_label
 _atom_site_symmetry_multiplicity
 _atom_site_fract_x
 _atom_site_fract_y
 _atom_site_fract_z
 _atom_site_occupancy
  Tm  Tm0  1  0.000000  0.128840  0.650475  1
  Tm  Tm1  1  0.000000  0.871160  0.349525  1
  Tm  Tm2  1  0.000000  0.630559  0.852171  1
  Tm  Tm3  1  0.000000  0.369441  0.147829  1
  B  B4  1  0.500000  0.792961  0.687990  1
  B  B5  1  0.500000  0.207039  0.312010  1
  B  B6  1  0.500000  0.290081  0.814458  1
  B  B7  1  0.500000  0.709919  0.185542  1
  B  B8  1  0.500000  0.868397  0.531855  1
  B  B9  1  0.500000  0.131603  0.468145  1
  B  B10  1  0.500000  0.365239  0.969765  1
  B  B11  1  0.500000  0.634761  0.030235  1
  B  B12  1  0.500000  0.021699  0.192341  1
  B  B13  1  0.500000  0.978301  0.807659  1
  B  B14  1  0.500000  0.522897  0.304637  1
  B  B15  1  0.500000  0.477103  0.695363  1
  B  B16  1  0.500000  0.113344  0.047612  1
  B  B17  1  0.500000  0.886656  0.952388  1
  B  B18  1  0.500000  0.614716  0.452533  1
  B  B19  1  0.500000  0.385284  0.547467  1
  Mo  Mo20  1  0.000000  0.629540  0.586114  1
  Mo  Mo21  1  0.000000  0.370460  0.413886  1
  Rh  Rh22  1  0.000000  0.143289  0.906569  1
  Rh  Rh23  1  0.000000  0.856711  0.093431  1
