# generated using pymatgen
data_Al3V6CuN2
_symmetry_space_group_name_H-M   'P 1'
_cell_length_a   6.58121600
_cell_length_b   6.57431512
_cell_length_c   6.58077800
_cell_angle_alpha   90.00000000
_cell_angle_beta   90.00000000
_cell_angle_gamma   90.15932316
_symmetry_Int_Tables_number   1
_chemical_formula_structural   Al3V6CuN2
_chemical_formula_sum   'Al6 V12 Cu2 N4'
_cell_volume   284.72934130
_cell_formula_units_Z   2
loop_
 _symmetry_equiv_pos_site_id
 _symmetry_equiv_pos_as_xyz
  1  'x, y, z'
loop_
 _atom_site_type_symbol
 _atom_site_label
 _atom_site_symmetry_multiplicity
 _atom_site_fract_x
 _atom_site_fract_y
 _atom_site_fract_z
 _atom_site_occupancy
  Al  Al0  1  0.822948  0.319984  0.177218  1
  Al  Al1  1  0.677052  0.680016  0.677218  1
  Al  Al2  1  0.559769  0.419375  0.925431  1
  Al  Al3  1  0.416514  0.935111  0.570183  1
  Al  Al4  1  0.940231  0.580625  0.425431  1
  Al  Al5  1  0.083486  0.064889  0.070183  1
  V  V6  1  0.788449  0.959331  0.375513  1
  V  V7  1  0.711551  0.040669  0.875513  1
  V  V8  1  0.205826  0.458386  0.127467  1
  V  V9  1  0.294174  0.541614  0.627467  1
  V  V10  1  0.958832  0.377860  0.790088  1
  V  V11  1  0.039562  0.869944  0.709944  1
  V  V12  1  0.460438  0.130056  0.209944  1
  V  V13  1  0.541168  0.622140  0.290088  1
  V  V14  1  0.377701  0.789208  0.958048  1
  V  V15  1  0.871882  0.708692  0.040759  1
  V  V16  1  0.122299  0.210792  0.458048  1
  V  V17  1  0.628118  0.291308  0.540759  1
  Cu  Cu18  1  0.182376  0.822721  0.318885  1
  Cu  Cu19  1  0.317624  0.177279  0.818885  1
  N  N20  1  0.878241  0.123313  0.627158  1
  N  N21  1  0.621759  0.876687  0.127158  1
  N  N22  1  0.126415  0.624336  0.879306  1
  N  N23  1  0.373585  0.375664  0.379306  1
