# generated using pymatgen
data_ScPa3(Co3Si5)2
_symmetry_space_group_name_H-M   'P 1'
_cell_length_a   7.80460230
_cell_length_b   7.83613843
_cell_length_c   5.59977701
_cell_angle_alpha   69.05923922
_cell_angle_beta   68.95786334
_cell_angle_gamma   89.59712852
_symmetry_Int_Tables_number   1
_chemical_formula_structural   ScPa3(Co3Si5)2
_chemical_formula_sum   'Sc1 Pa3 Co6 Si10'
_cell_volume   295.61772470
_cell_formula_units_Z   1
loop_
 _symmetry_equiv_pos_site_id
 _symmetry_equiv_pos_as_xyz
  1  'x, y, z'
loop_
 _atom_site_type_symbol
 _atom_site_label
 _atom_site_symmetry_multiplicity
 _atom_site_fract_x
 _atom_site_fract_y
 _atom_site_fract_z
 _atom_site_occupancy
  Sc  Sc0  1  0.596586  0.863638  0.270327  1
  Pa  Pa1  1  0.866329  0.601092  0.766771  1
  Pa  Pa2  1  0.403613  0.132128  0.731747  1
  Pa  Pa3  1  0.131254  0.398488  0.234804  1
  Co  Co4  1  0.241529  0.521320  0.618943  1
  Co  Co5  1  0.479753  0.753431  0.883319  1
  Co  Co6  1  0.756043  0.477528  0.382642  1
  Co  Co7  1  0.520110  0.248909  0.115451  1
  Co  Co8  1  0.003228  0.000424  0.742729  1
  Co  Co9  1  0.003024  0.000728  0.253599  1
  Si  Si10  1  0.046900  0.253713  0.849287  1
  Si  Si11  1  0.741753  0.953132  0.653099  1
  Si  Si12  1  0.945606  0.749936  0.152643  1
  Si  Si13  1  0.261532  0.044514  0.346693  1
  Si  Si14  1  0.233214  0.768460  0.751240  1
  Si  Si15  1  0.768910  0.227350  0.248195  1
  Si  Si16  1  0.499544  0.504460  0.744114  1
  Si  Si17  1  0.499133  0.504682  0.252045  1
  Si  Si18  1  0.768698  0.227992  0.755030  1
  Si  Si19  1  0.233241  0.768074  0.247322  1
