# generated using pymatgen
data_CaErZr2(Ga3Rh)6
_symmetry_space_group_name_H-M   'P 1'
_cell_length_a   7.50230024
_cell_length_b   7.50379264
_cell_length_c   9.51319700
_cell_angle_alpha   90.00000000
_cell_angle_beta   90.00000000
_cell_angle_gamma   119.75466651
_symmetry_Int_Tables_number   1
_chemical_formula_structural   CaErZr2(Ga3Rh)6
_chemical_formula_sum   'Ca1 Er1 Zr2 Ga18 Rh6'
_cell_volume   464.94408284
_cell_formula_units_Z   1
loop_
 _symmetry_equiv_pos_site_id
 _symmetry_equiv_pos_as_xyz
  1  'x, y, z'
loop_
 _atom_site_type_symbol
 _atom_site_label
 _atom_site_symmetry_multiplicity
 _atom_site_fract_x
 _atom_site_fract_y
 _atom_site_fract_z
 _atom_site_occupancy
  Ca  Ca0  1  0.003438  0.329808  0.750000  1
  Er  Er1  1  0.329934  0.003697  0.750000  1
  Zr  Zr2  1  0.996871  0.669045  0.250000  1
  Zr  Zr3  1  0.671658  0.998658  0.250000  1
  Ga  Ga4  1  0.122537  0.122716  0.250000  1
  Ga  Ga5  1  0.872540  0.869481  0.750000  1
  Ga  Ga6  1  0.996952  0.334820  0.084410  1
  Ga  Ga7  1  0.998816  0.664615  0.926378  1
  Ga  Ga8  1  0.998816  0.664615  0.573622  1
  Ga  Ga9  1  0.334659  0.996541  0.414459  1
  Ga  Ga10  1  0.996952  0.334820  0.415590  1
  Ga  Ga11  1  0.665678  0.999423  0.573264  1
  Ga  Ga12  1  0.665678  0.999423  0.926736  1
  Ga  Ga13  1  0.334659  0.996541  0.085541  1
  Ga  Ga14  1  0.334352  0.334637  0.561533  1
  Ga  Ga15  1  0.670960  0.670811  0.423729  1
  Ga  Ga16  1  0.670960  0.670811  0.076271  1
  Ga  Ga17  1  0.334352  0.334637  0.938467  1
  Ga  Ga18  1  0.336810  0.552625  0.250000  1
  Ga  Ga19  1  0.657245  0.450237  0.750000  1
  Ga  Ga20  1  0.550999  0.337121  0.250000  1
  Ga  Ga21  1  0.454111  0.665433  0.750000  1
  Rh  Rh22  1  0.671374  0.328519  0.004243  1
  Rh  Rh23  1  0.329744  0.673282  0.003949  1
  Rh  Rh24  1  0.329744  0.673282  0.496051  1
  Rh  Rh25  1  0.671374  0.328519  0.495757  1
  Rh  Rh26  1  0.999394  0.997941  0.003606  1
  Rh  Rh27  1  0.999394  0.997941  0.496394  1
