# generated using pymatgen
data_Ac3Al4Cl
_symmetry_space_group_name_H-M   'P 1'
_cell_length_a   8.54243657
_cell_length_b   8.54243587
_cell_length_c   8.54243608
_cell_angle_alpha   119.56385845
_cell_angle_beta   119.56386148
_cell_angle_gamma   90.75709287
_symmetry_Int_Tables_number   1
_chemical_formula_structural   Ac3Al4Cl
_chemical_formula_sum   'Ac6 Al8 Cl2'
_cell_volume   443.65232433
_cell_formula_units_Z   2
loop_
 _symmetry_equiv_pos_site_id
 _symmetry_equiv_pos_as_xyz
  1  'x, y, z'
loop_
 _atom_site_type_symbol
 _atom_site_label
 _atom_site_symmetry_multiplicity
 _atom_site_fract_x
 _atom_site_fract_y
 _atom_site_fract_z
 _atom_site_occupancy
  Ac  Ac0  1  0.839811  0.660189  0.500000  1
  Ac  Ac1  1  0.660189  0.160189  0.820380  1
  Ac  Ac2  1  0.339811  0.839811  0.179620  1
  Ac  Ac3  1  0.160189  0.339811  0.500000  1
  Ac  Ac4  1  0.250000  0.250000  0.000000  1
  Ac  Ac5  1  0.750000  0.750000  0.000000  1
  Al  Al6  1  0.155809  0.939750  0.500000  1
  Al  Al7  1  0.439750  0.655809  0.500000  1
  Al  Al8  1  0.560250  0.344191  0.500000  1
  Al  Al9  1  0.655809  0.155809  0.216060  1
  Al  Al10  1  0.844191  0.060250  0.500000  1
  Al  Al11  1  0.060250  0.560250  0.216060  1
  Al  Al12  1  0.344191  0.844191  0.783940  1
  Al  Al13  1  0.939750  0.439750  0.783940  1
  Cl  Cl14  1  0.000000  0.000000  0.000000  1
  Cl  Cl15  1  0.500000  0.500000  0.000000  1
