# generated using pymatgen
data_Li2Hf3Ni9As7
_symmetry_space_group_name_H-M   'P 1'
_cell_length_a   9.52486628
_cell_length_b   9.50829902
_cell_length_c   3.79819300
_cell_angle_alpha   90.00000000
_cell_angle_beta   90.00000000
_cell_angle_gamma   119.00490823
_symmetry_Int_Tables_number   1
_chemical_formula_structural   Li2Hf3Ni9As7
_chemical_formula_sum   'Li2 Hf3 Ni9 As7'
_cell_volume   300.84124807
_cell_formula_units_Z   1
loop_
 _symmetry_equiv_pos_site_id
 _symmetry_equiv_pos_as_xyz
  1  'x, y, z'
loop_
 _atom_site_type_symbol
 _atom_site_label
 _atom_site_symmetry_multiplicity
 _atom_site_fract_x
 _atom_site_fract_y
 _atom_site_fract_z
 _atom_site_occupancy
  Li  Li0  1  0.790638  0.222001  0.500000  1
  Li  Li1  1  0.998057  0.001650  0.500000  1
  Hf  Hf2  1  0.772334  0.563870  0.500000  1
  Hf  Hf3  1  0.443318  0.211788  0.500000  1
  Hf  Hf4  1  0.321074  0.659342  0.000000  1
  Ni  Ni5  1  0.276763  0.383252  0.500000  1
  Ni  Ni6  1  0.625265  0.900975  0.500000  1
  Ni  Ni7  1  0.106358  0.718161  0.500000  1
  Ni  Ni8  1  0.503047  0.461224  0.000000  1
  Ni  Ni9  1  0.546085  0.040987  0.000000  1
  Ni  Ni10  1  0.956181  0.502503  0.000000  1
  Ni  Ni11  1  0.723428  0.762655  0.000000  1
  Ni  Ni12  1  0.245070  0.964126  0.000000  1
  Ni  Ni13  1  0.033017  0.276845  0.000000  1
  As  As14  1  0.978031  0.770056  0.000000  1
  As  As15  1  0.235916  0.210510  0.000000  1
  As  As16  1  0.792091  0.032772  0.000000  1
  As  As17  1  0.672336  0.329348  0.000000  1
  As  As18  1  0.526355  0.624006  0.500000  1
  As  As19  1  0.377062  0.907055  0.500000  1
  As  As20  1  0.077576  0.456872  0.500000  1
