# generated using pymatgen
data_Yb2SiPd14
_symmetry_space_group_name_H-M   'P 1'
_cell_length_a   8.92453000
_cell_length_b   8.92453000
_cell_length_c   7.01140000
_cell_angle_alpha   90.00000000
_cell_angle_beta   90.00000000
_cell_angle_gamma   90.00000000
_symmetry_Int_Tables_number   1
_chemical_formula_structural   Yb2SiPd14
_chemical_formula_sum   'Yb4 Si2 Pd28'
_cell_volume   558.43862853
_cell_formula_units_Z   2
loop_
 _symmetry_equiv_pos_site_id
 _symmetry_equiv_pos_as_xyz
  1  'x, y, z'
loop_
 _atom_site_type_symbol
 _atom_site_label
 _atom_site_symmetry_multiplicity
 _atom_site_fract_x
 _atom_site_fract_y
 _atom_site_fract_z
 _atom_site_occupancy
  Yb  Yb0  1  0.500000  0.000000  0.938772  1
  Yb  Yb1  1  0.000000  0.500000  0.061228  1
  Yb  Yb2  1  0.000000  0.000000  0.500000  1
  Yb  Yb3  1  0.500000  0.500000  0.500000  1
  Si  Si4  1  0.500000  0.000000  0.447688  1
  Si  Si5  1  0.000000  0.500000  0.552312  1
  Pd  Pd6  1  0.333961  0.833961  0.617027  1
  Pd  Pd7  1  0.333961  0.166039  0.617027  1
  Pd  Pd8  1  0.666039  0.833961  0.617027  1
  Pd  Pd9  1  0.666039  0.166039  0.617027  1
  Pd  Pd10  1  0.166039  0.666039  0.382973  1
  Pd  Pd11  1  0.166039  0.333961  0.382973  1
  Pd  Pd12  1  0.833961  0.666039  0.382973  1
  Pd  Pd13  1  0.833961  0.333961  0.382973  1
  Pd  Pd14  1  0.500000  0.769337  0.257907  1
  Pd  Pd15  1  0.500000  0.230663  0.257907  1
  Pd  Pd16  1  0.269337  0.000000  0.257907  1
  Pd  Pd17  1  0.730663  0.000000  0.257907  1
  Pd  Pd18  1  0.000000  0.730663  0.742093  1
  Pd  Pd19  1  0.000000  0.269337  0.742093  1
  Pd  Pd20  1  0.230663  0.500000  0.742093  1
  Pd  Pd21  1  0.769337  0.500000  0.742093  1
  Pd  Pd22  1  0.500000  0.348911  0.854126  1
  Pd  Pd23  1  0.500000  0.651089  0.854126  1
  Pd  Pd24  1  0.848911  0.000000  0.854126  1
  Pd  Pd25  1  0.151089  0.000000  0.854126  1
  Pd  Pd26  1  0.000000  0.151089  0.145874  1
  Pd  Pd27  1  0.000000  0.848911  0.145874  1
  Pd  Pd28  1  0.651089  0.500000  0.145874  1
  Pd  Pd29  1  0.348911  0.500000  0.145874  1
  Pd  Pd30  1  0.250000  0.750000  0.000000  1
  Pd  Pd31  1  0.250000  0.250000  0.000000  1
  Pd  Pd32  1  0.750000  0.750000  0.000000  1
  Pd  Pd33  1  0.750000  0.250000  0.000000  1
