# generated using pymatgen
data_NpUNi3Ge
_symmetry_space_group_name_H-M   'P 1'
_cell_length_a   5.22540300
_cell_length_b   5.22540261
_cell_length_c   7.70627600
_cell_angle_alpha   90.00000000
_cell_angle_beta   90.00000000
_cell_angle_gamma   120.00000882
_symmetry_Int_Tables_number   1
_chemical_formula_structural   NpUNi3Ge
_chemical_formula_sum   'Np2 U2 Ni6 Ge2'
_cell_volume   182.22782856
_cell_formula_units_Z   2
loop_
 _symmetry_equiv_pos_site_id
 _symmetry_equiv_pos_as_xyz
  1  'x, y, z'
loop_
 _atom_site_type_symbol
 _atom_site_label
 _atom_site_symmetry_multiplicity
 _atom_site_fract_x
 _atom_site_fract_y
 _atom_site_fract_z
 _atom_site_occupancy
  Np  Np0  1  0.333333  0.666667  0.424593  1
  Np  Np1  1  0.666667  0.333333  0.924593  1
  U  U2  1  0.666667  0.333333  0.576616  1
  U  U3  1  0.333333  0.666667  0.076616  1
  Ni  Ni4  1  0.652718  0.826359  0.749815  1
  Ni  Ni5  1  0.347282  0.173641  0.249815  1
  Ni  Ni6  1  0.173641  0.347282  0.749815  1
  Ni  Ni7  1  0.826359  0.173641  0.249815  1
  Ni  Ni8  1  0.826359  0.652718  0.249815  1
  Ni  Ni9  1  0.173641  0.826359  0.749815  1
  Ge  Ge10  1  0.000000  0.000000  0.499347  1
  Ge  Ge11  1  0.000000  0.000000  0.999347  1
