# generated using pymatgen
data_HoTm3(Co5As3)4
_symmetry_space_group_name_H-M   'P 1'
_cell_length_a   3.77236100
_cell_length_b   12.15928761
_cell_length_c   10.65888814
_cell_angle_alpha   89.97970905
_cell_angle_beta   90.00000000
_cell_angle_gamma   90.00000000
_symmetry_Int_Tables_number   1
_chemical_formula_structural   HoTm3(Co5As3)4
_chemical_formula_sum   'Ho1 Tm3 Co20 As12'
_cell_volume   488.91487930
_cell_formula_units_Z   1
loop_
 _symmetry_equiv_pos_site_id
 _symmetry_equiv_pos_as_xyz
  1  'x, y, z'
loop_
 _atom_site_type_symbol
 _atom_site_label
 _atom_site_symmetry_multiplicity
 _atom_site_fract_x
 _atom_site_fract_y
 _atom_site_fract_z
 _atom_site_occupancy
  Ho  Ho0  1  0.750000  0.201844  0.418201  1
  Tm  Tm1  1  0.750000  0.701615  0.081293  1
  Tm  Tm2  1  0.250000  0.298469  0.918793  1
  Tm  Tm3  1  0.250000  0.798581  0.581333  1
  Co  Co4  1  0.750000  0.697408  0.384336  1
  Co  Co5  1  0.250000  0.303054  0.616054  1
  Co  Co6  1  0.250000  0.802632  0.884526  1
  Co  Co7  1  0.750000  0.197181  0.115112  1
  Co  Co8  1  0.750000  0.991126  0.212766  1
  Co  Co9  1  0.250000  0.008382  0.787311  1
  Co  Co10  1  0.250000  0.508898  0.712907  1
  Co  Co11  1  0.750000  0.491256  0.287163  1
  Co  Co12  1  0.750000  0.677795  0.784214  1
  Co  Co13  1  0.250000  0.322194  0.215758  1
  Co  Co14  1  0.250000  0.822079  0.283892  1
  Co  Co15  1  0.750000  0.177733  0.716109  1
  Co  Co16  1  0.750000  0.931634  0.969278  1
  Co  Co17  1  0.250000  0.068052  0.030278  1
  Co  Co18  1  0.250000  0.568789  0.469390  1
  Co  Co19  1  0.750000  0.432472  0.531090  1
  Co  Co20  1  0.750000  0.987076  0.592737  1
  Co  Co21  1  0.250000  0.011797  0.407505  1
  Co  Co22  1  0.250000  0.512645  0.092585  1
  Co  Co23  1  0.750000  0.487357  0.907422  1
  As  As24  1  0.750000  0.614982  0.584995  1
  As  As25  1  0.250000  0.386257  0.415144  1
  As  As26  1  0.250000  0.885316  0.084907  1
  As  As27  1  0.750000  0.114472  0.914962  1
  As  As28  1  0.750000  0.890091  0.400121  1
  As  As29  1  0.250000  0.109524  0.600328  1
  As  As30  1  0.250000  0.609763  0.900205  1
  As  As31  1  0.750000  0.390110  0.099871  1
  As  As32  1  0.750000  0.870133  0.768263  1
  As  As33  1  0.250000  0.129234  0.231059  1
  As  As34  1  0.250000  0.629807  0.268133  1
  As  As35  1  0.750000  0.370242  0.731960  1
