# generated using pymatgen
data_Dy2Mn4Co7NiP7
_symmetry_space_group_name_H-M   'P 1'
_cell_length_a   9.06961122
_cell_length_b   9.06630738
_cell_length_c   3.61978800
_cell_angle_alpha   90.00000000
_cell_angle_beta   90.00000000
_cell_angle_gamma   119.80497832
_symmetry_Int_Tables_number   1
_chemical_formula_structural   Dy2Mn4Co7NiP7
_chemical_formula_sum   'Dy2 Mn4 Co7 Ni1 P7'
_cell_volume   258.27536808
_cell_formula_units_Z   1
loop_
 _symmetry_equiv_pos_site_id
 _symmetry_equiv_pos_as_xyz
  1  'x, y, z'
loop_
 _atom_site_type_symbol
 _atom_site_label
 _atom_site_symmetry_multiplicity
 _atom_site_fract_x
 _atom_site_fract_y
 _atom_site_fract_z
 _atom_site_occupancy
  Dy  Dy0  1  0.666041  0.334132  0.000000  1
  Dy  Dy1  1  0.333081  0.666412  0.500000  1
  Mn  Mn2  1  0.844824  0.119742  0.000000  1
  Mn  Mn3  1  0.120027  0.901419  0.500000  1
  Mn  Mn4  1  0.103898  0.225386  0.500000  1
  Mn  Mn5  1  0.775257  0.878357  0.500000  1
  Co  Co6  1  0.061846  0.428059  0.000000  1
  Co  Co7  1  0.568864  0.629529  0.000000  1
  Co  Co8  1  0.881674  0.724070  0.000000  1
  Co  Co9  1  0.277414  0.159519  0.000000  1
  Co  Co10  1  0.949347  0.561349  0.500000  1
  Co  Co11  1  0.437497  0.387386  0.500000  1
  Co  Co12  1  0.612443  0.049950  0.500000  1
  Ni  Ni13  1  0.369151  0.937238  0.000000  1
  P  P14  1  0.107597  0.694945  0.000000  1
  P  P15  1  0.301942  0.412766  0.000000  1
  P  P16  1  0.591506  0.888435  0.000000  1
  P  P17  1  0.711354  0.595982  0.500000  1
  P  P18  1  0.405376  0.119049  0.500000  1
  P  P19  1  0.879685  0.286468  0.500000  1
  P  P20  1  0.001179  0.999811  0.000000  1
