# generated using pymatgen
data_Sr6FeTc3O14
_symmetry_space_group_name_H-M   'P 1'
_cell_length_a   10.72361001
_cell_length_b   10.72361043
_cell_length_c   5.61319900
_cell_angle_alpha   90.00000000
_cell_angle_beta   90.00000000
_cell_angle_gamma   149.57172004
_symmetry_Int_Tables_number   1
_chemical_formula_structural   Sr6FeTc3O14
_chemical_formula_sum   'Sr6 Fe1 Tc3 O14'
_cell_volume   326.91671989
_cell_formula_units_Z   1
loop_
 _symmetry_equiv_pos_site_id
 _symmetry_equiv_pos_as_xyz
  1  'x, y, z'
loop_
 _atom_site_type_symbol
 _atom_site_label
 _atom_site_symmetry_multiplicity
 _atom_site_fract_x
 _atom_site_fract_y
 _atom_site_fract_z
 _atom_site_occupancy
  Sr  Sr0  1  0.495949  0.504051  0.000000  1
  Sr  Sr1  1  0.996147  0.003853  0.500000  1
  Sr  Sr2  1  0.816261  0.183739  0.500000  1
  Sr  Sr3  1  0.316263  0.683737  0.000000  1
  Sr  Sr4  1  0.686050  0.313950  0.000000  1
  Sr  Sr5  1  0.186487  0.813513  0.500000  1
  Fe  Fe6  1  0.399680  0.600320  0.500000  1
  Tc  Tc7  1  0.903223  0.096777  0.000000  1
  Tc  Tc8  1  0.097242  0.902758  0.000000  1
  Tc  Tc9  1  0.596967  0.403033  0.500000  1
  O  O10  1  0.805789  0.194211  0.000000  1
  O  O11  1  0.303166  0.696834  0.500000  1
  O  O12  1  0.696835  0.303165  0.500000  1
  O  O13  1  0.195907  0.804093  0.000000  1
  O  O14  1  0.500147  0.499853  0.500000  1
  O  O15  1  0.999569  0.000431  0.000000  1
  O  O16  1  0.655175  0.847362  0.751934  1
  O  O17  1  0.152638  0.344825  0.248066  1
  O  O18  1  0.152638  0.344825  0.751934  1
  O  O19  1  0.655175  0.847362  0.248066  1
  O  O20  1  0.846350  0.652005  0.749823  1
  O  O21  1  0.347994  0.153649  0.250177  1
  O  O22  1  0.347994  0.153649  0.749823  1
  O  O23  1  0.846350  0.652005  0.250177  1
