# generated using pymatgen
data_NaOs2Cl11
_symmetry_space_group_name_H-M   'P 1'
_cell_length_a   7.03993963
_cell_length_b   7.06784797
_cell_length_c   17.59275254
_cell_angle_alpha   79.22699529
_cell_angle_beta   80.11424857
_cell_angle_gamma   90.18622499
_symmetry_Int_Tables_number   1
_chemical_formula_structural   NaOs2Cl11
_chemical_formula_sum   'Na2 Os4 Cl22'
_cell_volume   846.60518018
_cell_formula_units_Z   2
loop_
 _symmetry_equiv_pos_site_id
 _symmetry_equiv_pos_as_xyz
  1  'x, y, z'
loop_
 _atom_site_type_symbol
 _atom_site_label
 _atom_site_symmetry_multiplicity
 _atom_site_fract_x
 _atom_site_fract_y
 _atom_site_fract_z
 _atom_site_occupancy
  Na  Na0  1  0.759624  0.773536  0.501042  1
  Na  Na1  1  0.240376  0.226464  0.498958  1
  Os  Os2  1  0.307209  0.817562  0.362682  1
  Os  Os3  1  0.692791  0.182438  0.637318  1
  Os  Os4  1  0.842223  0.336757  0.082973  1
  Os  Os5  1  0.157777  0.663243  0.917027  1
  Cl  Cl6  1  0.242722  0.819165  0.499692  1
  Cl  Cl7  1  0.757278  0.180835  0.500308  1
  Cl  Cl8  1  0.594922  0.983968  0.355107  1
  Cl  Cl9  1  0.405078  0.016032  0.644893  1
  Cl  Cl10  1  0.468472  0.529044  0.389210  1
  Cl  Cl11  1  0.531528  0.470956  0.610790  1
  Cl  Cl12  1  0.361349  0.815954  0.232392  1
  Cl  Cl13  1  0.638651  0.184046  0.767608  1
  Cl  Cl14  1  0.018407  0.637411  0.380057  1
  Cl  Cl15  1  0.981593  0.362589  0.619943  1
  Cl  Cl16  1  0.146962  0.102769  0.344720  1
  Cl  Cl17  1  0.853038  0.897231  0.655280  1
  Cl  Cl18  1  0.890037  0.040515  0.148167  1
  Cl  Cl19  1  0.109963  0.959485  0.851833  1
  Cl  Cl20  1  0.545170  0.372001  0.148994  1
  Cl  Cl21  1  0.454830  0.627999  0.851006  1
  Cl  Cl22  1  0.716505  0.211375  0.990405  1
  Cl  Cl23  1  0.283495  0.788625  0.009595  1
  Cl  Cl24  1  0.981517  0.477914  0.167843  1
  Cl  Cl25  1  0.018483  0.522086  0.832157  1
  Cl  Cl26  1  0.162430  0.342581  0.999887  1
  Cl  Cl27  1  0.837570  0.657419  0.000113  1
