# generated using pymatgen
data_Zn11PtRh
_symmetry_space_group_name_H-M   'P 1'
_cell_length_a   7.96075756
_cell_length_b   7.96075772
_cell_length_c   7.94518255
_cell_angle_alpha   109.47743985
_cell_angle_beta   109.47743930
_cell_angle_gamma   109.53808822
_symmetry_Int_Tables_number   1
_chemical_formula_structural   Zn11PtRh
_chemical_formula_sum   'Zn22 Pt2 Rh2'
_cell_volume   387.22633306
_cell_formula_units_Z   2
loop_
 _symmetry_equiv_pos_site_id
 _symmetry_equiv_pos_as_xyz
  1  'x, y, z'
loop_
 _atom_site_type_symbol
 _atom_site_label
 _atom_site_symmetry_multiplicity
 _atom_site_fract_x
 _atom_site_fract_y
 _atom_site_fract_z
 _atom_site_occupancy
  Zn  Zn0  1  0.997445  0.786363  0.000000  1
  Zn  Zn1  1  0.786363  0.997445  0.000000  1
  Zn  Zn2  1  0.997200  0.997200  0.782824  1
  Zn  Zn3  1  0.214377  0.214377  0.217176  1
  Zn  Zn4  1  0.353641  0.619110  0.353559  1
  Zn  Zn5  1  0.265551  0.000082  0.646441  1
  Zn  Zn6  1  0.651180  0.000248  0.268423  1
  Zn  Zn7  1  0.267597  0.648931  0.000000  1
  Zn  Zn8  1  0.733884  0.733884  0.382622  1
  Zn  Zn9  1  0.382757  0.731825  0.731577  1
  Zn  Zn10  1  0.000248  0.651180  0.268423  1
  Zn  Zn11  1  0.000082  0.265551  0.646441  1
  Zn  Zn12  1  0.648931  0.267597  0.000000  1
  Zn  Zn13  1  0.351263  0.351263  0.617378  1
  Zn  Zn14  1  0.619110  0.353641  0.353559  1
  Zn  Zn15  1  0.731825  0.382757  0.731577  1
  Zn  Zn16  1  0.357793  0.357793  0.000000  1
  Zn  Zn17  1  0.998032  0.641358  0.642003  1
  Zn  Zn18  1  0.999355  0.356028  0.357997  1
  Zn  Zn19  1  0.356028  0.999355  0.357997  1
  Zn  Zn20  1  0.641358  0.998032  0.642003  1
  Zn  Zn21  1  0.642988  0.642988  0.000000  1
  Pt  Pt22  1  0.000681  0.346579  0.000000  1
  Pt  Pt23  1  0.346579  0.000681  0.000000  1
  Rh  Rh24  1  0.000336  0.000336  0.344940  1
  Rh  Rh25  1  0.655396  0.655396  0.655060  1
