# generated using pymatgen
data_K12AlGa7As12
_symmetry_space_group_name_H-M   'P 1'
_cell_length_a   10.16814712
_cell_length_b   10.16814741
_cell_length_c   14.60084107
_cell_angle_alpha   89.98069521
_cell_angle_beta   89.98068915
_cell_angle_gamma   141.84850005
_symmetry_Int_Tables_number   1
_chemical_formula_structural   K12AlGa7As12
_chemical_formula_sum   'K12 Al1 Ga7 As12'
_cell_volume   932.54350247
_cell_formula_units_Z   1
loop_
 _symmetry_equiv_pos_site_id
 _symmetry_equiv_pos_as_xyz
  1  'x, y, z'
loop_
 _atom_site_type_symbol
 _atom_site_label
 _atom_site_symmetry_multiplicity
 _atom_site_fract_x
 _atom_site_fract_y
 _atom_site_fract_z
 _atom_site_occupancy
  K  K0  1  0.613086  0.931000  0.673065  1
  K  K1  1  0.569158  0.885743  0.171583  1
  K  K2  1  0.069000  0.386914  0.326935  1
  K  K3  1  0.114257  0.430842  0.828417  1
  K  K4  1  0.653958  0.654462  0.864119  1
  K  K5  1  0.431004  0.114268  0.828880  1
  K  K6  1  0.345538  0.346042  0.135881  1
  K  K7  1  0.933555  0.615827  0.673348  1
  K  K8  1  0.150269  0.152346  0.637955  1
  K  K9  1  0.885732  0.568996  0.171120  1
  K  K10  1  0.847654  0.849731  0.362045  1
  K  K11  1  0.384173  0.066445  0.326652  1
  Al  Al12  1  0.582766  0.417234  0.500000  1
  Ga  Ga13  1  0.240934  0.759066  0.500000  1
  Ga  Ga14  1  0.259395  0.740605  0.000000  1
  Ga  Ga15  1  0.740819  0.259181  0.000000  1
  Ga  Ga16  1  0.917469  0.082531  0.000000  1
  Ga  Ga17  1  0.759316  0.240684  0.500000  1
  Ga  Ga18  1  0.082531  0.917469  0.000000  1
  Ga  Ga19  1  0.418339  0.581661  0.500000  1
  As  As20  1  0.049673  0.398392  0.089282  1
  As  As21  1  0.655580  0.653910  0.612141  1
  As  As22  1  0.398487  0.049501  0.089247  1
  As  As23  1  0.601608  0.950327  0.910718  1
  As  As24  1  0.950499  0.601513  0.910753  1
  As  As25  1  0.450628  0.103127  0.588891  1
  As  As26  1  0.550509  0.898880  0.410493  1
  As  As27  1  0.157294  0.157319  0.888475  1
  As  As28  1  0.101120  0.449491  0.589507  1
  As  As29  1  0.842681  0.842706  0.111525  1
  As  As30  1  0.346090  0.344420  0.387859  1
  As  As31  1  0.896873  0.549372  0.411109  1
