# generated using pymatgen
data_DyY2Cd3Ge2Au
_symmetry_space_group_name_H-M   'P 1'
_cell_length_a   7.33001500
_cell_length_b   7.33044846
_cell_length_c   4.34332600
_cell_angle_alpha   90.00000000
_cell_angle_beta   90.00000000
_cell_angle_gamma   119.99803946
_symmetry_Int_Tables_number   1
_chemical_formula_structural   DyY2Cd3Ge2Au
_chemical_formula_sum   'Dy1 Y2 Cd3 Ge2 Au1'
_cell_volume   202.11430233
_cell_formula_units_Z   1
loop_
 _symmetry_equiv_pos_site_id
 _symmetry_equiv_pos_as_xyz
  1  'x, y, z'
loop_
 _atom_site_type_symbol
 _atom_site_label
 _atom_site_symmetry_multiplicity
 _atom_site_fract_x
 _atom_site_fract_y
 _atom_site_fract_z
 _atom_site_occupancy
  Dy  Dy0  1  0.584752  0.000000  0.000000  1
  Y  Y1  1  0.999949  0.584616  0.000000  1
  Y  Y2  1  0.415333  0.415384  0.000000  1
  Cd  Cd3  1  0.251024  0.000000  0.500000  1
  Cd  Cd4  1  0.999968  0.250981  0.500000  1
  Cd  Cd5  1  0.748987  0.749019  0.500000  1
  Ge  Ge6  1  0.333478  0.666819  0.500000  1
  Ge  Ge7  1  0.666659  0.333181  0.500000  1
  Au  Au8  1  0.999850  0.000000  0.000000  1
