# generated using pymatgen
data_EuAlGeN3
_symmetry_space_group_name_H-M   'P 1'
_cell_length_a   5.30702200
_cell_length_b   5.92157748
_cell_length_c   5.88789751
_cell_angle_alpha   120.05646726
_cell_angle_beta   90.00000000
_cell_angle_gamma   90.00000000
_symmetry_Int_Tables_number   1
_chemical_formula_structural   EuAlGeN3
_chemical_formula_sum   'Eu2 Al2 Ge2 N6'
_cell_volume   160.15178459
_cell_formula_units_Z   2
loop_
 _symmetry_equiv_pos_site_id
 _symmetry_equiv_pos_as_xyz
  1  'x, y, z'
loop_
 _atom_site_type_symbol
 _atom_site_label
 _atom_site_symmetry_multiplicity
 _atom_site_fract_x
 _atom_site_fract_y
 _atom_site_fract_z
 _atom_site_occupancy
  Eu  Eu0  1  0.002921  0.687974  0.681698  1
  Eu  Eu1  1  0.502921  0.312026  0.318302  1
  Al  Al2  1  0.529548  0.015966  0.667892  1
  Al  Al3  1  0.029548  0.984034  0.332108  1
  Ge  Ge4  1  0.524653  0.670274  0.020198  1
  Ge  Ge5  1  0.024653  0.329726  0.979802  1
  N  N6  1  0.489491  0.752161  0.755001  1
  N  N7  1  0.989491  0.247839  0.244999  1
  N  N8  1  0.875929  0.090458  0.659147  1
  N  N9  1  0.875656  0.659295  0.088218  1
  N  N10  1  0.375929  0.909542  0.340853  1
  N  N11  1  0.375656  0.340705  0.911782  1
