# generated using pymatgen
data_Cs2Pr3Sm3(CBr6)2
_symmetry_space_group_name_H-M   'P 1'
_cell_length_a   9.07938426
_cell_length_b   9.11188840
_cell_length_c   9.71289132
_cell_angle_alpha   70.44301335
_cell_angle_beta   85.20172828
_cell_angle_gamma   89.21431460
_symmetry_Int_Tables_number   1
_chemical_formula_structural   Cs2Pr3Sm3(CBr6)2
_chemical_formula_sum   'Cs2 Pr3 Sm3 C2 Br12'
_cell_volume   754.45210312
_cell_formula_units_Z   1
loop_
 _symmetry_equiv_pos_site_id
 _symmetry_equiv_pos_as_xyz
  1  'x, y, z'
loop_
 _atom_site_type_symbol
 _atom_site_label
 _atom_site_symmetry_multiplicity
 _atom_site_fract_x
 _atom_site_fract_y
 _atom_site_fract_z
 _atom_site_occupancy
  Cs  Cs0  1  0.469677  0.357977  0.332313  1
  Cs  Cs1  1  0.530933  0.642774  0.667919  1
  Pr  Pr2  1  0.913893  0.736277  0.004794  1
  Pr  Pr3  1  0.084565  0.264419  0.995030  1
  Pr  Pr4  1  0.736679  0.085932  0.001094  1
  Sm  Sm5  1  0.259209  0.913943  0.999008  1
  Sm  Sm6  1  0.976097  0.883997  0.324289  1
  Sm  Sm7  1  0.025727  0.115721  0.675741  1
  C  C8  1  0.007530  0.026461  0.922979  1
  C  C9  1  0.995985  0.972785  0.077099  1
  Br  Br10  1  0.079345  0.191518  0.330178  1
  Br  Br11  1  0.921816  0.808763  0.669859  1
  Br  Br12  1  0.212391  0.594446  0.000877  1
  Br  Br13  1  0.787917  0.410291  0.999061  1
  Br  Br14  1  0.404094  0.198768  0.002701  1
  Br  Br15  1  0.590369  0.794904  0.997305  1
  Br  Br16  1  0.671126  0.997058  0.330918  1
  Br  Br17  1  0.329958  0.000811  0.676076  1
  Br  Br18  1  0.280754  0.773591  0.320349  1
  Br  Br19  1  0.721678  0.228682  0.672715  1
  Br  Br20  1  0.849746  0.589848  0.331333  1
  Br  Br21  1  0.150508  0.411035  0.668363  1
