# generated using pymatgen
data_BaNd6PtI12
_symmetry_space_group_name_H-M   'P 1'
_cell_length_a   10.08612470
_cell_length_b   10.08612602
_cell_length_c   10.08612520
_cell_angle_alpha   105.67782813
_cell_angle_beta   105.67782728
_cell_angle_gamma   105.67783497
_symmetry_Int_Tables_number   1
_chemical_formula_structural   BaNd6PtI12
_chemical_formula_sum   'Ba1 Nd6 Pt1 I12'
_cell_volume   883.52400932
_cell_formula_units_Z   1
loop_
 _symmetry_equiv_pos_site_id
 _symmetry_equiv_pos_as_xyz
  1  'x, y, z'
loop_
 _atom_site_type_symbol
 _atom_site_label
 _atom_site_symmetry_multiplicity
 _atom_site_fract_x
 _atom_site_fract_y
 _atom_site_fract_z
 _atom_site_occupancy
  Ba  Ba0  1  0.000000  0.000000  0.000000  1
  Nd  Nd1  1  0.405185  0.482406  0.199691  1
  Nd  Nd2  1  0.199691  0.405185  0.482406  1
  Nd  Nd3  1  0.482406  0.199691  0.405185  1
  Nd  Nd4  1  0.594815  0.517594  0.800309  1
  Nd  Nd5  1  0.800309  0.594815  0.517594  1
  Nd  Nd6  1  0.517594  0.800309  0.594815  1
  Pt  Pt7  1  0.500000  0.500000  0.500000  1
  I  I8  1  0.056211  0.372530  0.139496  1
  I  I9  1  0.139496  0.056211  0.372530  1
  I  I10  1  0.372530  0.139496  0.056211  1
  I  I11  1  0.943789  0.627470  0.860504  1
  I  I12  1  0.860504  0.943789  0.627470  1
  I  I13  1  0.627470  0.860504  0.943789  1
  I  I14  1  0.723914  0.574400  0.176069  1
  I  I15  1  0.176069  0.723914  0.574400  1
  I  I16  1  0.574400  0.176069  0.723914  1
  I  I17  1  0.276086  0.425600  0.823931  1
  I  I18  1  0.823931  0.276086  0.425600  1
  I  I19  1  0.425600  0.823931  0.276086  1
