# generated using pymatgen
data_RbBiAsRh2
_symmetry_space_group_name_H-M   'P 1'
_cell_length_a   8.07690661
_cell_length_b   8.07690690
_cell_length_c   8.07690671
_cell_angle_alpha   150.09185796
_cell_angle_beta   150.09185905
_cell_angle_gamma   42.80658155
_symmetry_Int_Tables_number   1
_chemical_formula_structural   RbBiAsRh2
_chemical_formula_sum   'Rb1 Bi1 As1 Rh2'
_cell_volume   130.66247767
_cell_formula_units_Z   1
loop_
 _symmetry_equiv_pos_site_id
 _symmetry_equiv_pos_as_xyz
  1  'x, y, z'
loop_
 _atom_site_type_symbol
 _atom_site_label
 _atom_site_symmetry_multiplicity
 _atom_site_fract_x
 _atom_site_fract_y
 _atom_site_fract_z
 _atom_site_occupancy
  Rb  Rb0  1  0.020066  0.020066  0.000000  1
  Bi  Bi1  1  0.352108  0.352108  0.000000  1
  As  As2  1  0.653575  0.653575  0.000000  1
  Rh  Rh3  1  0.737126  0.237126  0.500000  1
  Rh  Rh4  1  0.237126  0.737126  0.500000  1
