# generated using pymatgen
data_Dy4TmReOsC7
_symmetry_space_group_name_H-M   'P 1'
_cell_length_a   8.25258641
_cell_length_b   8.23078950
_cell_length_c   3.46593300
_cell_angle_alpha   90.00000000
_cell_angle_beta   90.00000000
_cell_angle_gamma   122.36842857
_symmetry_Int_Tables_number   1
_chemical_formula_structural   Dy4TmReOsC7
_chemical_formula_sum   'Dy4 Tm1 Re1 Os1 C7'
_cell_volume   198.84499694
_cell_formula_units_Z   1
loop_
 _symmetry_equiv_pos_site_id
 _symmetry_equiv_pos_as_xyz
  1  'x, y, z'
loop_
 _atom_site_type_symbol
 _atom_site_label
 _atom_site_symmetry_multiplicity
 _atom_site_fract_x
 _atom_site_fract_y
 _atom_site_fract_z
 _atom_site_occupancy
  Dy  Dy0  1  0.499944  0.498844  0.000000  1
  Dy  Dy1  1  0.075189  0.334649  0.500000  1
  Dy  Dy2  1  0.923271  0.664509  0.500000  1
  Dy  Dy3  1  0.663380  0.925928  0.500000  1
  Tm  Tm4  1  0.339880  0.078427  0.500000  1
  Re  Re5  1  0.284358  0.715297  0.000000  1
  Os  Os6  1  0.712923  0.287201  0.000000  1
  C  C7  1  0.630929  0.368237  0.500000  1
  C  C8  1  0.372984  0.626414  0.500000  1
  C  C9  1  0.000337  0.999641  0.000000  1
  C  C10  1  0.173131  0.168462  0.000000  1
  C  C11  1  0.828565  0.830359  0.000000  1
  C  C12  1  0.998636  0.500728  0.000000  1
  C  C13  1  0.496474  0.001301  0.000000  1
