# generated using pymatgen
data_K5U2F13
_symmetry_space_group_name_H-M   'P 1'
_cell_length_a   7.25616820
_cell_length_b   7.25616860
_cell_length_c   9.56629001
_cell_angle_alpha   83.82708628
_cell_angle_beta   83.82708015
_cell_angle_gamma   50.90093835
_symmetry_Int_Tables_number   1
_chemical_formula_structural   K5U2F13
_chemical_formula_sum   'K5 U2 F13'
_cell_volume   388.10587500
_cell_formula_units_Z   1
loop_
 _symmetry_equiv_pos_site_id
 _symmetry_equiv_pos_as_xyz
  1  'x, y, z'
loop_
 _atom_site_type_symbol
 _atom_site_label
 _atom_site_symmetry_multiplicity
 _atom_site_fract_x
 _atom_site_fract_y
 _atom_site_fract_z
 _atom_site_occupancy
  K  K0  1  0.221941  0.221941  0.853627  1
  K  K1  1  0.778059  0.778059  0.146373  1
  K  K2  1  0.500000  0.500000  0.000000  1
  K  K3  1  0.658881  0.658881  0.572521  1
  K  K4  1  0.341119  0.341119  0.427479  1
  U  U5  1  0.928468  0.928468  0.735766  1
  U  U6  1  0.071532  0.071532  0.264234  1
  F  F7  1  0.049642  0.594271  0.644147  1
  F  F8  1  0.594271  0.049642  0.644147  1
  F  F9  1  0.950358  0.405729  0.355853  1
  F  F10  1  0.405729  0.950358  0.355853  1
  F  F11  1  0.653101  0.080853  0.918036  1
  F  F12  1  0.080853  0.653101  0.918036  1
  F  F13  1  0.346899  0.919147  0.081964  1
  F  F14  1  0.919147  0.346899  0.081964  1
  F  F15  1  0.285793  0.825773  0.751613  1
  F  F16  1  0.825773  0.285793  0.751613  1
  F  F17  1  0.714207  0.174227  0.248387  1
  F  F18  1  0.174227  0.714207  0.248387  1
  F  F19  1  0.000000  0.000000  0.500000  1
