# generated using pymatgen
data_Tb5Er(AlAu5)2
_symmetry_space_group_name_H-M   'P 1'
_cell_length_a   8.49310356
_cell_length_b   8.49310310
_cell_length_c   13.53727000
_cell_angle_alpha   90.04447740
_cell_angle_beta   89.95552261
_cell_angle_gamma   128.46085419
_symmetry_Int_Tables_number   1
_chemical_formula_structural   Tb5Er(AlAu5)2
_chemical_formula_sum   'Tb10 Er2 Al4 Au20'
_cell_volume   764.61703898
_cell_formula_units_Z   2
loop_
 _symmetry_equiv_pos_site_id
 _symmetry_equiv_pos_as_xyz
  1  'x, y, z'
loop_
 _atom_site_type_symbol
 _atom_site_label
 _atom_site_symmetry_multiplicity
 _atom_site_fract_x
 _atom_site_fract_y
 _atom_site_fract_z
 _atom_site_occupancy
  Tb  Tb0  1  0.927684  0.072316  0.250580  1
  Tb  Tb1  1  0.072316  0.927684  0.749420  1
  Tb  Tb2  1  0.320650  0.679350  0.250612  1
  Tb  Tb3  1  0.679350  0.320650  0.749388  1
  Tb  Tb4  1  0.630995  0.369005  0.035220  1
  Tb  Tb5  1  0.369005  0.630995  0.964780  1
  Tb  Tb6  1  0.881559  0.118441  0.950873  1
  Tb  Tb7  1  0.118441  0.881559  0.049127  1
  Tb  Tb8  1  0.881314  0.118686  0.548971  1
  Tb  Tb9  1  0.118686  0.881314  0.451029  1
  Er  Er10  1  0.630645  0.369355  0.465430  1
  Er  Er11  1  0.369355  0.630645  0.534570  1
  Al  Al12  1  0.719925  0.280075  0.250962  1
  Al  Al13  1  0.280075  0.719925  0.749038  1
  Al  Al14  1  0.532808  0.467192  0.250479  1
  Al  Al15  1  0.467192  0.532808  0.749521  1
  Au  Au16  1  0.323029  0.069323  0.250104  1
  Au  Au17  1  0.069323  0.323029  0.749896  1
  Au  Au18  1  0.676971  0.930677  0.749896  1
  Au  Au19  1  0.930677  0.676971  0.250104  1
  Au  Au20  1  0.570612  0.005183  0.397597  1
  Au  Au21  1  0.005183  0.570612  0.602403  1
  Au  Au22  1  0.571067  0.004259  0.103643  1
  Au  Au23  1  0.004259  0.571067  0.896357  1
  Au  Au24  1  0.429388  0.994817  0.602403  1
  Au  Au25  1  0.994817  0.429388  0.397597  1
  Au  Au26  1  0.428933  0.995741  0.896357  1
  Au  Au27  1  0.995741  0.428933  0.103643  1
  Au  Au28  1  0.683577  0.738586  0.395883  1
  Au  Au29  1  0.738586  0.683577  0.604117  1
  Au  Au30  1  0.685924  0.741019  0.105374  1
  Au  Au31  1  0.741019  0.685924  0.894626  1
  Au  Au32  1  0.316423  0.261414  0.604117  1
  Au  Au33  1  0.261414  0.316423  0.395883  1
  Au  Au34  1  0.314076  0.258981  0.894626  1
  Au  Au35  1  0.258981  0.314076  0.105374  1
