# generated using pymatgen
data_Nd16MgZn(Co2Hg)2
_symmetry_space_group_name_H-M   'P 1'
_cell_length_a   9.74549355
_cell_length_b   9.77578255
_cell_length_c   9.79531200
_cell_angle_alpha   59.93389335
_cell_angle_beta   59.83075358
_cell_angle_gamma   60.00592581
_symmetry_Int_Tables_number   1
_chemical_formula_structural   Nd16MgZn(Co2Hg)2
_chemical_formula_sum   'Nd16 Mg1 Zn1 Co4 Hg2'
_cell_volume   658.72258593
_cell_formula_units_Z   1
loop_
 _symmetry_equiv_pos_site_id
 _symmetry_equiv_pos_as_xyz
  1  'x, y, z'
loop_
 _atom_site_type_symbol
 _atom_site_label
 _atom_site_symmetry_multiplicity
 _atom_site_fract_x
 _atom_site_fract_y
 _atom_site_fract_z
 _atom_site_occupancy
  Nd  Nd0  1  0.598032  0.595681  0.595605  1
  Nd  Nd1  1  0.598032  0.595681  0.210682  1
  Nd  Nd2  1  0.597861  0.209726  0.596206  1
  Nd  Nd3  1  0.202605  0.598400  0.599497  1
  Nd  Nd4  1  0.190398  0.809961  0.812268  1
  Nd  Nd5  1  0.808927  0.194800  0.183902  1
  Nd  Nd6  1  0.808927  0.194800  0.812371  1
  Nd  Nd7  1  0.190398  0.809961  0.187373  1
  Nd  Nd8  1  0.810141  0.812756  0.188552  1
  Nd  Nd9  1  0.185122  0.192464  0.811207  1
  Nd  Nd10  1  0.057178  0.439996  0.442781  1
  Nd  Nd11  1  0.435966  0.061383  0.062337  1
  Nd  Nd12  1  0.435966  0.061383  0.440314  1
  Nd  Nd13  1  0.057178  0.439996  0.060045  1
  Nd  Nd14  1  0.437499  0.437886  0.062307  1
  Nd  Nd15  1  0.054299  0.057052  0.444325  1
  Mg  Mg16  1  0.536906  0.818858  0.822119  1
  Zn  Zn17  1  0.833384  0.503549  0.831534  1
  Co  Co18  1  0.390483  0.392364  0.389181  1
  Co  Co19  1  0.390483  0.392364  0.827973  1
  Co  Co20  1  0.391244  0.827309  0.390724  1
  Co  Co21  1  0.826716  0.393010  0.390138  1
  Hg  Hg22  1  0.831129  0.830311  0.836200  1
  Hg  Hg23  1  0.831129  0.830311  0.502360  1
