# generated using pymatgen
data_Dy15Ho5(Ga2Bi)4
_symmetry_space_group_name_H-M   'P 1'
_cell_length_a   8.04755302
_cell_length_b   8.04765902
_cell_length_c   13.28322600
_cell_angle_alpha   89.99883665
_cell_angle_beta   89.99845312
_cell_angle_gamma   89.99286615
_symmetry_Int_Tables_number   1
_chemical_formula_structural   Dy15Ho5(Ga2Bi)4
_chemical_formula_sum   'Dy15 Ho5 Ga8 Bi4'
_cell_volume   860.27434468
_cell_formula_units_Z   1
loop_
 _symmetry_equiv_pos_site_id
 _symmetry_equiv_pos_as_xyz
  1  'x, y, z'
loop_
 _atom_site_type_symbol
 _atom_site_label
 _atom_site_symmetry_multiplicity
 _atom_site_fract_x
 _atom_site_fract_y
 _atom_site_fract_z
 _atom_site_occupancy
  Dy  Dy0  1  0.654075  0.653756  0.608851  1
  Dy  Dy1  1  0.654121  0.346211  0.108871  1
  Dy  Dy2  1  0.845906  0.846223  0.391137  1
  Dy  Dy3  1  0.154096  0.846325  0.891232  1
  Dy  Dy4  1  0.345893  0.346217  0.608836  1
  Dy  Dy5  1  0.345895  0.653801  0.108871  1
  Dy  Dy6  1  0.154095  0.153775  0.391049  1
  Dy  Dy7  1  0.846008  0.153783  0.891229  1
  Dy  Dy8  1  0.653808  0.345876  0.391115  1
  Dy  Dy9  1  0.346143  0.345831  0.891221  1
  Dy  Dy10  1  0.153809  0.845902  0.608830  1
  Dy  Dy11  1  0.846289  0.845977  0.108831  1
  Dy  Dy12  1  0.346183  0.654117  0.391114  1
  Dy  Dy13  1  0.653766  0.654076  0.891186  1
  Dy  Dy14  1  0.846211  0.154114  0.608830  1
  Ho  Ho15  1  0.000018  0.499962  0.751354  1
  Ho  Ho16  1  0.000022  0.499885  0.251338  1
  Ho  Ho17  1  0.499879  0.000025  0.248599  1
  Ho  Ho18  1  0.499961  0.000023  0.748617  1
  Ho  Ho19  1  0.153698  0.154020  0.109154  1
  Ga  Ga20  1  0.854617  0.854616  0.749999  1
  Ga  Ga21  1  0.854851  0.145380  0.249897  1
  Ga  Ga22  1  0.645434  0.645436  0.250000  1
  Ga  Ga23  1  0.354657  0.645349  0.749994  1
  Ga  Ga24  1  0.145387  0.145386  0.750013  1
  Ga  Ga25  1  0.145379  0.854850  0.249897  1
  Ga  Ga26  1  0.354446  0.354446  0.249873  1
  Ga  Ga27  1  0.645348  0.354655  0.749993  1
  Bi  Bi28  1  0.000001  0.500019  0.500818  1
  Bi  Bi29  1  0.000086  0.499881  0.000855  1
  Bi  Bi30  1  0.500022  0.000001  0.499182  1
  Bi  Bi31  1  0.499895  0.000081  0.999212  1
