# generated using pymatgen
data_MnNb12Al8Ni3N4
_symmetry_space_group_name_H-M   'P 1'
_cell_length_a   8.19569159
_cell_length_b   8.19569253
_cell_length_c   8.19865800
_cell_angle_alpha   60.01196480
_cell_angle_beta   60.01196908
_cell_angle_gamma   59.99999820
_symmetry_Int_Tables_number   1
_chemical_formula_structural   MnNb12Al8Ni3N4
_chemical_formula_sum   'Mn1 Nb12 Al8 Ni3 N4'
_cell_volume   389.47318507
_cell_formula_units_Z   1
loop_
 _symmetry_equiv_pos_site_id
 _symmetry_equiv_pos_as_xyz
  1  'x, y, z'
loop_
 _atom_site_type_symbol
 _atom_site_label
 _atom_site_symmetry_multiplicity
 _atom_site_fract_x
 _atom_site_fract_y
 _atom_site_fract_z
 _atom_site_occupancy
  Mn  Mn0  1  0.625000  0.625000  0.125000  1
  Nb  Nb1  1  0.809442  0.809442  0.186657  1
  Nb  Nb2  1  0.187361  0.187361  0.813346  1
  Nb  Nb3  1  0.811932  0.187361  0.813346  1
  Nb  Nb4  1  0.194459  0.809442  0.186657  1
  Nb  Nb5  1  0.187361  0.811932  0.813346  1
  Nb  Nb6  1  0.809442  0.194459  0.186657  1
  Nb  Nb7  1  0.440558  0.440558  0.063343  1
  Nb  Nb8  1  0.062639  0.062639  0.436654  1
  Nb  Nb9  1  0.438068  0.062639  0.436654  1
  Nb  Nb10  1  0.055541  0.440558  0.063343  1
  Nb  Nb11  1  0.062639  0.438068  0.436654  1
  Nb  Nb12  1  0.440558  0.055541  0.063343  1
  Al  Al13  1  0.746759  0.415858  0.421526  1
  Al  Al14  1  0.415858  0.746759  0.421526  1
  Al  Al15  1  0.416065  0.416065  0.751804  1
  Al  Al16  1  0.415858  0.415858  0.421526  1
  Al  Al17  1  0.503241  0.834142  0.828474  1
  Al  Al18  1  0.834142  0.503241  0.828474  1
  Al  Al19  1  0.833935  0.833935  0.498196  1
  Al  Al20  1  0.834142  0.834142  0.828474  1
  Ni  Ni21  1  0.125000  0.625000  0.625000  1
  Ni  Ni22  1  0.625000  0.125000  0.625000  1
  Ni  Ni23  1  0.625000  0.625000  0.625000  1
  N  N24  1  0.625000  0.125000  0.125000  1
  N  N25  1  0.125000  0.625000  0.125000  1
  N  N26  1  0.125000  0.125000  0.625000  1
  N  N27  1  0.125000  0.125000  0.125000  1
