# generated using pymatgen
data_Sm3Lu(TcB4)4
_symmetry_space_group_name_H-M   'P 1'
_cell_length_a   3.62325000
_cell_length_b   5.99615588
_cell_length_c   11.61339302
_cell_angle_alpha   89.86038958
_cell_angle_beta   90.00000000
_cell_angle_gamma   90.00000000
_symmetry_Int_Tables_number   1
_chemical_formula_structural   Sm3Lu(TcB4)4
_chemical_formula_sum   'Sm3 Lu1 Tc4 B16'
_cell_volume   252.30685489
_cell_formula_units_Z   1
loop_
 _symmetry_equiv_pos_site_id
 _symmetry_equiv_pos_as_xyz
  1  'x, y, z'
loop_
 _atom_site_type_symbol
 _atom_site_label
 _atom_site_symmetry_multiplicity
 _atom_site_fract_x
 _atom_site_fract_y
 _atom_site_fract_z
 _atom_site_occupancy
  Sm  Sm0  1  0.000000  0.627034  0.349589  1
  Sm  Sm1  1  0.000000  0.372974  0.651231  1
  Sm  Sm2  1  0.000000  0.127107  0.149583  1
  Lu  Lu3  1  0.000000  0.872665  0.850478  1
  Tc  Tc4  1  0.000000  0.634306  0.084832  1
  Tc  Tc5  1  0.000000  0.366507  0.911840  1
  Tc  Tc6  1  0.000000  0.132027  0.413872  1
  Tc  Tc7  1  0.000000  0.867482  0.589492  1
  B  B8  1  0.500000  0.785418  0.182945  1
  B  B9  1  0.500000  0.210506  0.816035  1
  B  B10  1  0.500000  0.285419  0.315894  1
  B  B11  1  0.500000  0.714573  0.686522  1
  B  B12  1  0.500000  0.863706  0.029059  1
  B  B13  1  0.500000  0.136292  0.966811  1
  B  B14  1  0.500000  0.362002  0.469071  1
  B  B15  1  0.500000  0.637977  0.532942  1
  B  B16  1  0.500000  0.887467  0.454477  1
  B  B17  1  0.500000  0.111308  0.547922  1
  B  B18  1  0.500000  0.388924  0.044707  1
  B  B19  1  0.500000  0.615939  0.951120  1
  B  B20  1  0.500000  0.977114  0.309132  1
  B  B21  1  0.500000  0.020739  0.694140  1
  B  B22  1  0.500000  0.477536  0.189836  1
  B  B23  1  0.500000  0.524977  0.808470  1
