# generated using pymatgen
data_LiCl30
_symmetry_space_group_name_H-M   'P 1'
_cell_length_a   13.11592070
_cell_length_b   13.11592059
_cell_length_c   15.56519763
_cell_angle_alpha   81.58969571
_cell_angle_beta   81.58969595
_cell_angle_gamma   115.45567049
_symmetry_Int_Tables_number   1
_chemical_formula_structural   LiCl30
_chemical_formula_sum   'Li1 Cl30'
_cell_volume   2325.21435627
_cell_formula_units_Z   1
loop_
 _symmetry_equiv_pos_site_id
 _symmetry_equiv_pos_as_xyz
  1  'x, y, z'
loop_
 _atom_site_type_symbol
 _atom_site_label
 _atom_site_symmetry_multiplicity
 _atom_site_fract_x
 _atom_site_fract_y
 _atom_site_fract_z
 _atom_site_occupancy
  Li  Li0  1  0.000000  0.000000  0.000000  1
  Cl  Cl1  1  0.945964  0.945964  0.157668  1
  Cl  Cl2  1  0.054036  0.054036  0.842332  1
  Cl  Cl3  1  0.136208  0.226281  0.008381  1
  Cl  Cl4  1  0.863792  0.773719  0.991619  1
  Cl  Cl5  1  0.226281  0.136208  0.008381  1
  Cl  Cl6  1  0.773719  0.863792  0.991619  1
  Cl  Cl7  1  0.202433  0.739449  0.066940  1
  Cl  Cl8  1  0.797567  0.260551  0.933060  1
  Cl  Cl9  1  0.690825  0.081077  0.264800  1
  Cl  Cl10  1  0.260551  0.797567  0.933060  1
  Cl  Cl11  1  0.309175  0.918923  0.735200  1
  Cl  Cl12  1  0.739449  0.202433  0.066940  1
  Cl  Cl13  1  0.982311  0.195408  0.777722  1
  Cl  Cl14  1  0.918923  0.309175  0.735200  1
  Cl  Cl15  1  0.017689  0.804592  0.222278  1
  Cl  Cl16  1  0.081077  0.690825  0.264800  1
  Cl  Cl17  1  0.804592  0.017689  0.222278  1
  Cl  Cl18  1  0.195408  0.982311  0.777722  1
  Cl  Cl19  1  0.462680  0.552619  0.259814  1
  Cl  Cl20  1  0.537320  0.447381  0.740186  1
  Cl  Cl21  1  0.510896  0.202379  0.449624  1
  Cl  Cl22  1  0.447381  0.537320  0.740186  1
  Cl  Cl23  1  0.489104  0.797621  0.550376  1
  Cl  Cl24  1  0.552619  0.462680  0.259814  1
  Cl  Cl25  1  0.241170  0.427518  0.546883  1
  Cl  Cl26  1  0.797621  0.489104  0.550376  1
  Cl  Cl27  1  0.758830  0.572482  0.453117  1
  Cl  Cl28  1  0.202379  0.510896  0.449624  1
  Cl  Cl29  1  0.572482  0.758830  0.453117  1
  Cl  Cl30  1  0.427518  0.241170  0.546883  1
