# generated using pymatgen
data_Ba8Tm4Al3FeO20
_symmetry_space_group_name_H-M   'P 1'
_cell_length_a   6.05756302
_cell_length_b   7.74371603
_cell_length_c   12.64664522
_cell_angle_alpha   91.69993352
_cell_angle_beta   89.99622562
_cell_angle_gamma   90.00900121
_symmetry_Int_Tables_number   1
_chemical_formula_structural   Ba8Tm4Al3FeO20
_chemical_formula_sum   'Ba8 Tm4 Al3 Fe1 O20'
_cell_volume   592.96834743
_cell_formula_units_Z   1
loop_
 _symmetry_equiv_pos_site_id
 _symmetry_equiv_pos_as_xyz
  1  'x, y, z'
loop_
 _atom_site_type_symbol
 _atom_site_label
 _atom_site_symmetry_multiplicity
 _atom_site_fract_x
 _atom_site_fract_y
 _atom_site_fract_z
 _atom_site_occupancy
  Ba  Ba0  1  0.756575  0.483760  0.351489  1
  Ba  Ba1  1  0.742221  0.986862  0.848935  1
  Ba  Ba2  1  0.244372  0.513773  0.648362  1
  Ba  Ba3  1  0.257552  0.016967  0.151325  1
  Ba  Ba4  1  0.754609  0.996597  0.378286  1
  Ba  Ba5  1  0.744365  0.493946  0.876685  1
  Ba  Ba6  1  0.247215  0.005306  0.620189  1
  Ba  Ba7  1  0.255611  0.502620  0.123581  1
  Tm  Tm8  1  0.750588  0.264096  0.627531  1
  Tm  Tm9  1  0.750102  0.763402  0.130932  1
  Tm  Tm10  1  0.250249  0.735808  0.372971  1
  Tm  Tm11  1  0.250369  0.234424  0.871496  1
  Al  Al12  1  0.739506  0.745176  0.579574  1
  Al  Al13  1  0.761404  0.243909  0.080016  1
  Al  Al14  1  0.260772  0.255339  0.420084  1
  Fe  Fe15  1  0.237090  0.756711  0.918197  1
  O  O16  1  0.758650  0.963978  0.630558  1
  O  O17  1  0.742012  0.462033  0.132840  1
  O  O18  1  0.241921  0.036728  0.368785  1
  O  O19  1  0.261767  0.525498  0.866139  1
  O  O20  1  0.740945  0.069172  0.168812  1
  O  O21  1  0.760746  0.569306  0.667107  1
  O  O22  1  0.264700  0.942109  0.825941  1
  O  O23  1  0.240941  0.431420  0.332769  1
  O  O24  1  0.533334  0.747240  0.268313  1
  O  O25  1  0.968059  0.248269  0.764971  1
  O  O26  1  0.470535  0.253376  0.733604  1
  O  O27  1  0.035022  0.752038  0.234426  1
  O  O28  1  0.543028  0.226038  0.983268  1
  O  O29  1  0.957292  0.727368  0.482679  1
  O  O30  1  0.457388  0.774287  0.025027  1
  O  O31  1  0.041773  0.273449  0.516181  1
  O  O32  1  0.022866  0.231761  0.012735  1
  O  O33  1  0.477266  0.732840  0.513233  1
  O  O34  1  0.957338  0.767406  0.985548  1
  O  O35  1  0.521818  0.266989  0.487408  1
