# generated using pymatgen
data_YbSmIr2F14
_symmetry_space_group_name_H-M   'P 1'
_cell_length_a   5.55665223
_cell_length_b   8.91435399
_cell_length_c   12.03181000
_cell_angle_alpha   62.62953180
_cell_angle_beta   90.01640513
_cell_angle_gamma   89.85612619
_symmetry_Int_Tables_number   1
_chemical_formula_structural   YbSmIr2F14
_chemical_formula_sum   'Yb2 Sm2 Ir4 F28'
_cell_volume   529.26203463
_cell_formula_units_Z   2
loop_
 _symmetry_equiv_pos_site_id
 _symmetry_equiv_pos_as_xyz
  1  'x, y, z'
loop_
 _atom_site_type_symbol
 _atom_site_label
 _atom_site_symmetry_multiplicity
 _atom_site_fract_x
 _atom_site_fract_y
 _atom_site_fract_z
 _atom_site_occupancy
  Yb  Yb0  1  0.261956  0.814758  0.265438  1
  Yb  Yb1  1  0.738044  0.185242  0.734562  1
  Sm  Sm2  1  0.763259  0.177088  0.234968  1
  Sm  Sm3  1  0.236741  0.822912  0.765032  1
  Ir  Ir4  1  0.757336  0.726264  0.047832  1
  Ir  Ir5  1  0.242664  0.273736  0.952168  1
  Ir  Ir6  1  0.257748  0.279142  0.455900  1
  Ir  Ir7  1  0.742252  0.720858  0.544100  1
  F  F8  1  0.939004  0.705089  0.418537  1
  F  F9  1  0.060996  0.294911  0.581463  1
  F  F10  1  0.438134  0.297257  0.077730  1
  F  F11  1  0.561866  0.702743  0.922270  1
  F  F12  1  0.467748  0.729670  0.135184  1
  F  F13  1  0.532252  0.270330  0.864816  1
  F  F14  1  0.967175  0.274555  0.366836  1
  F  F15  1  0.032825  0.725445  0.633164  1
  F  F16  1  0.951073  0.744883  0.173845  1
  F  F17  1  0.048927  0.255117  0.826155  1
  F  F18  1  0.450862  0.262262  0.326695  1
  F  F19  1  0.549138  0.737738  0.673305  1
  F  F20  1  0.768082  0.482245  0.143154  1
  F  F21  1  0.231918  0.517755  0.856846  1
  F  F22  1  0.265392  0.520610  0.361073  1
  F  F23  1  0.734608  0.479390  0.638927  1
  F  F24  1  0.945921  0.285628  0.036450  1
  F  F25  1  0.054079  0.714372  0.963550  1
  F  F26  1  0.450049  0.715089  0.458864  1
  F  F27  1  0.549951  0.284911  0.541136  1
  F  F28  1  0.740356  0.966242  0.453265  1
  F  F29  1  0.259644  0.033758  0.546735  1
  F  F30  1  0.241926  0.032745  0.046880  1
  F  F31  1  0.758074  0.967255  0.953120  1
  F  F32  1  0.592431  0.963678  0.228818  1
  F  F33  1  0.407569  0.036322  0.771182  1
  F  F34  1  0.099451  0.035526  0.269695  1
  F  F35  1  0.900549  0.964474  0.730305  1
