# generated using pymatgen
data_Ba3CrInO6
_symmetry_space_group_name_H-M   'P 1'
_cell_length_a   7.12710341
_cell_length_b   7.12697317
_cell_length_c   7.12671701
_cell_angle_alpha   93.44962164
_cell_angle_beta   93.45129438
_cell_angle_gamma   93.45642780
_symmetry_Int_Tables_number   1
_chemical_formula_structural   Ba3CrInO6
_chemical_formula_sum   'Ba6 Cr2 In2 O12'
_cell_volume   359.94522232
_cell_formula_units_Z   2
loop_
 _symmetry_equiv_pos_site_id
 _symmetry_equiv_pos_as_xyz
  1  'x, y, z'
loop_
 _atom_site_type_symbol
 _atom_site_label
 _atom_site_symmetry_multiplicity
 _atom_site_fract_x
 _atom_site_fract_y
 _atom_site_fract_z
 _atom_site_occupancy
  Ba  Ba0  1  0.614835  0.885158  0.249997  1
  Ba  Ba1  1  0.885085  0.250035  0.614842  1
  Ba  Ba2  1  0.249964  0.614898  0.885150  1
  Ba  Ba3  1  0.114817  0.750027  0.385105  1
  Ba  Ba4  1  0.749966  0.385171  0.114890  1
  Ba  Ba5  1  0.385100  0.114898  0.749993  1
  Cr  Cr6  1  0.500510  0.499768  0.499550  1
  Cr  Cr7  1  0.000053  0.999883  0.000599  1
  In  In8  1  0.250083  0.249918  0.249953  1
  In  In9  1  0.750050  0.749904  0.749932  1
  O  O10  1  0.532531  0.223382  0.407242  1
  O  O11  1  0.223287  0.407267  0.532574  1
  O  O12  1  0.407196  0.532606  0.223334  1
  O  O13  1  0.032542  0.907262  0.723330  1
  O  O14  1  0.907207  0.723362  0.032579  1
  O  O15  1  0.723280  0.032593  0.907236  1
  O  O16  1  0.467408  0.776711  0.592773  1
  O  O17  1  0.776615  0.592783  0.467434  1
  O  O18  1  0.592733  0.467456  0.776661  1
  O  O19  1  0.967393  0.092783  0.276662  1
  O  O20  1  0.092725  0.276696  0.967422  1
  O  O21  1  0.276618  0.967439  0.092742  1
