# generated using pymatgen
data_ICl30
_symmetry_space_group_name_H-M   'P 1'
_cell_length_a   13.94153153
_cell_length_b   13.94153199
_cell_length_c   16.38751684
_cell_angle_alpha   83.79136869
_cell_angle_beta   83.79136888
_cell_angle_gamma   124.74645733
_symmetry_Int_Tables_number   1
_chemical_formula_structural   ICl30
_chemical_formula_sum   'I1 Cl30'
_cell_volume   2545.03089576
_cell_formula_units_Z   1
loop_
 _symmetry_equiv_pos_site_id
 _symmetry_equiv_pos_as_xyz
  1  'x, y, z'
loop_
 _atom_site_type_symbol
 _atom_site_label
 _atom_site_symmetry_multiplicity
 _atom_site_fract_x
 _atom_site_fract_y
 _atom_site_fract_z
 _atom_site_occupancy
  I  I0  1  0.000000  0.000000  0.000000  1
  Cl  Cl1  1  0.943551  0.943551  0.159117  1
  Cl  Cl2  1  0.056449  0.056449  0.840883  1
  Cl  Cl3  1  0.062482  0.202449  0.005659  1
  Cl  Cl4  1  0.937518  0.797551  0.994341  1
  Cl  Cl5  1  0.202449  0.062482  0.005659  1
  Cl  Cl6  1  0.797551  0.937518  0.994341  1
  Cl  Cl7  1  0.204250  0.744037  0.062352  1
  Cl  Cl8  1  0.795750  0.255963  0.937648  1
  Cl  Cl9  1  0.701487  0.076424  0.263245  1
  Cl  Cl10  1  0.255963  0.795750  0.937648  1
  Cl  Cl11  1  0.298513  0.923576  0.736755  1
  Cl  Cl12  1  0.744037  0.204250  0.062352  1
  Cl  Cl13  1  0.976316  0.199439  0.781566  1
  Cl  Cl14  1  0.923576  0.298513  0.736755  1
  Cl  Cl15  1  0.023684  0.800561  0.218434  1
  Cl  Cl16  1  0.076424  0.701487  0.263245  1
  Cl  Cl17  1  0.800561  0.023684  0.218434  1
  Cl  Cl18  1  0.199439  0.976316  0.781566  1
  Cl  Cl19  1  0.465388  0.545913  0.259026  1
  Cl  Cl20  1  0.534612  0.454087  0.740974  1
  Cl  Cl21  1  0.507308  0.206610  0.451853  1
  Cl  Cl22  1  0.454087  0.534612  0.740974  1
  Cl  Cl23  1  0.492692  0.793390  0.548147  1
  Cl  Cl24  1  0.545913  0.465388  0.259026  1
  Cl  Cl25  1  0.239860  0.430184  0.542928  1
  Cl  Cl26  1  0.793390  0.492692  0.548147  1
  Cl  Cl27  1  0.760140  0.569816  0.457072  1
  Cl  Cl28  1  0.206610  0.507308  0.451853  1
  Cl  Cl29  1  0.569816  0.760140  0.457072  1
  Cl  Cl30  1  0.430184  0.239860  0.542928  1
