# generated using pymatgen
data_La17Er(MgIr6)2
_symmetry_space_group_name_H-M   'P 1'
_cell_length_a   11.36015900
_cell_length_b   11.36015900
_cell_length_c   6.44574600
_cell_angle_alpha   90.00000000
_cell_angle_beta   90.00000000
_cell_angle_gamma   90.00000000
_symmetry_Int_Tables_number   1
_chemical_formula_structural   La17Er(MgIr6)2
_chemical_formula_sum   'La17 Er1 Mg2 Ir12'
_cell_volume   831.84422829
_cell_formula_units_Z   1
loop_
 _symmetry_equiv_pos_site_id
 _symmetry_equiv_pos_as_xyz
  1  'x, y, z'
loop_
 _atom_site_type_symbol
 _atom_site_label
 _atom_site_symmetry_multiplicity
 _atom_site_fract_x
 _atom_site_fract_y
 _atom_site_fract_z
 _atom_site_occupancy
  La  La0  1  0.280080  0.086597  0.389645  1
  La  La1  1  0.287061  0.912770  0.885447  1
  La  La2  1  0.712939  0.087230  0.885447  1
  La  La3  1  0.719920  0.913403  0.389645  1
  La  La4  1  0.587782  0.782636  0.889723  1
  La  La5  1  0.587279  0.208878  0.383797  1
  La  La6  1  0.412721  0.791122  0.383797  1
  La  La7  1  0.412218  0.217364  0.889723  1
  La  La8  1  0.208878  0.412721  0.616203  1
  La  La9  1  0.217364  0.587782  0.110277  1
  La  La10  1  0.782636  0.412218  0.110277  1
  La  La11  1  0.791122  0.587279  0.616203  1
  La  La12  1  0.912770  0.712939  0.114553  1
  La  La13  1  0.913403  0.280080  0.610355  1
  La  La14  1  0.086597  0.719920  0.610355  1
  La  La15  1  0.087230  0.287061  0.114553  1
  La  La16  1  0.500000  0.500000  0.500000  1
  Er  Er17  1  0.000000  0.000000  0.000000  1
  Mg  Mg18  1  0.000000  0.000000  0.500000  1
  Mg  Mg19  1  0.500000  0.500000  0.000000  1
  Ir  Ir20  1  0.851652  0.149818  0.242949  1
  Ir  Ir21  1  0.850182  0.851652  0.757051  1
  Ir  Ir22  1  0.149818  0.148348  0.757051  1
  Ir  Ir23  1  0.148348  0.850182  0.242949  1
  Ir  Ir24  1  0.654572  0.346564  0.745751  1
  Ir  Ir25  1  0.653436  0.654572  0.254249  1
  Ir  Ir26  1  0.346564  0.345428  0.254249  1
  Ir  Ir27  1  0.345428  0.653436  0.745751  1
  Ir  Ir28  1  0.500000  0.000000  0.117413  1
  Ir  Ir29  1  0.500000  0.000000  0.617806  1
  Ir  Ir30  1  0.000000  0.500000  0.882587  1
  Ir  Ir31  1  0.000000  0.500000  0.382194  1
