# generated using pymatgen
data_Y7Th3(Ga2Ru3)2
_symmetry_space_group_name_H-M   'P 1'
_cell_length_a   8.37976138
_cell_length_b   8.43185462
_cell_length_c   8.37976054
_cell_angle_alpha   109.08364193
_cell_angle_beta   108.98323822
_cell_angle_gamma   110.09586004
_symmetry_Int_Tables_number   1
_chemical_formula_structural   Y7Th3(Ga2Ru3)2
_chemical_formula_sum   'Y7 Th3 Ga4 Ru6'
_cell_volume   457.15595655
_cell_formula_units_Z   1
loop_
 _symmetry_equiv_pos_site_id
 _symmetry_equiv_pos_as_xyz
  1  'x, y, z'
loop_
 _atom_site_type_symbol
 _atom_site_label
 _atom_site_symmetry_multiplicity
 _atom_site_fract_x
 _atom_site_fract_y
 _atom_site_fract_z
 _atom_site_occupancy
  Y  Y0  1  0.686194  0.435450  0.250594  1
  Y  Y1  1  0.062490  0.750000  0.812490  1
  Y  Y2  1  0.815142  0.064550  0.750743  1
  Y  Y3  1  0.224906  0.221855  0.219045  1
  Y  Y4  1  0.497032  0.997296  0.275118  1
  Y  Y5  1  0.277822  0.502704  0.999736  1
  Y  Y6  1  0.997189  0.278145  0.503051  1
  Th  Th7  1  0.248570  0.687768  0.440414  1
  Th  Th8  1  0.752646  0.812232  0.060802  1
  Th  Th9  1  0.440441  0.250000  0.690441  1
  Ga  Ga10  1  0.600362  0.597347  0.588763  1
  Ga  Ga11  1  0.507068  0.007851  0.915625  1
  Ga  Ga12  1  0.907775  0.492149  0.999216  1
  Ga  Ga13  1  0.991416  0.902653  0.503015  1
  Ru  Ru14  1  0.257498  0.132553  0.865256  1
  Ru  Ru15  1  0.732704  0.367447  0.624945  1
  Ru  Ru16  1  0.884855  0.250000  0.134856  1
  Ru  Ru17  1  0.117087  0.866150  0.249559  1
  Ru  Ru18  1  0.615396  0.750000  0.365396  1
  Ru  Ru19  1  0.383408  0.633849  0.750936  1
