# generated using pymatgen
data_Al4PdPt7
_symmetry_space_group_name_H-M   'P 1'
_cell_length_a   4.10513100
_cell_length_b   5.47868525
_cell_length_c   7.96052869
_cell_angle_alpha   90.22088363
_cell_angle_beta   90.00000000
_cell_angle_gamma   90.00000000
_symmetry_Int_Tables_number   1
_chemical_formula_structural   Al4PdPt7
_chemical_formula_sum   'Al4 Pd1 Pt7'
_cell_volume   179.03669650
_cell_formula_units_Z   1
loop_
 _symmetry_equiv_pos_site_id
 _symmetry_equiv_pos_as_xyz
  1  'x, y, z'
loop_
 _atom_site_type_symbol
 _atom_site_label
 _atom_site_symmetry_multiplicity
 _atom_site_fract_x
 _atom_site_fract_y
 _atom_site_fract_z
 _atom_site_occupancy
  Al  Al0  1  0.750000  0.807254  0.895813  1
  Al  Al1  1  0.250000  0.192425  0.103444  1
  Al  Al2  1  0.750000  0.304715  0.604612  1
  Al  Al3  1  0.250000  0.694011  0.395987  1
  Pd  Pd4  1  0.250000  0.163630  0.430903  1
  Pt  Pt5  1  0.750000  0.458311  0.291622  1
  Pt  Pt6  1  0.250000  0.541013  0.709811  1
  Pt  Pt7  1  0.750000  0.959351  0.210989  1
  Pt  Pt8  1  0.250000  0.043595  0.787916  1
  Pt  Pt9  1  0.750000  0.336840  0.932605  1
  Pt  Pt10  1  0.250000  0.662148  0.067847  1
  Pt  Pt11  1  0.750000  0.836708  0.568452  1
