# generated using pymatgen
data_SmDy5Ta2(Co4P3)4
_symmetry_space_group_name_H-M   'P 1'
_cell_length_a   3.72202600
_cell_length_b   10.67004500
_cell_length_c   12.37166700
_cell_angle_alpha   90.00000000
_cell_angle_beta   90.00000000
_cell_angle_gamma   90.00000000
_symmetry_Int_Tables_number   1
_chemical_formula_structural   SmDy5Ta2(Co4P3)4
_chemical_formula_sum   'Sm1 Dy5 Ta2 Co16 P12'
_cell_volume   491.33067090
_cell_formula_units_Z   1
loop_
 _symmetry_equiv_pos_site_id
 _symmetry_equiv_pos_as_xyz
  1  'x, y, z'
loop_
 _atom_site_type_symbol
 _atom_site_label
 _atom_site_symmetry_multiplicity
 _atom_site_fract_x
 _atom_site_fract_y
 _atom_site_fract_z
 _atom_site_occupancy
  Sm  Sm0  1  0.000000  0.500000  0.527194  1
  Dy  Dy1  1  0.500000  0.000000  0.473212  1
  Dy  Dy2  1  0.500000  0.820868  0.204910  1
  Dy  Dy3  1  0.500000  0.179132  0.204910  1
  Dy  Dy4  1  0.000000  0.679531  0.795447  1
  Dy  Dy5  1  0.000000  0.320469  0.795447  1
  Ta  Ta6  1  0.500000  0.500000  0.155448  1
  Ta  Ta7  1  0.000000  0.000000  0.843569  1
  Co  Co8  1  0.500000  0.500000  0.704142  1
  Co  Co9  1  0.000000  0.000000  0.297353  1
  Co  Co10  1  0.000000  0.500000  0.987181  1
  Co  Co11  1  0.500000  0.000000  0.012856  1
  Co  Co12  1  0.500000  0.332542  0.992447  1
  Co  Co13  1  0.500000  0.667458  0.992447  1
  Co  Co14  1  0.000000  0.167110  0.007538  1
  Co  Co15  1  0.000000  0.832890  0.007538  1
  Co  Co16  1  0.500000  0.293950  0.431886  1
  Co  Co17  1  0.500000  0.706050  0.431886  1
  Co  Co18  1  0.000000  0.203377  0.567935  1
  Co  Co19  1  0.000000  0.796623  0.567935  1
  Co  Co20  1  0.500000  0.878382  0.705922  1
  Co  Co21  1  0.500000  0.121618  0.705922  1
  Co  Co22  1  0.000000  0.622424  0.293692  1
  Co  Co23  1  0.000000  0.377576  0.293692  1
  P  P24  1  0.500000  0.500000  0.882835  1
  P  P25  1  0.000000  0.000000  0.117633  1
  P  P26  1  0.500000  0.500000  0.354206  1
  P  P27  1  0.000000  0.000000  0.643640  1
  P  P28  1  0.500000  0.308866  0.616298  1
  P  P29  1  0.500000  0.691134  0.616298  1
  P  P30  1  0.000000  0.188934  0.384295  1
  P  P31  1  0.000000  0.811066  0.384295  1
  P  P32  1  0.500000  0.841341  0.893110  1
  P  P33  1  0.500000  0.158659  0.893110  1
  P  P34  1  0.000000  0.659006  0.106886  1
  P  P35  1  0.000000  0.340994  0.106886  1
