# generated using pymatgen
data_LaPr8YGa6
_symmetry_space_group_name_H-M   'P 1'
_cell_length_a   7.87966600
_cell_length_b   7.87966600
_cell_length_c   14.88180800
_cell_angle_alpha   90.00000000
_cell_angle_beta   90.00000000
_cell_angle_gamma   90.00000000
_symmetry_Int_Tables_number   1
_chemical_formula_structural   LaPr8YGa6
_chemical_formula_sum   'La2 Pr16 Y2 Ga12'
_cell_volume   923.99860488
_cell_formula_units_Z   2
loop_
 _symmetry_equiv_pos_site_id
 _symmetry_equiv_pos_as_xyz
  1  'x, y, z'
loop_
 _atom_site_type_symbol
 _atom_site_label
 _atom_site_symmetry_multiplicity
 _atom_site_fract_x
 _atom_site_fract_y
 _atom_site_fract_z
 _atom_site_occupancy
  La  La0  1  0.500000  0.000000  0.787412  1
  La  La1  1  0.000000  0.500000  0.212588  1
  Pr  Pr2  1  0.840386  0.815464  0.895956  1
  Pr  Pr3  1  0.187431  0.160067  0.604032  1
  Pr  Pr4  1  0.839933  0.187431  0.395968  1
  Pr  Pr5  1  0.160067  0.812569  0.395968  1
  Pr  Pr6  1  0.312569  0.339933  0.395968  1
  Pr  Pr7  1  0.815464  0.159614  0.104044  1
  Pr  Pr8  1  0.315464  0.659614  0.895956  1
  Pr  Pr9  1  0.184536  0.840386  0.104044  1
  Pr  Pr10  1  0.339933  0.687431  0.604032  1
  Pr  Pr11  1  0.659614  0.684536  0.104044  1
  Pr  Pr12  1  0.660067  0.312569  0.604032  1
  Pr  Pr13  1  0.812569  0.839933  0.604032  1
  Pr  Pr14  1  0.684536  0.340386  0.895956  1
  Pr  Pr15  1  0.159614  0.184536  0.895956  1
  Pr  Pr16  1  0.687431  0.660067  0.395968  1
  Pr  Pr17  1  0.340386  0.315464  0.104044  1
  Y  Y18  1  0.000000  0.500000  0.725038  1
  Y  Y19  1  0.500000  0.000000  0.274962  1
  Ga  Ga20  1  0.615965  0.375383  0.251622  1
  Ga  Ga21  1  0.384035  0.624617  0.251622  1
  Ga  Ga22  1  0.000000  0.500000  0.002988  1
  Ga  Ga23  1  0.500000  0.000000  0.997012  1
  Ga  Ga24  1  0.124617  0.115965  0.251622  1
  Ga  Ga25  1  0.375383  0.384035  0.748378  1
  Ga  Ga26  1  0.500000  0.000000  0.484297  1
  Ga  Ga27  1  0.000000  0.500000  0.515703  1
  Ga  Ga28  1  0.115965  0.875383  0.748378  1
  Ga  Ga29  1  0.875383  0.884035  0.251622  1
  Ga  Ga30  1  0.624617  0.615965  0.748378  1
  Ga  Ga31  1  0.884035  0.124617  0.748378  1
