# generated using pymatgen
data_Ta3Mo(PO4)6
_symmetry_space_group_name_H-M   'P 1'
_cell_length_a   8.80293733
_cell_length_b   9.08325854
_cell_length_c   8.80278204
_cell_angle_alpha   89.99647911
_cell_angle_beta   60.00012578
_cell_angle_gamma   118.98195416
_symmetry_Int_Tables_number   1
_chemical_formula_structural   Ta3Mo(PO4)6
_chemical_formula_sum   'Ta3 Mo1 P6 O24'
_cell_volume   505.21548898
_cell_formula_units_Z   1
loop_
 _symmetry_equiv_pos_site_id
 _symmetry_equiv_pos_as_xyz
  1  'x, y, z'
loop_
 _atom_site_type_symbol
 _atom_site_label
 _atom_site_symmetry_multiplicity
 _atom_site_fract_x
 _atom_site_fract_y
 _atom_site_fract_z
 _atom_site_occupancy
  Ta  Ta0  1  0.284116  0.926058  0.357938  1
  Ta  Ta1  1  0.284407  0.426480  0.857792  1
  Ta  Ta2  1  0.714556  0.571764  0.142667  1
  Mo  Mo3  1  0.715689  0.073482  0.642098  1
  P  P4  1  0.785178  0.751116  0.749106  1
  P  P5  1  0.493113  0.249079  0.535597  1
  P  P6  1  0.500446  0.751195  0.465600  1
  P  P7  1  0.220482  0.249186  0.243935  1
  P  P8  1  0.784791  0.249129  0.971232  1
  P  P9  1  0.216932  0.751154  0.033875  1
  O  O10  1  0.656620  0.914352  0.476455  1
  O  O11  1  0.000383  0.711944  0.087811  1
  O  O12  1  0.221680  0.584488  0.002260  1
  O  O13  1  0.224418  0.778398  0.205835  1
  O  O14  1  0.986181  0.275759  0.946022  1
  O  O15  1  0.787574  0.415574  0.013159  1
  O  O16  1  0.788896  0.236627  0.799850  1
  O  O17  1  0.800049  0.712149  0.911699  1
  O  O18  1  0.984307  0.778249  0.569663  1
  O  O19  1  0.648085  0.236834  0.552103  1
  O  O20  1  0.780997  0.914126  0.742217  1
  O  O21  1  0.586839  0.584335  0.776186  1
  O  O22  1  0.588580  0.083472  0.145181  1
  O  O23  1  0.614597  0.415441  0.371929  1
  O  O24  1  0.221717  0.275574  0.067819  1
  O  O25  1  0.343495  0.275628  0.710389  1
  O  O26  1  0.624029  0.712103  0.288233  1
  O  O27  1  0.349831  0.083303  0.505101  1
  O  O28  1  0.390827  0.914204  0.866686  1
  O  O29  1  0.360840  0.584544  0.636987  1
  O  O30  1  0.228806  0.083574  0.266356  1
  O  O31  1  0.428922  0.415729  0.198980  1
  O  O32  1  0.348074  0.778188  0.445884  1
  O  O33  1  0.036674  0.236765  0.411224  1
