# generated using pymatgen
data_Li5Hf12Os6Rh
_symmetry_space_group_name_H-M   'P 1'
_cell_length_a   4.61223000
_cell_length_b   6.54743000
_cell_length_c   13.85257400
_cell_angle_alpha   90.00029767
_cell_angle_beta   89.99890330
_cell_angle_gamma   90.00017447
_symmetry_Int_Tables_number   1
_chemical_formula_structural   Li5Hf12Os6Rh
_chemical_formula_sum   'Li5 Hf12 Os6 Rh1'
_cell_volume   418.32353527
_cell_formula_units_Z   1
loop_
 _symmetry_equiv_pos_site_id
 _symmetry_equiv_pos_as_xyz
  1  'x, y, z'
loop_
 _atom_site_type_symbol
 _atom_site_label
 _atom_site_symmetry_multiplicity
 _atom_site_fract_x
 _atom_site_fract_y
 _atom_site_fract_z
 _atom_site_occupancy
  Li  Li0  1  0.999996  0.000001  0.000179  1
  Li  Li1  1  0.499626  0.499999  0.166683  1
  Li  Li2  1  0.999633  0.000000  0.333319  1
  Li  Li3  1  0.499994  0.500000  0.499980  1
  Li  Li4  1  0.000358  0.000000  0.666503  1
  Hf  Hf5  1  0.500001  0.248966  0.999615  1
  Hf  Hf6  1  0.500005  0.751029  0.999615  1
  Hf  Hf7  1  0.999746  0.249857  0.166397  1
  Hf  Hf8  1  0.999749  0.750148  0.166397  1
  Hf  Hf9  1  0.499748  0.248447  0.333350  1
  Hf  Hf10  1  0.499753  0.751555  0.333349  1
  Hf  Hf11  1  0.000000  0.249833  0.500286  1
  Hf  Hf12  1  0.999998  0.750163  0.500285  1
  Hf  Hf13  1  0.500253  0.248988  0.667036  1
  Hf  Hf14  1  0.500249  0.751012  0.667035  1
  Hf  Hf15  1  0.000256  0.248923  0.833324  1
  Hf  Hf16  1  0.000246  0.751073  0.833322  1
  Os  Os17  1  0.000017  0.500000  0.001979  1
  Os  Os18  1  0.499743  0.000003  0.167267  1
  Os  Os19  1  0.999741  0.500003  0.333327  1
  Os  Os20  1  0.499995  0.000001  0.499404  1
  Os  Os21  1  0.000278  0.499998  0.664688  1
  Os  Os22  1  0.500258  0.000002  0.833336  1
  Rh  Rh23  1  0.500362  0.499999  0.833326  1
