# generated using pymatgen
data_Dy2Tm7Lu(CoSb2)2
_symmetry_space_group_name_H-M   'P 1'
_cell_length_a   7.77929920
_cell_length_b   8.74056522
_cell_length_c   12.06050900
_cell_angle_alpha   90.00000000
_cell_angle_beta   90.00000000
_cell_angle_gamma   90.02586655
_symmetry_Int_Tables_number   1
_chemical_formula_structural   Dy2Tm7Lu(CoSb2)2
_chemical_formula_sum   'Dy4 Tm14 Lu2 Co4 Sb8'
_cell_volume   820.05991879
_cell_formula_units_Z   2
loop_
 _symmetry_equiv_pos_site_id
 _symmetry_equiv_pos_as_xyz
  1  'x, y, z'
loop_
 _atom_site_type_symbol
 _atom_site_label
 _atom_site_symmetry_multiplicity
 _atom_site_fract_x
 _atom_site_fract_y
 _atom_site_fract_z
 _atom_site_occupancy
  Dy  Dy0  1  0.621818  0.750171  0.307262  1
  Dy  Dy1  1  0.878182  0.749829  0.807262  1
  Dy  Dy2  1  0.378556  0.249906  0.692749  1
  Dy  Dy3  1  0.121444  0.250094  0.192749  1
  Tm  Tm4  1  0.155059  0.749916  0.203510  1
  Tm  Tm5  1  0.344941  0.750084  0.703510  1
  Tm  Tm6  1  0.844701  0.249993  0.796512  1
  Tm  Tm7  1  0.655299  0.250007  0.296512  1
  Tm  Tm8  1  0.450352  0.749917  0.998044  1
  Tm  Tm9  1  0.049648  0.750083  0.498044  1
  Tm  Tm10  1  0.550099  0.250162  0.001976  1
  Tm  Tm11  1  0.949901  0.249838  0.501976  1
  Tm  Tm12  1  0.176930  0.036318  0.934728  1
  Tm  Tm13  1  0.323070  0.463682  0.434728  1
  Tm  Tm14  1  0.176657  0.463670  0.934805  1
  Tm  Tm15  1  0.323343  0.036330  0.434805  1
  Tm  Tm16  1  0.823113  0.963611  0.065308  1
  Tm  Tm17  1  0.676887  0.536389  0.565308  1
  Lu  Lu18  1  0.824031  0.536422  0.065140  1
  Lu  Lu19  1  0.675969  0.963578  0.565140  1
  Co  Co20  1  0.433365  0.750302  0.491509  1
  Co  Co21  1  0.066635  0.749698  0.991509  1
  Co  Co22  1  0.567384  0.249740  0.508646  1
  Co  Co23  1  0.932616  0.250260  0.008646  1
  Sb  Sb24  1  0.929924  0.508833  0.328057  1
  Sb  Sb25  1  0.570076  0.991167  0.828057  1
  Sb  Sb26  1  0.069687  0.008719  0.671770  1
  Sb  Sb27  1  0.430313  0.491281  0.171770  1
  Sb  Sb28  1  0.070001  0.491231  0.671837  1
  Sb  Sb29  1  0.429999  0.008769  0.171837  1
  Sb  Sb30  1  0.930091  0.991175  0.328148  1
  Sb  Sb31  1  0.569909  0.508825  0.828148  1
