# generated using pymatgen
data_Tb4Al18RePd3Pt2
_symmetry_space_group_name_H-M   'P 1'
_cell_length_a   7.64780244
_cell_length_b   7.64780229
_cell_length_c   9.52917904
_cell_angle_alpha   89.78981550
_cell_angle_beta   89.78981871
_cell_angle_gamma   119.39938327
_symmetry_Int_Tables_number   1
_chemical_formula_structural   Tb4Al18RePd3Pt2
_chemical_formula_sum   'Tb4 Al18 Re1 Pd3 Pt2'
_cell_volume   485.56201546
_cell_formula_units_Z   1
loop_
 _symmetry_equiv_pos_site_id
 _symmetry_equiv_pos_as_xyz
  1  'x, y, z'
loop_
 _atom_site_type_symbol
 _atom_site_label
 _atom_site_symmetry_multiplicity
 _atom_site_fract_x
 _atom_site_fract_y
 _atom_site_fract_z
 _atom_site_occupancy
  Tb  Tb0  1  0.995455  0.673384  0.248183  1
  Tb  Tb1  1  0.004545  0.326616  0.751817  1
  Tb  Tb2  1  0.673384  0.995455  0.248183  1
  Tb  Tb3  1  0.326616  0.004545  0.751817  1
  Al  Al4  1  0.131251  0.131251  0.247303  1
  Al  Al5  1  0.868749  0.868749  0.752697  1
  Al  Al6  1  0.999740  0.330310  0.073389  1
  Al  Al7  1  0.000260  0.669690  0.926611  1
  Al  Al8  1  0.998035  0.663049  0.578256  1
  Al  Al9  1  0.336951  0.001965  0.421744  1
  Al  Al10  1  0.001965  0.336951  0.421744  1
  Al  Al11  1  0.663049  0.998035  0.578256  1
  Al  Al12  1  0.669690  0.000260  0.926611  1
  Al  Al13  1  0.330310  0.999740  0.073389  1
  Al  Al14  1  0.334142  0.334142  0.556589  1
  Al  Al15  1  0.665858  0.665858  0.443411  1
  Al  Al16  1  0.670604  0.670604  0.051941  1
  Al  Al17  1  0.329396  0.329396  0.948059  1
  Al  Al18  1  0.341800  0.548259  0.249376  1
  Al  Al19  1  0.658200  0.451741  0.750624  1
  Al  Al20  1  0.548259  0.341800  0.249376  1
  Al  Al21  1  0.451741  0.658200  0.750624  1
  Re  Re22  1  0.000000  0.000000  0.000000  1
  Pd  Pd23  1  0.327665  0.672335  0.500000  1
  Pd  Pd24  1  0.672335  0.327665  0.500000  1
  Pd  Pd25  1  0.000000  0.000000  0.500000  1
  Pt  Pt26  1  0.671813  0.328187  0.000000  1
  Pt  Pt27  1  0.328187  0.671813  0.000000  1
