# generated using pymatgen
data_YbHfReB6
_symmetry_space_group_name_H-M   'P 1'
_cell_length_a   3.55940300
_cell_length_b   9.04072600
_cell_length_c   11.40203200
_cell_angle_alpha   90.00000000
_cell_angle_beta   90.00000000
_cell_angle_gamma   90.00000000
_symmetry_Int_Tables_number   1
_chemical_formula_structural   YbHfReB6
_chemical_formula_sum   'Yb4 Hf4 Re4 B24'
_cell_volume   366.91268353
_cell_formula_units_Z   4
loop_
 _symmetry_equiv_pos_site_id
 _symmetry_equiv_pos_as_xyz
  1  'x, y, z'
loop_
 _atom_site_type_symbol
 _atom_site_label
 _atom_site_symmetry_multiplicity
 _atom_site_fract_x
 _atom_site_fract_y
 _atom_site_fract_z
 _atom_site_occupancy
  Yb  Yb0  1  0.000000  0.323594  0.415031  1
  Yb  Yb1  1  0.000000  0.676406  0.584969  1
  Yb  Yb2  1  0.000000  0.823594  0.084969  1
  Yb  Yb3  1  0.000000  0.176406  0.915031  1
  Hf  Hf4  1  0.000000  0.944737  0.369818  1
  Hf  Hf5  1  0.000000  0.055263  0.630182  1
  Hf  Hf6  1  0.000000  0.444737  0.130182  1
  Hf  Hf7  1  0.000000  0.555263  0.869818  1
  Re  Re8  1  0.000000  0.642491  0.316863  1
  Re  Re9  1  0.000000  0.357509  0.683137  1
  Re  Re10  1  0.000000  0.142491  0.183137  1
  Re  Re11  1  0.000000  0.857509  0.816863  1
  B  B12  1  0.500000  0.554382  0.433176  1
  B  B13  1  0.500000  0.445618  0.566824  1
  B  B14  1  0.500000  0.054382  0.066824  1
  B  B15  1  0.500000  0.945618  0.933176  1
  B  B16  1  0.500000  0.753595  0.418346  1
  B  B17  1  0.500000  0.246405  0.581654  1
  B  B18  1  0.500000  0.253595  0.081654  1
  B  B19  1  0.500000  0.746405  0.918346  1
  B  B20  1  0.500000  0.796211  0.263227  1
  B  B21  1  0.500000  0.203789  0.736773  1
  B  B22  1  0.500000  0.296211  0.236773  1
  B  B23  1  0.500000  0.703789  0.763227  1
  B  B24  1  0.500000  0.631140  0.182643  1
  B  B25  1  0.500000  0.368860  0.817357  1
  B  B26  1  0.500000  0.131140  0.317357  1
  B  B27  1  0.500000  0.868860  0.682643  1
  B  B28  1  0.500000  0.982336  0.212473  1
  B  B29  1  0.500000  0.017664  0.787527  1
  B  B30  1  0.500000  0.482336  0.287527  1
  B  B31  1  0.500000  0.517664  0.712473  1
  B  B32  1  0.500000  0.596823  0.025703  1
  B  B33  1  0.500000  0.403177  0.974297  1
  B  B34  1  0.500000  0.096823  0.474297  1
  B  B35  1  0.500000  0.903177  0.525703  1
