# generated using pymatgen
data_TbPr4(IrO6)2
_symmetry_space_group_name_H-M   'P 1'
_cell_length_a   7.10465973
_cell_length_b   7.10465981
_cell_length_c   7.52617600
_cell_angle_alpha   74.44388715
_cell_angle_beta   74.44389642
_cell_angle_gamma   51.65137928
_symmetry_Int_Tables_number   1
_chemical_formula_structural   TbPr4(IrO6)2
_chemical_formula_sum   'Tb1 Pr4 Ir2 O12'
_cell_volume   284.40034260
_cell_formula_units_Z   1
loop_
 _symmetry_equiv_pos_site_id
 _symmetry_equiv_pos_as_xyz
  1  'x, y, z'
loop_
 _atom_site_type_symbol
 _atom_site_label
 _atom_site_symmetry_multiplicity
 _atom_site_fract_x
 _atom_site_fract_y
 _atom_site_fract_z
 _atom_site_occupancy
  Tb  Tb0  1  0.303100  0.303100  0.357353  1
  Pr  Pr1  1  0.697602  0.697602  0.638393  1
  Pr  Pr2  1  0.695407  0.695407  0.165085  1
  Pr  Pr3  1  0.304700  0.304700  0.833527  1
  Pr  Pr4  1  0.001332  0.001332  0.497772  1
  Ir  Ir5  1  0.751806  0.246349  0.002519  1
  Ir  Ir6  1  0.246349  0.751806  0.002519  1
  O  O7  1  0.101330  0.593860  0.566612  1
  O  O8  1  0.999869  0.999869  0.167983  1
  O  O9  1  0.397646  0.913929  0.422901  1
  O  O10  1  0.498175  0.498175  0.178269  1
  O  O11  1  0.106019  0.567130  0.088946  1
  O  O12  1  0.913929  0.397646  0.422901  1
  O  O13  1  0.997944  0.997944  0.835357  1
  O  O14  1  0.593860  0.101329  0.566612  1
  O  O15  1  0.498736  0.498736  0.828353  1
  O  O16  1  0.567130  0.106019  0.088946  1
  O  O17  1  0.428071  0.896995  0.917975  1
  O  O18  1  0.896995  0.428071  0.917975  1
