# generated using pymatgen
data_Na4Nb5WSe12
_symmetry_space_group_name_H-M   'P 1'
_cell_length_a   15.82489534
_cell_length_b   15.82489577
_cell_length_c   15.82489500
_cell_angle_alpha   22.14770320
_cell_angle_beta   22.14769943
_cell_angle_gamma   22.14770293
_symmetry_Int_Tables_number   1
_chemical_formula_structural   Na4Nb5WSe12
_chemical_formula_sum   'Na4 Nb5 W1 Se12'
_cell_volume   493.85294432
_cell_formula_units_Z   1
loop_
 _symmetry_equiv_pos_site_id
 _symmetry_equiv_pos_as_xyz
  1  'x, y, z'
loop_
 _atom_site_type_symbol
 _atom_site_label
 _atom_site_symmetry_multiplicity
 _atom_site_fract_x
 _atom_site_fract_y
 _atom_site_fract_z
 _atom_site_occupancy
  Na  Na0  1  0.916426  0.916426  0.916426  1
  Na  Na1  1  0.583084  0.583084  0.583084  1
  Na  Na2  1  0.417234  0.417234  0.417234  1
  Na  Na3  1  0.083565  0.083565  0.083565  1
  Nb  Nb4  1  0.666663  0.666663  0.666663  1
  Nb  Nb5  1  0.999987  0.999987  0.999987  1
  Nb  Nb6  1  0.833429  0.166618  0.499996  1
  Nb  Nb7  1  0.499996  0.833429  0.166618  1
  Nb  Nb8  1  0.166618  0.499996  0.833429  1
  W  W9  1  0.333211  0.333211  0.333211  1
  Se  Se10  1  0.971738  0.623514  0.297703  1
  Se  Se11  1  0.297703  0.971738  0.623514  1
  Se  Se12  1  0.623514  0.297703  0.971738  1
  Se  Se13  1  0.695433  0.370702  0.040607  1
  Se  Se14  1  0.040607  0.695433  0.370702  1
  Se  Se15  1  0.370702  0.040607  0.695433  1
  Se  Se16  1  0.870556  0.535060  0.202757  1
  Se  Se17  1  0.202757  0.870556  0.535060  1
  Se  Se18  1  0.535060  0.202757  0.870556  1
  Se  Se19  1  0.797451  0.464981  0.129285  1
  Se  Se20  1  0.129285  0.797451  0.464981  1
  Se  Se21  1  0.464981  0.129285  0.797451  1
