# generated using pymatgen
data_Dy2Sn2PtRh
_symmetry_space_group_name_H-M   'P 1'
_cell_length_a   7.60836100
_cell_length_b   7.60836133
_cell_length_c   7.73848200
_cell_angle_alpha   90.00000000
_cell_angle_beta   90.00000000
_cell_angle_gamma   120.00000291
_symmetry_Int_Tables_number   1
_chemical_formula_structural   Dy2Sn2PtRh
_chemical_formula_sum   'Dy6 Sn6 Pt3 Rh3'
_cell_volume   387.94363969
_cell_formula_units_Z   3
loop_
 _symmetry_equiv_pos_site_id
 _symmetry_equiv_pos_as_xyz
  1  'x, y, z'
loop_
 _atom_site_type_symbol
 _atom_site_label
 _atom_site_symmetry_multiplicity
 _atom_site_fract_x
 _atom_site_fract_y
 _atom_site_fract_z
 _atom_site_occupancy
  Dy  Dy0  1  0.407527  0.005560  0.247829  1
  Dy  Dy1  1  0.598032  0.592473  0.247829  1
  Dy  Dy2  1  0.994440  0.401968  0.247829  1
  Dy  Dy3  1  0.405020  0.000498  0.752234  1
  Dy  Dy4  1  0.595478  0.594980  0.752234  1
  Dy  Dy5  1  0.999502  0.404522  0.752234  1
  Sn  Sn6  1  0.261884  0.257676  0.999895  1
  Sn  Sn7  1  0.995791  0.738116  0.999895  1
  Sn  Sn8  1  0.001466  0.742615  0.499925  1
  Sn  Sn9  1  0.741149  0.998534  0.499925  1
  Sn  Sn10  1  0.257385  0.258851  0.499925  1
  Sn  Sn11  1  0.742324  0.004209  0.999895  1
  Pt  Pt12  1  0.333333  0.666667  0.495779  1
  Pt  Pt13  1  0.333333  0.666667  0.004191  1
  Pt  Pt14  1  0.666667  0.333333  0.504549  1
  Rh  Rh15  1  0.000000  0.000000  0.750144  1
  Rh  Rh16  1  0.000000  0.000000  0.249634  1
  Rh  Rh17  1  0.666667  0.333333  0.996053  1
