# generated using pymatgen
data_TbHoNiB8Pt
_symmetry_space_group_name_H-M   'P 1'
_cell_length_a   6.93603565
_cell_length_b   6.93603561
_cell_length_c   6.93603519
_cell_angle_alpha   111.45252286
_cell_angle_beta   113.44513101
_cell_angle_gamma   103.67410940
_symmetry_Int_Tables_number   1
_chemical_formula_structural   TbHoNiB8Pt
_chemical_formula_sum   'Tb2 Ho2 Ni2 B16 Pt2'
_cell_volume   254.83792788
_cell_formula_units_Z   2
loop_
 _symmetry_equiv_pos_site_id
 _symmetry_equiv_pos_as_xyz
  1  'x, y, z'
loop_
 _atom_site_type_symbol
 _atom_site_label
 _atom_site_symmetry_multiplicity
 _atom_site_fract_x
 _atom_site_fract_y
 _atom_site_fract_z
 _atom_site_occupancy
  Tb  Tb0  1  0.796369  0.796369  0.000000  1
  Tb  Tb1  1  0.203631  0.203631  0.000000  1
  Ho  Ho2  1  0.746462  0.246462  0.500000  1
  Ho  Ho3  1  0.253538  0.753538  0.500000  1
  Ni  Ni4  1  0.500000  0.743544  0.243544  1
  Ni  Ni5  1  0.500000  0.256456  0.756456  1
  B  B6  1  0.273041  0.108041  0.381081  1
  B  B7  1  0.726959  0.891959  0.618919  1
  B  B8  1  0.273041  0.891959  0.165000  1
  B  B9  1  0.726959  0.108041  0.835000  1
  B  B10  1  0.110055  0.735158  0.845212  1
  B  B11  1  0.889945  0.264842  0.154788  1
  B  B12  1  0.110055  0.264842  0.374897  1
  B  B13  1  0.889945  0.735158  0.625103  1
  B  B14  1  0.113652  0.106188  0.526235  1
  B  B15  1  0.579953  0.587417  0.473765  1
  B  B16  1  0.113652  0.587417  0.007464  1
  B  B17  1  0.579953  0.106188  0.992536  1
  B  B18  1  0.886348  0.893812  0.473765  1
  B  B19  1  0.420047  0.412583  0.526235  1
  B  B20  1  0.886348  0.412583  0.992536  1
  B  B21  1  0.420047  0.893812  0.007464  1
  Pt  Pt22  1  0.272218  0.500000  0.772218  1
  Pt  Pt23  1  0.727782  0.500000  0.227782  1
