# generated using pymatgen
data_Tm4Ga18PtRh5
_symmetry_space_group_name_H-M   'P 1'
_cell_length_a   7.56216111
_cell_length_b   7.56216716
_cell_length_c   9.46415340
_cell_angle_alpha   89.98320828
_cell_angle_beta   89.98335729
_cell_angle_gamma   119.82529735
_symmetry_Int_Tables_number   1
_chemical_formula_structural   Tm4Ga18PtRh5
_chemical_formula_sum   'Tm4 Ga18 Pt1 Rh5'
_cell_volume   469.53327983
_cell_formula_units_Z   1
loop_
 _symmetry_equiv_pos_site_id
 _symmetry_equiv_pos_as_xyz
  1  'x, y, z'
loop_
 _atom_site_type_symbol
 _atom_site_label
 _atom_site_symmetry_multiplicity
 _atom_site_fract_x
 _atom_site_fract_y
 _atom_site_fract_z
 _atom_site_occupancy
  Tm  Tm0  1  0.996394  0.668510  0.250472  1
  Tm  Tm1  1  0.003782  0.331527  0.749715  1
  Tm  Tm2  1  0.668474  0.996219  0.250284  1
  Tm  Tm3  1  0.331491  0.003606  0.749527  1
  Ga  Ga4  1  0.125461  0.124839  0.250208  1
  Ga  Ga5  1  0.875163  0.874541  0.749792  1
  Ga  Ga6  1  0.003195  0.334250  0.081308  1
  Ga  Ga7  1  0.004996  0.669740  0.918813  1
  Ga  Ga8  1  0.001452  0.665699  0.579440  1
  Ga  Ga9  1  0.334300  0.998545  0.420559  1
  Ga  Ga10  1  0.998915  0.334103  0.420240  1
  Ga  Ga11  1  0.665893  0.001082  0.579759  1
  Ga  Ga12  1  0.665752  0.996806  0.918693  1
  Ga  Ga13  1  0.330265  0.995005  0.081186  1
  Ga  Ga14  1  0.331924  0.331954  0.565517  1
  Ga  Ga15  1  0.668044  0.668075  0.434484  1
  Ga  Ga16  1  0.667637  0.671447  0.067476  1
  Ga  Ga17  1  0.328556  0.332364  0.932527  1
  Ga  Ga18  1  0.338907  0.548120  0.250338  1
  Ga  Ga19  1  0.661294  0.454821  0.746641  1
  Ga  Ga20  1  0.545178  0.338706  0.253359  1
  Ga  Ga21  1  0.451880  0.661094  0.749662  1
  Pt  Pt22  1  0.671959  0.328038  0.000002  1
  Rh  Rh23  1  0.328500  0.671502  0.000000  1
  Rh  Rh24  1  0.328351  0.671644  0.500000  1
  Rh  Rh25  1  0.672136  0.327861  0.499999  1
  Rh  Rh26  1  0.000012  0.999989  0.000001  1
  Rh  Rh27  1  0.000089  0.999914  0.499999  1
