# generated using pymatgen
data_La2Cu18Si7Ag
_symmetry_space_group_name_H-M   'P 1'
_cell_length_a   8.25832257
_cell_length_b   8.25832242
_cell_length_c   8.24646200
_cell_angle_alpha   120.53957264
_cell_angle_beta   120.53957200
_cell_angle_gamma   88.84687066
_symmetry_Int_Tables_number   1
_chemical_formula_structural   La2Cu18Si7Ag
_chemical_formula_sum   'La2 Cu18 Si7 Ag1'
_cell_volume   395.12433069
_cell_formula_units_Z   1
loop_
 _symmetry_equiv_pos_site_id
 _symmetry_equiv_pos_as_xyz
  1  'x, y, z'
loop_
 _atom_site_type_symbol
 _atom_site_label
 _atom_site_symmetry_multiplicity
 _atom_site_fract_x
 _atom_site_fract_y
 _atom_site_fract_z
 _atom_site_occupancy
  La  La0  1  0.747911  0.746442  0.997902  1
  La  La1  1  0.246442  0.247911  0.997902  1
  Cu  Cu2  1  0.063425  0.205512  0.265057  1
  Cu  Cu3  1  0.935142  0.804181  0.730229  1
  Cu  Cu4  1  0.562219  0.291046  0.861605  1
  Cu  Cu5  1  0.449190  0.709887  0.145873  1
  Cu  Cu6  1  0.791046  0.062219  0.861605  1
  Cu  Cu7  1  0.209887  0.949190  0.145873  1
  Cu  Cu8  1  0.705512  0.563425  0.265057  1
  Cu  Cu9  1  0.304181  0.435142  0.730229  1
  Cu  Cu10  1  0.440343  0.940343  0.756636  1
  Cu  Cu11  1  0.209896  0.709896  0.287072  1
  Cu  Cu12  1  0.937298  0.184877  0.486717  1
  Cu  Cu13  1  0.684877  0.437298  0.486717  1
  Cu  Cu14  1  0.558210  0.058210  0.247367  1
  Cu  Cu15  1  0.787816  0.287816  0.731401  1
  Cu  Cu16  1  0.056818  0.813067  0.504399  1
  Cu  Cu17  1  0.313067  0.556818  0.504399  1
  Cu  Cu18  1  0.999949  0.499949  0.491403  1
  Cu  Cu19  1  0.496610  0.996610  0.498397  1
  Si  Si20  1  0.708692  0.208692  0.150326  1
  Si  Si21  1  0.560309  0.707215  0.500414  1
  Si  Si22  1  0.207215  0.060309  0.500414  1
  Si  Si23  1  0.946485  0.446485  0.143472  1
  Si  Si24  1  0.285951  0.785951  0.851063  1
  Si  Si25  1  0.443888  0.291234  0.498716  1
  Si  Si26  1  0.791234  0.943888  0.498716  1
  Ag  Ag27  1  0.056385  0.556385  0.861040  1
