# generated using pymatgen
data_Gd3YAl18(IrPd2)2
_symmetry_space_group_name_H-M   'P 1'
_cell_length_a   7.62477467
_cell_length_b   7.62445389
_cell_length_c   9.47842900
_cell_angle_alpha   90.00000000
_cell_angle_beta   90.00000000
_cell_angle_gamma   119.68590792
_symmetry_Int_Tables_number   1
_chemical_formula_structural   Gd3YAl18(IrPd2)2
_chemical_formula_sum   'Gd3 Y1 Al18 Ir2 Pd4'
_cell_volume   478.70571108
_cell_formula_units_Z   1
loop_
 _symmetry_equiv_pos_site_id
 _symmetry_equiv_pos_as_xyz
  1  'x, y, z'
loop_
 _atom_site_type_symbol
 _atom_site_label
 _atom_site_symmetry_multiplicity
 _atom_site_fract_x
 _atom_site_fract_y
 _atom_site_fract_z
 _atom_site_occupancy
  Gd  Gd0  1  0.005553  0.332340  0.750000  1
  Gd  Gd1  1  0.667504  0.993815  0.250000  1
  Gd  Gd2  1  0.331773  0.005205  0.750000  1
  Y  Y3  1  0.994697  0.668408  0.250000  1
  Al  Al4  1  0.127812  0.127899  0.250000  1
  Al  Al5  1  0.871989  0.872024  0.750000  1
  Al  Al6  1  0.999993  0.331240  0.076583  1
  Al  Al7  1  0.999874  0.668747  0.924333  1
  Al  Al8  1  0.999874  0.668747  0.575667  1
  Al  Al9  1  0.331262  0.000017  0.423449  1
  Al  Al10  1  0.999993  0.331240  0.423417  1
  Al  Al11  1  0.668917  0.999926  0.575583  1
  Al  Al12  1  0.668917  0.999926  0.924417  1
  Al  Al13  1  0.331262  0.000017  0.076551  1
  Al  Al14  1  0.330904  0.330935  0.555700  1
  Al  Al15  1  0.669308  0.669253  0.443042  1
  Al  Al16  1  0.669308  0.669253  0.056958  1
  Al  Al17  1  0.330904  0.330935  0.944300  1
  Al  Al18  1  0.340795  0.547408  0.250000  1
  Al  Al19  1  0.659329  0.452723  0.750000  1
  Al  Al20  1  0.547643  0.340835  0.250000  1
  Al  Al21  1  0.452601  0.659228  0.750000  1
  Ir  Ir22  1  0.999949  0.999577  0.000530  1
  Ir  Ir23  1  0.999949  0.999577  0.499470  1
  Pd  Pd24  1  0.672288  0.328323  0.000401  1
  Pd  Pd25  1  0.327658  0.672040  0.000429  1
  Pd  Pd26  1  0.327658  0.672040  0.499571  1
  Pd  Pd27  1  0.672288  0.328323  0.499599  1
