# generated using pymatgen
data_CaSi4PdRh5
_symmetry_space_group_name_H-M   'P 1'
_cell_length_a   7.11755165
_cell_length_b   7.11755194
_cell_length_c   3.78099800
_cell_angle_alpha   90.00000000
_cell_angle_beta   90.00000000
_cell_angle_gamma   120.66721893
_symmetry_Int_Tables_number   1
_chemical_formula_structural   CaSi4PdRh5
_chemical_formula_sum   'Ca1 Si4 Pd1 Rh5'
_cell_volume   164.75515094
_cell_formula_units_Z   1
loop_
 _symmetry_equiv_pos_site_id
 _symmetry_equiv_pos_as_xyz
  1  'x, y, z'
loop_
 _atom_site_type_symbol
 _atom_site_label
 _atom_site_symmetry_multiplicity
 _atom_site_fract_x
 _atom_site_fract_y
 _atom_site_fract_z
 _atom_site_occupancy
  Ca  Ca0  1  0.998887  0.001113  0.000000  1
  Si  Si1  1  0.799476  0.200524  0.500000  1
  Si  Si2  1  0.791666  0.593714  0.500000  1
  Si  Si3  1  0.406286  0.208334  0.500000  1
  Si  Si4  1  0.338138  0.661862  0.000000  1
  Pd  Pd5  1  0.196902  0.803098  0.500000  1
  Rh  Rh6  1  0.533452  0.466548  0.000000  1
  Rh  Rh7  1  0.531003  0.064789  0.000000  1
  Rh  Rh8  1  0.935211  0.468997  0.000000  1
  Rh  Rh9  1  0.198170  0.395857  0.500000  1
  Rh  Rh10  1  0.604143  0.801830  0.500000  1
