# generated using pymatgen
data_HoEr11Ni5Pb
_symmetry_space_group_name_H-M   'P 1'
_cell_length_a   8.25747922
_cell_length_b   8.25926857
_cell_length_c   8.22924500
_cell_angle_alpha   110.80629464
_cell_angle_beta   110.87253907
_cell_angle_gamma   106.91740098
_symmetry_Int_Tables_number   1
_chemical_formula_structural   HoEr11Ni5Pb
_chemical_formula_sum   'Ho1 Er11 Ni5 Pb1'
_cell_volume   430.56767885
_cell_formula_units_Z   1
loop_
 _symmetry_equiv_pos_site_id
 _symmetry_equiv_pos_as_xyz
  1  'x, y, z'
loop_
 _atom_site_type_symbol
 _atom_site_label
 _atom_site_symmetry_multiplicity
 _atom_site_fract_x
 _atom_site_fract_y
 _atom_site_fract_z
 _atom_site_occupancy
  Ho  Ho0  1  0.293520  0.182154  0.475560  1
  Er  Er1  1  0.707145  0.817885  0.525100  1
  Er  Er2  1  0.293742  0.817635  0.111423  1
  Er  Er3  1  0.707442  0.181815  0.889102  1
  Er  Er4  1  0.627291  0.320117  0.306968  1
  Er  Er5  1  0.372816  0.680545  0.693356  1
  Er  Er6  1  0.013406  0.320687  0.693431  1
  Er  Er7  1  0.986954  0.679989  0.307089  1
  Er  Er8  1  0.212114  0.404313  0.192070  1
  Er  Er9  1  0.789218  0.597684  0.808975  1
  Er  Er10  1  0.211307  0.019860  0.809140  1
  Er  Er11  1  0.787599  0.979907  0.192185  1
  Ni  Ni12  1  0.999179  0.363927  0.363257  1
  Ni  Ni13  1  0.999842  0.635466  0.635400  1
  Ni  Ni14  1  0.376584  0.874617  0.499067  1
  Ni  Ni15  1  0.624694  0.122330  0.498885  1
  Ni  Ni16  1  0.997498  0.001484  0.999568  1
  Pb  Pb17  1  0.499647  0.499582  0.999424  1
