# generated using pymatgen
data_LiY2Er2Al17Pd6
_symmetry_space_group_name_H-M   'P 1'
_cell_length_a   7.61539408
_cell_length_b   7.61539522
_cell_length_c   9.46712700
_cell_angle_alpha   90.00000000
_cell_angle_beta   90.00000000
_cell_angle_gamma   119.32386990
_symmetry_Int_Tables_number   1
_chemical_formula_structural   LiY2Er2Al17Pd6
_chemical_formula_sum   'Li1 Y2 Er2 Al17 Pd6'
_cell_volume   478.68788193
_cell_formula_units_Z   1
loop_
 _symmetry_equiv_pos_site_id
 _symmetry_equiv_pos_as_xyz
  1  'x, y, z'
loop_
 _atom_site_type_symbol
 _atom_site_label
 _atom_site_symmetry_multiplicity
 _atom_site_fract_x
 _atom_site_fract_y
 _atom_site_fract_z
 _atom_site_occupancy
  Li  Li0  1  0.128479  0.128479  0.250000  1
  Y  Y1  1  0.007839  0.330324  0.750000  1
  Y  Y2  1  0.330324  0.007839  0.750000  1
  Er  Er3  1  0.994652  0.664697  0.250000  1
  Er  Er4  1  0.664697  0.994652  0.250000  1
  Al  Al5  1  0.865629  0.865629  0.750000  1
  Al  Al6  1  0.000919  0.328598  0.081507  1
  Al  Al7  1  0.000080  0.664872  0.925546  1
  Al  Al8  1  0.000080  0.664872  0.574454  1
  Al  Al9  1  0.328598  0.000919  0.418493  1
  Al  Al10  1  0.000919  0.328598  0.418493  1
  Al  Al11  1  0.664872  0.000080  0.574454  1
  Al  Al12  1  0.664872  0.000080  0.925546  1
  Al  Al13  1  0.328598  0.000919  0.081507  1
  Al  Al14  1  0.335095  0.335095  0.545887  1
  Al  Al15  1  0.671815  0.671815  0.438485  1
  Al  Al16  1  0.671815  0.671815  0.061515  1
  Al  Al17  1  0.335095  0.335095  0.954113  1
  Al  Al18  1  0.340309  0.543219  0.250000  1
  Al  Al19  1  0.659322  0.452526  0.750000  1
  Al  Al20  1  0.543219  0.340309  0.250000  1
  Al  Al21  1  0.452526  0.659322  0.750000  1
  Pd  Pd22  1  0.675350  0.329892  0.000619  1
  Pd  Pd23  1  0.329892  0.675350  0.000619  1
  Pd  Pd24  1  0.329892  0.675350  0.499381  1
  Pd  Pd25  1  0.675350  0.329892  0.499381  1
  Pd  Pd26  1  0.999882  0.999882  0.994055  1
  Pd  Pd27  1  0.999882  0.999882  0.505945  1
