# generated using pymatgen
data_La12Nd2NiRh5
_symmetry_space_group_name_H-M   'P 1'
_cell_length_a   10.17698700
_cell_length_b   10.16528732
_cell_length_c   6.56919000
_cell_angle_alpha   89.87899171
_cell_angle_beta   90.00000000
_cell_angle_gamma   120.03809001
_symmetry_Int_Tables_number   1
_chemical_formula_structural   La12Nd2NiRh5
_chemical_formula_sum   'La12 Nd2 Ni1 Rh5'
_cell_volume   588.31947028
_cell_formula_units_Z   1
loop_
 _symmetry_equiv_pos_site_id
 _symmetry_equiv_pos_as_xyz
  1  'x, y, z'
loop_
 _atom_site_type_symbol
 _atom_site_label
 _atom_site_symmetry_multiplicity
 _atom_site_fract_x
 _atom_site_fract_y
 _atom_site_fract_z
 _atom_site_occupancy
  La  La0  1  0.874416  0.748833  0.790974  1
  La  La1  1  0.249562  0.127982  0.789737  1
  La  La2  1  0.878421  0.127982  0.789737  1
  La  La3  1  0.124783  0.249565  0.285187  1
  La  La4  1  0.748098  0.873305  0.291787  1
  La  La5  1  0.125208  0.873305  0.291787  1
  La  La6  1  0.462093  0.924188  0.595607  1
  La  La7  1  0.079782  0.536755  0.597061  1
  La  La8  1  0.456970  0.536755  0.597061  1
  La  La9  1  0.539407  0.078814  0.092243  1
  La  La10  1  0.923595  0.459808  0.095802  1
  La  La11  1  0.536214  0.459808  0.095802  1
  Nd  Nd12  1  0.666658  0.333314  0.561964  1
  Nd  Nd13  1  0.333722  0.667447  0.059625  1
  Ni  Ni14  1  0.186705  0.373410  0.834293  1
  Rh  Rh15  1  0.628491  0.814895  0.828334  1
  Rh  Rh16  1  0.186405  0.814895  0.828334  1
  Rh  Rh17  1  0.813253  0.626508  0.327651  1
  Rh  Rh18  1  0.374294  0.186215  0.331033  1
  Rh  Rh19  1  0.811920  0.186215  0.331033  1
