# generated using pymatgen
data_Ho19TmSi15As
_symmetry_space_group_name_H-M   'P 1'
_cell_length_a   7.46301976
_cell_length_b   7.61870407
_cell_length_c   14.54700024
_cell_angle_alpha   89.89220870
_cell_angle_beta   86.32472615
_cell_angle_gamma   90.06658400
_symmetry_Int_Tables_number   1
_chemical_formula_structural   Ho19TmSi15As
_chemical_formula_sum   'Ho19 Tm1 Si15 As1'
_cell_volume   825.41795852
_cell_formula_units_Z   1
loop_
 _symmetry_equiv_pos_site_id
 _symmetry_equiv_pos_as_xyz
  1  'x, y, z'
loop_
 _atom_site_type_symbol
 _atom_site_label
 _atom_site_symmetry_multiplicity
 _atom_site_fract_x
 _atom_site_fract_y
 _atom_site_fract_z
 _atom_site_occupancy
  Ho  Ho0  1  0.164022  0.505412  0.245027  1
  Ho  Ho1  1  0.836211  0.494334  0.751838  1
  Ho  Ho2  1  0.334694  0.006294  0.753818  1
  Ho  Ho3  1  0.999254  0.822532  0.099561  1
  Ho  Ho4  1  0.470823  0.685073  0.398174  1
  Ho  Ho5  1  0.497568  0.318128  0.900868  1
  Ho  Ho6  1  0.029495  0.185693  0.602027  1
  Ho  Ho7  1  0.004167  0.179646  0.901368  1
  Ho  Ho8  1  0.528914  0.314526  0.601469  1
  Ho  Ho9  1  0.496275  0.683723  0.099763  1
  Ho  Ho10  1  0.970032  0.813397  0.398093  1
  Ho  Ho11  1  0.649556  0.835607  0.878825  1
  Ho  Ho12  1  0.178745  0.676305  0.622248  1
  Ho  Ho13  1  0.850632  0.333266  0.119426  1
  Ho  Ho14  1  0.321630  0.176005  0.377940  1
  Ho  Ho15  1  0.349986  0.166311  0.121348  1
  Ho  Ho16  1  0.821907  0.323110  0.377976  1
  Ho  Ho17  1  0.151383  0.666746  0.880720  1
  Ho  Ho18  1  0.678438  0.823674  0.622293  1
  Tm  Tm19  1  0.665315  0.993567  0.245814  1
  Si  Si20  1  0.780110  0.629617  0.250899  1
  Si  Si21  1  0.280291  0.870288  0.251819  1
  Si  Si22  1  0.719019  0.130919  0.748628  1
  Si  Si23  1  0.218693  0.370692  0.749184  1
  Si  Si24  1  0.036715  0.107736  0.252388  1
  Si  Si25  1  0.538862  0.391627  0.251819  1
  Si  Si26  1  0.462098  0.607731  0.748970  1
  Si  Si27  1  0.962235  0.891430  0.748370  1
  Si  Si28  1  0.357265  0.972219  0.542878  1
  Si  Si29  1  0.697866  0.035194  0.042234  1
  Si  Si30  1  0.144106  0.471648  0.457758  1
  Si  Si31  1  0.205245  0.464457  0.042657  1
  Si  Si32  1  0.643454  0.026698  0.456731  1
  Si  Si33  1  0.303321  0.964512  0.957804  1
  Si  Si34  1  0.856538  0.527443  0.542555  1
  As  As35  1  0.795134  0.534437  0.956713  1
