# generated using pymatgen
data_Tb6Nb3Re6RuN24
_symmetry_space_group_name_H-M   'P 1'
_cell_length_a   11.12610340
_cell_length_b   11.12610292
_cell_length_c   11.12610240
_cell_angle_alpha   109.52211631
_cell_angle_beta   109.52211421
_cell_angle_gamma   109.52211413
_symmetry_Int_Tables_number   1
_chemical_formula_structural   Tb6Nb3Re6RuN24
_chemical_formula_sum   'Tb12 Nb6 Re12 Ru2 N48'
_cell_volume   1058.24512025
_cell_formula_units_Z   2
loop_
 _symmetry_equiv_pos_site_id
 _symmetry_equiv_pos_as_xyz
  1  'x, y, z'
loop_
 _atom_site_type_symbol
 _atom_site_label
 _atom_site_symmetry_multiplicity
 _atom_site_fract_x
 _atom_site_fract_y
 _atom_site_fract_z
 _atom_site_occupancy
  Tb  Tb0  1  0.374811  0.750000  0.125189  1
  Tb  Tb1  1  0.250000  0.373444  0.126556  1
  Tb  Tb2  1  0.373444  0.126556  0.250000  1
  Tb  Tb3  1  0.874811  0.625189  0.250000  1
  Tb  Tb4  1  0.750000  0.125189  0.374811  1
  Tb  Tb5  1  0.126556  0.250000  0.373444  1
  Tb  Tb6  1  0.873444  0.750000  0.626557  1
  Tb  Tb7  1  0.250000  0.874811  0.625189  1
  Tb  Tb8  1  0.125189  0.374811  0.750000  1
  Tb  Tb9  1  0.626557  0.873444  0.750000  1
  Tb  Tb10  1  0.625189  0.250000  0.874811  1
  Tb  Tb11  1  0.750000  0.626557  0.873444  1
  Nb  Nb12  1  0.500000  0.000000  0.000000  1
  Nb  Nb13  1  0.000000  0.500000  0.000000  1
  Nb  Nb14  1  0.500000  0.500000  0.000000  1
  Nb  Nb15  1  0.000000  0.000000  0.500000  1
  Nb  Nb16  1  0.500000  0.000000  0.500000  1
  Nb  Nb17  1  0.000000  0.500000  0.500000  1
  Re  Re18  1  0.875044  0.248008  0.124476  1
  Re  Re19  1  0.751991  0.875524  0.124956  1
  Re  Re20  1  0.624957  0.375524  0.251991  1
  Re  Re21  1  0.124476  0.875044  0.248008  1
  Re  Re22  1  0.251991  0.624957  0.375524  1
  Re  Re23  1  0.624476  0.748009  0.375044  1
  Re  Re24  1  0.375524  0.251991  0.624957  1
  Re  Re25  1  0.748009  0.375044  0.624476  1
  Re  Re26  1  0.875524  0.124956  0.751991  1
  Re  Re27  1  0.375044  0.624476  0.748009  1
  Re  Re28  1  0.248008  0.124476  0.875044  1
  Re  Re29  1  0.124956  0.751991  0.875524  1
  Ru  Ru30  1  0.000000  0.000000  0.000000  1
  Ru  Ru31  1  0.500000  0.500000  0.500000  1
  N  N32  1  0.315403  0.902067  0.021025  1
  N  N33  1  0.202916  0.116076  0.016777  1
  N  N34  1  0.880956  0.399292  0.085373  1
  N  N35  1  0.707715  0.685157  0.086201  1
  N  N36  1  0.619044  0.414627  0.100708  1
  N  N37  1  0.978974  0.684597  0.097933  1
  N  N38  1  0.016777  0.202916  0.116076  1
  N  N39  1  0.600707  0.914626  0.119044  1
  N  N40  1  0.207715  0.586201  0.185157  1
  N  N41  1  0.478975  0.597933  0.184597  1
  N  N42  1  0.116076  0.016777  0.202916  1
  N  N43  1  0.586201  0.185157  0.207715  1
  N  N44  1  0.314843  0.913799  0.292285  1
  N  N45  1  0.483224  0.383925  0.297085  1
  N  N46  1  0.913799  0.292285  0.314843  1
  N  N47  1  0.902067  0.021025  0.315403  1
  N  N48  1  0.297085  0.483224  0.383925  1
  N  N49  1  0.585373  0.899292  0.380956  1
  N  N50  1  0.815403  0.521026  0.402068  1
  N  N51  1  0.085373  0.880956  0.399292  1
  N  N52  1  0.100708  0.619044  0.414627  1
  N  N53  1  0.814842  0.792284  0.413799  1
  N  N54  1  0.597933  0.184597  0.478975  1
  N  N55  1  0.383925  0.297085  0.483224  1
  N  N56  1  0.616074  0.702915  0.516776  1
  N  N57  1  0.402068  0.815403  0.521026  1
  N  N58  1  0.185157  0.207715  0.586201  1
  N  N59  1  0.899292  0.380956  0.585373  1
  N  N60  1  0.914626  0.119044  0.600707  1
  N  N61  1  0.184597  0.478975  0.597933  1
  N  N62  1  0.414627  0.100708  0.619044  1
  N  N63  1  0.702915  0.516776  0.616074  1
  N  N64  1  0.086201  0.707715  0.685157  1
  N  N65  1  0.097933  0.978974  0.684597  1
  N  N66  1  0.516776  0.616074  0.702915  1
  N  N67  1  0.685157  0.086201  0.707715  1
  N  N68  1  0.883925  0.983224  0.797085  1
  N  N69  1  0.413799  0.814842  0.792284  1
  N  N70  1  0.521026  0.402068  0.815403  1
  N  N71  1  0.792284  0.413799  0.814842  1
  N  N72  1  0.399292  0.085373  0.880956  1
  N  N73  1  0.983224  0.797085  0.883925  1
  N  N74  1  0.021025  0.315403  0.902067  1
  N  N75  1  0.380956  0.585373  0.899292  1
  N  N76  1  0.292285  0.314843  0.913799  1
  N  N77  1  0.119044  0.600707  0.914626  1
  N  N78  1  0.684597  0.097933  0.978974  1
  N  N79  1  0.797085  0.883925  0.983224  1
