# generated using pymatgen
data_Pr2Si6Pd20Au
_symmetry_space_group_name_H-M   'P 1'
_cell_length_a   8.73140651
_cell_length_b   8.73140594
_cell_length_c   8.73140600
_cell_angle_alpha   59.99999977
_cell_angle_beta   60.00000195
_cell_angle_gamma   59.99999912
_symmetry_Int_Tables_number   1
_chemical_formula_structural   Pr2Si6Pd20Au
_chemical_formula_sum   'Pr2 Si6 Pd20 Au1'
_cell_volume   470.69282258
_cell_formula_units_Z   1
loop_
 _symmetry_equiv_pos_site_id
 _symmetry_equiv_pos_as_xyz
  1  'x, y, z'
loop_
 _atom_site_type_symbol
 _atom_site_label
 _atom_site_symmetry_multiplicity
 _atom_site_fract_x
 _atom_site_fract_y
 _atom_site_fract_z
 _atom_site_occupancy
  Pr  Pr0  1  0.250000  0.250000  0.250000  1
  Pr  Pr1  1  0.750000  0.750000  0.750000  1
  Si  Si2  1  0.734123  0.265877  0.265877  1
  Si  Si3  1  0.265877  0.734123  0.734123  1
  Si  Si4  1  0.265877  0.734123  0.265877  1
  Si  Si5  1  0.734123  0.265877  0.734123  1
  Si  Si6  1  0.265877  0.265877  0.734123  1
  Si  Si7  1  0.734123  0.734123  0.265877  1
  Pd  Pd8  1  0.385489  0.385489  0.385489  1
  Pd  Pd9  1  0.614511  0.614511  0.614511  1
  Pd  Pd10  1  0.385489  0.385489  0.843533  1
  Pd  Pd11  1  0.385489  0.843533  0.385489  1
  Pd  Pd12  1  0.614511  0.614511  0.156467  1
  Pd  Pd13  1  0.614511  0.156467  0.614511  1
  Pd  Pd14  1  0.843533  0.385489  0.385489  1
  Pd  Pd15  1  0.156467  0.614511  0.614511  1
  Pd  Pd16  1  0.344102  0.000000  0.000000  1
  Pd  Pd17  1  0.655898  0.000000  0.000000  1
  Pd  Pd18  1  0.000000  0.344102  0.655898  1
  Pd  Pd19  1  0.000000  0.655898  0.344102  1
  Pd  Pd20  1  0.000000  0.344102  0.000000  1
  Pd  Pd21  1  0.655898  0.000000  0.344102  1
  Pd  Pd22  1  0.000000  0.655898  0.000000  1
  Pd  Pd23  1  0.344102  0.000000  0.655898  1
  Pd  Pd24  1  0.000000  0.000000  0.344102  1
  Pd  Pd25  1  0.000000  0.000000  0.655898  1
  Pd  Pd26  1  0.655898  0.344102  0.000000  1
  Pd  Pd27  1  0.344102  0.655898  0.000000  1
  Au  Au28  1  0.000000  0.000000  0.000000  1
