# generated using pymatgen
data_Tm3AlHg2Au3
_symmetry_space_group_name_H-M   'P 1'
_cell_length_a   7.78841610
_cell_length_b   7.63809039
_cell_length_c   3.78265500
_cell_angle_alpha   90.00000000
_cell_angle_beta   90.00000000
_cell_angle_gamma   119.36353910
_symmetry_Int_Tables_number   1
_chemical_formula_structural   Tm3AlHg2Au3
_chemical_formula_sum   'Tm3 Al1 Hg2 Au3'
_cell_volume   196.11510008
_cell_formula_units_Z   1
loop_
 _symmetry_equiv_pos_site_id
 _symmetry_equiv_pos_as_xyz
  1  'x, y, z'
loop_
 _atom_site_type_symbol
 _atom_site_label
 _atom_site_symmetry_multiplicity
 _atom_site_fract_x
 _atom_site_fract_y
 _atom_site_fract_z
 _atom_site_occupancy
  Tm  Tm0  1  0.409913  0.399205  0.500000  1
  Tm  Tm1  1  0.590087  0.989292  0.500000  1
  Tm  Tm2  1  0.000000  0.610618  0.500000  1
  Al  Al3  1  0.000000  0.266764  0.000000  1
  Hg  Hg4  1  0.727293  0.729966  0.000000  1
  Hg  Hg5  1  0.272707  0.002673  0.000000  1
  Au  Au6  1  0.688855  0.326555  0.000000  1
  Au  Au7  1  0.311145  0.637701  0.000000  1
  Au  Au8  1  0.000000  0.037223  0.500000  1
