# generated using pymatgen
data_Er4Tm4Re(TcB8)3
_symmetry_space_group_name_H-M   'P 1'
_cell_length_a   3.65177200
_cell_length_b   9.11428205
_cell_length_c   11.48693900
_cell_angle_alpha   90.02672518
_cell_angle_beta   90.00000000
_cell_angle_gamma   90.00000000
_symmetry_Int_Tables_number   1
_chemical_formula_structural   Er4Tm4Re(TcB8)3
_chemical_formula_sum   'Er4 Tm4 Re1 Tc3 B24'
_cell_volume   382.32296558
_cell_formula_units_Z   1
loop_
 _symmetry_equiv_pos_site_id
 _symmetry_equiv_pos_as_xyz
  1  'x, y, z'
loop_
 _atom_site_type_symbol
 _atom_site_label
 _atom_site_symmetry_multiplicity
 _atom_site_fract_x
 _atom_site_fract_y
 _atom_site_fract_z
 _atom_site_occupancy
  Er  Er0  1  0.000000  0.323882  0.414014  1
  Er  Er1  1  0.000000  0.676367  0.585812  1
  Er  Er2  1  0.000000  0.823590  0.086186  1
  Er  Er3  1  0.000000  0.176705  0.914201  1
  Tm  Tm4  1  0.000000  0.942998  0.369410  1
  Tm  Tm5  1  0.000000  0.057561  0.629709  1
  Tm  Tm6  1  0.000000  0.443022  0.130631  1
  Tm  Tm7  1  0.000000  0.555942  0.869859  1
  Re  Re8  1  0.000000  0.860843  0.820502  1
  Tc  Tc9  1  0.000000  0.639269  0.320341  1
  Tc  Tc10  1  0.000000  0.360754  0.679562  1
  Tc  Tc11  1  0.000000  0.139335  0.179699  1
  B  B12  1  0.500000  0.553492  0.433177  1
  B  B13  1  0.500000  0.446601  0.566827  1
  B  B14  1  0.500000  0.053507  0.066924  1
  B  B15  1  0.500000  0.946735  0.933423  1
  B  B16  1  0.500000  0.749929  0.419077  1
  B  B17  1  0.500000  0.250247  0.580879  1
  B  B18  1  0.500000  0.249911  0.080924  1
  B  B19  1  0.500000  0.749679  0.919268  1
  B  B20  1  0.500000  0.792728  0.265107  1
  B  B21  1  0.500000  0.207291  0.734762  1
  B  B22  1  0.500000  0.292745  0.234967  1
  B  B23  1  0.500000  0.706879  0.765160  1
  B  B24  1  0.500000  0.630842  0.185047  1
  B  B25  1  0.500000  0.368987  0.814939  1
  B  B26  1  0.500000  0.130879  0.315039  1
  B  B27  1  0.500000  0.869315  0.684807  1
  B  B28  1  0.500000  0.981882  0.211859  1
  B  B29  1  0.500000  0.018487  0.787944  1
  B  B30  1  0.500000  0.481887  0.288146  1
  B  B31  1  0.500000  0.518003  0.711942  1
  B  B32  1  0.500000  0.599476  0.027867  1
  B  B33  1  0.500000  0.400083  0.972348  1
  B  B34  1  0.500000  0.099702  0.471978  1
  B  B35  1  0.500000  0.900448  0.527660  1
