# generated using pymatgen
data_ZnFe2Sb2(BrO)4
_symmetry_space_group_name_H-M   'P 1'
_cell_length_a   6.42314471
_cell_length_b   7.44712345
_cell_length_c   14.74660600
_cell_angle_alpha   90.00165700
_cell_angle_beta   90.00144552
_cell_angle_gamma   64.50474290
_symmetry_Int_Tables_number   1
_chemical_formula_structural   ZnFe2Sb2(BrO)4
_chemical_formula_sum   'Zn2 Fe4 Sb4 Br8 O8'
_cell_volume   636.69835870
_cell_formula_units_Z   2
loop_
 _symmetry_equiv_pos_site_id
 _symmetry_equiv_pos_as_xyz
  1  'x, y, z'
loop_
 _atom_site_type_symbol
 _atom_site_label
 _atom_site_symmetry_multiplicity
 _atom_site_fract_x
 _atom_site_fract_y
 _atom_site_fract_z
 _atom_site_occupancy
  Zn  Zn0  1  0.775511  0.948347  0.749933  1
  Zn  Zn1  1  0.724429  0.051663  0.249943  1
  Fe  Fe2  1  0.022466  0.999334  0.000010  1
  Fe  Fe3  1  0.477552  0.000744  0.500026  1
  Fe  Fe4  1  0.274837  0.951210  0.250220  1
  Fe  Fe5  1  0.225041  0.048716  0.750254  1
  Sb  Sb6  1  0.623280  0.794045  0.060253  1
  Sb  Sb7  1  0.417941  0.205329  0.939866  1
  Sb  Sb8  1  0.876701  0.205957  0.560257  1
  Sb  Sb9  1  0.082125  0.794645  0.439870  1
  Br  Br10  1  0.131555  0.760505  0.840302  1
  Br  Br11  1  0.893385  0.238767  0.159462  1
  Br  Br12  1  0.368408  0.239466  0.340298  1
  Br  Br13  1  0.606551  0.761253  0.659469  1
  Br  Br14  1  0.228764  0.684810  0.116265  1
  Br  Br15  1  0.914944  0.314373  0.883585  1
  Br  Br16  1  0.271511  0.315254  0.616235  1
  Br  Br17  1  0.585013  0.685618  0.383594  1
  O  O18  1  0.329361  0.999618  0.000030  1
  O  O19  1  0.782235  0.000346  0.499983  1
  O  O20  1  0.717742  0.999620  0.999973  1
  O  O21  1  0.170612  0.000389  0.500043  1
  O  O22  1  0.556166  0.927347  0.179978  1
  O  O23  1  0.483473  0.072249  0.820085  1
  O  O24  1  0.943843  0.072690  0.679987  1
  O  O25  1  0.016555  0.927705  0.320082  1
