# generated using pymatgen
data_LiDyMnPt3
_symmetry_space_group_name_H-M   'P 1'
_cell_length_a   5.15471087
_cell_length_b   5.15470701
_cell_length_c   5.15470856
_cell_angle_alpha   64.32964940
_cell_angle_beta   64.32964659
_cell_angle_gamma   64.32965136
_symmetry_Int_Tables_number   1
_chemical_formula_structural   LiDyMnPt3
_chemical_formula_sum   'Li1 Dy1 Mn1 Pt3'
_cell_volume   106.05923466
_cell_formula_units_Z   1
loop_
 _symmetry_equiv_pos_site_id
 _symmetry_equiv_pos_as_xyz
  1  'x, y, z'
loop_
 _atom_site_type_symbol
 _atom_site_label
 _atom_site_symmetry_multiplicity
 _atom_site_fract_x
 _atom_site_fract_y
 _atom_site_fract_z
 _atom_site_occupancy
  Li  Li0  1  0.257669  0.257669  0.257669  1
  Dy  Dy1  1  0.005408  0.005408  0.005408  1
  Mn  Mn2  1  0.621635  0.621635  0.621635  1
  Pt  Pt3  1  0.621025  0.621026  0.123236  1
  Pt  Pt4  1  0.621025  0.123236  0.621025  1
  Pt  Pt5  1  0.123236  0.621025  0.621025  1
