# generated using pymatgen
data_Cu5AuF18
_symmetry_space_group_name_H-M   'P 1'
_cell_length_a   5.06097296
_cell_length_b   5.06086307
_cell_length_c   13.49072798
_cell_angle_alpha   90.01248005
_cell_angle_beta   90.01174160
_cell_angle_gamma   59.98870624
_symmetry_Int_Tables_number   1
_chemical_formula_structural   Cu5AuF18
_chemical_formula_sum   'Cu5 Au1 F18'
_cell_volume   299.20935830
_cell_formula_units_Z   1
loop_
 _symmetry_equiv_pos_site_id
 _symmetry_equiv_pos_as_xyz
  1  'x, y, z'
loop_
 _atom_site_type_symbol
 _atom_site_label
 _atom_site_symmetry_multiplicity
 _atom_site_fract_x
 _atom_site_fract_y
 _atom_site_fract_z
 _atom_site_occupancy
  Cu  Cu0  1  0.999968  0.999979  0.013007  1
  Cu  Cu1  1  0.666582  0.666696  0.172266  1
  Cu  Cu2  1  0.333308  0.333347  0.333311  1
  Cu  Cu3  1  0.000029  0.999975  0.494424  1
  Cu  Cu4  1  0.666731  0.666659  0.653701  1
  Au  Au5  1  0.333377  0.333320  0.833428  1
  F  F6  1  0.337241  0.952355  0.090583  1
  F  F7  1  0.710280  0.337301  0.090606  1
  F  F8  1  0.952329  0.710257  0.090567  1
  F  F9  1  0.999680  0.383184  0.252705  1
  F  F10  1  0.617048  0.999883  0.252640  1
  F  F11  1  0.382966  0.617269  0.252702  1
  F  F12  1  0.282855  0.050180  0.413882  1
  F  F13  1  0.666922  0.282739  0.413887  1
  F  F14  1  0.050288  0.666847  0.413938  1
  F  F15  1  0.329542  0.714361  0.576067  1
  F  F16  1  0.714319  0.956258  0.576083  1
  F  F17  1  0.956216  0.329522  0.576034  1
  F  F18  1  0.377568  0.988217  0.742447  1
  F  F19  1  0.634337  0.377445  0.742434  1
  F  F20  1  0.988332  0.634215  0.742421  1
  F  F21  1  0.031656  0.289673  0.924249  1
  F  F22  1  0.678644  0.031687  0.924247  1
  F  F23  1  0.289625  0.678655  0.924238  1
