# generated using pymatgen
data_AlZnGaPt5
_symmetry_space_group_name_H-M   'P 1'
_cell_length_a   5.52535137
_cell_length_b   5.52535085
_cell_length_c   3.96898900
_cell_angle_alpha   90.00000000
_cell_angle_beta   90.00000000
_cell_angle_gamma   95.95917515
_symmetry_Int_Tables_number   1
_chemical_formula_structural   AlZnGaPt5
_chemical_formula_sum   'Al1 Zn1 Ga1 Pt5'
_cell_volume   120.51647437
_cell_formula_units_Z   1
loop_
 _symmetry_equiv_pos_site_id
 _symmetry_equiv_pos_as_xyz
  1  'x, y, z'
loop_
 _atom_site_type_symbol
 _atom_site_label
 _atom_site_symmetry_multiplicity
 _atom_site_fract_x
 _atom_site_fract_y
 _atom_site_fract_z
 _atom_site_occupancy
  Al  Al0  1  0.713366  0.286634  0.500000  1
  Zn  Zn1  1  0.278465  0.721535  0.500000  1
  Ga  Ga2  1  0.006405  0.993595  0.000000  1
  Pt  Pt3  1  0.498924  0.501076  0.000000  1
  Pt  Pt4  1  0.994230  0.490670  0.000000  1
  Pt  Pt5  1  0.509330  0.005770  0.000000  1
  Pt  Pt6  1  0.214861  0.215581  0.500000  1
  Pt  Pt7  1  0.784419  0.785139  0.500000  1
