# generated using pymatgen
data_Y6VB14W
_symmetry_space_group_name_H-M   'P 1'
_cell_length_a   8.17317483
_cell_length_b   8.17317364
_cell_length_c   9.47735700
_cell_angle_alpha   90.00000000
_cell_angle_beta   90.00000000
_cell_angle_gamma   155.60817386
_symmetry_Int_Tables_number   1
_chemical_formula_structural   Y6VB14W
_chemical_formula_sum   'Y6 V1 B14 W1'
_cell_volume   261.45201793
_cell_formula_units_Z   1
loop_
 _symmetry_equiv_pos_site_id
 _symmetry_equiv_pos_as_xyz
  1  'x, y, z'
loop_
 _atom_site_type_symbol
 _atom_site_label
 _atom_site_symmetry_multiplicity
 _atom_site_fract_x
 _atom_site_fract_y
 _atom_site_fract_z
 _atom_site_occupancy
  Y  Y0  1  0.893958  0.106042  0.937812  1
  Y  Y1  1  0.106678  0.893322  0.057570  1
  Y  Y2  1  0.755135  0.244865  0.250000  1
  Y  Y3  1  0.241722  0.758278  0.750000  1
  Y  Y4  1  0.893958  0.106042  0.562188  1
  Y  Y5  1  0.106678  0.893322  0.442430  1
  V  V6  1  0.052718  0.947282  0.750000  1
  B  B7  1  0.544103  0.455897  0.250000  1
  B  B8  1  0.459679  0.540321  0.750000  1
  B  B9  1  0.521316  0.478684  0.904333  1
  B  B10  1  0.480400  0.519600  0.091174  1
  B  B11  1  0.480400  0.519600  0.408826  1
  B  B12  1  0.521316  0.478684  0.595667  1
  B  B13  1  0.632310  0.367690  0.849587  1
  B  B14  1  0.365383  0.634617  0.146432  1
  B  B15  1  0.727220  0.272780  0.966860  1
  B  B16  1  0.272643  0.727357  0.031828  1
  B  B17  1  0.272643  0.727357  0.468172  1
  B  B18  1  0.727220  0.272780  0.533140  1
  B  B19  1  0.632310  0.367690  0.650413  1
  B  B20  1  0.365383  0.634617  0.353568  1
  W  W21  1  0.946827  0.053173  0.250000  1
