# generated using pymatgen
data_YbHo2Er(SiPt2)4
_symmetry_space_group_name_H-M   'P 1'
_cell_length_a   5.52225217
_cell_length_b   6.96177700
_cell_length_c   7.30651701
_cell_angle_alpha   90.00000000
_cell_angle_beta   89.98228981
_cell_angle_gamma   90.00000000
_symmetry_Int_Tables_number   1
_chemical_formula_structural   YbHo2Er(SiPt2)4
_chemical_formula_sum   'Yb1 Ho2 Er1 Si4 Pt8'
_cell_volume   280.89675447
_cell_formula_units_Z   1
loop_
 _symmetry_equiv_pos_site_id
 _symmetry_equiv_pos_as_xyz
  1  'x, y, z'
loop_
 _atom_site_type_symbol
 _atom_site_label
 _atom_site_symmetry_multiplicity
 _atom_site_fract_x
 _atom_site_fract_y
 _atom_site_fract_z
 _atom_site_occupancy
  Yb  Yb0  1  0.866308  0.250000  0.522852  1
  Ho  Ho1  1  0.134099  0.750000  0.475802  1
  Ho  Ho2  1  0.634783  0.250000  0.024429  1
  Er  Er3  1  0.365754  0.750000  0.976301  1
  Si  Si4  1  0.133342  0.250000  0.877466  1
  Si  Si5  1  0.367814  0.250000  0.380410  1
  Si  Si6  1  0.632697  0.750000  0.621149  1
  Si  Si7  1  0.867002  0.750000  0.121641  1
  Pt  Pt8  1  0.098835  0.050670  0.179214  1
  Pt  Pt9  1  0.098835  0.449330  0.179214  1
  Pt  Pt10  1  0.404293  0.049957  0.679565  1
  Pt  Pt11  1  0.404293  0.450043  0.679565  1
  Pt  Pt12  1  0.592406  0.550755  0.318212  1
  Pt  Pt13  1  0.592406  0.949245  0.318212  1
  Pt  Pt14  1  0.903567  0.551548  0.822984  1
  Pt  Pt15  1  0.903567  0.948452  0.822984  1
