# generated using pymatgen
data_Cs2LiTaSe4
_symmetry_space_group_name_H-M   'P 1'
_cell_length_a   14.86698120
_cell_length_b   13.27957176
_cell_length_c   8.02712730
_cell_angle_alpha   84.68330321
_cell_angle_beta   62.79581268
_cell_angle_gamma   32.52088384
_symmetry_Int_Tables_number   1
_chemical_formula_structural   Cs2LiTaSe4
_chemical_formula_sum   'Cs4 Li2 Ta2 Se8'
_cell_volume   599.02447302
_cell_formula_units_Z   2
loop_
 _symmetry_equiv_pos_site_id
 _symmetry_equiv_pos_as_xyz
  1  'x, y, z'
loop_
 _atom_site_type_symbol
 _atom_site_label
 _atom_site_symmetry_multiplicity
 _atom_site_fract_x
 _atom_site_fract_y
 _atom_site_fract_z
 _atom_site_occupancy
  Cs  Cs0  1  0.929088  0.929088  0.570912  1
  Cs  Cs1  1  0.570912  0.570912  0.929088  1
  Cs  Cs2  1  0.679088  0.679088  0.320912  1
  Cs  Cs3  1  0.320912  0.320912  0.679088  1
  Li  Li4  1  0.000000  0.000000  0.000000  1
  Li  Li5  1  0.250000  0.250000  0.250000  1
  Ta  Ta6  1  0.750000  0.750000  0.750000  1
  Ta  Ta7  1  0.500000  0.500000  0.500000  1
  Se  Se8  1  0.578632  0.314412  0.233805  1
  Se  Se9  1  0.873150  0.233805  0.314412  1
  Se  Se10  1  0.233805  0.873150  0.578632  1
  Se  Se11  1  0.314412  0.578632  0.873150  1
  Se  Se12  1  0.935588  0.671368  0.376850  1
  Se  Se13  1  0.376850  0.016195  0.935588  1
  Se  Se14  1  0.016195  0.376850  0.671368  1
  Se  Se15  1  0.671368  0.935588  0.016195  1
