# generated using pymatgen
data_Cs4Sn(PS4)2
_symmetry_space_group_name_H-M   'P 1'
_cell_length_a   9.55962431
_cell_length_b   9.74346314
_cell_length_c   11.92077455
_cell_angle_alpha   106.10169903
_cell_angle_beta   102.88375922
_cell_angle_gamma   92.85843181
_symmetry_Int_Tables_number   1
_chemical_formula_structural   Cs4Sn(PS4)2
_chemical_formula_sum   'Cs8 Sn2 P4 S16'
_cell_volume   1032.50842055
_cell_formula_units_Z   2
loop_
 _symmetry_equiv_pos_site_id
 _symmetry_equiv_pos_as_xyz
  1  'x, y, z'
loop_
 _atom_site_type_symbol
 _atom_site_label
 _atom_site_symmetry_multiplicity
 _atom_site_fract_x
 _atom_site_fract_y
 _atom_site_fract_z
 _atom_site_occupancy
  Cs  Cs0  1  0.935018  0.517082  0.249370  1
  Cs  Cs1  1  0.064982  0.482918  0.750630  1
  Cs  Cs2  1  0.763591  0.990724  0.465248  1
  Cs  Cs3  1  0.236409  0.009276  0.534752  1
  Cs  Cs4  1  0.594026  0.745596  0.022238  1
  Cs  Cs5  1  0.405974  0.254404  0.977762  1
  Cs  Cs6  1  0.615833  0.682827  0.618884  1
  Cs  Cs7  1  0.384167  0.317173  0.381116  1
  Sn  Sn8  1  0.847568  0.135609  0.920661  1
  Sn  Sn9  1  0.152432  0.864391  0.079339  1
  P  P10  1  0.950437  0.112594  0.233135  1
  P  P11  1  0.049563  0.887406  0.766865  1
  P  P12  1  0.371994  0.681878  0.258423  1
  P  P13  1  0.628006  0.318122  0.741577  1
  S  S14  1  0.962854  0.898862  0.230910  1
  S  S15  1  0.037146  0.101138  0.769090  1
  S  S16  1  0.590693  0.102086  0.735424  1
  S  S17  1  0.409307  0.897914  0.264576  1
  S  S18  1  0.292238  0.665203  0.399452  1
  S  S19  1  0.707762  0.334797  0.600548  1
  S  S20  1  0.779244  0.417427  0.903118  1
  S  S21  1  0.220756  0.582573  0.096882  1
  S  S22  1  0.011734  0.243292  0.404818  1
  S  S23  1  0.988266  0.756708  0.595182  1
  S  S24  1  0.092709  0.164277  0.136852  1
  S  S25  1  0.907291  0.835723  0.863148  1
  S  S26  1  0.744672  0.135108  0.149761  1
  S  S27  1  0.255328  0.864892  0.850239  1
  S  S28  1  0.560210  0.590314  0.261643  1
  S  S29  1  0.439790  0.409686  0.738357  1
