# generated using pymatgen
data_AcSiRh3Pb
_symmetry_space_group_name_H-M   'P 1'
_cell_length_a   5.87404063
_cell_length_b   7.01420463
_cell_length_c   7.01420400
_cell_angle_alpha   66.11391939
_cell_angle_beta   65.46581133
_cell_angle_gamma   65.46580905
_symmetry_Int_Tables_number   1
_chemical_formula_structural   AcSiRh3Pb
_chemical_formula_sum   'Ac2 Si2 Rh6 Pb2'
_cell_volume   229.53579139
_cell_formula_units_Z   2
loop_
 _symmetry_equiv_pos_site_id
 _symmetry_equiv_pos_as_xyz
  1  'x, y, z'
loop_
 _atom_site_type_symbol
 _atom_site_label
 _atom_site_symmetry_multiplicity
 _atom_site_fract_x
 _atom_site_fract_y
 _atom_site_fract_z
 _atom_site_occupancy
  Ac  Ac0  1  0.478936  0.769394  0.769394  1
  Ac  Ac1  1  0.521064  0.230606  0.230606  1
  Si  Si2  1  0.147068  0.103769  0.103769  1
  Si  Si3  1  0.852932  0.896231  0.896231  1
  Rh  Rh4  1  0.500000  0.200740  0.799260  1
  Rh  Rh5  1  0.000000  0.799819  0.200181  1
  Rh  Rh6  1  0.500000  0.799260  0.200740  1
  Rh  Rh7  1  0.000000  0.200181  0.799819  1
  Rh  Rh8  1  0.000000  0.500000  0.000000  1
  Rh  Rh9  1  0.000000  0.000000  0.500000  1
  Pb  Pb10  1  0.184180  0.564719  0.564719  1
  Pb  Pb11  1  0.815820  0.435281  0.435281  1
