# generated using pymatgen
data_TbDy11Fe2I17
_symmetry_space_group_name_H-M   'P 1'
_cell_length_a   9.73774078
_cell_length_b   11.68737074
_cell_length_c   11.69855561
_cell_angle_alpha   93.50698088
_cell_angle_beta   104.89399548
_cell_angle_gamma   114.13733529
_symmetry_Int_Tables_number   1
_chemical_formula_structural   TbDy11Fe2I17
_chemical_formula_sum   'Tb1 Dy11 Fe2 I17'
_cell_volume   1153.11077080
_cell_formula_units_Z   1
loop_
 _symmetry_equiv_pos_site_id
 _symmetry_equiv_pos_as_xyz
  1  'x, y, z'
loop_
 _atom_site_type_symbol
 _atom_site_label
 _atom_site_symmetry_multiplicity
 _atom_site_fract_x
 _atom_site_fract_y
 _atom_site_fract_z
 _atom_site_occupancy
  Tb  Tb0  1  0.859359  0.712864  0.845161  1
  Dy  Dy1  1  0.051379  0.500963  0.319385  1
  Dy  Dy2  1  0.990228  0.808722  0.586745  1
  Dy  Dy3  1  0.655260  0.241575  0.281220  1
  Dy  Dy4  1  0.008511  0.192909  0.410048  1
  Dy  Dy5  1  0.218932  0.671671  0.984173  1
  Dy  Dy6  1  0.254018  0.978631  0.888840  1
  Dy  Dy7  1  0.339714  0.758078  0.720421  1
  Dy  Dy8  1  0.946643  0.495864  0.679631  1
  Dy  Dy9  1  0.747297  0.024063  0.112115  1
  Dy  Dy10  1  0.143719  0.287242  0.153928  1
  Dy  Dy11  1  0.782737  0.327499  0.019030  1
  Fe  Fe12  1  0.102132  0.737696  0.785560  1
  Fe  Fe13  1  0.897158  0.262254  0.214460  1
  I  I14  1  0.782875  0.528219  0.417573  1
  I  I15  1  0.645253  0.417876  0.762144  1
  I  I16  1  0.845637  0.897121  0.326912  1
  I  I17  1  0.329630  0.214379  0.369053  1
  I  I18  1  0.156558  0.103506  0.672317  1
  I  I19  1  0.584390  0.051594  0.843145  1
  I  I20  1  0.759677  0.188458  0.539319  1
  I  I21  1  0.549822  0.711916  0.953875  1
  I  I22  1  0.356426  0.581665  0.238373  1
  I  I23  1  0.216437  0.472483  0.583670  1
  I  I24  1  0.058055  0.368499  0.896900  1
  I  I25  1  0.448670  0.288605  0.045076  1
  I  I26  1  0.999266  0.999133  0.999144  1
  I  I27  1  0.240499  0.810701  0.461975  1
  I  I28  1  0.413749  0.947074  0.157036  1
  I  I29  1  0.672567  0.786755  0.630032  1
  I  I30  1  0.943396  0.631986  0.102739  1
