# generated using pymatgen
data_Nd5SmRhI10
_symmetry_space_group_name_H-M   'P 1'
_cell_length_a   7.97169014
_cell_length_b   10.01537025
_cell_length_c   9.97695403
_cell_angle_alpha   106.95707973
_cell_angle_beta   96.81537200
_cell_angle_gamma   104.83559962
_symmetry_Int_Tables_number   1
_chemical_formula_structural   Nd5SmRhI10
_chemical_formula_sum   'Nd5 Sm1 Rh1 I10'
_cell_volume   720.24139990
_cell_formula_units_Z   1
loop_
 _symmetry_equiv_pos_site_id
 _symmetry_equiv_pos_as_xyz
  1  'x, y, z'
loop_
 _atom_site_type_symbol
 _atom_site_label
 _atom_site_symmetry_multiplicity
 _atom_site_fract_x
 _atom_site_fract_y
 _atom_site_fract_z
 _atom_site_occupancy
  Nd  Nd0  1  0.466792  0.790040  0.586895  1
  Nd  Nd1  1  0.148314  0.373051  0.330704  1
  Nd  Nd2  1  0.851926  0.626106  0.669214  1
  Nd  Nd3  1  0.616640  0.543235  0.261802  1
  Nd  Nd4  1  0.383550  0.456126  0.737946  1
  Sm  Sm5  1  0.532291  0.211562  0.413184  1
  Rh  Rh6  1  0.500025  0.499286  0.499735  1
  I  I7  1  0.152631  0.048510  0.228706  1
  I  I8  1  0.850400  0.951495  0.772552  1
  I  I9  1  0.242796  0.413462  0.038809  1
  I  I10  1  0.757667  0.587664  0.961775  1
  I  I11  1  0.718145  0.242534  0.154486  1
  I  I12  1  0.280460  0.755889  0.847855  1
  I  I13  1  0.045739  0.684131  0.408319  1
  I  I14  1  0.952297  0.315287  0.590495  1
  I  I15  1  0.414110  0.128188  0.677406  1
  I  I16  1  0.586216  0.873433  0.320114  1
