# generated using pymatgen
data_Sc3AsO
_symmetry_space_group_name_H-M   'P 1'
_cell_length_a   8.39766600
_cell_length_b   3.55498000
_cell_length_c   11.00598800
_cell_angle_alpha   90.00000000
_cell_angle_beta   90.00000000
_cell_angle_gamma   90.00000000
_symmetry_Int_Tables_number   1
_chemical_formula_structural   Sc3AsO
_chemical_formula_sum   'Sc12 As4 O4'
_cell_volume   328.56764441
_cell_formula_units_Z   4
loop_
 _symmetry_equiv_pos_site_id
 _symmetry_equiv_pos_as_xyz
  1  'x, y, z'
loop_
 _atom_site_type_symbol
 _atom_site_label
 _atom_site_symmetry_multiplicity
 _atom_site_fract_x
 _atom_site_fract_y
 _atom_site_fract_z
 _atom_site_occupancy
  Sc  Sc0  1  0.549282  0.250001  0.120454  1
  Sc  Sc1  1  0.951483  0.250001  0.120824  1
  Sc  Sc2  1  0.250591  0.750000  0.191312  1
  Sc  Sc3  1  0.750591  0.750000  0.308688  1
  Sc  Sc4  1  0.451484  0.250001  0.379176  1
  Sc  Sc5  1  0.049284  0.250001  0.379546  1
  Sc  Sc6  1  0.950717  0.750000  0.620454  1
  Sc  Sc7  1  0.548516  0.750000  0.620824  1
  Sc  Sc8  1  0.249409  0.250001  0.691312  1
  Sc  Sc9  1  0.749409  0.250001  0.808688  1
  Sc  Sc10  1  0.048517  0.750000  0.879176  1
  Sc  Sc11  1  0.450717  0.750000  0.879546  1
  As  As12  1  0.750160  0.750000  0.001320  1
  As  As13  1  0.250161  0.750000  0.498680  1
  As  As14  1  0.749839  0.250001  0.501320  1
  As  As15  1  0.249841  0.250001  0.998680  1
  O  O16  1  0.500661  0.750000  0.250058  1
  O  O17  1  0.000661  0.750000  0.249941  1
  O  O18  1  0.999339  0.250001  0.750058  1
  O  O19  1  0.499339  0.250001  0.749941  1
