# generated using pymatgen
data_SrLa17(BiO)10
_symmetry_space_group_name_H-M   'P 1'
_cell_length_a   10.60077500
_cell_length_b   10.60077500
_cell_length_c   9.49619000
_cell_angle_alpha   90.00000000
_cell_angle_beta   90.00000000
_cell_angle_gamma   90.00000000
_symmetry_Int_Tables_number   1
_chemical_formula_structural   SrLa17(BiO)10
_chemical_formula_sum   'Sr1 La17 Bi10 O10'
_cell_volume   1067.14793651
_cell_formula_units_Z   1
loop_
 _symmetry_equiv_pos_site_id
 _symmetry_equiv_pos_as_xyz
  1  'x, y, z'
loop_
 _atom_site_type_symbol
 _atom_site_label
 _atom_site_symmetry_multiplicity
 _atom_site_fract_x
 _atom_site_fract_y
 _atom_site_fract_z
 _atom_site_occupancy
  Sr  Sr0  1  0.000000  0.500000  0.330017  1
  La  La1  1  0.500000  0.000000  0.677371  1
  La  La2  1  0.795350  0.104586  0.337891  1
  La  La3  1  0.604586  0.704650  0.337891  1
  La  La4  1  0.395414  0.295350  0.337891  1
  La  La5  1  0.204650  0.895414  0.337891  1
  La  La6  1  0.704765  0.395572  0.662083  1
  La  La7  1  0.895572  0.795235  0.662083  1
  La  La8  1  0.104428  0.204765  0.662083  1
  La  La9  1  0.295235  0.604428  0.662083  1
  La  La10  1  0.080263  0.725367  0.998745  1
  La  La11  1  0.225367  0.419737  0.998745  1
  La  La12  1  0.774633  0.580263  0.998745  1
  La  La13  1  0.919737  0.274633  0.998745  1
  La  La14  1  0.418025  0.772104  0.003012  1
  La  La15  1  0.272104  0.081975  0.003012  1
  La  La16  1  0.727896  0.918025  0.003012  1
  La  La17  1  0.581975  0.227896  0.003012  1
  Bi  Bi18  1  0.000000  0.500000  0.692189  1
  Bi  Bi19  1  0.500000  0.000000  0.310166  1
  Bi  Bi20  1  0.693438  0.402310  0.298679  1
  Bi  Bi21  1  0.902310  0.806562  0.298679  1
  Bi  Bi22  1  0.097690  0.193438  0.298679  1
  Bi  Bi23  1  0.306562  0.597690  0.298679  1
  Bi  Bi24  1  0.803713  0.096903  0.700634  1
  Bi  Bi25  1  0.596903  0.696287  0.700634  1
  Bi  Bi26  1  0.403097  0.303713  0.700634  1
  Bi  Bi27  1  0.196287  0.903097  0.700634  1
  O  O28  1  0.000000  0.500000  0.059654  1
  O  O29  1  0.500000  0.000000  0.927771  1
  O  O30  1  0.879023  0.775155  0.910886  1
  O  O31  1  0.275155  0.620977  0.910886  1
  O  O32  1  0.724845  0.379023  0.910886  1
  O  O33  1  0.120977  0.224845  0.910886  1
  O  O34  1  0.621322  0.725447  0.088779  1
  O  O35  1  0.225447  0.878678  0.088779  1
  O  O36  1  0.774553  0.121322  0.088779  1
  O  O37  1  0.378678  0.274553  0.088779  1
