# generated using pymatgen
data_CeDy7(MgTc)2
_symmetry_space_group_name_H-M   'P 1'
_cell_length_a   9.64415577
_cell_length_b   9.77401250
_cell_length_c   9.77398328
_cell_angle_alpha   59.10401717
_cell_angle_beta   60.43979131
_cell_angle_gamma   60.43996287
_symmetry_Int_Tables_number   1
_chemical_formula_structural   CeDy7(MgTc)2
_chemical_formula_sum   'Ce2 Dy14 Mg4 Tc4'
_cell_volume   651.15500487
_cell_formula_units_Z   2
loop_
 _symmetry_equiv_pos_site_id
 _symmetry_equiv_pos_as_xyz
  1  'x, y, z'
loop_
 _atom_site_type_symbol
 _atom_site_label
 _atom_site_symmetry_multiplicity
 _atom_site_fract_x
 _atom_site_fract_y
 _atom_site_fract_z
 _atom_site_occupancy
  Ce  Ce0  1  0.811834  0.188169  0.188168  1
  Ce  Ce1  1  0.188170  0.811835  0.811833  1
  Dy  Dy2  1  0.187975  0.812034  0.187966  1
  Dy  Dy3  1  0.812032  0.187963  0.812031  1
  Dy  Dy4  1  0.187974  0.187965  0.812034  1
  Dy  Dy5  1  0.812030  0.812033  0.187964  1
  Dy  Dy6  1  0.926640  0.573362  0.573360  1
  Dy  Dy7  1  0.573362  0.926642  0.926643  1
  Dy  Dy8  1  0.557061  0.942927  0.557081  1
  Dy  Dy9  1  0.942943  0.557074  0.942920  1
  Dy  Dy10  1  0.557058  0.557082  0.942928  1
  Dy  Dy11  1  0.942944  0.942919  0.557074  1
  Dy  Dy12  1  0.337213  0.349124  0.349127  1
  Dy  Dy13  1  0.349123  0.337221  0.964523  1
  Dy  Dy14  1  0.349121  0.964525  0.337223  1
  Dy  Dy15  1  0.964526  0.349130  0.349134  1
  Mg  Mg16  1  0.581727  0.577954  0.577953  1
  Mg  Mg17  1  0.577952  0.581703  0.262376  1
  Mg  Mg18  1  0.577952  0.262376  0.581702  1
  Mg  Mg19  1  0.262393  0.577950  0.577950  1
  Tc  Tc20  1  0.093382  0.154009  0.154010  1
  Tc  Tc21  1  0.153986  0.093320  0.598668  1
  Tc  Tc22  1  0.153985  0.598669  0.093320  1
  Tc  Tc23  1  0.598617  0.154014  0.154014  1
