# generated using pymatgen
data_Sc3Sn3HgIr2
_symmetry_space_group_name_H-M   'P 1'
_cell_length_a   7.53830200
_cell_length_b   7.53830147
_cell_length_c   3.76337400
_cell_angle_alpha   90.00000000
_cell_angle_beta   90.00000000
_cell_angle_gamma   119.99999354
_symmetry_Int_Tables_number   1
_chemical_formula_structural   Sc3Sn3HgIr2
_chemical_formula_sum   'Sc3 Sn3 Hg1 Ir2'
_cell_volume   185.20600935
_cell_formula_units_Z   1
loop_
 _symmetry_equiv_pos_site_id
 _symmetry_equiv_pos_as_xyz
  1  'x, y, z'
loop_
 _atom_site_type_symbol
 _atom_site_label
 _atom_site_symmetry_multiplicity
 _atom_site_fract_x
 _atom_site_fract_y
 _atom_site_fract_z
 _atom_site_occupancy
  Sc  Sc0  1  0.971220  0.378753  0.500000  1
  Sc  Sc1  1  0.621247  0.592468  0.500000  1
  Sc  Sc2  1  0.407532  0.028780  0.500000  1
  Sn  Sn3  1  0.995812  0.735870  0.000000  1
  Sn  Sn4  1  0.264130  0.259941  0.000000  1
  Sn  Sn5  1  0.740059  0.004188  0.000000  1
  Hg  Hg6  1  0.333333  0.666667  0.000000  1
  Ir  Ir7  1  0.666667  0.333333  0.000000  1
  Ir  Ir8  1  0.000000  0.000000  0.500000  1
