# generated using pymatgen
data_TbDy4TaRuO12
_symmetry_space_group_name_H-M   'P 1'
_cell_length_a   6.84586682
_cell_length_b   6.84852186
_cell_length_c   7.47591388
_cell_angle_alpha   73.98006683
_cell_angle_beta   73.98266411
_cell_angle_gamma   50.58150266
_symmetry_Int_Tables_number   1
_chemical_formula_structural   TbDy4TaRuO12
_chemical_formula_sum   'Tb1 Dy4 Ta1 Ru1 O12'
_cell_volume   257.85295986
_cell_formula_units_Z   1
loop_
 _symmetry_equiv_pos_site_id
 _symmetry_equiv_pos_as_xyz
  1  'x, y, z'
loop_
 _atom_site_type_symbol
 _atom_site_label
 _atom_site_symmetry_multiplicity
 _atom_site_fract_x
 _atom_site_fract_y
 _atom_site_fract_z
 _atom_site_occupancy
  Tb  Tb0  1  0.317037  0.305053  0.325379  1
  Dy  Dy1  1  0.694682  0.682858  0.674982  1
  Dy  Dy2  1  0.701436  0.692261  0.138411  1
  Dy  Dy3  1  0.000699  0.999371  0.999789  1
  Dy  Dy4  1  0.307757  0.298543  0.860775  1
  Ta  Ta5  1  0.215028  0.785016  0.500226  1
  Ru  Ru6  1  0.752566  0.247442  0.500284  1
  O  O7  1  0.408578  0.898731  0.924972  1
  O  O8  1  0.579260  0.091432  0.585519  1
  O  O9  1  0.906873  0.422223  0.415577  1
  O  O10  1  0.100602  0.591968  0.073629  1
  O  O11  1  0.996993  0.001908  0.301788  1
  O  O12  1  0.492173  0.507490  0.684702  1
  O  O13  1  0.906495  0.402153  0.925963  1
  O  O14  1  0.099234  0.570046  0.584684  1
  O  O15  1  0.431416  0.899182  0.416402  1
  O  O16  1  0.598327  0.092736  0.072755  1
  O  O17  1  0.492497  0.508225  0.315891  1
  O  O18  1  0.998347  0.003362  0.698273  1
