# generated using pymatgen
data_Nd4Al10Ga14CoPd
_symmetry_space_group_name_H-M   'P 1'
_cell_length_a   6.02560331
_cell_length_b   6.02531905
_cell_length_c   15.76121188
_cell_angle_alpha   89.98668040
_cell_angle_beta   90.27777160
_cell_angle_gamma   90.00685377
_symmetry_Int_Tables_number   1
_chemical_formula_structural   Nd4Al10Ga14CoPd
_chemical_formula_sum   'Nd4 Al10 Ga14 Co1 Pd1'
_cell_volume   572.22268942
_cell_formula_units_Z   1
loop_
 _symmetry_equiv_pos_site_id
 _symmetry_equiv_pos_as_xyz
  1  'x, y, z'
loop_
 _atom_site_type_symbol
 _atom_site_label
 _atom_site_symmetry_multiplicity
 _atom_site_fract_x
 _atom_site_fract_y
 _atom_site_fract_z
 _atom_site_occupancy
  Nd  Nd0  1  0.752205  0.250699  0.248430  1
  Nd  Nd1  1  0.252162  0.749230  0.245117  1
  Nd  Nd2  1  0.248620  0.749706  0.754595  1
  Nd  Nd3  1  0.748695  0.250424  0.751208  1
  Al  Al4  1  0.509360  0.009026  0.915547  1
  Al  Al5  1  0.990404  0.009822  0.915843  1
  Al  Al6  1  0.509422  0.490780  0.915853  1
  Al  Al7  1  0.990505  0.490181  0.915597  1
  Al  Al8  1  0.509347  0.009830  0.084052  1
  Al  Al9  1  0.990631  0.009056  0.084381  1
  Al  Al10  1  0.509653  0.490012  0.084319  1
  Al  Al11  1  0.990668  0.491121  0.084045  1
  Al  Al12  1  0.582146  0.080315  0.433237  1
  Al  Al13  1  0.084062  0.917699  0.432063  1
  Ga  Ga14  1  0.250375  0.250207  0.185898  1
  Ga  Ga15  1  0.750256  0.749832  0.185893  1
  Ga  Ga16  1  0.749178  0.749908  0.814145  1
  Ga  Ga17  1  0.249043  0.250213  0.814148  1
  Ga  Ga18  1  0.252389  0.246802  0.342491  1
  Ga  Ga19  1  0.752230  0.753131  0.342485  1
  Ga  Ga20  1  0.748583  0.748876  0.657343  1
  Ga  Ga21  1  0.248501  0.250972  0.657347  1
  Ga  Ga22  1  0.418997  0.582401  0.429869  1
  Ga  Ga23  1  0.920958  0.419522  0.431383  1
  Ga  Ga24  1  0.416123  0.919653  0.569738  1
  Ga  Ga25  1  0.917699  0.078727  0.568385  1
  Ga  Ga26  1  0.577865  0.418950  0.567540  1
  Ga  Ga27  1  0.079861  0.582992  0.569007  1
  Co  Co28  1  0.750027  0.249749  0.000039  1
  Pd  Pd29  1  0.250035  0.750162  0.000004  1
