# generated using pymatgen
data_Sb14Mo5Au
_symmetry_space_group_name_H-M   'P 1'
_cell_length_a   8.41660154
_cell_length_b   8.41660195
_cell_length_c   8.41660233
_cell_angle_alpha   109.73435482
_cell_angle_beta   109.73435545
_cell_angle_gamma   108.94622350
_symmetry_Int_Tables_number   1
_chemical_formula_structural   Sb14Mo5Au
_chemical_formula_sum   'Sb14 Mo5 Au1'
_cell_volume   458.94554245
_cell_formula_units_Z   1
loop_
 _symmetry_equiv_pos_site_id
 _symmetry_equiv_pos_as_xyz
  1  'x, y, z'
loop_
 _atom_site_type_symbol
 _atom_site_label
 _atom_site_symmetry_multiplicity
 _atom_site_fract_x
 _atom_site_fract_y
 _atom_site_fract_z
 _atom_site_occupancy
  Sb  Sb0  1  0.749508  0.249508  0.500000  1
  Sb  Sb1  1  0.511851  0.253297  0.741447  1
  Sb  Sb2  1  0.511851  0.770404  0.258553  1
  Sb  Sb3  1  0.253297  0.511851  0.741447  1
  Sb  Sb4  1  0.770404  0.511851  0.258553  1
  Sb  Sb5  1  0.249508  0.749508  0.500000  1
  Sb  Sb6  1  0.324270  0.324270  0.338509  1
  Sb  Sb7  1  0.998330  0.998330  0.322988  1
  Sb  Sb8  1  0.324270  0.985761  0.000000  1
  Sb  Sb9  1  0.985761  0.324270  0.000000  1
  Sb  Sb10  1  0.675341  0.998330  0.000000  1
  Sb  Sb11  1  0.998330  0.675341  0.000000  1
  Sb  Sb12  1  0.985761  0.985761  0.661491  1
  Sb  Sb13  1  0.675341  0.675341  0.677012  1
  Mo  Mo14  1  0.000047  0.340735  0.340688  1
  Mo  Mo15  1  0.000047  0.659359  0.659312  1
  Mo  Mo16  1  0.659359  0.000047  0.659312  1
  Mo  Mo17  1  0.340735  0.000047  0.340688  1
  Mo  Mo18  1  0.651232  0.651232  0.000000  1
  Au  Au19  1  0.334759  0.334759  0.000000  1
