# generated using pymatgen
data_Ce4Al6ZnRu
_symmetry_space_group_name_H-M   'P 1'
_cell_length_a   5.69883000
_cell_length_b   5.69883125
_cell_length_c   8.59856400
_cell_angle_alpha   90.00000000
_cell_angle_beta   90.00000000
_cell_angle_gamma   119.99999272
_symmetry_Int_Tables_number   1
_chemical_formula_structural   Ce4Al6ZnRu
_chemical_formula_sum   'Ce4 Al6 Zn1 Ru1'
_cell_volume   241.83997594
_cell_formula_units_Z   1
loop_
 _symmetry_equiv_pos_site_id
 _symmetry_equiv_pos_as_xyz
  1  'x, y, z'
loop_
 _atom_site_type_symbol
 _atom_site_label
 _atom_site_symmetry_multiplicity
 _atom_site_fract_x
 _atom_site_fract_y
 _atom_site_fract_z
 _atom_site_occupancy
  Ce  Ce0  1  0.333333  0.666667  0.917303  1
  Ce  Ce1  1  0.666667  0.333333  0.082697  1
  Ce  Ce2  1  0.666667  0.333333  0.412802  1
  Ce  Ce3  1  0.333333  0.666667  0.587198  1
  Al  Al4  1  0.834923  0.165077  0.741794  1
  Al  Al5  1  0.834923  0.669845  0.741794  1
  Al  Al6  1  0.330155  0.165077  0.741794  1
  Al  Al7  1  0.165077  0.834923  0.258206  1
  Al  Al8  1  0.165077  0.330155  0.258206  1
  Al  Al9  1  0.669845  0.834923  0.258206  1
  Zn  Zn10  1  0.000000  0.000000  0.000000  1
  Ru  Ru11  1  0.000000  0.000000  0.500000  1
