# generated using pymatgen
data_MnNb8CoTe8
_symmetry_space_group_name_H-M   'P 1'
_cell_length_a   4.86561100
_cell_length_b   11.27844810
_cell_length_c   19.95025400
_cell_angle_alpha   90.00770145
_cell_angle_beta   90.00000000
_cell_angle_gamma   90.00000000
_symmetry_Int_Tables_number   1
_chemical_formula_structural   MnNb8CoTe8
_chemical_formula_sum   'Mn2 Nb16 Co2 Te16'
_cell_volume   1094.80092464
_cell_formula_units_Z   2
loop_
 _symmetry_equiv_pos_site_id
 _symmetry_equiv_pos_as_xyz
  1  'x, y, z'
loop_
 _atom_site_type_symbol
 _atom_site_label
 _atom_site_symmetry_multiplicity
 _atom_site_fract_x
 _atom_site_fract_y
 _atom_site_fract_z
 _atom_site_occupancy
  Mn  Mn0  1  0.749535  0.500000  0.500000  1
  Mn  Mn1  1  0.249779  0.000000  0.000000  1
  Nb  Nb2  1  0.498547  0.562579  0.388406  1
  Nb  Nb3  1  0.498547  0.437421  0.611594  1
  Nb  Nb4  1  0.501305  0.062566  0.111547  1
  Nb  Nb5  1  0.501305  0.937434  0.888453  1
  Nb  Nb6  1  0.498467  0.697667  0.535151  1
  Nb  Nb7  1  0.498467  0.302333  0.464849  1
  Nb  Nb8  1  0.501395  0.197515  0.964858  1
  Nb  Nb9  1  0.501395  0.802485  0.035142  1
  Nb  Nb10  1  0.002551  0.684082  0.445880  1
  Nb  Nb11  1  0.002551  0.315918  0.554120  1
  Nb  Nb12  1  0.997794  0.183960  0.054085  1
  Nb  Nb13  1  0.997794  0.816040  0.945915  1
  Nb  Nb14  1  0.001817  0.404672  0.396188  1
  Nb  Nb15  1  0.001817  0.595328  0.603812  1
  Nb  Nb16  1  0.998301  0.904687  0.103763  1
  Nb  Nb17  1  0.998301  0.095313  0.896237  1
  Co  Co18  1  0.750175  0.000000  0.000000  1
  Co  Co19  1  0.249823  0.500000  0.500000  1
  Te  Te20  1  0.001864  0.836506  0.560191  1
  Te  Te21  1  0.001864  0.163494  0.439809  1
  Te  Te22  1  0.997878  0.336267  0.939896  1
  Te  Te23  1  0.997878  0.663733  0.060104  1
  Te  Te24  1  0.498408  0.337262  0.323253  1
  Te  Te25  1  0.498408  0.662738  0.676747  1
  Te  Te26  1  0.501823  0.837382  0.176667  1
  Te  Te27  1  0.501823  0.162618  0.823333  1
  Te  Te28  1  0.499246  0.813616  0.407880  1
  Te  Te29  1  0.499246  0.186384  0.592120  1
  Te  Te30  1  0.501228  0.313368  0.092016  1
  Te  Te31  1  0.501228  0.686632  0.907984  1
  Te  Te32  1  0.002048  0.606452  0.309730  1
  Te  Te33  1  0.002048  0.393548  0.690270  1
  Te  Te34  1  0.997672  0.106380  0.190161  1
  Te  Te35  1  0.997672  0.893620  0.809839  1
