# generated using pymatgen
data_CeHo7(HfIr3)2
_symmetry_space_group_name_H-M   'P 1'
_cell_length_a   10.81426930
_cell_length_b   10.85201800
_cell_length_c   6.21555464
_cell_angle_alpha   90.00000000
_cell_angle_beta   89.48634054
_cell_angle_gamma   90.00000000
_symmetry_Int_Tables_number   1
_chemical_formula_structural   CeHo7(HfIr3)2
_chemical_formula_sum   'Ce2 Ho14 Hf4 Ir12'
_cell_volume   729.40732741
_cell_formula_units_Z   2
loop_
 _symmetry_equiv_pos_site_id
 _symmetry_equiv_pos_as_xyz
  1  'x, y, z'
loop_
 _atom_site_type_symbol
 _atom_site_label
 _atom_site_symmetry_multiplicity
 _atom_site_fract_x
 _atom_site_fract_y
 _atom_site_fract_z
 _atom_site_occupancy
  Ce  Ce0  1  0.290321  0.089071  0.377749  1
  Ce  Ce1  1  0.290321  0.910929  0.877749  1
  Ho  Ho2  1  0.708249  0.086071  0.871267  1
  Ho  Ho3  1  0.708249  0.913929  0.371267  1
  Ho  Ho4  1  0.588687  0.786862  0.871807  1
  Ho  Ho5  1  0.588687  0.213138  0.371807  1
  Ho  Ho6  1  0.416454  0.784007  0.375177  1
  Ho  Ho7  1  0.416454  0.215993  0.875177  1
  Ho  Ho8  1  0.210557  0.415207  0.626611  1
  Ho  Ho9  1  0.210557  0.584793  0.126611  1
  Ho  Ho10  1  0.789811  0.414757  0.125281  1
  Ho  Ho11  1  0.789811  0.585243  0.625281  1
  Ho  Ho12  1  0.914375  0.711112  0.124889  1
  Ho  Ho13  1  0.914375  0.288888  0.624889  1
  Ho  Ho14  1  0.084938  0.711002  0.624777  1
  Ho  Ho15  1  0.084938  0.288998  0.124777  1
  Hf  Hf16  1  0.996308  0.998911  0.499311  1
  Hf  Hf17  1  0.996308  0.001089  0.999311  1
  Hf  Hf18  1  0.502531  0.500145  0.003935  1
  Hf  Hf19  1  0.502531  0.499855  0.503935  1
  Ir  Ir20  1  0.854583  0.143020  0.249376  1
  Ir  Ir21  1  0.854583  0.856980  0.749376  1
  Ir  Ir22  1  0.143957  0.142813  0.744772  1
  Ir  Ir23  1  0.143957  0.857187  0.244772  1
  Ir  Ir24  1  0.644821  0.356112  0.750900  1
  Ir  Ir25  1  0.644821  0.643888  0.250900  1
  Ir  Ir26  1  0.357773  0.358570  0.254230  1
  Ir  Ir27  1  0.357773  0.641430  0.754230  1
  Ir  Ir28  1  0.496520  0.000668  0.117972  1
  Ir  Ir29  1  0.496520  0.999332  0.617972  1
  Ir  Ir30  1  0.000115  0.499210  0.881947  1
  Ir  Ir31  1  0.000115  0.500790  0.381947  1
