# generated using pymatgen
data_Cs2Ti5(TcTe2)7
_symmetry_space_group_name_H-M   'P 1'
_cell_length_a   10.37102921
_cell_length_b   10.40774744
_cell_length_c   10.33813497
_cell_angle_alpha   61.95812945
_cell_angle_beta   62.11597013
_cell_angle_gamma   62.33943094
_symmetry_Int_Tables_number   1
_chemical_formula_structural   Cs2Ti5(TcTe2)7
_chemical_formula_sum   'Cs2 Ti5 Tc7 Te14'
_cell_volume   826.72827998
_cell_formula_units_Z   1
loop_
 _symmetry_equiv_pos_site_id
 _symmetry_equiv_pos_as_xyz
  1  'x, y, z'
loop_
 _atom_site_type_symbol
 _atom_site_label
 _atom_site_symmetry_multiplicity
 _atom_site_fract_x
 _atom_site_fract_y
 _atom_site_fract_z
 _atom_site_occupancy
  Cs  Cs0  1  0.615401  0.616491  0.616078  1
  Cs  Cs1  1  0.383517  0.382536  0.385645  1
  Ti  Ti2  1  0.689762  0.888743  0.005199  1
  Ti  Ti3  1  0.013751  0.689754  0.885328  1
  Ti  Ti4  1  0.881697  0.003405  0.702426  1
  Ti  Ti5  1  0.304694  0.107448  0.004648  1
  Ti  Ti6  1  0.995020  0.293608  0.127167  1
  Tc  Tc7  1  0.121444  0.003420  0.284725  1
  Tc  Tc8  1  0.937121  0.815669  0.096665  1
  Tc  Tc9  1  0.100906  0.942040  0.810948  1
  Tc  Tc10  1  0.816195  0.102622  0.937409  1
  Tc  Tc11  1  0.061387  0.185317  0.897123  1
  Tc  Tc12  1  0.898884  0.060029  0.183745  1
  Tc  Tc13  1  0.183490  0.899484  0.060285  1
  Te  Te14  1  0.411257  0.806483  0.177890  1
  Te  Te15  1  0.167094  0.418966  0.812271  1
  Te  Te16  1  0.816793  0.161419  0.418607  1
  Te  Te17  1  0.579238  0.192630  0.831021  1
  Te  Te18  1  0.828777  0.581628  0.190377  1
  Te  Te19  1  0.189221  0.837663  0.573173  1
  Te  Te20  1  0.651871  0.985730  0.239598  1
  Te  Te21  1  0.240419  0.653649  0.984820  1
  Te  Te22  1  0.987797  0.240646  0.647687  1
  Te  Te23  1  0.348730  0.015687  0.759659  1
  Te  Te24  1  0.763019  0.348325  0.012062  1
  Te  Te25  1  0.013152  0.764413  0.350929  1
  Te  Te26  1  0.773441  0.773180  0.777772  1
  Te  Te27  1  0.225923  0.229016  0.226743  1
