# generated using pymatgen
data_TlIr3RhPb3O13
_symmetry_space_group_name_H-M   'P 1'
_cell_length_a   7.32285854
_cell_length_b   7.32285855
_cell_length_c   7.32285827
_cell_angle_alpha   60.08423077
_cell_angle_beta   60.08421800
_cell_angle_gamma   60.08423805
_symmetry_Int_Tables_number   1
_chemical_formula_structural   TlIr3RhPb3O13
_chemical_formula_sum   'Tl1 Ir3 Rh1 Pb3 O13'
_cell_volume   278.19867208
_cell_formula_units_Z   1
loop_
 _symmetry_equiv_pos_site_id
 _symmetry_equiv_pos_as_xyz
  1  'x, y, z'
loop_
 _atom_site_type_symbol
 _atom_site_label
 _atom_site_symmetry_multiplicity
 _atom_site_fract_x
 _atom_site_fract_y
 _atom_site_fract_z
 _atom_site_occupancy
  Tl  Tl0  1  0.997516  0.997516  0.997516  1
  Ir  Ir1  1  0.998910  0.500193  0.500193  1
  Ir  Ir2  1  0.500193  0.500193  0.998910  1
  Ir  Ir3  1  0.500193  0.998910  0.500193  1
  Rh  Rh4  1  0.499639  0.499639  0.499639  1
  Pb  Pb5  1  0.504668  0.999196  0.999196  1
  Pb  Pb6  1  0.999196  0.999196  0.504668  1
  Pb  Pb7  1  0.999196  0.504668  0.999196  1
  O  O8  1  0.830961  0.421429  0.421429  1
  O  O9  1  0.420918  0.825750  0.825750  1
  O  O10  1  0.421429  0.421429  0.830961  1
  O  O11  1  0.825750  0.825750  0.420918  1
  O  O12  1  0.825750  0.420918  0.825750  1
  O  O13  1  0.421429  0.830961  0.421429  1
  O  O14  1  0.169935  0.576437  0.576437  1
  O  O15  1  0.577550  0.175066  0.175066  1
  O  O16  1  0.576437  0.576437  0.169935  1
  O  O17  1  0.175066  0.175066  0.577550  1
  O  O18  1  0.175066  0.577550  0.175066  1
  O  O19  1  0.576437  0.169935  0.576437  1
  O  O20  1  0.128762  0.128762  0.128762  1
