# generated using pymatgen
data_YbPrCu10
_symmetry_space_group_name_H-M   'P 1'
_cell_length_a   4.08838200
_cell_length_b   5.09238700
_cell_length_c   8.82856800
_cell_angle_alpha   90.00000000
_cell_angle_beta   90.00000000
_cell_angle_gamma   90.00000000
_symmetry_Int_Tables_number   1
_chemical_formula_structural   YbPrCu10
_chemical_formula_sum   'Yb1 Pr1 Cu10'
_cell_volume   183.80746046
_cell_formula_units_Z   1
loop_
 _symmetry_equiv_pos_site_id
 _symmetry_equiv_pos_as_xyz
  1  'x, y, z'
loop_
 _atom_site_type_symbol
 _atom_site_label
 _atom_site_symmetry_multiplicity
 _atom_site_fract_x
 _atom_site_fract_y
 _atom_site_fract_z
 _atom_site_occupancy
  Yb  Yb0  1  0.000000  0.999989  0.000000  1
  Pr  Pr1  1  0.000000  0.499936  0.500000  1
  Cu  Cu2  1  0.000000  0.999973  0.326392  1
  Cu  Cu3  1  0.000000  0.499928  0.839224  1
  Cu  Cu4  1  0.000000  0.499928  0.160776  1
  Cu  Cu5  1  0.000000  0.999973  0.673608  1
  Cu  Cu6  1  0.500000  0.999830  0.500000  1
  Cu  Cu7  1  0.500000  0.500363  0.000000  1
  Cu  Cu8  1  0.500000  0.249801  0.246651  1
  Cu  Cu9  1  0.500000  0.750140  0.753283  1
  Cu  Cu10  1  0.500000  0.750140  0.246717  1
  Cu  Cu11  1  0.500000  0.249801  0.753349  1
