# generated using pymatgen
data_Zn3P6IN12
_symmetry_space_group_name_H-M   'P 1'
_cell_length_a   7.25708331
_cell_length_b   7.25708290
_cell_length_c   7.25708322
_cell_angle_alpha   109.49638641
_cell_angle_beta   109.49638571
_cell_angle_gamma   109.49637141
_symmetry_Int_Tables_number   1
_chemical_formula_structural   Zn3P6IN12
_chemical_formula_sum   'Zn3 P6 I1 N12'
_cell_volume   293.94033254
_cell_formula_units_Z   1
loop_
 _symmetry_equiv_pos_site_id
 _symmetry_equiv_pos_as_xyz
  1  'x, y, z'
loop_
 _atom_site_type_symbol
 _atom_site_label
 _atom_site_symmetry_multiplicity
 _atom_site_fract_x
 _atom_site_fract_y
 _atom_site_fract_z
 _atom_site_occupancy
  Zn  Zn0  1  0.000654  0.376582  0.000654  1
  Zn  Zn1  1  0.000654  0.000654  0.376582  1
  Zn  Zn2  1  0.376582  0.000654  0.000654  1
  P  P3  1  0.498534  0.253535  0.748379  1
  P  P4  1  0.253535  0.748379  0.498534  1
  P  P5  1  0.748379  0.498534  0.253535  1
  P  P6  1  0.748379  0.253535  0.498534  1
  P  P7  1  0.498534  0.748379  0.253535  1
  P  P8  1  0.253535  0.498534  0.748379  1
  I  I9  1  0.994273  0.994273  0.994273  1
  N  N10  1  0.436342  0.718192  0.436342  1
  N  N11  1  0.718192  0.436342  0.436342  1
  N  N12  1  0.436342  0.436342  0.718192  1
  N  N13  1  0.722644  0.280687  0.722644  1
  N  N14  1  0.998969  0.559470  0.276604  1
  N  N15  1  0.276604  0.559470  0.998969  1
  N  N16  1  0.276604  0.998969  0.559470  1
  N  N17  1  0.998969  0.276604  0.559470  1
  N  N18  1  0.722644  0.722644  0.280687  1
  N  N19  1  0.559470  0.998969  0.276604  1
  N  N20  1  0.280687  0.722644  0.722644  1
  N  N21  1  0.559470  0.276604  0.998969  1
