# generated using pymatgen
data_Hf20Cu4(AsP3)3
_symmetry_space_group_name_H-M   'P 1'
_cell_length_a   3.62847100
_cell_length_b   10.19237442
_cell_length_c   17.27721775
_cell_angle_alpha   90.03340146
_cell_angle_beta   90.00000000
_cell_angle_gamma   90.00000000
_symmetry_Int_Tables_number   1
_chemical_formula_structural   Hf20Cu4(AsP3)3
_chemical_formula_sum   'Hf20 Cu4 As3 P9'
_cell_volume   638.95865731
_cell_formula_units_Z   1
loop_
 _symmetry_equiv_pos_site_id
 _symmetry_equiv_pos_as_xyz
  1  'x, y, z'
loop_
 _atom_site_type_symbol
 _atom_site_label
 _atom_site_symmetry_multiplicity
 _atom_site_fract_x
 _atom_site_fract_y
 _atom_site_fract_z
 _atom_site_occupancy
  Hf  Hf0  1  0.250000  0.119656  0.476663  1
  Hf  Hf1  1  0.750000  0.880320  0.522912  1
  Hf  Hf2  1  0.750000  0.619866  0.023330  1
  Hf  Hf3  1  0.250000  0.380182  0.977709  1
  Hf  Hf4  1  0.250000  0.070331  0.080328  1
  Hf  Hf5  1  0.750000  0.931813  0.921807  1
  Hf  Hf6  1  0.750000  0.567876  0.421489  1
  Hf  Hf7  1  0.250000  0.431495  0.577896  1
  Hf  Hf8  1  0.250000  0.483872  0.268617  1
  Hf  Hf9  1  0.750000  0.514913  0.731080  1
  Hf  Hf10  1  0.750000  0.991804  0.230055  1
  Hf  Hf11  1  0.250000  0.015024  0.769084  1
  Hf  Hf12  1  0.250000  0.820645  0.370931  1
  Hf  Hf13  1  0.750000  0.179444  0.628647  1
  Hf  Hf14  1  0.750000  0.316868  0.132223  1
  Hf  Hf15  1  0.250000  0.679299  0.871272  1
  Hf  Hf16  1  0.250000  0.751665  0.167408  1
  Hf  Hf17  1  0.750000  0.248427  0.833148  1
  Hf  Hf18  1  0.750000  0.250005  0.329193  1
  Hf  Hf19  1  0.250000  0.748453  0.667029  1
  Cu  Cu20  1  0.250000  0.371950  0.415267  1
  Cu  Cu21  1  0.750000  0.626767  0.583652  1
  Cu  Cu22  1  0.750000  0.873884  0.084121  1
  Cu  Cu23  1  0.250000  0.126729  0.916749  1
  As  As24  1  0.750000  0.807993  0.779184  1
  As  As25  1  0.750000  0.691775  0.279053  1
  As  As26  1  0.250000  0.307998  0.720882  1
  P  P27  1  0.250000  0.811404  0.007671  1
  P  P28  1  0.750000  0.189073  0.993282  1
  P  P29  1  0.750000  0.310820  0.491704  1
  P  P30  1  0.250000  0.688856  0.507233  1
  P  P31  1  0.250000  0.507759  0.115341  1
  P  P32  1  0.750000  0.490950  0.885236  1
  P  P33  1  0.750000  0.008862  0.384667  1
  P  P34  1  0.250000  0.991175  0.615029  1
  P  P35  1  0.250000  0.192048  0.220109  1
