# generated using pymatgen
data_CaVZnP2O9
_symmetry_space_group_name_H-M   'P 1'
_cell_length_a   6.49950000
_cell_length_b   7.52056200
_cell_length_c   14.37505800
_cell_angle_alpha   90.00000000
_cell_angle_beta   90.00000000
_cell_angle_gamma   90.00000000
_symmetry_Int_Tables_number   1
_chemical_formula_structural   CaVZnP2O9
_chemical_formula_sum   'Ca4 V4 Zn4 P8 O36'
_cell_volume   702.65129287
_cell_formula_units_Z   4
loop_
 _symmetry_equiv_pos_site_id
 _symmetry_equiv_pos_as_xyz
  1  'x, y, z'
loop_
 _atom_site_type_symbol
 _atom_site_label
 _atom_site_symmetry_multiplicity
 _atom_site_fract_x
 _atom_site_fract_y
 _atom_site_fract_z
 _atom_site_occupancy
  Ca  Ca0  1  0.750000  0.882585  0.778691  1
  Ca  Ca1  1  0.750000  0.617415  0.278691  1
  Ca  Ca2  1  0.250000  0.117415  0.221309  1
  Ca  Ca3  1  0.250000  0.382585  0.721309  1
  V  V4  1  0.750000  0.347607  0.882452  1
  V  V5  1  0.250000  0.652393  0.117548  1
  V  V6  1  0.250000  0.847607  0.617548  1
  V  V7  1  0.750000  0.152393  0.382452  1
  Zn  Zn8  1  0.500000  0.000000  0.000000  1
  Zn  Zn9  1  0.500000  0.500000  0.500000  1
  Zn  Zn10  1  0.000000  0.500000  0.500000  1
  Zn  Zn11  1  0.000000  0.000000  0.000000  1
  P  P12  1  0.250000  0.352838  0.937444  1
  P  P13  1  0.750000  0.647162  0.062556  1
  P  P14  1  0.750000  0.852838  0.562556  1
  P  P15  1  0.250000  0.147162  0.437444  1
  P  P16  1  0.750000  0.384715  0.693082  1
  P  P17  1  0.250000  0.615285  0.306918  1
  P  P18  1  0.250000  0.884715  0.806918  1
  P  P19  1  0.750000  0.115285  0.193082  1
  O  O20  1  0.052405  0.607696  0.366105  1
  O  O21  1  0.552405  0.392304  0.633895  1
  O  O22  1  0.947595  0.107696  0.133895  1
  O  O23  1  0.447595  0.892304  0.866105  1
  O  O24  1  0.947595  0.392304  0.633895  1
  O  O25  1  0.447595  0.607696  0.366105  1
  O  O26  1  0.052405  0.892304  0.866105  1
  O  O27  1  0.552405  0.107696  0.133895  1
  O  O28  1  0.250000  0.332356  0.484309  1
  O  O29  1  0.750000  0.667644  0.515691  1
  O  O30  1  0.750000  0.832356  0.015691  1
  O  O31  1  0.250000  0.167644  0.984309  1
  O  O32  1  0.750000  0.145103  0.937536  1
  O  O33  1  0.250000  0.854897  0.062464  1
  O  O34  1  0.250000  0.645103  0.562464  1
  O  O35  1  0.750000  0.354897  0.437536  1
  O  O36  1  0.750000  0.213003  0.755410  1
  O  O37  1  0.250000  0.786997  0.244590  1
  O  O38  1  0.250000  0.713003  0.744590  1
  O  O39  1  0.750000  0.286997  0.255410  1
  O  O40  1  0.437356  0.129992  0.370335  1
  O  O41  1  0.937356  0.870008  0.629665  1
  O  O42  1  0.562644  0.629992  0.129665  1
  O  O43  1  0.062644  0.370008  0.870335  1
  O  O44  1  0.562644  0.870008  0.629665  1
  O  O45  1  0.062644  0.129992  0.370335  1
  O  O46  1  0.437356  0.370008  0.870335  1
  O  O47  1  0.937356  0.629992  0.129665  1
  O  O48  1  0.750000  0.966445  0.270605  1
  O  O49  1  0.250000  0.033555  0.729395  1
  O  O50  1  0.250000  0.466445  0.229395  1
  O  O51  1  0.750000  0.533555  0.770605  1
  O  O52  1  0.750000  0.993257  0.486434  1
  O  O53  1  0.250000  0.006743  0.513566  1
  O  O54  1  0.250000  0.493257  0.013566  1
  O  O55  1  0.750000  0.506743  0.986434  1
