# generated using pymatgen
data_ReTe29
_symmetry_space_group_name_H-M   'P 1'
_cell_length_a   8.35598517
_cell_length_b   10.78153115
_cell_length_c   12.88687000
_cell_angle_alpha   73.56637266
_cell_angle_beta   80.54589777
_cell_angle_gamma   67.34307514
_symmetry_Int_Tables_number   1
_chemical_formula_structural   ReTe29
_chemical_formula_sum   'Re1 Te29'
_cell_volume   1025.61258970
_cell_formula_units_Z   1
loop_
 _symmetry_equiv_pos_site_id
 _symmetry_equiv_pos_as_xyz
  1  'x, y, z'
loop_
 _atom_site_type_symbol
 _atom_site_label
 _atom_site_symmetry_multiplicity
 _atom_site_fract_x
 _atom_site_fract_y
 _atom_site_fract_z
 _atom_site_occupancy
  Re  Re0  1  0.000000  0.000000  0.000000  1
  Te  Te1  1  0.500000  0.000000  0.000000  1
  Te  Te2  1  0.101096  0.200753  0.202055  1
  Te  Te3  1  0.699429  0.401914  0.399037  1
  Te  Te4  1  0.300571  0.598086  0.600963  1
  Te  Te5  1  0.597637  0.200749  0.201853  1
  Te  Te6  1  0.898904  0.799247  0.797945  1
  Te  Te7  1  0.200960  0.399092  0.399301  1
  Te  Te8  1  0.799040  0.600908  0.600699  1
  Te  Te9  1  0.402363  0.799251  0.798147  1
  Te  Te10  1  0.222417  0.083000  0.843978  1
  Te  Te11  1  0.652834  0.702692  0.976737  1
  Te  Te12  1  0.863952  0.262051  0.024990  1
  Te  Te13  1  0.225741  0.917011  0.156033  1
  Te  Te14  1  0.445920  0.500275  0.222871  1
  Te  Te15  1  0.774259  0.082989  0.843967  1
  Te  Te16  1  0.855277  0.100400  0.377555  1
  Te  Te17  1  0.136048  0.737949  0.975010  1
  Te  Te18  1  0.047647  0.696126  0.422417  1
  Te  Te19  1  0.347166  0.297308  0.023263  1
  Te  Te20  1  0.777583  0.917000  0.156022  1
  Te  Te21  1  0.454158  0.303794  0.575341  1
  Te  Te22  1  0.642812  0.904516  0.619187  1
  Te  Te23  1  0.944958  0.500162  0.221963  1
  Te  Te24  1  0.055042  0.499838  0.778037  1
  Te  Te25  1  0.357188  0.095484  0.380813  1
  Te  Te26  1  0.545842  0.696206  0.424659  1
  Te  Te27  1  0.952353  0.303874  0.577583  1
  Te  Te28  1  0.144723  0.899600  0.622445  1
  Te  Te29  1  0.554080  0.499725  0.777129  1
