# generated using pymatgen
data_Tb4TcNiRu6
_symmetry_space_group_name_H-M   'P 1'
_cell_length_a   5.26869186
_cell_length_b   5.37918393
_cell_length_c   8.94932900
_cell_angle_alpha   90.00000000
_cell_angle_beta   90.00000000
_cell_angle_gamma   122.24688344
_symmetry_Int_Tables_number   1
_chemical_formula_structural   Tb4TcNiRu6
_chemical_formula_sum   'Tb4 Tc1 Ni1 Ru6'
_cell_volume   214.51377700
_cell_formula_units_Z   1
loop_
 _symmetry_equiv_pos_site_id
 _symmetry_equiv_pos_as_xyz
  1  'x, y, z'
loop_
 _atom_site_type_symbol
 _atom_site_label
 _atom_site_symmetry_multiplicity
 _atom_site_fract_x
 _atom_site_fract_y
 _atom_site_fract_z
 _atom_site_occupancy
  Tb  Tb0  1  0.329422  0.661759  0.430996  1
  Tb  Tb1  1  0.657473  0.327704  0.562356  1
  Tb  Tb2  1  0.657473  0.327704  0.937644  1
  Tb  Tb3  1  0.329422  0.661759  0.069004  1
  Tc  Tc4  1  0.680665  0.840977  0.750000  1
  Ni  Ni5  1  0.835574  0.165563  0.250000  1
  Ru  Ru6  1  0.986411  0.989915  0.498119  1
  Ru  Ru7  1  0.986411  0.989915  0.001881  1
  Ru  Ru8  1  0.830745  0.671101  0.250000  1
  Ru  Ru9  1  0.349327  0.179937  0.250000  1
  Ru  Ru10  1  0.174305  0.828033  0.750000  1
  Ru  Ru11  1  0.182772  0.355634  0.750000  1
