# generated using pymatgen
data_Ca2DyEr(ReB4)4
_symmetry_space_group_name_H-M   'P 1'
_cell_length_a   3.60060000
_cell_length_b   5.98289781
_cell_length_c   11.57012624
_cell_angle_alpha   89.93897439
_cell_angle_beta   90.00000000
_cell_angle_gamma   90.00000000
_symmetry_Int_Tables_number   1
_chemical_formula_structural   Ca2DyEr(ReB4)4
_chemical_formula_sum   'Ca2 Dy1 Er1 Re4 B16'
_cell_volume   249.24377088
_cell_formula_units_Z   1
loop_
 _symmetry_equiv_pos_site_id
 _symmetry_equiv_pos_as_xyz
  1  'x, y, z'
loop_
 _atom_site_type_symbol
 _atom_site_label
 _atom_site_symmetry_multiplicity
 _atom_site_fract_x
 _atom_site_fract_y
 _atom_site_fract_z
 _atom_site_occupancy
  Ca  Ca0  1  0.500000  0.127129  0.849668  1
  Ca  Ca1  1  0.500000  0.372715  0.349720  1
  Dy  Dy2  1  0.500000  0.872339  0.150432  1
  Er  Er3  1  0.500000  0.627556  0.650248  1
  Re  Re4  1  0.500000  0.868053  0.415876  1
  Re  Re5  1  0.500000  0.131168  0.585280  1
  Re  Re6  1  0.500000  0.369386  0.084513  1
  Re  Re7  1  0.500000  0.631524  0.914992  1
  B  B8  1  0.000000  0.523443  0.192068  1
  B  B9  1  0.000000  0.477836  0.807326  1
  B  B10  1  0.000000  0.022466  0.308212  1
  B  B11  1  0.000000  0.976345  0.692420  1
  B  B12  1  0.000000  0.612992  0.046803  1
  B  B13  1  0.000000  0.385768  0.952059  1
  B  B14  1  0.000000  0.114345  0.452809  1
  B  B15  1  0.000000  0.886398  0.547687  1
  B  B16  1  0.000000  0.635925  0.468797  1
  B  B17  1  0.000000  0.364127  0.532416  1
  B  B18  1  0.000000  0.136111  0.031787  1
  B  B19  1  0.000000  0.863800  0.967879  1
  B  B20  1  0.000000  0.715120  0.315492  1
  B  B21  1  0.000000  0.286294  0.684524  1
  B  B22  1  0.000000  0.214249  0.184359  1
  B  B23  1  0.000000  0.784914  0.814631  1
