# generated using pymatgen
data_Ac7Sm10Er3Pb16
_symmetry_space_group_name_H-M   'P 1'
_cell_length_a   8.50266252
_cell_length_b   8.61210530
_cell_length_c   16.35780593
_cell_angle_alpha   90.09071106
_cell_angle_beta   90.34914804
_cell_angle_gamma   89.55349770
_symmetry_Int_Tables_number   1
_chemical_formula_structural   Ac7Sm10Er3Pb16
_chemical_formula_sum   'Ac7 Sm10 Er3 Pb16'
_cell_volume   1197.75381079
_cell_formula_units_Z   1
loop_
 _symmetry_equiv_pos_site_id
 _symmetry_equiv_pos_as_xyz
  1  'x, y, z'
loop_
 _atom_site_type_symbol
 _atom_site_label
 _atom_site_symmetry_multiplicity
 _atom_site_fract_x
 _atom_site_fract_y
 _atom_site_fract_z
 _atom_site_occupancy
  Ac  Ac0  1  0.018291  0.177284  0.598179  1
  Ac  Ac1  1  0.481953  0.677363  0.403422  1
  Ac  Ac2  1  0.981777  0.821412  0.094360  1
  Ac  Ac3  1  0.481081  0.674728  0.095536  1
  Ac  Ac4  1  0.982209  0.823377  0.404272  1
  Ac  Ac5  1  0.516841  0.322843  0.596137  1
  Ac  Ac6  1  0.018909  0.179162  0.904201  1
  Sm  Sm7  1  0.360313  0.843030  0.877727  1
  Sm  Sm8  1  0.856065  0.656214  0.622781  1
  Sm  Sm9  1  0.641586  0.157532  0.376524  1
  Sm  Sm10  1  0.140218  0.344791  0.120404  1
  Sm  Sm11  1  0.638090  0.157734  0.121960  1
  Sm  Sm12  1  0.142346  0.343754  0.377460  1
  Sm  Sm13  1  0.359351  0.843412  0.625005  1
  Sm  Sm14  1  0.857210  0.655338  0.879679  1
  Sm  Sm15  1  0.523994  0.322563  0.900133  1
  Sm  Sm16  1  0.193509  0.502858  0.751572  1
  Er  Er17  1  0.693672  0.997113  0.751834  1
  Er  Er18  1  0.805408  0.494773  0.248768  1
  Er  Er19  1  0.305958  0.004326  0.249692  1
  Pb  Pb20  1  0.305144  0.043914  0.045385  1
  Pb  Pb21  1  0.803196  0.455460  0.453403  1
  Pb  Pb22  1  0.695674  0.957308  0.547016  1
  Pb  Pb23  1  0.208231  0.536482  0.952707  1
  Pb  Pb24  1  0.694296  0.964564  0.952564  1
  Pb  Pb25  1  0.194664  0.546476  0.545452  1
  Pb  Pb26  1  0.304983  0.043202  0.454367  1
  Pb  Pb27  1  0.795205  0.451615  0.042415  1
  Pb  Pb28  1  0.556165  0.631121  0.752247  1
  Pb  Pb29  1  0.049835  0.868503  0.751525  1
  Pb  Pb30  1  0.445857  0.366586  0.249519  1
  Pb  Pb31  1  0.947770  0.133427  0.248457  1
  Pb  Pb32  1  0.336516  0.149475  0.754293  1
  Pb  Pb33  1  0.822787  0.352659  0.751818  1
  Pb  Pb34  1  0.670928  0.851626  0.249635  1
  Pb  Pb35  1  0.169969  0.647976  0.249554  1
