# generated using pymatgen
data_TbDy3Sc3AlPt4
_symmetry_space_group_name_H-M   'P 1'
_cell_length_a   4.53085700
_cell_length_b   7.04121486
_cell_length_c   8.30071026
_cell_angle_alpha   86.88520138
_cell_angle_beta   90.00000000
_cell_angle_gamma   90.00000000
_symmetry_Int_Tables_number   1
_chemical_formula_structural   TbDy3Sc3AlPt4
_chemical_formula_sum   'Tb1 Dy3 Sc3 Al1 Pt4'
_cell_volume   264.42416202
_cell_formula_units_Z   1
loop_
 _symmetry_equiv_pos_site_id
 _symmetry_equiv_pos_as_xyz
  1  'x, y, z'
loop_
 _atom_site_type_symbol
 _atom_site_label
 _atom_site_symmetry_multiplicity
 _atom_site_fract_x
 _atom_site_fract_y
 _atom_site_fract_z
 _atom_site_occupancy
  Tb  Tb0  1  0.750000  0.522419  0.814845  1
  Dy  Dy1  1  0.250000  0.468314  0.183681  1
  Dy  Dy2  1  0.750000  0.040299  0.672119  1
  Dy  Dy3  1  0.250000  0.987381  0.340769  1
  Sc  Sc4  1  0.250000  0.864940  0.928675  1
  Sc  Sc5  1  0.750000  0.132707  0.070253  1
  Sc  Sc6  1  0.750000  0.637866  0.435282  1
  Al  Al7  1  0.250000  0.359860  0.567888  1
  Pt  Pt8  1  0.250000  0.729560  0.614253  1
  Pt  Pt9  1  0.750000  0.263177  0.383548  1
  Pt  Pt10  1  0.750000  0.748478  0.100329  1
  Pt  Pt11  1  0.250000  0.244998  0.888357  1
