# generated using pymatgen
data_Ho3Er5(BCl6)2
_symmetry_space_group_name_H-M   'P 1'
_cell_length_a   3.82987400
_cell_length_b   12.56151069
_cell_length_c   13.02455972
_cell_angle_alpha   90.03799260
_cell_angle_beta   90.00000000
_cell_angle_gamma   90.00000000
_symmetry_Int_Tables_number   1
_chemical_formula_structural   Ho3Er5(BCl6)2
_chemical_formula_sum   'Ho3 Er5 B2 Cl12'
_cell_volume   626.59844721
_cell_formula_units_Z   1
loop_
 _symmetry_equiv_pos_site_id
 _symmetry_equiv_pos_as_xyz
  1  'x, y, z'
loop_
 _atom_site_type_symbol
 _atom_site_label
 _atom_site_symmetry_multiplicity
 _atom_site_fract_x
 _atom_site_fract_y
 _atom_site_fract_z
 _atom_site_occupancy
  Ho  Ho0  1  0.500000  0.126098  0.851669  1
  Ho  Ho1  1  0.500000  0.873863  0.148373  1
  Ho  Ho2  1  0.500000  0.626095  0.648295  1
  Er  Er3  1  0.000000  0.105415  0.083528  1
  Er  Er4  1  0.000000  0.894574  0.916507  1
  Er  Er5  1  0.000000  0.605280  0.416460  1
  Er  Er6  1  0.000000  0.394589  0.583361  1
  Er  Er7  1  0.500000  0.374115  0.351908  1
  B  B8  1  0.500000  0.000054  0.000009  1
  B  B9  1  0.500000  0.499769  0.499747  1
  Cl  Cl10  1  0.500000  0.268355  0.682021  1
  Cl  Cl11  1  0.500000  0.731595  0.317912  1
  Cl  Cl12  1  0.500000  0.768320  0.817871  1
  Cl  Cl13  1  0.500000  0.232029  0.182490  1
  Cl  Cl14  1  0.000000  0.256851  0.930108  1
  Cl  Cl15  1  0.000000  0.743163  0.069937  1
  Cl  Cl16  1  0.000000  0.478337  0.243678  1
  Cl  Cl17  1  0.000000  0.521011  0.756639  1
  Cl  Cl18  1  0.000000  0.979029  0.256726  1
  Cl  Cl19  1  0.000000  0.021010  0.743290  1
  Cl  Cl20  1  0.000000  0.243675  0.429532  1
  Cl  Cl21  1  0.000000  0.756771  0.569937  1
