# generated using pymatgen
data_CuSb(PSe3)2
_symmetry_space_group_name_H-M   'P 1'
_cell_length_a   6.56108300
_cell_length_b   6.56108277
_cell_length_c   14.54577700
_cell_angle_alpha   90.00000000
_cell_angle_beta   90.00000000
_cell_angle_gamma   120.00000620
_symmetry_Int_Tables_number   1
_chemical_formula_structural   CuSb(PSe3)2
_chemical_formula_sum   'Cu2 Sb2 P4 Se12'
_cell_volume   542.27374512
_cell_formula_units_Z   2
loop_
 _symmetry_equiv_pos_site_id
 _symmetry_equiv_pos_as_xyz
  1  'x, y, z'
loop_
 _atom_site_type_symbol
 _atom_site_label
 _atom_site_symmetry_multiplicity
 _atom_site_fract_x
 _atom_site_fract_y
 _atom_site_fract_z
 _atom_site_occupancy
  Cu  Cu0  1  0.000000  0.000000  0.750000  1
  Cu  Cu1  1  0.000000  0.000000  0.250000  1
  Sb  Sb2  1  0.333333  0.666667  0.750000  1
  Sb  Sb3  1  0.666667  0.333333  0.250000  1
  P  P4  1  0.666667  0.333333  0.827993  1
  P  P5  1  0.666667  0.333333  0.672007  1
  P  P6  1  0.333333  0.666667  0.172007  1
  P  P7  1  0.333333  0.666667  0.327993  1
  Se  Se8  1  0.674354  0.977491  0.132258  1
  Se  Se9  1  0.696862  0.022509  0.632258  1
  Se  Se10  1  0.022509  0.325646  0.367742  1
  Se  Se11  1  0.977491  0.303138  0.867742  1
  Se  Se12  1  0.303138  0.977491  0.367742  1
  Se  Se13  1  0.325646  0.022509  0.867742  1
  Se  Se14  1  0.696862  0.674354  0.867742  1
  Se  Se15  1  0.022509  0.696862  0.132258  1
  Se  Se16  1  0.977491  0.674354  0.632258  1
  Se  Se17  1  0.303138  0.325646  0.132258  1
  Se  Se18  1  0.325646  0.303138  0.632258  1
  Se  Se19  1  0.674354  0.696862  0.367742  1
