# generated using pymatgen
data_Dy6Al24GaOs7
_symmetry_space_group_name_H-M   'P 1'
_cell_length_a   8.87395591
_cell_length_b   8.87395632
_cell_length_c   9.56432334
_cell_angle_alpha   90.13852070
_cell_angle_beta   89.86147718
_cell_angle_gamma   119.83300032
_symmetry_Int_Tables_number   1
_chemical_formula_structural   Dy6Al24GaOs7
_chemical_formula_sum   'Dy6 Al24 Ga1 Os7'
_cell_volume   653.35032731
_cell_formula_units_Z   1
loop_
 _symmetry_equiv_pos_site_id
 _symmetry_equiv_pos_as_xyz
  1  'x, y, z'
loop_
 _atom_site_type_symbol
 _atom_site_label
 _atom_site_symmetry_multiplicity
 _atom_site_fract_x
 _atom_site_fract_y
 _atom_site_fract_z
 _atom_site_occupancy
  Dy  Dy0  1  0.191708  0.385108  0.245549  1
  Dy  Dy1  1  0.808292  0.614892  0.754451  1
  Dy  Dy2  1  0.614892  0.808292  0.245549  1
  Dy  Dy3  1  0.385108  0.191708  0.754451  1
  Dy  Dy4  1  0.194381  0.805619  0.255969  1
  Dy  Dy5  1  0.805619  0.194381  0.744031  1
  Al  Al6  1  0.327251  0.672749  0.022145  1
  Al  Al7  1  0.672749  0.327251  0.977855  1
  Al  Al8  1  0.665894  0.334106  0.518551  1
  Al  Al9  1  0.334106  0.665894  0.481449  1
  Al  Al10  1  0.162568  0.325567  0.571727  1
  Al  Al11  1  0.837432  0.674433  0.428273  1
  Al  Al12  1  0.674433  0.837432  0.571727  1
  Al  Al13  1  0.853166  0.678973  0.082087  1
  Al  Al14  1  0.325567  0.162568  0.428273  1
  Al  Al15  1  0.146834  0.321027  0.917913  1
  Al  Al16  1  0.163044  0.836956  0.576224  1
  Al  Al17  1  0.321027  0.146834  0.082087  1
  Al  Al18  1  0.836956  0.163044  0.423776  1
  Al  Al19  1  0.678973  0.853166  0.917913  1
  Al  Al20  1  0.836797  0.163203  0.077376  1
  Al  Al21  1  0.163203  0.836797  0.922624  1
  Al  Al22  1  0.562023  0.121169  0.249601  1
  Al  Al23  1  0.437977  0.878831  0.750399  1
  Al  Al24  1  0.878831  0.437977  0.249601  1
  Al  Al25  1  0.121169  0.562023  0.750399  1
  Al  Al26  1  0.565675  0.434325  0.258059  1
  Al  Al27  1  0.434325  0.565675  0.741941  1
  Al  Al28  1  0.998707  0.001293  0.250547  1
  Al  Al29  1  0.001293  0.998707  0.749453  1
  Ga  Ga30  1  0.500000  0.500000  0.000000  1
  Os  Os31  1  0.500000  0.000000  0.000000  1
  Os  Os32  1  0.000000  0.500000  0.000000  1
  Os  Os33  1  0.500000  0.000000  0.500000  1
  Os  Os34  1  0.000000  0.500000  0.500000  1
  Os  Os35  1  0.500000  0.500000  0.500000  1
  Os  Os36  1  0.000000  0.000000  0.000000  1
  Os  Os37  1  0.000000  0.000000  0.500000  1
