# generated using pymatgen
data_Sr5Th(PaH12)2
_symmetry_space_group_name_H-M   'P 1'
_cell_length_a   6.96457600
_cell_length_b   7.12698500
_cell_length_c   6.96457600
_cell_angle_alpha   90.00000000
_cell_angle_beta   90.00000000
_cell_angle_gamma   90.00000000
_symmetry_Int_Tables_number   1
_chemical_formula_structural   Sr5Th(PaH12)2
_chemical_formula_sum   'Sr5 Th1 Pa2 H24'
_cell_volume   345.69667993
_cell_formula_units_Z   1
loop_
 _symmetry_equiv_pos_site_id
 _symmetry_equiv_pos_as_xyz
  1  'x, y, z'
loop_
 _atom_site_type_symbol
 _atom_site_label
 _atom_site_symmetry_multiplicity
 _atom_site_fract_x
 _atom_site_fract_y
 _atom_site_fract_z
 _atom_site_occupancy
  Sr  Sr0  1  0.248756  0.997140  0.500000  1
  Sr  Sr1  1  0.751244  0.997140  0.500000  1
  Sr  Sr2  1  0.000000  0.502860  0.251244  1
  Sr  Sr3  1  0.000000  0.502860  0.748756  1
  Sr  Sr4  1  0.500000  0.750000  0.000000  1
  Th  Th5  1  0.500000  0.250000  0.000000  1
  Pa  Pa6  1  0.000000  0.003079  0.000000  1
  Pa  Pa7  1  0.500000  0.496921  0.500000  1
  H  H8  1  0.000000  0.148702  0.274845  1
  H  H9  1  0.500000  0.226040  0.662225  1
  H  H10  1  0.500000  0.768051  0.351790  1
  H  H11  1  0.776231  0.645651  0.500000  1
  H  H12  1  0.223769  0.645651  0.500000  1
  H  H13  1  0.356360  0.479621  0.795445  1
  H  H14  1  0.643640  0.479621  0.795445  1
  H  H15  1  0.295445  0.020379  0.143640  1
  H  H16  1  0.162225  0.273960  0.000000  1
  H  H17  1  0.851790  0.731949  0.000000  1
  H  H18  1  0.295445  0.020379  0.856360  1
  H  H19  1  0.837775  0.273960  0.000000  1
  H  H20  1  0.704555  0.020379  0.143640  1
  H  H21  1  0.704555  0.020379  0.856360  1
  H  H22  1  0.148210  0.731949  0.000000  1
  H  H23  1  0.000000  0.854349  0.723769  1
  H  H24  1  0.000000  0.148702  0.725155  1
  H  H25  1  0.000000  0.854349  0.276231  1
  H  H26  1  0.643640  0.479621  0.204555  1
  H  H27  1  0.356360  0.479621  0.204555  1
  H  H28  1  0.774845  0.351298  0.500000  1
  H  H29  1  0.225155  0.351298  0.500000  1
  H  H30  1  0.500000  0.768051  0.648210  1
  H  H31  1  0.500000  0.226040  0.337775  1
