# generated using pymatgen
data_Cs(NiSe)3
_symmetry_space_group_name_H-M   'P 1'
_cell_length_a   9.39493600
_cell_length_b   9.39493579
_cell_length_c   4.37885600
_cell_angle_alpha   90.00000000
_cell_angle_beta   90.00000000
_cell_angle_gamma   120.00000074
_symmetry_Int_Tables_number   1
_chemical_formula_structural   Cs(NiSe)3
_chemical_formula_sum   'Cs2 Ni6 Se6'
_cell_volume   334.71789695
_cell_formula_units_Z   2
loop_
 _symmetry_equiv_pos_site_id
 _symmetry_equiv_pos_as_xyz
  1  'x, y, z'
loop_
 _atom_site_type_symbol
 _atom_site_label
 _atom_site_symmetry_multiplicity
 _atom_site_fract_x
 _atom_site_fract_y
 _atom_site_fract_z
 _atom_site_occupancy
  Cs  Cs0  1  0.333333  0.666667  0.750000  1
  Cs  Cs1  1  0.666667  0.333333  0.250000  1
  Ni  Ni2  1  0.162119  0.973216  0.750000  1
  Ni  Ni3  1  0.973216  0.811097  0.250000  1
  Ni  Ni4  1  0.188903  0.162119  0.250000  1
  Ni  Ni5  1  0.837881  0.026784  0.250000  1
  Ni  Ni6  1  0.026784  0.188903  0.750000  1
  Ni  Ni7  1  0.811097  0.837881  0.750000  1
  Se  Se8  1  0.305361  0.261443  0.750000  1
  Se  Se9  1  0.261443  0.956084  0.250000  1
  Se  Se10  1  0.043916  0.305361  0.250000  1
  Se  Se11  1  0.694639  0.738557  0.250000  1
  Se  Se12  1  0.956084  0.694639  0.750000  1
  Se  Se13  1  0.738557  0.043916  0.750000  1
