# generated using pymatgen
data_Ba4CoNi3P4
_symmetry_space_group_name_H-M   'P 1'
_cell_length_a   6.23085239
_cell_length_b   6.21090830
_cell_length_c   7.41421061
_cell_angle_alpha   89.94006717
_cell_angle_beta   89.96625570
_cell_angle_gamma   106.40015621
_symmetry_Int_Tables_number   1
_chemical_formula_structural   Ba4CoNi3P4
_chemical_formula_sum   'Ba4 Co1 Ni3 P4'
_cell_volume   275.25010849
_cell_formula_units_Z   1
loop_
 _symmetry_equiv_pos_site_id
 _symmetry_equiv_pos_as_xyz
  1  'x, y, z'
loop_
 _atom_site_type_symbol
 _atom_site_label
 _atom_site_symmetry_multiplicity
 _atom_site_fract_x
 _atom_site_fract_y
 _atom_site_fract_z
 _atom_site_occupancy
  Ba  Ba0  1  0.184233  0.813098  0.510506  1
  Ba  Ba1  1  0.682588  0.311348  0.989002  1
  Ba  Ba2  1  0.816272  0.187651  0.486908  1
  Ba  Ba3  1  0.314567  0.685622  0.011892  1
  Co  Co4  1  0.879918  0.885322  0.880327  1
  Ni  Ni5  1  0.382444  0.385311  0.620574  1
  Ni  Ni6  1  0.619510  0.618930  0.382394  1
  Ni  Ni7  1  0.118658  0.116652  0.119381  1
  P  P8  1  0.159029  0.184652  0.825417  1
  P  P9  1  0.667201  0.686342  0.675782  1
  P  P10  1  0.836853  0.811831  0.170579  1
  P  P11  1  0.338728  0.313238  0.327238  1
