# generated using pymatgen
data_Hf16Ta4Si15Au
_symmetry_space_group_name_H-M   'P 1'
_cell_length_a   7.06380114
_cell_length_b   7.00664883
_cell_length_c   12.80961658
_cell_angle_alpha   90.08258898
_cell_angle_beta   90.02240185
_cell_angle_gamma   89.99375475
_symmetry_Int_Tables_number   1
_chemical_formula_structural   Hf16Ta4Si15Au
_chemical_formula_sum   'Hf16 Ta4 Si15 Au1'
_cell_volume   633.99299529
_cell_formula_units_Z   1
loop_
 _symmetry_equiv_pos_site_id
 _symmetry_equiv_pos_as_xyz
  1  'x, y, z'
loop_
 _atom_site_type_symbol
 _atom_site_label
 _atom_site_symmetry_multiplicity
 _atom_site_fract_x
 _atom_site_fract_y
 _atom_site_fract_z
 _atom_site_occupancy
  Hf  Hf0  1  0.500565  0.153953  0.531940  1
  Hf  Hf1  1  0.493117  0.840325  0.031424  1
  Hf  Hf2  1  0.647906  0.997427  0.287622  1
  Hf  Hf3  1  0.347232  0.999049  0.782063  1
  Hf  Hf4  1  0.849705  0.510183  0.964264  1
  Hf  Hf5  1  0.152428  0.499260  0.467762  1
  Hf  Hf6  1  0.000157  0.653741  0.717406  1
  Hf  Hf7  1  0.004822  0.348897  0.219670  1
  Hf  Hf8  1  0.491884  0.357871  0.125731  1
  Hf  Hf9  1  0.503219  0.646042  0.625474  1
  Hf  Hf10  1  0.855807  0.002893  0.872800  1
  Hf  Hf11  1  0.146977  0.996958  0.376975  1
  Hf  Hf12  1  0.644364  0.502235  0.374737  1
  Hf  Hf13  1  0.356005  0.496717  0.872893  1
  Hf  Hf14  1  0.008354  0.849758  0.125776  1
  Hf  Hf15  1  0.998397  0.147174  0.624192  1
  Ta  Ta16  1  0.676855  0.325160  0.748888  1
  Ta  Ta17  1  0.323465  0.675786  0.250446  1
  Ta  Ta18  1  0.823408  0.823953  0.500553  1
  Ta  Ta19  1  0.185562  0.173692  0.997637  1
  Si  Si20  1  0.201660  0.852198  0.572281  1
  Si  Si21  1  0.645078  0.704440  0.821528  1
  Si  Si22  1  0.354399  0.297371  0.323145  1
  Si  Si23  1  0.854637  0.202267  0.428164  1
  Si  Si24  1  0.145785  0.798956  0.928002  1
  Si  Si25  1  0.702808  0.647863  0.177885  1
  Si  Si26  1  0.297980  0.352891  0.677590  1
  Si  Si27  1  0.547142  0.194998  0.933313  1
  Si  Si28  1  0.449871  0.800073  0.435879  1
  Si  Si29  1  0.698418  0.953634  0.683670  1
  Si  Si30  1  0.302887  0.048093  0.184389  1
  Si  Si31  1  0.802109  0.452299  0.564870  1
  Si  Si32  1  0.195681  0.543500  0.063216  1
  Si  Si33  1  0.950082  0.699939  0.316188  1
  Si  Si34  1  0.047167  0.303412  0.815968  1
  Au  Au35  1  0.794072  0.146992  0.075657  1
