# generated using pymatgen
data_Tm16In4CuRu2Rh
_symmetry_space_group_name_H-M   'P 1'
_cell_length_a   9.53856078
_cell_length_b   9.57437615
_cell_length_c   9.59745300
_cell_angle_alpha   59.92023332
_cell_angle_beta   59.79554723
_cell_angle_gamma   59.77472422
_symmetry_Int_Tables_number   1
_chemical_formula_structural   Tm16In4CuRu2Rh
_chemical_formula_sum   'Tm16 In4 Cu1 Ru2 Rh1'
_cell_volume   617.38406663
_cell_formula_units_Z   1
loop_
 _symmetry_equiv_pos_site_id
 _symmetry_equiv_pos_as_xyz
  1  'x, y, z'
loop_
 _atom_site_type_symbol
 _atom_site_label
 _atom_site_symmetry_multiplicity
 _atom_site_fract_x
 _atom_site_fract_y
 _atom_site_fract_z
 _atom_site_occupancy
  Tm  Tm0  1  0.060708  0.060293  0.439499  1
  Tm  Tm1  1  0.442616  0.062060  0.434160  1
  Tm  Tm2  1  0.062173  0.441338  0.060624  1
  Tm  Tm3  1  0.048045  0.651050  0.650453  1
  Tm  Tm4  1  0.439684  0.436258  0.062029  1
  Tm  Tm5  1  0.653805  0.047540  0.649328  1
  Tm  Tm6  1  0.183459  0.811707  0.194345  1
  Tm  Tm7  1  0.185679  0.193385  0.810467  1
  Tm  Tm8  1  0.810957  0.812314  0.188365  1
  Tm  Tm9  1  0.442616  0.062060  0.061165  1
  Tm  Tm10  1  0.811256  0.186947  0.190545  1
  Tm  Tm11  1  0.062173  0.441338  0.435866  1
  Tm  Tm12  1  0.811256  0.186947  0.811252  1
  Tm  Tm13  1  0.183459  0.811707  0.810491  1
  Tm  Tm14  1  0.652717  0.648882  0.051225  1
  Tm  Tm15  1  0.652717  0.648882  0.647176  1
  In  In16  1  0.417349  0.416220  0.416256  1
  In  In17  1  0.750681  0.416056  0.416631  1
  In  In18  1  0.417001  0.751181  0.415908  1
  In  In19  1  0.417349  0.416220  0.750173  1
  Cu  Cu20  1  0.423615  0.856851  0.859767  1
  Ru  Ru21  1  0.857133  0.856809  0.427099  1
  Ru  Ru22  1  0.857133  0.856809  0.858957  1
  Rh  Rh23  1  0.856425  0.427144  0.858215  1
