# generated using pymatgen
data_SrCr4P8Pb5O32
_symmetry_space_group_name_H-M   'P 1'
_cell_length_a   9.08984138
_cell_length_b   9.12656721
_cell_length_c   9.38428129
_cell_angle_alpha   89.94114650
_cell_angle_beta   116.85420068
_cell_angle_gamma   90.02270731
_symmetry_Int_Tables_number   1
_chemical_formula_structural   SrCr4P8Pb5O32
_chemical_formula_sum   'Sr1 Cr4 P8 Pb5 O32'
_cell_volume   694.55518703
_cell_formula_units_Z   1
loop_
 _symmetry_equiv_pos_site_id
 _symmetry_equiv_pos_as_xyz
  1  'x, y, z'
loop_
 _atom_site_type_symbol
 _atom_site_label
 _atom_site_symmetry_multiplicity
 _atom_site_fract_x
 _atom_site_fract_y
 _atom_site_fract_z
 _atom_site_occupancy
  Sr  Sr0  1  0.000000  0.000000  0.000000  1
  Cr  Cr1  1  0.247828  0.631478  0.244240  1
  Cr  Cr2  1  0.752351  0.131229  0.255543  1
  Cr  Cr3  1  0.247649  0.868773  0.744456  1
  Cr  Cr4  1  0.752173  0.368522  0.755761  1
  P  P5  1  0.424199  0.911592  0.141340  1
  P  P6  1  0.981015  0.360985  0.156245  1
  P  P7  1  0.018901  0.862311  0.341912  1
  P  P8  1  0.575072  0.411322  0.358255  1
  P  P9  1  0.424927  0.588678  0.641744  1
  P  P10  1  0.981098  0.137689  0.658088  1
  P  P11  1  0.018984  0.639015  0.843755  1
  P  P12  1  0.575800  0.088408  0.858661  1
  Pb  Pb13  1  0.299873  0.292041  0.028248  1
  Pb  Pb14  1  0.700298  0.792249  0.471626  1
  Pb  Pb15  1  0.000000  0.500000  0.500001  1
  Pb  Pb16  1  0.299703  0.207751  0.528375  1
  Pb  Pb17  1  0.700126  0.707959  0.971750  1
  O  O18  1  0.157522  0.588905  0.006786  1
  O  O19  1  0.606843  0.151159  0.021376  1
  O  O20  1  0.309058  0.040438  0.125985  1
  O  O21  1  0.095766  0.249761  0.131768  1
  O  O22  1  0.091588  0.796389  0.232970  1
  O  O23  1  0.919730  0.996395  0.239681  1
  O  O24  1  0.609909  0.955721  0.242276  1
  O  O25  1  0.410132  0.785120  0.246702  1
  O  O26  1  0.590132  0.285152  0.253480  1
  O  O27  1  0.388956  0.454453  0.257884  1
  O  O28  1  0.081069  0.494958  0.257641  1
  O  O29  1  0.908370  0.294865  0.265348  1
  O  O30  1  0.900864  0.752543  0.364298  1
  O  O31  1  0.686969  0.542572  0.370994  1
  O  O32  1  0.392284  0.650987  0.478492  1
  O  O33  1  0.843438  0.088807  0.494111  1
  O  O34  1  0.156560  0.911193  0.505889  1
  O  O35  1  0.607715  0.349013  0.521508  1
  O  O36  1  0.313031  0.457428  0.629007  1
  O  O37  1  0.099136  0.247457  0.635701  1
  O  O38  1  0.091630  0.705135  0.734651  1
  O  O39  1  0.918932  0.505042  0.742360  1
  O  O40  1  0.611043  0.545547  0.742116  1
  O  O41  1  0.409868  0.714847  0.746519  1
  O  O42  1  0.589868  0.214880  0.753299  1
  O  O43  1  0.390091  0.044279  0.757724  1
  O  O44  1  0.080270  0.003605  0.760319  1
  O  O45  1  0.908412  0.203611  0.767031  1
  O  O46  1  0.904234  0.750239  0.868232  1
  O  O47  1  0.690941  0.959562  0.874014  1
  O  O48  1  0.393157  0.848841  0.978625  1
  O  O49  1  0.842478  0.411095  0.993214  1
