# generated using pymatgen
data_Y2Sc2B12IrRu
_symmetry_space_group_name_H-M   'P 1'
_cell_length_a   3.55677700
_cell_length_b   8.98860304
_cell_length_c   11.37413704
_cell_angle_alpha   90.01012137
_cell_angle_beta   90.00000000
_cell_angle_gamma   90.00000000
_symmetry_Int_Tables_number   1
_chemical_formula_structural   Y2Sc2B12IrRu
_chemical_formula_sum   'Y4 Sc4 B24 Ir2 Ru2'
_cell_volume   363.63634835
_cell_formula_units_Z   2
loop_
 _symmetry_equiv_pos_site_id
 _symmetry_equiv_pos_as_xyz
  1  'x, y, z'
loop_
 _atom_site_type_symbol
 _atom_site_label
 _atom_site_symmetry_multiplicity
 _atom_site_fract_x
 _atom_site_fract_y
 _atom_site_fract_z
 _atom_site_occupancy
  Y  Y0  1  0.500000  0.318203  0.412415  1
  Y  Y1  1  0.500000  0.681797  0.587585  1
  Y  Y2  1  0.500000  0.178474  0.914994  1
  Y  Y3  1  0.500000  0.821526  0.085006  1
  Sc  Sc4  1  0.500000  0.442471  0.124029  1
  Sc  Sc5  1  0.500000  0.557529  0.875971  1
  Sc  Sc6  1  0.500000  0.053101  0.625438  1
  Sc  Sc7  1  0.500000  0.946899  0.374562  1
  B  B8  1  0.000000  0.100128  0.473094  1
  B  B9  1  0.000000  0.899872  0.526906  1
  B  B10  1  0.000000  0.399605  0.972829  1
  B  B11  1  0.000000  0.600395  0.027171  1
  B  B12  1  0.000000  0.129822  0.317357  1
  B  B13  1  0.000000  0.870178  0.682643  1
  B  B14  1  0.000000  0.370725  0.818477  1
  B  B15  1  0.000000  0.629275  0.181523  1
  B  B16  1  0.000000  0.055337  0.067188  1
  B  B17  1  0.000000  0.944663  0.932812  1
  B  B18  1  0.000000  0.444986  0.566190  1
  B  B19  1  0.000000  0.555014  0.433810  1
  B  B20  1  0.000000  0.481726  0.284751  1
  B  B21  1  0.000000  0.518274  0.715249  1
  B  B22  1  0.000000  0.017403  0.785327  1
  B  B23  1  0.000000  0.982597  0.214673  1
  B  B24  1  0.000000  0.253619  0.081379  1
  B  B25  1  0.000000  0.746381  0.918621  1
  B  B26  1  0.000000  0.245029  0.580688  1
  B  B27  1  0.000000  0.754971  0.419312  1
  B  B28  1  0.000000  0.294703  0.234641  1
  B  B29  1  0.000000  0.705297  0.765359  1
  B  B30  1  0.000000  0.204746  0.734839  1
  B  B31  1  0.000000  0.795254  0.265161  1
  Ir  Ir32  1  0.500000  0.359370  0.680969  1
  Ir  Ir33  1  0.500000  0.640630  0.319031  1
  Ru  Ru34  1  0.500000  0.140727  0.181550  1
  Ru  Ru35  1  0.500000  0.859273  0.818450  1
