# generated using pymatgen
data_Zr10Ga9GePd10
_symmetry_space_group_name_H-M   'P 1'
_cell_length_a   3.86731900
_cell_length_b   6.88061010
_cell_length_c   19.87428325
_cell_angle_alpha   89.96418668
_cell_angle_beta   90.00000000
_cell_angle_gamma   90.00000000
_symmetry_Int_Tables_number   1
_chemical_formula_structural   Zr10Ga9GePd10
_chemical_formula_sum   'Zr10 Ga9 Ge1 Pd10'
_cell_volume   528.84491873
_cell_formula_units_Z   1
loop_
 _symmetry_equiv_pos_site_id
 _symmetry_equiv_pos_as_xyz
  1  'x, y, z'
loop_
 _atom_site_type_symbol
 _atom_site_label
 _atom_site_symmetry_multiplicity
 _atom_site_fract_x
 _atom_site_fract_y
 _atom_site_fract_z
 _atom_site_occupancy
  Zr  Zr0  1  0.500000  0.966848  0.678374  1
  Zr  Zr1  1  0.000000  0.147398  0.000170  1
  Zr  Zr2  1  0.000000  0.521715  0.872071  1
  Zr  Zr3  1  0.500000  0.481878  0.373643  1
  Zr  Zr4  1  0.500000  0.477717  0.626850  1
  Zr  Zr5  1  0.000000  0.519447  0.127382  1
  Zr  Zr6  1  0.000000  0.033832  0.179565  1
  Zr  Zr7  1  0.500000  0.851242  0.500308  1
  Zr  Zr8  1  0.000000  0.033681  0.821127  1
  Zr  Zr9  1  0.500000  0.969867  0.320896  1
  Ga  Ga10  1  0.000000  0.770373  0.399951  1
  Ga  Ga11  1  0.500000  0.270014  0.500259  1
  Ga  Ga12  1  0.500000  0.229928  0.099677  1
  Ga  Ga13  1  0.000000  0.259573  0.301004  1
  Ga  Ga14  1  0.500000  0.743711  0.199617  1
  Ga  Ga15  1  0.500000  0.745955  0.799323  1
  Ga  Ga16  1  0.500000  0.230792  0.900398  1
  Ga  Ga17  1  0.000000  0.727461  0.999842  1
  Ga  Ga18  1  0.000000  0.256150  0.700000  1
  Ge  Ge19  1  0.000000  0.765855  0.599809  1
  Pd  Pd20  1  0.000000  0.141603  0.426128  1
  Pd  Pd21  1  0.500000  0.356645  0.223145  1
  Pd  Pd22  1  0.500000  0.478042  0.999978  1
  Pd  Pd23  1  0.500000  0.357388  0.776633  1
  Pd  Pd24  1  0.000000  0.645511  0.276712  1
  Pd  Pd25  1  0.000000  0.642262  0.723508  1
  Pd  Pd26  1  0.500000  0.856338  0.074204  1
  Pd  Pd27  1  0.500000  0.855599  0.924982  1
  Pd  Pd28  1  0.000000  0.140137  0.575039  1
  Pd  Pd29  1  0.000000  0.523039  0.499406  1
