# generated using pymatgen
data_Er4Pb3
_symmetry_space_group_name_H-M   'P 1'
_cell_length_a   8.08725182
_cell_length_b   8.08725107
_cell_length_c   8.08725200
_cell_angle_alpha   109.47122546
_cell_angle_beta   109.47122359
_cell_angle_gamma   109.47121248
_symmetry_Int_Tables_number   1
_chemical_formula_structural   Er4Pb3
_chemical_formula_sum   'Er8 Pb6'
_cell_volume   407.17488261
_cell_formula_units_Z   2
loop_
 _symmetry_equiv_pos_site_id
 _symmetry_equiv_pos_as_xyz
  1  'x, y, z'
loop_
 _atom_site_type_symbol
 _atom_site_label
 _atom_site_symmetry_multiplicity
 _atom_site_fract_x
 _atom_site_fract_y
 _atom_site_fract_z
 _atom_site_occupancy
  Er  Er0  1  0.360408  0.500000  0.000000  1
  Er  Er1  1  0.860408  0.499999  0.000000  1
  Er  Er2  1  0.139592  0.139592  0.139592  1
  Er  Er3  1  0.500000  0.000000  0.360408  1
  Er  Er4  1  0.000000  0.360408  0.500000  1
  Er  Er5  1  0.000000  0.860408  0.499999  1
  Er  Er6  1  0.639593  0.639593  0.639593  1
  Er  Er7  1  0.499999  0.000000  0.860408  1
  Pb  Pb8  1  0.750000  0.874999  0.125000  1
  Pb  Pb9  1  0.625000  0.375000  0.250000  1
  Pb  Pb10  1  0.250000  0.625000  0.375000  1
  Pb  Pb11  1  0.375000  0.250000  0.625000  1
  Pb  Pb12  1  0.874999  0.125000  0.750000  1
  Pb  Pb13  1  0.125000  0.750000  0.874999  1
