# generated using pymatgen
data_Tl4P2PtS8
_symmetry_space_group_name_H-M   'P 1'
_cell_length_a   6.60708225
_cell_length_b   7.08953796
_cell_length_c   9.19105500
_cell_angle_alpha   86.91965748
_cell_angle_beta   81.73134019
_cell_angle_gamma   85.59574030
_symmetry_Int_Tables_number   1
_chemical_formula_structural   Tl4P2PtS8
_chemical_formula_sum   'Tl4 P2 Pt1 S8'
_cell_volume   424.38834879
_cell_formula_units_Z   1
loop_
 _symmetry_equiv_pos_site_id
 _symmetry_equiv_pos_as_xyz
  1  'x, y, z'
loop_
 _atom_site_type_symbol
 _atom_site_label
 _atom_site_symmetry_multiplicity
 _atom_site_fract_x
 _atom_site_fract_y
 _atom_site_fract_z
 _atom_site_occupancy
  Tl  Tl0  1  0.245815  0.343680  0.124716  1
  Tl  Tl1  1  0.741651  0.218299  0.471529  1
  Tl  Tl2  1  0.258349  0.781701  0.528471  1
  Tl  Tl3  1  0.754185  0.656320  0.875284  1
  P  P4  1  0.828611  0.733001  0.264056  1
  P  P5  1  0.171389  0.266999  0.735944  1
  Pt  Pt6  1  0.000000  0.000000  0.000000  1
  S  S7  1  0.687394  0.963241  0.154470  1
  S  S8  1  0.771875  0.481207  0.184848  1
  S  S9  1  0.130098  0.801330  0.183600  1
  S  S10  1  0.760514  0.733228  0.485209  1
  S  S11  1  0.239486  0.266772  0.514791  1
  S  S12  1  0.869902  0.198670  0.816400  1
  S  S13  1  0.228125  0.518793  0.815152  1
  S  S14  1  0.312606  0.036759  0.845530  1
