# generated using pymatgen
data_Pr2SeO6
_symmetry_space_group_name_H-M   'P 1'
_cell_length_a   4.40398900
_cell_length_b   7.53042271
_cell_length_c   8.50257568
_cell_angle_alpha   106.65580440
_cell_angle_beta   90.00000000
_cell_angle_gamma   107.00248613
_symmetry_Int_Tables_number   1
_chemical_formula_structural   Pr2SeO6
_chemical_formula_sum   'Pr4 Se2 O12'
_cell_volume   257.25696515
_cell_formula_units_Z   2
loop_
 _symmetry_equiv_pos_site_id
 _symmetry_equiv_pos_as_xyz
  1  'x, y, z'
loop_
 _atom_site_type_symbol
 _atom_site_label
 _atom_site_symmetry_multiplicity
 _atom_site_fract_x
 _atom_site_fract_y
 _atom_site_fract_z
 _atom_site_occupancy
  Pr  Pr0  1  0.664546  0.344083  0.085858  1
  Pr  Pr1  1  0.320462  0.655918  0.414143  1
  Pr  Pr2  1  0.679537  0.344083  0.585857  1
  Pr  Pr3  1  0.335455  0.655917  0.914142  1
  Se  Se4  1  0.046379  0.000001  0.250000  1
  Se  Se5  1  0.953622  0.000001  0.750000  1
  O  O6  1  0.274439  0.999458  0.091151  1
  O  O7  1  0.227443  0.492132  0.123058  1
  O  O8  1  0.736055  0.797172  0.199150  1
  O  O9  1  0.938885  0.202828  0.300850  1
  O  O10  1  0.735313  0.507869  0.376941  1
  O  O11  1  0.274979  0.000542  0.408848  1
  O  O12  1  0.725020  0.999458  0.591151  1
  O  O13  1  0.264688  0.492131  0.623058  1
  O  O14  1  0.061117  0.797172  0.699149  1
  O  O15  1  0.263944  0.202828  0.800851  1
  O  O16  1  0.772556  0.507869  0.876942  1
  O  O17  1  0.725563  0.000542  0.908849  1
