# generated using pymatgen
data_LaNd3(B4W)4
_symmetry_space_group_name_H-M   'P 1'
_cell_length_a   6.14506679
_cell_length_b   11.89293702
_cell_length_c   3.71623000
_cell_angle_alpha   90.00000000
_cell_angle_beta   90.00000000
_cell_angle_gamma   90.07477856
_symmetry_Int_Tables_number   1
_chemical_formula_structural   LaNd3(B4W)4
_chemical_formula_sum   'La1 Nd3 B16 W4'
_cell_volume   271.59260576
_cell_formula_units_Z   1
loop_
 _symmetry_equiv_pos_site_id
 _symmetry_equiv_pos_as_xyz
  1  'x, y, z'
loop_
 _atom_site_type_symbol
 _atom_site_label
 _atom_site_symmetry_multiplicity
 _atom_site_fract_x
 _atom_site_fract_y
 _atom_site_fract_z
 _atom_site_occupancy
  La  La0  1  0.875249  0.849297  0.000000  1
  Nd  Nd1  1  0.624774  0.349644  0.000000  1
  Nd  Nd2  1  0.375217  0.649825  0.000000  1
  Nd  Nd3  1  0.125107  0.150765  0.000000  1
  B  B4  1  0.781780  0.185162  0.500000  1
  B  B5  1  0.220114  0.815552  0.500000  1
  B  B6  1  0.281860  0.315374  0.500000  1
  B  B7  1  0.718551  0.683262  0.500000  1
  B  B8  1  0.861813  0.033306  0.500000  1
  B  B9  1  0.138638  0.968268  0.500000  1
  B  B10  1  0.362501  0.467530  0.500000  1
  B  B11  1  0.637241  0.531689  0.500000  1
  B  B12  1  0.888064  0.453461  0.500000  1
  B  B13  1  0.112111  0.545435  0.500000  1
  B  B14  1  0.387951  0.046741  0.500000  1
  B  B15  1  0.610835  0.954927  0.500000  1
  B  B16  1  0.975463  0.309162  0.500000  1
  B  B17  1  0.024741  0.689206  0.500000  1
  B  B18  1  0.475585  0.191268  0.500000  1
  B  B19  1  0.523535  0.809730  0.500000  1
  W  W20  1  0.627810  0.084093  0.000000  1
  W  W21  1  0.371081  0.917225  0.000000  1
  W  W22  1  0.128242  0.416372  0.000000  1
  W  W23  1  0.871739  0.582702  0.000000  1
