# generated using pymatgen
data_La2Co9As7Ru3
_symmetry_space_group_name_H-M   'P 1'
_cell_length_a   3.89657600
_cell_length_b   9.48987353
_cell_length_c   9.48987300
_cell_angle_alpha   120.00000070
_cell_angle_beta   90.00000000
_cell_angle_gamma   90.00000000
_symmetry_Int_Tables_number   1
_chemical_formula_structural   La2Co9As7Ru3
_chemical_formula_sum   'La2 Co9 As7 Ru3'
_cell_volume   303.90273261
_cell_formula_units_Z   1
loop_
 _symmetry_equiv_pos_site_id
 _symmetry_equiv_pos_as_xyz
  1  'x, y, z'
loop_
 _atom_site_type_symbol
 _atom_site_label
 _atom_site_symmetry_multiplicity
 _atom_site_fract_x
 _atom_site_fract_y
 _atom_site_fract_z
 _atom_site_occupancy
  La  La0  1  0.000000  0.666667  0.333333  1
  La  La1  1  0.500000  0.333333  0.666667  1
  Co  Co2  1  0.000000  0.572730  0.942119  1
  Co  Co3  1  0.000000  0.369388  0.427270  1
  Co  Co4  1  0.000000  0.057881  0.630612  1
  Co  Co5  1  0.000000  0.875383  0.152836  1
  Co  Co6  1  0.000000  0.277454  0.124617  1
  Co  Co7  1  0.000000  0.847164  0.722546  1
  Co  Co8  1  0.500000  0.947589  0.380616  1
  Co  Co9  1  0.500000  0.433026  0.052411  1
  Co  Co10  1  0.500000  0.619384  0.566974  1
  As  As11  1  0.000000  0.000000  0.000000  1
  As  As12  1  0.500000  0.707125  0.109932  1
  As  As13  1  0.500000  0.402807  0.292875  1
  As  As14  1  0.500000  0.890068  0.597193  1
  As  As15  1  0.000000  0.593035  0.699422  1
  As  As16  1  0.000000  0.106388  0.406965  1
  As  As17  1  0.000000  0.300578  0.893612  1
  Ru  Ru18  1  0.500000  0.785145  0.899631  1
  Ru  Ru19  1  0.500000  0.114485  0.214855  1
  Ru  Ru20  1  0.500000  0.100369  0.885515  1
