# generated using pymatgen
data_Tb8Lu2(IrRu)3
_symmetry_space_group_name_H-M   'P 1'
_cell_length_a   10.84634000
_cell_length_b   10.84415200
_cell_length_c   6.39518200
_cell_angle_alpha   90.00000000
_cell_angle_beta   89.99702999
_cell_angle_gamma   90.00000000
_symmetry_Int_Tables_number   1
_chemical_formula_structural   Tb8Lu2(IrRu)3
_chemical_formula_sum   'Tb16 Lu4 Ir6 Ru6'
_cell_volume   752.19721088
_cell_formula_units_Z   2
loop_
 _symmetry_equiv_pos_site_id
 _symmetry_equiv_pos_as_xyz
  1  'x, y, z'
loop_
 _atom_site_type_symbol
 _atom_site_label
 _atom_site_symmetry_multiplicity
 _atom_site_fract_x
 _atom_site_fract_y
 _atom_site_fract_z
 _atom_site_occupancy
  Tb  Tb0  1  0.291746  0.086329  0.378461  1
  Tb  Tb1  1  0.291746  0.913671  0.878461  1
  Tb  Tb2  1  0.709194  0.086256  0.878325  1
  Tb  Tb3  1  0.709194  0.913744  0.378325  1
  Tb  Tb4  1  0.587170  0.792027  0.878480  1
  Tb  Tb5  1  0.587170  0.207973  0.378480  1
  Tb  Tb6  1  0.413433  0.792331  0.378063  1
  Tb  Tb7  1  0.413433  0.207669  0.878063  1
  Tb  Tb8  1  0.207675  0.413597  0.621450  1
  Tb  Tb9  1  0.207675  0.586403  0.121450  1
  Tb  Tb10  1  0.792071  0.412729  0.122027  1
  Tb  Tb11  1  0.792071  0.587271  0.622027  1
  Tb  Tb12  1  0.913490  0.708707  0.121033  1
  Tb  Tb13  1  0.913490  0.291293  0.621033  1
  Tb  Tb14  1  0.086004  0.708806  0.622163  1
  Tb  Tb15  1  0.086004  0.291194  0.122163  1
  Lu  Lu16  1  0.999068  0.000383  0.499883  1
  Lu  Lu17  1  0.999068  0.999617  0.999883  1
  Lu  Lu18  1  0.500030  0.500185  0.000125  1
  Lu  Lu19  1  0.500030  0.499815  0.500125  1
  Ir  Ir20  1  0.150938  0.150622  0.750089  1
  Ir  Ir21  1  0.150938  0.849378  0.250089  1
  Ir  Ir22  1  0.649526  0.350653  0.749834  1
  Ir  Ir23  1  0.649526  0.649347  0.249834  1
  Ir  Ir24  1  0.350234  0.349950  0.250228  1
  Ir  Ir25  1  0.350234  0.650050  0.750228  1
  Ru  Ru26  1  0.849589  0.150555  0.249877  1
  Ru  Ru27  1  0.849589  0.849445  0.749877  1
  Ru  Ru28  1  0.499860  0.000024  0.122578  1
  Ru  Ru29  1  0.499860  0.999976  0.622578  1
  Ru  Ru30  1  0.999972  0.500294  0.877384  1
  Ru  Ru31  1  0.999972  0.499706  0.377384  1
