# generated using pymatgen
data_Nb18CuNi4AsPt4
_symmetry_space_group_name_H-M   'P 1'
_cell_length_a   5.13761418
_cell_length_b   9.84750253
_cell_length_c   9.84750206
_cell_angle_alpha   86.07617713
_cell_angle_beta   74.81746340
_cell_angle_gamma   74.81746090
_symmetry_Int_Tables_number   1
_chemical_formula_structural   Nb18CuNi4AsPt4
_chemical_formula_sum   'Nb18 Cu1 Ni4 As1 Pt4'
_cell_volume   464.03956987
_cell_formula_units_Z   1
loop_
 _symmetry_equiv_pos_site_id
 _symmetry_equiv_pos_as_xyz
  1  'x, y, z'
loop_
 _atom_site_type_symbol
 _atom_site_label
 _atom_site_symmetry_multiplicity
 _atom_site_fract_x
 _atom_site_fract_y
 _atom_site_fract_z
 _atom_site_occupancy
  Nb  Nb0  1  0.750000  0.499950  0.500051  1
  Nb  Nb1  1  0.250000  0.500515  0.499485  1
  Nb  Nb2  1  0.788862  0.781043  0.638826  1
  Nb  Nb3  1  0.208966  0.218159  0.360869  1
  Nb  Nb4  1  0.711138  0.361174  0.218957  1
  Nb  Nb5  1  0.291034  0.639131  0.781841  1
  Nb  Nb6  1  0.570178  0.639097  0.218755  1
  Nb  Nb7  1  0.427257  0.360789  0.781245  1
  Nb  Nb8  1  0.072743  0.218755  0.639211  1
  Nb  Nb9  1  0.929822  0.781245  0.360903  1
  Nb  Nb10  1  0.584569  0.076277  0.755013  1
  Nb  Nb11  1  0.415185  0.922422  0.244107  1
  Nb  Nb12  1  0.915431  0.244987  0.923723  1
  Nb  Nb13  1  0.084815  0.755893  0.077578  1
  Nb  Nb14  1  0.659443  0.755423  0.923325  1
  Nb  Nb15  1  0.338467  0.244979  0.076867  1
  Nb  Nb16  1  0.161533  0.923133  0.755021  1
  Nb  Nb17  1  0.840557  0.076675  0.244577  1
  Cu  Cu18  1  0.250000  0.000290  0.999710  1
  Ni  Ni19  1  0.499557  0.000284  0.500266  1
  Ni  Ni20  1  0.000296  0.000004  0.499904  1
  Ni  Ni21  1  0.499704  0.500096  0.999996  1
  Ni  Ni22  1  0.000443  0.499734  0.999716  1
  As  As23  1  0.750000  0.999822  0.000178  1
  Pt  Pt24  1  0.130928  0.499698  0.239561  1
  Pt  Pt25  1  0.869114  0.500054  0.760064  1
  Pt  Pt26  1  0.369072  0.760439  0.500302  1
  Pt  Pt27  1  0.630886  0.239936  0.499946  1
