# generated using pymatgen
data_Y3In4CoNi
_symmetry_space_group_name_H-M   'P 1'
_cell_length_a   7.88543700
_cell_length_b   7.88543659
_cell_length_c   3.65900100
_cell_angle_alpha   90.00000000
_cell_angle_beta   90.00000000
_cell_angle_gamma   120.00000591
_symmetry_Int_Tables_number   1
_chemical_formula_structural   Y3In4CoNi
_chemical_formula_sum   'Y3 In4 Co1 Ni1'
_cell_volume   197.03557431
_cell_formula_units_Z   1
loop_
 _symmetry_equiv_pos_site_id
 _symmetry_equiv_pos_as_xyz
  1  'x, y, z'
loop_
 _atom_site_type_symbol
 _atom_site_label
 _atom_site_symmetry_multiplicity
 _atom_site_fract_x
 _atom_site_fract_y
 _atom_site_fract_z
 _atom_site_occupancy
  Y  Y0  1  0.706910  0.950723  0.500000  1
  Y  Y1  1  0.243813  0.293090  0.500000  1
  Y  Y2  1  0.049277  0.756187  0.500000  1
  In  In3  1  0.918194  0.334663  0.000000  1
  In  In4  1  0.416470  0.081806  0.000000  1
  In  In5  1  0.665337  0.583530  0.000000  1
  In  In6  1  0.333333  0.666667  0.000000  1
  Co  Co7  1  0.000000  0.000000  0.000000  1
  Ni  Ni8  1  0.666667  0.333333  0.500000  1
