# generated using pymatgen
data_Sc3AlAs2Ir3
_symmetry_space_group_name_H-M   'P 1'
_cell_length_a   6.62098500
_cell_length_b   6.62098507
_cell_length_c   3.94033000
_cell_angle_alpha   90.00000000
_cell_angle_beta   90.00000000
_cell_angle_gamma   120.00000465
_symmetry_Int_Tables_number   1
_chemical_formula_structural   Sc3AlAs2Ir3
_chemical_formula_sum   'Sc3 Al1 As2 Ir3'
_cell_volume   149.59201740
_cell_formula_units_Z   1
loop_
 _symmetry_equiv_pos_site_id
 _symmetry_equiv_pos_as_xyz
  1  'x, y, z'
loop_
 _atom_site_type_symbol
 _atom_site_label
 _atom_site_symmetry_multiplicity
 _atom_site_fract_x
 _atom_site_fract_y
 _atom_site_fract_z
 _atom_site_occupancy
  Sc  Sc0  1  0.427739  0.427739  0.500000  1
  Sc  Sc1  1  0.572261  0.000000  0.500000  1
  Sc  Sc2  1  0.000000  0.572261  0.500000  1
  Al  Al3  1  0.000000  0.000000  0.500000  1
  As  As4  1  0.666667  0.333333  0.000000  1
  As  As5  1  0.333333  0.666667  0.000000  1
  Ir  Ir6  1  0.000000  0.242295  0.000000  1
  Ir  Ir7  1  0.242295  0.000000  0.000000  1
  Ir  Ir8  1  0.757705  0.757705  0.000000  1
