# generated using pymatgen
data_CaPr(CoO2)6
_symmetry_space_group_name_H-M   'P 1'
_cell_length_a   4.92949284
_cell_length_b   5.74191263
_cell_length_c   8.52346500
_cell_angle_alpha   89.99990502
_cell_angle_beta   90.00000007
_cell_angle_gamma   73.46468069
_symmetry_Int_Tables_number   1
_chemical_formula_structural   CaPr(CoO2)6
_chemical_formula_sum   'Ca1 Pr1 Co6 O12'
_cell_volume   231.27706970
_cell_formula_units_Z   1
loop_
 _symmetry_equiv_pos_site_id
 _symmetry_equiv_pos_as_xyz
  1  'x, y, z'
loop_
 _atom_site_type_symbol
 _atom_site_label
 _atom_site_symmetry_multiplicity
 _atom_site_fract_x
 _atom_site_fract_y
 _atom_site_fract_z
 _atom_site_occupancy
  Ca  Ca0  1  0.000001  0.500000  0.166651  1
  Pr  Pr1  1  0.500000  0.500000  0.666607  1
  Co  Co2  1  0.500000  0.000000  0.166668  1
  Co  Co3  1  0.500000  0.000000  0.835643  1
  Co  Co4  1  0.500000  0.000000  0.497696  1
  Co  Co5  1  0.000000  0.000000  0.666679  1
  Co  Co6  1  0.000000  0.000000  0.333086  1
  Co  Co7  1  0.000000  0.000000  0.000251  1
  O  O8  1  0.773311  0.179407  0.166680  1
  O  O9  1  0.272892  0.182324  0.666676  1
  O  O10  1  0.226689  0.820593  0.166680  1
  O  O11  1  0.727108  0.817676  0.666676  1
  O  O12  1  0.273377  0.181323  0.003908  1
  O  O13  1  0.772150  0.183439  0.499649  1
  O  O14  1  0.273374  0.181342  0.329431  1
  O  O15  1  0.772138  0.183471  0.833682  1
  O  O16  1  0.726626  0.818658  0.329431  1
  O  O17  1  0.227862  0.816529  0.833682  1
  O  O18  1  0.726623  0.818678  0.003908  1
  O  O19  1  0.227850  0.816560  0.499650  1
