# generated using pymatgen
data_Tb4Nd3Er(CdPt)2
_symmetry_space_group_name_H-M   'P 1'
_cell_length_a   9.82145898
_cell_length_b   9.82145957
_cell_length_c   9.81640800
_cell_angle_alpha   60.01700604
_cell_angle_beta   60.01700407
_cell_angle_gamma   59.96597957
_symmetry_Int_Tables_number   1
_chemical_formula_structural   Tb4Nd3Er(CdPt)2
_chemical_formula_sum   'Tb8 Nd6 Er2 Cd4 Pt4'
_cell_volume   669.55981381
_cell_formula_units_Z   2
loop_
 _symmetry_equiv_pos_site_id
 _symmetry_equiv_pos_as_xyz
  1  'x, y, z'
loop_
 _atom_site_type_symbol
 _atom_site_label
 _atom_site_symmetry_multiplicity
 _atom_site_fract_x
 _atom_site_fract_y
 _atom_site_fract_z
 _atom_site_occupancy
  Tb  Tb0  1  0.350200  0.350200  0.351014  1
  Tb  Tb1  1  0.350200  0.350200  0.948585  1
  Tb  Tb2  1  0.351014  0.948585  0.350200  1
  Tb  Tb3  1  0.948585  0.351014  0.350200  1
  Tb  Tb4  1  0.811984  0.188016  0.188016  1
  Tb  Tb5  1  0.188016  0.811984  0.811984  1
  Tb  Tb6  1  0.188016  0.811984  0.188016  1
  Tb  Tb7  1  0.811984  0.188016  0.811984  1
  Nd  Nd8  1  0.937777  0.562223  0.562223  1
  Nd  Nd9  1  0.562223  0.937777  0.937777  1
  Nd  Nd10  1  0.562223  0.937777  0.562223  1
  Nd  Nd11  1  0.937777  0.562223  0.937777  1
  Nd  Nd12  1  0.562291  0.562291  0.937709  1
  Nd  Nd13  1  0.937709  0.937709  0.562291  1
  Er  Er14  1  0.188351  0.188351  0.811649  1
  Er  Er15  1  0.811649  0.811649  0.188351  1
  Cd  Cd16  1  0.579858  0.579858  0.579652  1
  Cd  Cd17  1  0.579858  0.579858  0.260634  1
  Cd  Cd18  1  0.579652  0.260634  0.579858  1
  Cd  Cd19  1  0.260634  0.579652  0.579858  1
  Pt  Pt20  1  0.143094  0.143094  0.141371  1
  Pt  Pt21  1  0.143094  0.143094  0.572441  1
  Pt  Pt22  1  0.141371  0.572441  0.143094  1
  Pt  Pt23  1  0.572441  0.141371  0.143094  1
