# generated using pymatgen
data_PuU7(Nb3Si4)4
_symmetry_space_group_name_H-M   'P 1'
_cell_length_a   7.04881446
_cell_length_b   7.04838794
_cell_length_c   13.00712559
_cell_angle_alpha   90.10439346
_cell_angle_beta   89.95436456
_cell_angle_gamma   89.93898962
_symmetry_Int_Tables_number   1
_chemical_formula_structural   PuU7(Nb3Si4)4
_chemical_formula_sum   'Pu1 U7 Nb12 Si16'
_cell_volume   646.22849913
_cell_formula_units_Z   1
loop_
 _symmetry_equiv_pos_site_id
 _symmetry_equiv_pos_as_xyz
  1  'x, y, z'
loop_
 _atom_site_type_symbol
 _atom_site_label
 _atom_site_symmetry_multiplicity
 _atom_site_fract_x
 _atom_site_fract_y
 _atom_site_fract_z
 _atom_site_occupancy
  Pu  Pu0  1  0.995886  0.331339  0.218648  1
  U  U1  1  0.005905  0.669380  0.719255  1
  U  U2  1  0.168845  0.494836  0.469408  1
  U  U3  1  0.507040  0.830686  0.031302  1
  U  U4  1  0.829855  0.507156  0.967917  1
  U  U5  1  0.494072  0.168993  0.530928  1
  U  U6  1  0.331065  0.994038  0.781490  1
  U  U7  1  0.666764  0.002721  0.280354  1
  Nb  Nb8  1  0.168921  0.168005  0.999328  1
  Nb  Nb9  1  0.831565  0.831171  0.499747  1
  Nb  Nb10  1  0.333749  0.671024  0.250223  1
  Nb  Nb11  1  0.668635  0.331880  0.750103  1
  Nb  Nb12  1  0.157041  0.997939  0.374364  1
  Nb  Nb13  1  0.844906  0.000423  0.874346  1
  Nb  Nb14  1  0.500400  0.655763  0.624445  1
  Nb  Nb15  1  0.344368  0.498815  0.875821  1
  Nb  Nb16  1  0.498584  0.344518  0.124002  1
  Nb  Nb17  1  0.654662  0.501224  0.376558  1
  Nb  Nb18  1  0.998985  0.156102  0.625667  1
  Nb  Nb19  1  0.999627  0.843496  0.125761  1
  Si  Si20  1  0.296451  0.040194  0.183946  1
  Si  Si21  1  0.702577  0.960154  0.684512  1
  Si  Si22  1  0.460496  0.797988  0.434832  1
  Si  Si23  1  0.202025  0.540199  0.065779  1
  Si  Si24  1  0.540495  0.202388  0.934786  1
  Si  Si25  1  0.797418  0.460197  0.565457  1
  Si  Si26  1  0.039774  0.297904  0.815460  1
  Si  Si27  1  0.959882  0.702186  0.315199  1
  Si  Si28  1  0.370685  0.293125  0.315514  1
  Si  Si29  1  0.628828  0.707811  0.815557  1
  Si  Si30  1  0.207046  0.870459  0.565950  1
  Si  Si31  1  0.129783  0.792587  0.934814  1
  Si  Si32  1  0.792804  0.130469  0.066113  1
  Si  Si33  1  0.870621  0.206319  0.433967  1
  Si  Si34  1  0.292644  0.370475  0.684275  1
  Si  Si35  1  0.707595  0.628034  0.184174  1
