# generated using pymatgen
data_Tm10NiAg3
_symmetry_space_group_name_H-M   'P 1'
_cell_length_a   9.32564100
_cell_length_b   9.32569371
_cell_length_c   9.39675200
_cell_angle_alpha   90.00000000
_cell_angle_beta   90.00000000
_cell_angle_gamma   120.00020473
_symmetry_Int_Tables_number   1
_chemical_formula_structural   Tm10NiAg3
_chemical_formula_sum   'Tm20 Ni2 Ag6'
_cell_volume   707.72956958
_cell_formula_units_Z   2
loop_
 _symmetry_equiv_pos_site_id
 _symmetry_equiv_pos_as_xyz
  1  'x, y, z'
loop_
 _atom_site_type_symbol
 _atom_site_label
 _atom_site_symmetry_multiplicity
 _atom_site_fract_x
 _atom_site_fract_y
 _atom_site_fract_z
 _atom_site_occupancy
  Tm  Tm0  1  0.000000  0.000000  0.500000  1
  Tm  Tm1  1  0.000000  0.000000  0.000000  1
  Tm  Tm2  1  0.543652  0.456348  0.250000  1
  Tm  Tm3  1  0.543653  0.087307  0.250000  1
  Tm  Tm4  1  0.912695  0.456347  0.250000  1
  Tm  Tm5  1  0.456348  0.543652  0.750000  1
  Tm  Tm6  1  0.456347  0.912693  0.750000  1
  Tm  Tm7  1  0.087305  0.543653  0.750000  1
  Tm  Tm8  1  0.210018  0.789983  0.440452  1
  Tm  Tm9  1  0.210018  0.420037  0.440452  1
  Tm  Tm10  1  0.579965  0.789983  0.440452  1
  Tm  Tm11  1  0.789982  0.210017  0.559548  1
  Tm  Tm12  1  0.789982  0.579963  0.559548  1
  Tm  Tm13  1  0.420035  0.210017  0.559548  1
  Tm  Tm14  1  0.789982  0.210017  0.940452  1
  Tm  Tm15  1  0.789982  0.579963  0.940452  1
  Tm  Tm16  1  0.420035  0.210017  0.940452  1
  Tm  Tm17  1  0.210018  0.789983  0.059548  1
  Tm  Tm18  1  0.210018  0.420037  0.059548  1
  Tm  Tm19  1  0.579965  0.789983  0.059548  1
  Ni  Ni20  1  0.333333  0.666669  0.250000  1
  Ni  Ni21  1  0.666667  0.333331  0.750000  1
  Ag  Ag22  1  0.883532  0.116467  0.250000  1
  Ag  Ag23  1  0.883533  0.767065  0.250000  1
  Ag  Ag24  1  0.232936  0.116466  0.250000  1
  Ag  Ag25  1  0.116468  0.883533  0.750000  1
  Ag  Ag26  1  0.116467  0.232935  0.750000  1
  Ag  Ag27  1  0.767064  0.883534  0.750000  1
