# generated using pymatgen
data_Rb2TiCuAgTe4
_symmetry_space_group_name_H-M   'P 1'
_cell_length_a   6.47553800
_cell_length_b   6.23790400
_cell_length_c   14.95199600
_cell_angle_alpha   90.00000000
_cell_angle_beta   90.00000000
_cell_angle_gamma   90.00000000
_symmetry_Int_Tables_number   1
_chemical_formula_structural   Rb2TiCuAgTe4
_chemical_formula_sum   'Rb4 Ti2 Cu2 Ag2 Te8'
_cell_volume   603.96770266
_cell_formula_units_Z   2
loop_
 _symmetry_equiv_pos_site_id
 _symmetry_equiv_pos_as_xyz
  1  'x, y, z'
loop_
 _atom_site_type_symbol
 _atom_site_label
 _atom_site_symmetry_multiplicity
 _atom_site_fract_x
 _atom_site_fract_y
 _atom_site_fract_z
 _atom_site_occupancy
  Rb  Rb0  1  0.258080  0.251243  0.000000  1
  Rb  Rb1  1  0.741920  0.748757  0.000000  1
  Rb  Rb2  1  0.741920  0.251243  0.500000  1
  Rb  Rb3  1  0.258080  0.748757  0.500000  1
  Ti  Ti4  1  0.000000  0.000000  0.250000  1
  Ti  Ti5  1  0.000000  0.000000  0.750000  1
  Cu  Cu6  1  0.000000  0.500000  0.250000  1
  Cu  Cu7  1  0.000000  0.500000  0.750000  1
  Ag  Ag8  1  0.500000  0.000000  0.750000  1
  Ag  Ag9  1  0.500000  0.000000  0.250000  1
  Te  Te10  1  0.226099  0.251542  0.353203  1
  Te  Te11  1  0.773901  0.748458  0.646797  1
  Te  Te12  1  0.773901  0.748458  0.353203  1
  Te  Te13  1  0.773901  0.251542  0.853203  1
  Te  Te14  1  0.773901  0.251542  0.146797  1
  Te  Te15  1  0.226099  0.251542  0.646797  1
  Te  Te16  1  0.226099  0.748458  0.146797  1
  Te  Te17  1  0.226099  0.748458  0.853203  1
