# generated using pymatgen
data_Lu8Sc12Si15Os
_symmetry_space_group_name_H-M   'P 1'
_cell_length_a   7.01189159
_cell_length_b   7.37118269
_cell_length_c   13.82223800
_cell_angle_alpha   90.00000000
_cell_angle_beta   90.00000000
_cell_angle_gamma   90.20667594
_symmetry_Int_Tables_number   1
_chemical_formula_structural   Lu8Sc12Si15Os
_chemical_formula_sum   'Lu8 Sc12 Si15 Os1'
_cell_volume   714.41063138
_cell_formula_units_Z   1
loop_
 _symmetry_equiv_pos_site_id
 _symmetry_equiv_pos_as_xyz
  1  'x, y, z'
loop_
 _atom_site_type_symbol
 _atom_site_label
 _atom_site_symmetry_multiplicity
 _atom_site_fract_x
 _atom_site_fract_y
 _atom_site_fract_z
 _atom_site_occupancy
  Lu  Lu0  1  0.011328  0.180347  0.095773  1
  Lu  Lu1  1  0.991041  0.827782  0.904825  1
  Lu  Lu2  1  0.489264  0.677644  0.905195  1
  Lu  Lu3  1  0.991041  0.827782  0.595175  1
  Lu  Lu4  1  0.511032  0.322160  0.095711  1
  Lu  Lu5  1  0.011328  0.180347  0.404227  1
  Lu  Lu6  1  0.511032  0.322160  0.404289  1
  Lu  Lu7  1  0.489264  0.677644  0.594805  1
  Sc  Sc8  1  0.157857  0.502052  0.750000  1
  Sc  Sc9  1  0.838006  0.494928  0.250000  1
  Sc  Sc10  1  0.339766  0.007439  0.250000  1
  Sc  Sc11  1  0.667680  0.994366  0.750000  1
  Sc  Sc12  1  0.316720  0.171545  0.627579  1
  Sc  Sc13  1  0.672170  0.825806  0.373880  1
  Sc  Sc14  1  0.171150  0.678637  0.374107  1
  Sc  Sc15  1  0.672170  0.825806  0.126120  1
  Sc  Sc16  1  0.838079  0.318648  0.627740  1
  Sc  Sc17  1  0.316720  0.171545  0.872421  1
  Sc  Sc18  1  0.838079  0.318648  0.872260  1
  Sc  Sc19  1  0.171150  0.678637  0.125893  1
  Si  Si20  1  0.969662  0.889687  0.250000  1
  Si  Si21  1  0.469996  0.611423  0.250000  1
  Si  Si22  1  0.529030  0.391097  0.750000  1
  Si  Si23  1  0.287088  0.861739  0.750000  1
  Si  Si24  1  0.713868  0.134283  0.250000  1
  Si  Si25  1  0.213992  0.368360  0.250000  1
  Si  Si26  1  0.778716  0.628941  0.750000  1
  Si  Si27  1  0.161980  0.469222  0.537128  1
  Si  Si28  1  0.841790  0.534929  0.461630  1
  Si  Si29  1  0.342496  0.967285  0.459987  1
  Si  Si30  1  0.841790  0.534929  0.038370  1
  Si  Si31  1  0.656501  0.033695  0.538304  1
  Si  Si32  1  0.161980  0.469222  0.962872  1
  Si  Si33  1  0.656501  0.033695  0.961696  1
  Si  Si34  1  0.342496  0.967285  0.040013  1
  Os  Os35  1  0.027241  0.100286  0.750000  1
