# generated using pymatgen
data_Lu2Ga10OsRu2
_symmetry_space_group_name_H-M   'P 1'
_cell_length_a   8.90100300
_cell_length_b   8.90100300
_cell_length_c   6.33991300
_cell_angle_alpha   90.00000000
_cell_angle_beta   90.00000000
_cell_angle_gamma   90.00000000
_symmetry_Int_Tables_number   1
_chemical_formula_structural   Lu2Ga10OsRu2
_chemical_formula_sum   'Lu4 Ga20 Os2 Ru4'
_cell_volume   502.29770411
_cell_formula_units_Z   2
loop_
 _symmetry_equiv_pos_site_id
 _symmetry_equiv_pos_as_xyz
  1  'x, y, z'
loop_
 _atom_site_type_symbol
 _atom_site_label
 _atom_site_symmetry_multiplicity
 _atom_site_fract_x
 _atom_site_fract_y
 _atom_site_fract_z
 _atom_site_occupancy
  Lu  Lu0  1  0.183694  0.316306  0.000000  1
  Lu  Lu1  1  0.683694  0.183694  0.000000  1
  Lu  Lu2  1  0.816306  0.683694  0.000000  1
  Lu  Lu3  1  0.316306  0.816306  0.000000  1
  Ga  Ga4  1  0.500000  0.000000  0.281809  1
  Ga  Ga5  1  0.500000  0.000000  0.718191  1
  Ga  Ga6  1  0.292459  0.561571  0.708048  1
  Ga  Ga7  1  0.000000  0.500000  0.281809  1
  Ga  Ga8  1  0.000000  0.500000  0.718191  1
  Ga  Ga9  1  0.061571  0.792459  0.708048  1
  Ga  Ga10  1  0.207541  0.061571  0.291952  1
  Ga  Ga11  1  0.061571  0.792459  0.291952  1
  Ga  Ga12  1  0.707541  0.438429  0.708048  1
  Ga  Ga13  1  0.207541  0.061571  0.708048  1
  Ga  Ga14  1  0.938429  0.207541  0.708048  1
  Ga  Ga15  1  0.707541  0.438429  0.291952  1
  Ga  Ga16  1  0.561571  0.707541  0.291952  1
  Ga  Ga17  1  0.938429  0.207541  0.291952  1
  Ga  Ga18  1  0.561571  0.707541  0.708048  1
  Ga  Ga19  1  0.792459  0.938429  0.291952  1
  Ga  Ga20  1  0.438429  0.292459  0.708048  1
  Ga  Ga21  1  0.792459  0.938429  0.708048  1
  Ga  Ga22  1  0.438429  0.292459  0.291952  1
  Ga  Ga23  1  0.292459  0.561571  0.291952  1
  Os  Os24  1  0.000000  0.000000  0.000000  1
  Os  Os25  1  0.500000  0.500000  0.000000  1
  Ru  Ru26  1  0.177775  0.322225  0.500000  1
  Ru  Ru27  1  0.322225  0.822225  0.500000  1
  Ru  Ru28  1  0.822225  0.677775  0.500000  1
  Ru  Ru29  1  0.677775  0.177775  0.500000  1
