# generated using pymatgen
data_Zr4CoTc6Ni
_symmetry_space_group_name_H-M   'P 1'
_cell_length_a   5.13910000
_cell_length_b   5.13910160
_cell_length_c   8.69816500
_cell_angle_alpha   90.00000000
_cell_angle_beta   90.00000000
_cell_angle_gamma   119.99998970
_symmetry_Int_Tables_number   1
_chemical_formula_structural   Zr4CoTc6Ni
_chemical_formula_sum   'Zr4 Co1 Tc6 Ni1'
_cell_volume   198.94479943
_cell_formula_units_Z   1
loop_
 _symmetry_equiv_pos_site_id
 _symmetry_equiv_pos_as_xyz
  1  'x, y, z'
loop_
 _atom_site_type_symbol
 _atom_site_label
 _atom_site_symmetry_multiplicity
 _atom_site_fract_x
 _atom_site_fract_y
 _atom_site_fract_z
 _atom_site_occupancy
  Zr  Zr0  1  0.333333  0.666667  0.432600  1
  Zr  Zr1  1  0.666667  0.333333  0.567400  1
  Zr  Zr2  1  0.666667  0.333333  0.931817  1
  Zr  Zr3  1  0.333333  0.666667  0.068183  1
  Co  Co4  1  0.000000  0.000000  0.500000  1
  Tc  Tc5  1  0.832281  0.167719  0.250617  1
  Tc  Tc6  1  0.832281  0.664560  0.250617  1
  Tc  Tc7  1  0.335440  0.167719  0.250617  1
  Tc  Tc8  1  0.167719  0.832281  0.749383  1
  Tc  Tc9  1  0.167719  0.335440  0.749383  1
  Tc  Tc10  1  0.664560  0.832281  0.749383  1
  Ni  Ni11  1  0.000000  0.000000  0.000000  1
