# generated using pymatgen
data_Tb5Er3Lu8(Ga3Co)2
_symmetry_space_group_name_H-M   'P 1'
_cell_length_a   9.86638800
_cell_length_b   9.86638830
_cell_length_c   6.95923700
_cell_angle_alpha   90.00000000
_cell_angle_beta   90.00000000
_cell_angle_gamma   119.99999899
_symmetry_Int_Tables_number   1
_chemical_formula_structural   Tb5Er3Lu8(Ga3Co)2
_chemical_formula_sum   'Tb5 Er3 Lu8 Ga6 Co2'
_cell_volume   586.68996080
_cell_formula_units_Z   1
loop_
 _symmetry_equiv_pos_site_id
 _symmetry_equiv_pos_as_xyz
  1  'x, y, z'
loop_
 _atom_site_type_symbol
 _atom_site_label
 _atom_site_symmetry_multiplicity
 _atom_site_fract_x
 _atom_site_fract_y
 _atom_site_fract_z
 _atom_site_occupancy
  Tb  Tb0  1  0.535785  0.464215  0.708555  1
  Tb  Tb1  1  0.928431  0.464215  0.708555  1
  Tb  Tb2  1  0.535785  0.071569  0.708555  1
  Tb  Tb3  1  0.000000  0.000000  0.231692  1
  Tb  Tb4  1  0.000000  0.000000  0.731722  1
  Er  Er5  1  0.463489  0.536511  0.208605  1
  Er  Er6  1  0.073020  0.536511  0.208605  1
  Er  Er7  1  0.463489  0.926980  0.208605  1
  Lu  Lu8  1  0.174206  0.825794  0.512290  1
  Lu  Lu9  1  0.651589  0.825794  0.512290  1
  Lu  Lu10  1  0.174206  0.348411  0.512290  1
  Lu  Lu11  1  0.825919  0.174081  0.013455  1
  Lu  Lu12  1  0.348161  0.174081  0.013455  1
  Lu  Lu13  1  0.825919  0.651839  0.013455  1
  Lu  Lu14  1  0.333333  0.666667  0.825705  1
  Lu  Lu15  1  0.666667  0.333333  0.324714  1
  Ga  Ga16  1  0.163931  0.836069  0.956864  1
  Ga  Ga17  1  0.672136  0.836069  0.956864  1
  Ga  Ga18  1  0.163931  0.327864  0.956864  1
  Ga  Ga19  1  0.836365  0.163635  0.455799  1
  Ga  Ga20  1  0.327270  0.163635  0.455799  1
  Ga  Ga21  1  0.836365  0.672730  0.455799  1
  Co  Co22  1  0.333333  0.666667  0.446627  1
  Co  Co23  1  0.666667  0.333333  0.947672  1
