# generated using pymatgen
data_Yb3Lu5(B6Os)4
_symmetry_space_group_name_H-M   'P 1'
_cell_length_a   3.60276900
_cell_length_b   9.07581852
_cell_length_c   11.45926901
_cell_angle_alpha   89.94702903
_cell_angle_beta   90.00000000
_cell_angle_gamma   90.00000000
_symmetry_Int_Tables_number   1
_chemical_formula_structural   Yb3Lu5(B6Os)4
_chemical_formula_sum   'Yb3 Lu5 B24 Os4'
_cell_volume   374.69590727
_cell_formula_units_Z   1
loop_
 _symmetry_equiv_pos_site_id
 _symmetry_equiv_pos_as_xyz
  1  'x, y, z'
loop_
 _atom_site_type_symbol
 _atom_site_label
 _atom_site_symmetry_multiplicity
 _atom_site_fract_x
 _atom_site_fract_y
 _atom_site_fract_z
 _atom_site_occupancy
  Yb  Yb0  1  0.000000  0.324157  0.414565  1
  Yb  Yb1  1  0.000000  0.675726  0.585114  1
  Yb  Yb2  1  0.000000  0.822895  0.085912  1
  Lu  Lu3  1  0.000000  0.176277  0.915154  1
  Lu  Lu4  1  0.000000  0.941735  0.368123  1
  Lu  Lu5  1  0.000000  0.057591  0.630366  1
  Lu  Lu6  1  0.000000  0.443302  0.131040  1
  Lu  Lu7  1  0.000000  0.557999  0.869519  1
  B  B8  1  0.500000  0.553365  0.433090  1
  B  B9  1  0.500000  0.445811  0.567851  1
  B  B10  1  0.500000  0.054111  0.065961  1
  B  B11  1  0.500000  0.946588  0.933587  1
  B  B12  1  0.500000  0.749707  0.417430  1
  B  B13  1  0.500000  0.250056  0.582816  1
  B  B14  1  0.500000  0.250058  0.080945  1
  B  B15  1  0.500000  0.750636  0.917922  1
  B  B16  1  0.500000  0.791602  0.263900  1
  B  B17  1  0.500000  0.207606  0.736894  1
  B  B18  1  0.500000  0.291861  0.234623  1
  B  B19  1  0.500000  0.709287  0.764857  1
  B  B20  1  0.500000  0.630569  0.185055  1
  B  B21  1  0.500000  0.368807  0.816364  1
  B  B22  1  0.500000  0.130759  0.314016  1
  B  B23  1  0.500000  0.869900  0.684868  1
  B  B24  1  0.500000  0.982294  0.210958  1
  B  B25  1  0.500000  0.018516  0.788403  1
  B  B26  1  0.500000  0.482596  0.288110  1
  B  B27  1  0.500000  0.516909  0.712669  1
  B  B28  1  0.500000  0.598120  0.027042  1
  B  B29  1  0.500000  0.400321  0.972706  1
  B  B30  1  0.500000  0.096525  0.473019  1
  B  B31  1  0.500000  0.903503  0.526186  1
  Os  Os32  1  0.000000  0.638951  0.320136  1
  Os  Os33  1  0.000000  0.359413  0.681763  1
  Os  Os34  1  0.000000  0.138916  0.178662  1
  Os  Os35  1  0.000000  0.863532  0.820374  1
