# generated using pymatgen
data_Ca4PaRh7
_symmetry_space_group_name_H-M   'P 1'
_cell_length_a   5.66657800
_cell_length_b   5.66657657
_cell_length_c   8.33915000
_cell_angle_alpha   90.00000000
_cell_angle_beta   90.00000000
_cell_angle_gamma   119.99998502
_symmetry_Int_Tables_number   1
_chemical_formula_structural   Ca4PaRh7
_chemical_formula_sum   'Ca4 Pa1 Rh7'
_cell_volume   231.89645814
_cell_formula_units_Z   1
loop_
 _symmetry_equiv_pos_site_id
 _symmetry_equiv_pos_as_xyz
  1  'x, y, z'
loop_
 _atom_site_type_symbol
 _atom_site_label
 _atom_site_symmetry_multiplicity
 _atom_site_fract_x
 _atom_site_fract_y
 _atom_site_fract_z
 _atom_site_occupancy
  Ca  Ca0  1  0.333333  0.666667  0.053200  1
  Ca  Ca1  1  0.666667  0.333333  0.578199  1
  Ca  Ca2  1  0.666667  0.333333  0.946800  1
  Ca  Ca3  1  0.333333  0.666667  0.421801  1
  Pa  Pa4  1  0.000000  0.000000  0.500000  1
  Rh  Rh5  1  0.000000  0.000000  0.000000  1
  Rh  Rh6  1  0.827266  0.654534  0.258990  1
  Rh  Rh7  1  0.172734  0.827266  0.741010  1
  Rh  Rh8  1  0.654534  0.827266  0.741010  1
  Rh  Rh9  1  0.345466  0.172734  0.258990  1
  Rh  Rh10  1  0.827266  0.172734  0.258990  1
  Rh  Rh11  1  0.172734  0.345466  0.741010  1
