# generated using pymatgen
data_SmBr37
_symmetry_space_group_name_H-M   'P 1'
_cell_length_a   14.20848141
_cell_length_b   15.29732181
_cell_length_c   14.42416200
_cell_angle_alpha   103.00376457
_cell_angle_beta   48.80056783
_cell_angle_gamma   81.50743146
_symmetry_Int_Tables_number   1
_chemical_formula_structural   SmBr37
_chemical_formula_sum   'Sm1 Br37'
_cell_volume   2102.91272627
_cell_formula_units_Z   1
loop_
 _symmetry_equiv_pos_site_id
 _symmetry_equiv_pos_as_xyz
  1  'x, y, z'
loop_
 _atom_site_type_symbol
 _atom_site_label
 _atom_site_symmetry_multiplicity
 _atom_site_fract_x
 _atom_site_fract_y
 _atom_site_fract_z
 _atom_site_occupancy
  Sm  Sm0  1  0.500000  0.000000  0.000000  1
  Br  Br1  1  0.796786  0.302409  0.134853  1
  Br  Br2  1  0.203214  0.697591  0.865147  1
  Br  Br3  1  0.752093  0.082873  0.362307  1
  Br  Br4  1  0.247907  0.917127  0.637693  1
  Br  Br5  1  0.109874  0.349925  0.173391  1
  Br  Br6  1  0.890126  0.650075  0.826609  1
  Br  Br7  1  0.872302  0.541690  0.248093  1
  Br  Br8  1  0.127698  0.458310  0.751907  1
  Br  Br9  1  0.689630  0.276061  0.522356  1
  Br  Br10  1  0.310370  0.723939  0.477644  1
  Br  Br11  1  0.061218  0.150254  0.459578  1
  Br  Br12  1  0.938782  0.849746  0.540422  1
  Br  Br13  1  0.987119  0.004049  0.281367  1
  Br  Br14  1  0.012881  0.995951  0.718633  1
  Br  Br15  1  0.959290  0.343554  0.593308  1
  Br  Br16  1  0.040710  0.656446  0.406692  1
  Br  Br17  1  0.586508  0.428941  0.233639  1
  Br  Br18  1  0.413492  0.571059  0.766361  1
  Br  Br19  1  0.173685  0.475521  0.271256  1
  Br  Br20  1  0.826315  0.524479  0.728744  1
  Br  Br21  1  0.000000  0.500000  0.000000  1
  Br  Br22  1  0.580456  0.948367  0.129960  1
  Br  Br23  1  0.419544  0.051633  0.870040  1
  Br  Br24  1  0.321050  0.053715  0.299994  1
  Br  Br25  1  0.678950  0.946285  0.700006  1
  Br  Br26  1  0.540477  0.131160  0.410325  1
  Br  Br27  1  0.459523  0.868840  0.589675  1
  Br  Br28  1  0.085982  0.215556  0.073724  1
  Br  Br29  1  0.914018  0.784444  0.926276  1
  Br  Br30  1  0.663537  0.697407  0.403398  1
  Br  Br31  1  0.336463  0.302593  0.596602  1
  Br  Br32  1  0.901318  0.150044  0.924370  1
  Br  Br33  1  0.098682  0.849956  0.075630  1
  Br  Br34  1  0.544348  0.166531  0.030486  1
  Br  Br35  1  0.455652  0.833469  0.969514  1
  Br  Br36  1  0.646242  0.433685  0.652742  1
  Br  Br37  1  0.353758  0.566315  0.347258  1
