# generated using pymatgen
data_Hf2B2MoRu5
_symmetry_space_group_name_H-M   'P 1'
_cell_length_a   9.43167000
_cell_length_b   9.43167000
_cell_length_c   3.08227500
_cell_angle_alpha   90.00000000
_cell_angle_beta   90.00000000
_cell_angle_gamma   90.00000000
_symmetry_Int_Tables_number   1
_chemical_formula_structural   Hf2B2MoRu5
_chemical_formula_sum   'Hf4 B4 Mo2 Ru10'
_cell_volume   274.18808469
_cell_formula_units_Z   2
loop_
 _symmetry_equiv_pos_site_id
 _symmetry_equiv_pos_as_xyz
  1  'x, y, z'
loop_
 _atom_site_type_symbol
 _atom_site_label
 _atom_site_symmetry_multiplicity
 _atom_site_fract_x
 _atom_site_fract_y
 _atom_site_fract_z
 _atom_site_occupancy
  Hf  Hf0  1  0.823402  0.676598  0.000000  1
  Hf  Hf1  1  0.176598  0.323402  0.000000  1
  Hf  Hf2  1  0.323402  0.823402  0.000000  1
  Hf  Hf3  1  0.676598  0.176598  0.000000  1
  B  B4  1  0.621497  0.878503  0.000000  1
  B  B5  1  0.378503  0.121497  0.000000  1
  B  B6  1  0.121497  0.621497  0.000000  1
  B  B7  1  0.878503  0.378503  0.000000  1
  Mo  Mo8  1  0.500000  0.500000  0.000000  1
  Mo  Mo9  1  0.000000  0.000000  0.000000  1
  Ru  Ru10  1  0.571298  0.716122  0.500000  1
  Ru  Ru11  1  0.428702  0.283878  0.500000  1
  Ru  Ru12  1  0.071298  0.783878  0.500000  1
  Ru  Ru13  1  0.928702  0.216122  0.500000  1
  Ru  Ru14  1  0.283878  0.571298  0.500000  1
  Ru  Ru15  1  0.716122  0.428702  0.500000  1
  Ru  Ru16  1  0.216122  0.071298  0.500000  1
  Ru  Ru17  1  0.783878  0.928702  0.500000  1
  Ru  Ru18  1  0.500000  0.000000  0.500000  1
  Ru  Ru19  1  0.000000  0.500000  0.500000  1
