# generated using pymatgen
data_Ho7Er6Tm3(Ga3Co)2
_symmetry_space_group_name_H-M   'P 1'
_cell_length_a   9.94311900
_cell_length_b   9.94322637
_cell_length_c   6.88779100
_cell_angle_alpha   89.99973184
_cell_angle_beta   90.00040671
_cell_angle_gamma   119.99179512
_symmetry_Int_Tables_number   1
_chemical_formula_structural   Ho7Er6Tm3(Ga3Co)2
_chemical_formula_sum   'Ho7 Er6 Tm3 Ga6 Co2'
_cell_volume   589.78871247
_cell_formula_units_Z   1
loop_
 _symmetry_equiv_pos_site_id
 _symmetry_equiv_pos_as_xyz
  1  'x, y, z'
loop_
 _atom_site_type_symbol
 _atom_site_label
 _atom_site_symmetry_multiplicity
 _atom_site_fract_x
 _atom_site_fract_y
 _atom_site_fract_z
 _atom_site_occupancy
  Ho  Ho0  1  0.072496  0.536207  0.208188  1
  Ho  Ho1  1  0.463821  0.927516  0.208182  1
  Ho  Ho2  1  0.535928  0.464068  0.707467  1
  Ho  Ho3  1  0.927945  0.463983  0.707538  1
  Ho  Ho4  1  0.536009  0.072060  0.707541  1
  Ho  Ho5  1  0.999994  0.000030  0.231282  1
  Ho  Ho6  1  0.000027  0.999987  0.730104  1
  Er  Er7  1  0.826972  0.173000  0.010320  1
  Er  Er8  1  0.346273  0.173299  0.010520  1
  Er  Er9  1  0.826671  0.653731  0.010481  1
  Er  Er10  1  0.333434  0.666559  0.827324  1
  Er  Er11  1  0.666576  0.333414  0.327910  1
  Er  Er12  1  0.463671  0.536391  0.208324  1
  Tm  Tm13  1  0.173144  0.826869  0.510278  1
  Tm  Tm14  1  0.653624  0.826709  0.510145  1
  Tm  Tm15  1  0.173302  0.346372  0.510141  1
  Ga  Ga16  1  0.163494  0.836502  0.959573  1
  Ga  Ga17  1  0.672782  0.836298  0.959815  1
  Ga  Ga18  1  0.163669  0.327188  0.959784  1
  Ga  Ga19  1  0.836740  0.163262  0.460262  1
  Ga  Ga20  1  0.326530  0.163280  0.460098  1
  Ga  Ga21  1  0.836717  0.673458  0.460097  1
  Co  Co22  1  0.333525  0.666470  0.444357  1
  Co  Co23  1  0.666658  0.333345  0.944311  1
