# generated using pymatgen
data_Hf18Re7Si2W
_symmetry_space_group_name_H-M   'P 1'
_cell_length_a   8.60020900
_cell_length_b   8.60020884
_cell_length_c   8.64773900
_cell_angle_alpha   90.00000000
_cell_angle_beta   90.00000000
_cell_angle_gamma   120.00000446
_symmetry_Int_Tables_number   1
_chemical_formula_structural   Hf18Re7Si2W
_chemical_formula_sum   'Hf18 Re7 Si2 W1'
_cell_volume   553.92528359
_cell_formula_units_Z   1
loop_
 _symmetry_equiv_pos_site_id
 _symmetry_equiv_pos_as_xyz
  1  'x, y, z'
loop_
 _atom_site_type_symbol
 _atom_site_label
 _atom_site_symmetry_multiplicity
 _atom_site_fract_x
 _atom_site_fract_y
 _atom_site_fract_z
 _atom_site_occupancy
  Hf  Hf0  1  0.196067  0.803933  0.452817  1
  Hf  Hf1  1  0.196067  0.392135  0.452817  1
  Hf  Hf2  1  0.607865  0.803933  0.452817  1
  Hf  Hf3  1  0.803933  0.196067  0.547183  1
  Hf  Hf4  1  0.803933  0.607865  0.547183  1
  Hf  Hf5  1  0.392135  0.196067  0.547183  1
  Hf  Hf6  1  0.805186  0.194814  0.952732  1
  Hf  Hf7  1  0.805186  0.610372  0.952732  1
  Hf  Hf8  1  0.389628  0.194814  0.952732  1
  Hf  Hf9  1  0.194814  0.805186  0.047268  1
  Hf  Hf10  1  0.194814  0.389628  0.047268  1
  Hf  Hf11  1  0.610372  0.805186  0.047268  1
  Hf  Hf12  1  0.539331  0.460669  0.249638  1
  Hf  Hf13  1  0.539331  0.078661  0.249638  1
  Hf  Hf14  1  0.921339  0.460669  0.249638  1
  Hf  Hf15  1  0.460669  0.539331  0.750362  1
  Hf  Hf16  1  0.460669  0.921339  0.750362  1
  Hf  Hf17  1  0.078661  0.539331  0.750362  1
  Re  Re18  1  0.890193  0.109807  0.250402  1
  Re  Re19  1  0.890193  0.780385  0.250402  1
  Re  Re20  1  0.219615  0.109807  0.250402  1
  Re  Re21  1  0.109807  0.890193  0.749598  1
  Re  Re22  1  0.109807  0.219615  0.749598  1
  Re  Re23  1  0.780385  0.890193  0.749598  1
  Re  Re24  1  0.000000  0.000000  0.000000  1
  Si  Si25  1  0.333333  0.666667  0.249162  1
  Si  Si26  1  0.666667  0.333333  0.750838  1
  W  W27  1  0.000000  0.000000  0.500000  1
