# generated using pymatgen
data_Pr18Ho2Si15Rh
_symmetry_space_group_name_H-M   'P 1'
_cell_length_a   7.88213492
_cell_length_b   7.89019558
_cell_length_c   15.23853669
_cell_angle_alpha   90.07693827
_cell_angle_beta   89.66758863
_cell_angle_gamma   90.13641167
_symmetry_Int_Tables_number   1
_chemical_formula_structural   Pr18Ho2Si15Rh
_chemical_formula_sum   'Pr18 Ho2 Si15 Rh1'
_cell_volume   947.68929496
_cell_formula_units_Z   1
loop_
 _symmetry_equiv_pos_site_id
 _symmetry_equiv_pos_as_xyz
  1  'x, y, z'
loop_
 _atom_site_type_symbol
 _atom_site_label
 _atom_site_symmetry_multiplicity
 _atom_site_fract_x
 _atom_site_fract_y
 _atom_site_fract_z
 _atom_site_occupancy
  Pr  Pr0  1  0.818825  0.187922  0.750375  1
  Pr  Pr1  1  0.693934  0.688239  0.499816  1
  Pr  Pr2  1  0.373013  0.010337  0.448060  1
  Pr  Pr3  1  0.489353  0.875419  0.698774  1
  Pr  Pr4  1  0.510314  0.124450  0.197032  1
  Pr  Pr5  1  0.875703  0.487626  0.299843  1
  Pr  Pr6  1  0.125772  0.508820  0.800936  1
  Pr  Pr7  1  0.626386  0.988199  0.949372  1
  Pr  Pr8  1  0.004333  0.377688  0.551286  1
  Pr  Pr9  1  0.988474  0.625960  0.052067  1
  Pr  Pr10  1  0.134401  0.984432  0.875125  1
  Pr  Pr11  1  0.517551  0.631097  0.125728  1
  Pr  Pr12  1  0.473011  0.362892  0.629429  1
  Pr  Pr13  1  0.628249  0.516238  0.874402  1
  Pr  Pr14  1  0.372591  0.481848  0.371993  1
  Pr  Pr15  1  0.872237  0.020396  0.376299  1
  Pr  Pr16  1  0.982211  0.127472  0.124089  1
  Pr  Pr17  1  0.026168  0.879586  0.624727  1
  Ho  Ho18  1  0.307729  0.308720  0.998856  1
  Ho  Ho19  1  0.188575  0.809823  0.250258  1
  Si  Si20  1  0.330755  0.691292  0.952804  1
  Si  Si21  1  0.663511  0.303750  0.452345  1
  Si  Si22  1  0.693584  0.332695  0.048386  1
  Si  Si23  1  0.305311  0.668249  0.546683  1
  Si  Si24  1  0.808937  0.830753  0.204056  1
  Si  Si25  1  0.169581  0.192882  0.295800  1
  Si  Si26  1  0.834363  0.802984  0.799025  1
  Si  Si27  1  0.287057  0.923660  0.061666  1
  Si  Si28  1  0.574398  0.788527  0.308941  1
  Si  Si29  1  0.423159  0.210632  0.816269  1
  Si  Si30  1  0.783373  0.580609  0.690410  1
  Si  Si31  1  0.213084  0.424292  0.187481  1
  Si  Si32  1  0.704645  0.074415  0.559204  1
  Si  Si33  1  0.925258  0.288768  0.942441  1
  Si  Si34  1  0.081834  0.716261  0.437488  1
  Rh  Rh35  1  0.192316  0.173070  0.698536  1
