# generated using pymatgen
data_Mn2V17Si12Tc
_symmetry_space_group_name_H-M   'P 1'
_cell_length_a   7.00538607
_cell_length_b   7.00538614
_cell_length_c   13.20569100
_cell_angle_alpha   90.00000000
_cell_angle_beta   90.00000000
_cell_angle_gamma   140.57094570
_symmetry_Int_Tables_number   1
_chemical_formula_structural   Mn2V17Si12Tc
_chemical_formula_sum   'Mn2 V17 Si12 Tc1'
_cell_volume   411.60688627
_cell_formula_units_Z   1
loop_
 _symmetry_equiv_pos_site_id
 _symmetry_equiv_pos_as_xyz
  1  'x, y, z'
loop_
 _atom_site_type_symbol
 _atom_site_label
 _atom_site_symmetry_multiplicity
 _atom_site_fract_x
 _atom_site_fract_y
 _atom_site_fract_z
 _atom_site_occupancy
  Mn  Mn0  1  0.502771  0.502771  0.000000  1
  Mn  Mn1  1  0.999234  0.999234  0.000000  1
  V  V2  1  0.070931  0.421796  0.398627  1
  V  V3  1  0.574351  0.928608  0.902779  1
  V  V4  1  0.421796  0.070931  0.601373  1
  V  V5  1  0.928608  0.574351  0.097221  1
  V  V6  1  0.851820  0.652551  0.677549  1
  V  V7  1  0.348553  0.151640  0.174774  1
  V  V8  1  0.652551  0.851820  0.322451  1
  V  V9  1  0.151640  0.348553  0.825226  1
  V  V10  1  0.652551  0.851820  0.677549  1
  V  V11  1  0.151640  0.348553  0.174774  1
  V  V12  1  0.851820  0.652551  0.322451  1
  V  V13  1  0.348553  0.151640  0.825226  1
  V  V14  1  0.421796  0.070931  0.398627  1
  V  V15  1  0.928608  0.574351  0.902779  1
  V  V16  1  0.070931  0.421796  0.601373  1
  V  V17  1  0.574351  0.928608  0.097221  1
  V  V18  1  0.998044  0.998044  0.500000  1
  Si  Si19  1  0.250642  0.749451  0.751924  1
  Si  Si20  1  0.749451  0.250642  0.248076  1
  Si  Si21  1  0.749451  0.250642  0.751924  1
  Si  Si22  1  0.250642  0.749451  0.248076  1
  Si  Si23  1  0.246612  0.246612  0.667502  1
  Si  Si24  1  0.751795  0.751795  0.160510  1
  Si  Si25  1  0.246612  0.246612  0.332498  1
  Si  Si26  1  0.751795  0.751795  0.839490  1
  Si  Si27  1  0.583439  0.918530  0.500000  1
  Si  Si28  1  0.090596  0.410733  0.000000  1
  Si  Si29  1  0.918530  0.583439  0.500000  1
  Si  Si30  1  0.410733  0.090596  0.000000  1
  Tc  Tc31  1  0.499154  0.499154  0.500000  1
