# generated using pymatgen
data_ErTm19(FeSb2)4
_symmetry_space_group_name_H-M   'P 1'
_cell_length_a   7.75308706
_cell_length_b   8.74777200
_cell_length_c   12.07492709
_cell_angle_alpha   90.00000000
_cell_angle_beta   90.01424419
_cell_angle_gamma   90.00000000
_symmetry_Int_Tables_number   1
_chemical_formula_structural   ErTm19(FeSb2)4
_chemical_formula_sum   'Er1 Tm19 Fe4 Sb8'
_cell_volume   818.94855259
_cell_formula_units_Z   1
loop_
 _symmetry_equiv_pos_site_id
 _symmetry_equiv_pos_as_xyz
  1  'x, y, z'
loop_
 _atom_site_type_symbol
 _atom_site_label
 _atom_site_symmetry_multiplicity
 _atom_site_fract_x
 _atom_site_fract_y
 _atom_site_fract_z
 _atom_site_occupancy
  Er  Er0  1  0.876579  0.750000  0.808533  1
  Tm  Tm1  1  0.157504  0.750000  0.205587  1
  Tm  Tm2  1  0.657661  0.250000  0.294355  1
  Tm  Tm3  1  0.842349  0.250000  0.794341  1
  Tm  Tm4  1  0.342509  0.750000  0.705569  1
  Tm  Tm5  1  0.447970  0.750000  0.995861  1
  Tm  Tm6  1  0.948067  0.250000  0.504046  1
  Tm  Tm7  1  0.551850  0.250000  0.004148  1
  Tm  Tm8  1  0.052101  0.750000  0.495851  1
  Tm  Tm9  1  0.623066  0.750000  0.308945  1
  Tm  Tm10  1  0.123107  0.250000  0.191170  1
  Tm  Tm11  1  0.376916  0.250000  0.691155  1
  Tm  Tm12  1  0.825304  0.964264  0.064415  1
  Tm  Tm13  1  0.325264  0.036010  0.435762  1
  Tm  Tm14  1  0.174950  0.463596  0.935830  1
  Tm  Tm15  1  0.674661  0.535980  0.564195  1
  Tm  Tm16  1  0.174950  0.036404  0.935830  1
  Tm  Tm17  1  0.674661  0.964020  0.564195  1
  Tm  Tm18  1  0.825304  0.535736  0.064415  1
  Tm  Tm19  1  0.325264  0.463990  0.435762  1
  Fe  Fe20  1  0.428202  0.750000  0.489496  1
  Fe  Fe21  1  0.928218  0.250000  0.010516  1
  Fe  Fe22  1  0.571730  0.250000  0.510455  1
  Fe  Fe23  1  0.071843  0.750000  0.989679  1
  Sb  Sb24  1  0.931565  0.993071  0.328019  1
  Sb  Sb25  1  0.431593  0.006856  0.171959  1
  Sb  Sb26  1  0.068646  0.492947  0.671920  1
  Sb  Sb27  1  0.568182  0.506705  0.828047  1
  Sb  Sb28  1  0.068646  0.007053  0.671920  1
  Sb  Sb29  1  0.568182  0.993295  0.828047  1
  Sb  Sb30  1  0.931565  0.506929  0.328019  1
  Sb  Sb31  1  0.431593  0.493144  0.171959  1
