# generated using pymatgen
data_Ba7Na2Mn5O20
_symmetry_space_group_name_H-M   'P 1'
_cell_length_a   5.87264795
_cell_length_b   5.87264767
_cell_length_c   17.56092600
_cell_angle_alpha   80.37449077
_cell_angle_beta   99.62550877
_cell_angle_gamma   119.99999861
_symmetry_Int_Tables_number   1
_chemical_formula_structural   Ba7Na2Mn5O20
_chemical_formula_sum   'Ba7 Na2 Mn5 O20'
_cell_volume   514.63158323
_cell_formula_units_Z   1
loop_
 _symmetry_equiv_pos_site_id
 _symmetry_equiv_pos_as_xyz
  1  'x, y, z'
loop_
 _atom_site_type_symbol
 _atom_site_label
 _atom_site_symmetry_multiplicity
 _atom_site_fract_x
 _atom_site_fract_y
 _atom_site_fract_z
 _atom_site_occupancy
  Ba  Ba0  1  0.000000  0.000000  0.000000  1
  Ba  Ba1  1  0.387225  0.612777  0.161673  1
  Ba  Ba2  1  0.771313  0.228686  0.313942  1
  Ba  Ba3  1  0.144817  0.855183  0.434451  1
  Ba  Ba4  1  0.855182  0.144817  0.565549  1
  Ba  Ba5  1  0.228686  0.771314  0.686058  1
  Ba  Ba6  1  0.612776  0.387226  0.838327  1
  Na  Na7  1  0.072852  0.927148  0.218557  1
  Na  Na8  1  0.927147  0.072852  0.781443  1
  Mn  Mn9  1  0.697082  0.302916  0.091250  1
  Mn  Mn10  1  0.302917  0.697084  0.908750  1
  Mn  Mn11  1  0.449440  0.550562  0.348321  1
  Mn  Mn12  1  0.500000  0.500001  0.500000  1
  Mn  Mn13  1  0.550561  0.449441  0.651679  1
  O  O14  1  0.335602  0.664400  0.006803  1
  O  O15  1  0.866584  0.132896  0.127613  1
  O  O16  1  0.393925  0.133416  0.127613  1
  O  O17  1  0.867104  0.606075  0.127613  1
  O  O18  1  0.278261  0.261589  0.295365  1
  O  O19  1  0.738412  0.721308  0.295365  1
  O  O20  1  0.278693  0.721740  0.295365  1
  O  O21  1  0.623625  0.376084  0.429970  1
  O  O22  1  0.182429  0.376374  0.429970  1
  O  O23  1  0.623915  0.817568  0.429970  1
  O  O24  1  0.376084  0.182430  0.570029  1
  O  O25  1  0.817570  0.623625  0.570029  1
  O  O26  1  0.376373  0.623916  0.570029  1
  O  O27  1  0.721308  0.278261  0.704635  1
  O  O28  1  0.261587  0.278692  0.704635  1
  O  O29  1  0.721740  0.738412  0.704635  1
  O  O30  1  0.132896  0.393925  0.872388  1
  O  O31  1  0.606076  0.866584  0.872388  1
  O  O32  1  0.133415  0.867104  0.872388  1
  O  O33  1  0.664399  0.335602  0.993197  1
