# generated using pymatgen
data_Ho3Er17Cd3Hg3Ru2
_symmetry_space_group_name_H-M   'P 1'
_cell_length_a   9.51384600
_cell_length_b   9.51384572
_cell_length_c   9.71126600
_cell_angle_alpha   90.00000000
_cell_angle_beta   90.00000000
_cell_angle_gamma   120.00000097
_symmetry_Int_Tables_number   1
_chemical_formula_structural   Ho3Er17Cd3Hg3Ru2
_chemical_formula_sum   'Ho3 Er17 Cd3 Hg3 Ru2'
_cell_volume   761.23491425
_cell_formula_units_Z   1
loop_
 _symmetry_equiv_pos_site_id
 _symmetry_equiv_pos_as_xyz
  1  'x, y, z'
loop_
 _atom_site_type_symbol
 _atom_site_label
 _atom_site_symmetry_multiplicity
 _atom_site_fract_x
 _atom_site_fract_y
 _atom_site_fract_z
 _atom_site_occupancy
  Ho  Ho0  1  0.459214  0.540786  0.750000  1
  Ho  Ho1  1  0.459214  0.918427  0.750000  1
  Ho  Ho2  1  0.081573  0.540786  0.750000  1
  Er  Er3  1  0.000000  0.000000  0.490976  1
  Er  Er4  1  0.000000  0.000000  0.009024  1
  Er  Er5  1  0.209453  0.790547  0.439595  1
  Er  Er6  1  0.209453  0.418907  0.439595  1
  Er  Er7  1  0.581093  0.790547  0.439595  1
  Er  Er8  1  0.790235  0.209765  0.558954  1
  Er  Er9  1  0.790235  0.580471  0.558954  1
  Er  Er10  1  0.419529  0.209765  0.558954  1
  Er  Er11  1  0.790235  0.209765  0.941046  1
  Er  Er12  1  0.790235  0.580471  0.941046  1
  Er  Er13  1  0.419529  0.209765  0.941046  1
  Er  Er14  1  0.209453  0.790547  0.060405  1
  Er  Er15  1  0.209453  0.418907  0.060405  1
  Er  Er16  1  0.581093  0.790547  0.060405  1
  Er  Er17  1  0.541020  0.458980  0.250000  1
  Er  Er18  1  0.541020  0.082041  0.250000  1
  Er  Er19  1  0.917959  0.458980  0.250000  1
  Cd  Cd20  1  0.112616  0.887384  0.750000  1
  Cd  Cd21  1  0.112616  0.225232  0.750000  1
  Cd  Cd22  1  0.774768  0.887384  0.750000  1
  Hg  Hg23  1  0.879546  0.120454  0.250000  1
  Hg  Hg24  1  0.879546  0.759093  0.250000  1
  Hg  Hg25  1  0.240907  0.120454  0.250000  1
  Ru  Ru26  1  0.333333  0.666667  0.250000  1
  Ru  Ru27  1  0.666667  0.333333  0.750000  1
