# generated using pymatgen
data_Tb9Y(IrPb3)2
_symmetry_space_group_name_H-M   'P 1'
_cell_length_a   9.27991900
_cell_length_b   9.27991910
_cell_length_c   6.89633900
_cell_angle_alpha   90.00000000
_cell_angle_beta   90.00000000
_cell_angle_gamma   119.99999609
_symmetry_Int_Tables_number   1
_chemical_formula_structural   Tb9Y(IrPb3)2
_chemical_formula_sum   'Tb9 Y1 Ir2 Pb6'
_cell_volume   514.32498972
_cell_formula_units_Z   1
loop_
 _symmetry_equiv_pos_site_id
 _symmetry_equiv_pos_as_xyz
  1  'x, y, z'
loop_
 _atom_site_type_symbol
 _atom_site_label
 _atom_site_symmetry_multiplicity
 _atom_site_fract_x
 _atom_site_fract_y
 _atom_site_fract_z
 _atom_site_occupancy
  Tb  Tb0  1  0.235423  0.235780  0.749859  1
  Tb  Tb1  1  0.000357  0.764577  0.749859  1
  Tb  Tb2  1  0.235423  0.999643  0.250141  1
  Tb  Tb3  1  0.764220  0.999643  0.749859  1
  Tb  Tb4  1  0.666667  0.333333  0.500000  1
  Tb  Tb5  1  0.764220  0.764577  0.250141  1
  Tb  Tb6  1  0.000357  0.235780  0.250141  1
  Tb  Tb7  1  0.333333  0.666667  0.000000  1
  Tb  Tb8  1  0.666667  0.333333  0.000000  1
  Y  Y9  1  0.333333  0.666667  0.500000  1
  Ir  Ir10  1  0.000000  0.000000  0.000000  1
  Ir  Ir11  1  0.000000  0.000000  0.500000  1
  Pb  Pb12  1  0.594010  0.000071  0.249052  1
  Pb  Pb13  1  0.999929  0.593939  0.249052  1
  Pb  Pb14  1  0.594010  0.593939  0.750948  1
  Pb  Pb15  1  0.406061  0.405990  0.249052  1
  Pb  Pb16  1  0.999929  0.405990  0.750948  1
  Pb  Pb17  1  0.406061  0.000071  0.750948  1
