# generated using pymatgen
data_Th10Ge2(BiPb)3
_symmetry_space_group_name_H-M   'P 1'
_cell_length_a   9.65230700
_cell_length_b   9.65230669
_cell_length_c   6.55655000
_cell_angle_alpha   90.00000000
_cell_angle_beta   90.00000000
_cell_angle_gamma   119.99999763
_symmetry_Int_Tables_number   1
_chemical_formula_structural   Th10Ge2(BiPb)3
_chemical_formula_sum   'Th10 Ge2 Bi3 Pb3'
_cell_volume   529.01533177
_cell_formula_units_Z   1
loop_
 _symmetry_equiv_pos_site_id
 _symmetry_equiv_pos_as_xyz
  1  'x, y, z'
loop_
 _atom_site_type_symbol
 _atom_site_label
 _atom_site_symmetry_multiplicity
 _atom_site_fract_x
 _atom_site_fract_y
 _atom_site_fract_z
 _atom_site_occupancy
  Th  Th0  1  0.000000  0.738149  0.750000  1
  Th  Th1  1  0.261851  0.261851  0.750000  1
  Th  Th2  1  0.333333  0.666667  0.498096  1
  Th  Th3  1  0.666667  0.333333  0.498096  1
  Th  Th4  1  0.738243  0.738243  0.250000  1
  Th  Th5  1  0.738149  0.000000  0.750000  1
  Th  Th6  1  0.000000  0.261757  0.250000  1
  Th  Th7  1  0.261757  0.000000  0.250000  1
  Th  Th8  1  0.333333  0.666667  0.001904  1
  Th  Th9  1  0.666667  0.333333  0.001904  1
  Ge  Ge10  1  0.000000  0.000000  0.997543  1
  Ge  Ge11  1  0.000000  0.000000  0.502457  1
  Bi  Bi12  1  0.611384  0.611384  0.750000  1
  Bi  Bi13  1  0.000000  0.388616  0.750000  1
  Bi  Bi14  1  0.388616  0.000000  0.750000  1
  Pb  Pb15  1  0.613600  0.000000  0.250000  1
  Pb  Pb16  1  0.386400  0.386400  0.250000  1
  Pb  Pb17  1  0.000000  0.613600  0.250000  1
