# generated using pymatgen
data_Zr4IrPt3
_symmetry_space_group_name_H-M   'P 1'
_cell_length_a   6.40592867
_cell_length_b   5.48461126
_cell_length_c   4.39654700
_cell_angle_alpha   90.00000000
_cell_angle_beta   90.00000000
_cell_angle_gamma   90.40769385
_symmetry_Int_Tables_number   1
_chemical_formula_structural   Zr4IrPt3
_chemical_formula_sum   'Zr4 Ir1 Pt3'
_cell_volume   154.46449722
_cell_formula_units_Z   1
loop_
 _symmetry_equiv_pos_site_id
 _symmetry_equiv_pos_as_xyz
  1  'x, y, z'
loop_
 _atom_site_type_symbol
 _atom_site_label
 _atom_site_symmetry_multiplicity
 _atom_site_fract_x
 _atom_site_fract_y
 _atom_site_fract_z
 _atom_site_occupancy
  Zr  Zr0  1  0.092404  0.010164  0.000000  1
  Zr  Zr1  1  0.594530  0.238164  0.000000  1
  Zr  Zr2  1  0.232923  0.519445  0.500001  1
  Zr  Zr3  1  0.745237  0.729336  0.500001  1
  Ir  Ir4  1  0.958935  0.539773  0.000000  1
  Pt  Pt5  1  0.460819  0.714399  0.000000  1
  Pt  Pt6  1  0.376863  0.037634  0.500001  1
  Pt  Pt7  1  0.871622  0.211084  0.500001  1
