# generated using pymatgen
data_YEr3Al2(GaIr2)2
_symmetry_space_group_name_H-M   'P 1'
_cell_length_a   4.29144100
_cell_length_b   6.82839590
_cell_length_c   7.81986272
_cell_angle_alpha   89.57915704
_cell_angle_beta   90.00000000
_cell_angle_gamma   90.00000000
_symmetry_Int_Tables_number   1
_chemical_formula_structural   YEr3Al2(GaIr2)2
_chemical_formula_sum   'Y1 Er3 Al2 Ga2 Ir4'
_cell_volume   229.14440238
_cell_formula_units_Z   1
loop_
 _symmetry_equiv_pos_site_id
 _symmetry_equiv_pos_as_xyz
  1  'x, y, z'
loop_
 _atom_site_type_symbol
 _atom_site_label
 _atom_site_symmetry_multiplicity
 _atom_site_fract_x
 _atom_site_fract_y
 _atom_site_fract_z
 _atom_site_occupancy
  Y  Y0  1  0.250000  0.972531  0.311402  1
  Er  Er1  1  0.250000  0.474492  0.181391  1
  Er  Er2  1  0.750000  0.028726  0.688553  1
  Er  Er3  1  0.750000  0.524878  0.817407  1
  Al  Al4  1  0.250000  0.355759  0.565206  1
  Al  Al5  1  0.750000  0.645121  0.435489  1
  Ga  Ga6  1  0.250000  0.845667  0.931481  1
  Ga  Ga7  1  0.750000  0.153946  0.068161  1
  Ir  Ir8  1  0.250000  0.231947  0.883048  1
  Ir  Ir9  1  0.250000  0.730328  0.612394  1
  Ir  Ir10  1  0.750000  0.765078  0.115500  1
  Ir  Ir11  1  0.750000  0.271527  0.389969  1
