# generated using pymatgen
data_Tb2MnBe2Rh5
_symmetry_space_group_name_H-M   'P 1'
_cell_length_a   9.63591400
_cell_length_b   9.63591400
_cell_length_c   3.26464100
_cell_angle_alpha   90.00000000
_cell_angle_beta   90.00000000
_cell_angle_gamma   90.00000000
_symmetry_Int_Tables_number   1
_chemical_formula_structural   Tb2MnBe2Rh5
_chemical_formula_sum   'Tb4 Mn2 Be4 Rh10'
_cell_volume   303.12465463
_cell_formula_units_Z   2
loop_
 _symmetry_equiv_pos_site_id
 _symmetry_equiv_pos_as_xyz
  1  'x, y, z'
loop_
 _atom_site_type_symbol
 _atom_site_label
 _atom_site_symmetry_multiplicity
 _atom_site_fract_x
 _atom_site_fract_y
 _atom_site_fract_z
 _atom_site_occupancy
  Tb  Tb0  1  0.823242  0.323242  0.000000  1
  Tb  Tb1  1  0.323242  0.176758  0.000000  1
  Tb  Tb2  1  0.676758  0.823242  0.000000  1
  Tb  Tb3  1  0.176758  0.676758  0.000000  1
  Mn  Mn4  1  0.000000  0.000000  0.000000  1
  Mn  Mn5  1  0.500000  0.500000  0.000000  1
  Be  Be6  1  0.622173  0.122173  0.000000  1
  Be  Be7  1  0.122173  0.377827  0.000000  1
  Be  Be8  1  0.877827  0.622173  0.000000  1
  Be  Be9  1  0.377827  0.877827  0.000000  1
  Rh  Rh10  1  0.067737  0.212979  0.500000  1
  Rh  Rh11  1  0.212979  0.932263  0.500000  1
  Rh  Rh12  1  0.787021  0.067737  0.500000  1
  Rh  Rh13  1  0.932263  0.787021  0.500000  1
  Rh  Rh14  1  0.432263  0.712979  0.500000  1
  Rh  Rh15  1  0.567737  0.287021  0.500000  1
  Rh  Rh16  1  0.712979  0.567737  0.500000  1
  Rh  Rh17  1  0.287021  0.432263  0.500000  1
  Rh  Rh18  1  0.500000  0.000000  0.500000  1
  Rh  Rh19  1  0.000000  0.500000  0.500000  1
