# generated using pymatgen
data_MnSi12(P4Ir)3
_symmetry_space_group_name_H-M   'P 1'
_cell_length_a   5.90181987
_cell_length_b   6.10193837
_cell_length_c   13.02133637
_cell_angle_alpha   89.97693636
_cell_angle_beta   89.95663879
_cell_angle_gamma   90.11582615
_symmetry_Int_Tables_number   1
_chemical_formula_structural   MnSi12(P4Ir)3
_chemical_formula_sum   'Mn1 Si12 P12 Ir3'
_cell_volume   468.93028111
_cell_formula_units_Z   1
loop_
 _symmetry_equiv_pos_site_id
 _symmetry_equiv_pos_as_xyz
  1  'x, y, z'
loop_
 _atom_site_type_symbol
 _atom_site_label
 _atom_site_symmetry_multiplicity
 _atom_site_fract_x
 _atom_site_fract_y
 _atom_site_fract_z
 _atom_site_occupancy
  Mn  Mn0  1  0.028026  0.518637  0.387823  1
  Si  Si1  1  0.972498  0.168617  0.317466  1
  Si  Si2  1  0.466699  0.840097  0.681056  1
  Si  Si3  1  0.932858  0.625310  0.218549  1
  Si  Si4  1  0.431580  0.369970  0.785813  1
  Si  Si5  1  0.339780  0.916545  0.950517  1
  Si  Si6  1  0.841201  0.082262  0.049571  1
  Si  Si7  1  0.918928  0.528878  0.671787  1
  Si  Si8  1  0.407411  0.470907  0.327052  1
  Si  Si9  1  0.000376  0.061750  0.567883  1
  Si  Si10  1  0.496051  0.938196  0.428387  1
  Si  Si11  1  0.906945  0.623412  0.927784  1
  Si  Si12  1  0.406374  0.375669  0.072689  1
  P  P13  1  0.578862  0.027797  0.825218  1
  P  P14  1  0.079209  0.969944  0.175298  1
  P  P15  1  0.516478  0.560643  0.929688  1
  P  P16  1  0.015717  0.439611  0.071553  1
  P  P17  1  0.612638  0.112785  0.572204  1
  P  P18  1  0.109478  0.879302  0.424343  1
  P  P19  1  0.544709  0.644841  0.181792  1
  P  P20  1  0.045217  0.354490  0.818773  1
  P  P21  1  0.580640  0.135322  0.288678  1
  P  P22  1  0.079065  0.869059  0.709593  1
  P  P23  1  0.158392  0.405025  0.551028  1
  P  P24  1  0.653956  0.598443  0.446010  1
  Ir  Ir25  1  0.965559  0.985853  0.878857  1
  Ir  Ir26  1  0.466183  0.012718  0.121311  1
  Ir  Ir27  1  0.538970  0.483918  0.619274  1
