# generated using pymatgen
data_ErTi4SbRh10
_symmetry_space_group_name_H-M   'P 1'
_cell_length_a   4.10051700
_cell_length_b   5.55006684
_cell_length_c   10.88006888
_cell_angle_alpha   90.40741524
_cell_angle_beta   90.00000000
_cell_angle_gamma   90.00000000
_symmetry_Int_Tables_number   1
_chemical_formula_structural   ErTi4SbRh10
_chemical_formula_sum   'Er1 Ti4 Sb1 Rh10'
_cell_volume   247.60390846
_cell_formula_units_Z   1
loop_
 _symmetry_equiv_pos_site_id
 _symmetry_equiv_pos_as_xyz
  1  'x, y, z'
loop_
 _atom_site_type_symbol
 _atom_site_label
 _atom_site_symmetry_multiplicity
 _atom_site_fract_x
 _atom_site_fract_y
 _atom_site_fract_z
 _atom_site_occupancy
  Er  Er0  1  0.500000  0.325450  0.143570  1
  Ti  Ti1  1  0.000000  0.506523  0.501257  1
  Ti  Ti2  1  0.500000  0.665832  0.848442  1
  Ti  Ti3  1  0.500000  0.832982  0.358998  1
  Ti  Ti4  1  0.500000  0.163959  0.637934  1
  Sb  Sb5  1  0.000000  0.999713  0.996279  1
  Rh  Rh6  1  0.000000  0.000308  0.505062  1
  Rh  Rh7  1  0.000000  0.515422  0.985716  1
  Rh  Rh8  1  0.000000  0.061993  0.259000  1
  Rh  Rh9  1  0.000000  0.917476  0.753039  1
  Rh  Rh10  1  0.000000  0.581024  0.269455  1
  Rh  Rh11  1  0.000000  0.417438  0.734660  1
  Rh  Rh12  1  0.500000  0.307725  0.406040  1
  Rh  Rh13  1  0.500000  0.691841  0.608036  1
  Rh  Rh14  1  0.500000  0.810300  0.118103  1
  Rh  Rh15  1  0.500000  0.202013  0.874409  1
