# generated using pymatgen
data_Yb2Cr3Si7Pt9
_symmetry_space_group_name_H-M   'P 1'
_cell_length_a   9.93558500
_cell_length_b   9.93558524
_cell_length_c   3.89499300
_cell_angle_alpha   90.00000000
_cell_angle_beta   90.00000000
_cell_angle_gamma   120.00000253
_symmetry_Int_Tables_number   1
_chemical_formula_structural   Yb2Cr3Si7Pt9
_chemical_formula_sum   'Yb2 Cr3 Si7 Pt9'
_cell_volume   332.98463861
_cell_formula_units_Z   1
loop_
 _symmetry_equiv_pos_site_id
 _symmetry_equiv_pos_as_xyz
  1  'x, y, z'
loop_
 _atom_site_type_symbol
 _atom_site_label
 _atom_site_symmetry_multiplicity
 _atom_site_fract_x
 _atom_site_fract_y
 _atom_site_fract_z
 _atom_site_occupancy
  Yb  Yb0  1  0.000000  0.000000  0.000000  1
  Yb  Yb1  1  0.333333  0.666667  0.500000  1
  Cr  Cr2  1  0.892510  0.456992  0.500000  1
  Cr  Cr3  1  0.564481  0.107490  0.500000  1
  Cr  Cr4  1  0.543008  0.435519  0.500000  1
  Si  Si5  1  0.260214  0.213104  0.500000  1
  Si  Si6  1  0.786896  0.047111  0.500000  1
  Si  Si7  1  0.952889  0.739786  0.500000  1
  Si  Si8  1  0.552357  0.634906  0.000000  1
  Si  Si9  1  0.365094  0.917450  0.000000  1
  Si  Si10  1  0.082550  0.447643  0.000000  1
  Si  Si11  1  0.666667  0.333333  0.000000  1
  Pt  Pt12  1  0.220453  0.942963  0.500000  1
  Pt  Pt13  1  0.057037  0.277490  0.500000  1
  Pt  Pt14  1  0.722510  0.779547  0.500000  1
  Pt  Pt15  1  0.305562  0.406870  0.000000  1
  Pt  Pt16  1  0.593130  0.898693  0.000000  1
  Pt  Pt17  1  0.101307  0.694438  0.000000  1
  Pt  Pt18  1  0.393352  0.175977  0.000000  1
  Pt  Pt19  1  0.824023  0.217375  0.000000  1
  Pt  Pt20  1  0.782625  0.606648  0.000000  1
