# generated using pymatgen
data_YTm6CoI12
_symmetry_space_group_name_H-M   'P 1'
_cell_length_a   9.67751123
_cell_length_b   9.67750970
_cell_length_c   9.67751018
_cell_angle_alpha   106.79327149
_cell_angle_beta   106.79327124
_cell_angle_gamma   106.79327421
_symmetry_Int_Tables_number   1
_chemical_formula_structural   YTm6CoI12
_chemical_formula_sum   'Y1 Tm6 Co1 I12'
_cell_volume   759.02462104
_cell_formula_units_Z   1
loop_
 _symmetry_equiv_pos_site_id
 _symmetry_equiv_pos_as_xyz
  1  'x, y, z'
loop_
 _atom_site_type_symbol
 _atom_site_label
 _atom_site_symmetry_multiplicity
 _atom_site_fract_x
 _atom_site_fract_y
 _atom_site_fract_z
 _atom_site_occupancy
  Y  Y0  1  0.500000  0.500000  0.500000  1
  Tm  Tm1  1  0.283890  0.090214  0.021223  1
  Tm  Tm2  1  0.021223  0.283890  0.090214  1
  Tm  Tm3  1  0.090214  0.021223  0.283890  1
  Tm  Tm4  1  0.716110  0.909786  0.978777  1
  Tm  Tm5  1  0.978777  0.716110  0.909786  1
  Tm  Tm6  1  0.909786  0.978777  0.716110  1
  Co  Co7  1  0.000000  0.000000  0.000000  1
  I  I8  1  0.462119  0.158820  0.385379  1
  I  I9  1  0.385379  0.462119  0.158820  1
  I  I10  1  0.158820  0.385379  0.462119  1
  I  I11  1  0.537881  0.841180  0.614621  1
  I  I12  1  0.614621  0.537881  0.841180  1
  I  I13  1  0.841180  0.614621  0.537881  1
  I  I14  1  0.323540  0.776545  0.929625  1
  I  I15  1  0.929625  0.323540  0.776545  1
  I  I16  1  0.776545  0.929625  0.323540  1
  I  I17  1  0.676460  0.223455  0.070375  1
  I  I18  1  0.070375  0.676460  0.223455  1
  I  I19  1  0.223455  0.070375  0.676460  1
