# generated using pymatgen
data_Sr20CdAg2Au9
_symmetry_space_group_name_H-M   'P 1'
_cell_length_a   8.51856300
_cell_length_b   8.51856300
_cell_length_c   15.60467200
_cell_angle_alpha   90.00000000
_cell_angle_beta   90.00000000
_cell_angle_gamma   90.00000000
_symmetry_Int_Tables_number   1
_chemical_formula_structural   Sr20CdAg2Au9
_chemical_formula_sum   'Sr20 Cd1 Ag2 Au9'
_cell_volume   1132.36731108
_cell_formula_units_Z   1
loop_
 _symmetry_equiv_pos_site_id
 _symmetry_equiv_pos_as_xyz
  1  'x, y, z'
loop_
 _atom_site_type_symbol
 _atom_site_label
 _atom_site_symmetry_multiplicity
 _atom_site_fract_x
 _atom_site_fract_y
 _atom_site_fract_z
 _atom_site_occupancy
  Sr  Sr0  1  0.000000  0.000000  0.755084  1
  Sr  Sr1  1  0.500000  0.500000  0.250803  1
  Sr  Sr2  1  0.000000  0.000000  0.244916  1
  Sr  Sr3  1  0.500000  0.500000  0.749197  1
  Sr  Sr4  1  0.173431  0.658917  0.108119  1
  Sr  Sr5  1  0.667004  0.166380  0.610222  1
  Sr  Sr6  1  0.826569  0.341083  0.108119  1
  Sr  Sr7  1  0.332996  0.833620  0.610222  1
  Sr  Sr8  1  0.341083  0.173431  0.108119  1
  Sr  Sr9  1  0.833620  0.667004  0.610222  1
  Sr  Sr10  1  0.658917  0.826569  0.108119  1
  Sr  Sr11  1  0.166380  0.332996  0.610222  1
  Sr  Sr12  1  0.341083  0.826569  0.891881  1
  Sr  Sr13  1  0.833620  0.332996  0.389778  1
  Sr  Sr14  1  0.658917  0.173431  0.891881  1
  Sr  Sr15  1  0.166380  0.667004  0.389778  1
  Sr  Sr16  1  0.173431  0.341083  0.891881  1
  Sr  Sr17  1  0.667004  0.833620  0.389778  1
  Sr  Sr18  1  0.826569  0.658917  0.891881  1
  Sr  Sr19  1  0.332996  0.166380  0.389778  1
  Cd  Cd20  1  0.000000  0.000000  0.000000  1
  Ag  Ag21  1  0.000000  0.000000  0.500000  1
  Ag  Ag22  1  0.500000  0.500000  0.500000  1
  Au  Au23  1  0.629072  0.129022  0.248542  1
  Au  Au24  1  0.129022  0.629072  0.751458  1
  Au  Au25  1  0.870978  0.370928  0.751458  1
  Au  Au26  1  0.370928  0.870978  0.248542  1
  Au  Au27  1  0.370928  0.129022  0.751458  1
  Au  Au28  1  0.870978  0.629072  0.248542  1
  Au  Au29  1  0.129022  0.370928  0.248542  1
  Au  Au30  1  0.629072  0.870978  0.751458  1
  Au  Au31  1  0.500000  0.500000  0.000000  1
