# generated using pymatgen
data_TbNd3Tc4F28
_symmetry_space_group_name_H-M   'P 1'
_cell_length_a   5.70633325
_cell_length_b   9.14098544
_cell_length_c   12.28171449
_cell_angle_alpha   62.20923292
_cell_angle_beta   89.96636453
_cell_angle_gamma   89.98582440
_symmetry_Int_Tables_number   1
_chemical_formula_structural   TbNd3Tc4F28
_chemical_formula_sum   'Tb1 Nd3 Tc4 F28'
_cell_volume   566.73959567
_cell_formula_units_Z   1
loop_
 _symmetry_equiv_pos_site_id
 _symmetry_equiv_pos_as_xyz
  1  'x, y, z'
loop_
 _atom_site_type_symbol
 _atom_site_label
 _atom_site_symmetry_multiplicity
 _atom_site_fract_x
 _atom_site_fract_y
 _atom_site_fract_z
 _atom_site_occupancy
  Tb  Tb0  1  0.239939  0.810833  0.764590  1
  Nd  Nd1  1  0.258987  0.810219  0.264865  1
  Nd  Nd2  1  0.741654  0.185410  0.735286  1
  Nd  Nd3  1  0.758799  0.188356  0.234962  1
  Tc  Tc4  1  0.756626  0.726757  0.039489  1
  Tc  Tc5  1  0.243309  0.277460  0.955168  1
  Tc  Tc6  1  0.255710  0.270625  0.458766  1
  Tc  Tc7  1  0.741606  0.727094  0.546541  1
  F  F8  1  0.943403  0.709236  0.423811  1
  F  F9  1  0.058137  0.290277  0.581924  1
  F  F10  1  0.441479  0.293718  0.079466  1
  F  F11  1  0.553517  0.709435  0.917193  1
  F  F12  1  0.479936  0.729325  0.133725  1
  F  F13  1  0.520649  0.271400  0.862792  1
  F  F14  1  0.976253  0.268974  0.366388  1
  F  F15  1  0.017760  0.731766  0.641165  1
  F  F16  1  0.953178  0.743477  0.165504  1
  F  F17  1  0.049916  0.259673  0.829085  1
  F  F18  1  0.448914  0.254557  0.331842  1
  F  F19  1  0.540887  0.746302  0.670833  1
  F  F20  1  0.770075  0.485195  0.136278  1
  F  F21  1  0.233592  0.520637  0.858961  1
  F  F22  1  0.267322  0.513047  0.362364  1
  F  F23  1  0.731017  0.485071  0.641821  1
  F  F24  1  0.956367  0.284586  0.041885  1
  F  F25  1  0.043585  0.720525  0.950874  1
  F  F26  1  0.458298  0.718418  0.457928  1
  F  F27  1  0.543432  0.280197  0.544082  1
  F  F28  1  0.740476  0.968418  0.450574  1
  F  F29  1  0.257813  0.028907  0.554218  1
  F  F30  1  0.241047  0.035774  0.050108  1
  F  F31  1  0.757413  0.968630  0.947528  1
  F  F32  1  0.591376  0.966240  0.230118  1
  F  F33  1  0.413188  0.022104  0.768210  1
  F  F34  1  0.091148  0.032300  0.269599  1
  F  F35  1  0.923189  0.965057  0.732052  1
