# generated using pymatgen
data_Hf8Co16GeP11
_symmetry_space_group_name_H-M   'P 1'
_cell_length_a   12.12190724
_cell_length_b   12.11240351
_cell_length_c   3.64290500
_cell_angle_alpha   90.00000000
_cell_angle_beta   90.00000000
_cell_angle_gamma   119.97407104
_symmetry_Int_Tables_number   1
_chemical_formula_structural   Hf8Co16GeP11
_chemical_formula_sum   'Hf8 Co16 Ge1 P11'
_cell_volume   463.33293950
_cell_formula_units_Z   1
loop_
 _symmetry_equiv_pos_site_id
 _symmetry_equiv_pos_as_xyz
  1  'x, y, z'
loop_
 _atom_site_type_symbol
 _atom_site_label
 _atom_site_symmetry_multiplicity
 _atom_site_fract_x
 _atom_site_fract_y
 _atom_site_fract_z
 _atom_site_occupancy
  Hf  Hf0  1  0.824694  0.824596  0.500000  1
  Hf  Hf1  1  0.446564  0.444886  0.000000  1
  Hf  Hf2  1  0.000000  0.168270  0.500000  1
  Hf  Hf3  1  0.553436  0.998322  0.000000  1
  Hf  Hf4  1  0.333379  0.666950  0.000000  1
  Hf  Hf5  1  0.666621  0.333569  0.000000  1
  Hf  Hf6  1  0.000000  0.559006  0.000000  1
  Hf  Hf7  1  0.175306  0.999903  0.500000  1
  Co  Co8  1  0.628735  0.821863  0.000000  1
  Co  Co9  1  0.371265  0.193128  0.000000  1
  Co  Co10  1  0.000000  0.722764  0.500000  1
  Co  Co11  1  0.280547  0.277336  0.500000  1
  Co  Co12  1  0.867193  0.356287  0.500000  1
  Co  Co13  1  0.719453  0.996789  0.500000  1
  Co  Co14  1  0.820987  0.628721  0.000000  1
  Co  Co15  1  0.179013  0.807733  0.000000  1
  Co  Co16  1  0.355016  0.873445  0.500000  1
  Co  Co17  1  0.132807  0.489094  0.500000  1
  Co  Co18  1  0.644984  0.518429  0.500000  1
  Co  Co19  1  0.000000  0.999620  0.000000  1
  Co  Co20  1  0.518920  0.645720  0.500000  1
  Co  Co21  1  0.481080  0.126799  0.500000  1
  Co  Co22  1  0.202775  0.373793  0.000000  1
  Co  Co23  1  0.797225  0.171019  0.000000  1
  Ge  Ge24  1  0.000000  0.343203  0.000000  1
  P  P25  1  0.826239  0.518689  0.500000  1
  P  P26  1  0.688638  0.172374  0.500000  1
  P  P27  1  0.175427  0.174888  0.000000  1
  P  P28  1  0.655812  0.656054  0.000000  1
  P  P29  1  0.824573  0.999461  0.000000  1
  P  P30  1  0.516348  0.825994  0.500000  1
  P  P31  1  0.173761  0.692450  0.500000  1
  P  P32  1  0.344188  0.000242  0.000000  1
  P  P33  1  0.483652  0.309646  0.500000  1
  P  P34  1  0.000000  0.825220  0.000000  1
  P  P35  1  0.311362  0.483735  0.500000  1
