# generated using pymatgen
data_Th3Ru2RhPb3
_symmetry_space_group_name_H-M   'P 1'
_cell_length_a   7.70210800
_cell_length_b   7.70210783
_cell_length_c   4.12343200
_cell_angle_alpha   90.00000000
_cell_angle_beta   90.00000000
_cell_angle_gamma   120.00000071
_symmetry_Int_Tables_number   1
_chemical_formula_structural   Th3Ru2RhPb3
_chemical_formula_sum   'Th3 Ru2 Rh1 Pb3'
_cell_volume   211.84033979
_cell_formula_units_Z   1
loop_
 _symmetry_equiv_pos_site_id
 _symmetry_equiv_pos_as_xyz
  1  'x, y, z'
loop_
 _atom_site_type_symbol
 _atom_site_label
 _atom_site_symmetry_multiplicity
 _atom_site_fract_x
 _atom_site_fract_y
 _atom_site_fract_z
 _atom_site_occupancy
  Th  Th0  1  0.414321  0.414321  0.500000  1
  Th  Th1  1  0.585679  0.000000  0.500000  1
  Th  Th2  1  0.000000  0.585679  0.500000  1
  Ru  Ru3  1  0.666667  0.333333  0.000000  1
  Ru  Ru4  1  0.333333  0.666667  0.000000  1
  Rh  Rh5  1  0.000000  0.000000  0.500000  1
  Pb  Pb6  1  0.746041  0.746041  0.000000  1
  Pb  Pb7  1  0.253959  0.000000  0.000000  1
  Pb  Pb8  1  0.000000  0.253959  0.000000  1
