# generated using pymatgen
data_Lu8Tc3RuC8
_symmetry_space_group_name_H-M   'P 1'
_cell_length_a   4.96399200
_cell_length_b   6.44313798
_cell_length_c   9.66121005
_cell_angle_alpha   90.11540000
_cell_angle_beta   90.00000000
_cell_angle_gamma   90.00000000
_symmetry_Int_Tables_number   1
_chemical_formula_structural   Lu8Tc3RuC8
_chemical_formula_sum   'Lu8 Tc3 Ru1 C8'
_cell_volume   309.00047609
_cell_formula_units_Z   1
loop_
 _symmetry_equiv_pos_site_id
 _symmetry_equiv_pos_as_xyz
  1  'x, y, z'
loop_
 _atom_site_type_symbol
 _atom_site_label
 _atom_site_symmetry_multiplicity
 _atom_site_fract_x
 _atom_site_fract_y
 _atom_site_fract_z
 _atom_site_occupancy
  Lu  Lu0  1  0.250000  0.825644  0.940651  1
  Lu  Lu1  1  0.250000  0.325233  0.559717  1
  Lu  Lu2  1  0.750000  0.174553  0.059057  1
  Lu  Lu3  1  0.750000  0.672550  0.441522  1
  Lu  Lu4  1  0.250000  0.463580  0.218346  1
  Lu  Lu5  1  0.250000  0.965474  0.283461  1
  Lu  Lu6  1  0.750000  0.534452  0.781623  1
  Lu  Lu7  1  0.750000  0.034738  0.717846  1
  Tc  Tc8  1  0.250000  0.286149  0.870810  1
  Tc  Tc9  1  0.250000  0.785752  0.629646  1
  Tc  Tc10  1  0.750000  0.713621  0.130417  1
  Ru  Ru11  1  0.750000  0.213624  0.369890  1
  C  C12  1  0.250000  0.053177  0.740788  1
  C  C13  1  0.250000  0.553485  0.758905  1
  C  C14  1  0.750000  0.946440  0.257376  1
  C  C15  1  0.750000  0.448008  0.240738  1
  C  C16  1  0.250000  0.673505  0.443184  1
  C  C17  1  0.250000  0.173593  0.056461  1
  C  C18  1  0.750000  0.328951  0.554721  1
  C  C19  1  0.750000  0.827469  0.944841  1
