# generated using pymatgen
data_Tm12Th4CdHg3Ir4
_symmetry_space_group_name_H-M   'P 1'
_cell_length_a   9.63477582
_cell_length_b   9.64418183
_cell_length_c   9.65940700
_cell_angle_alpha   59.94772076
_cell_angle_beta   59.91532432
_cell_angle_gamma   59.88848841
_symmetry_Int_Tables_number   1
_chemical_formula_structural   Tm12Th4CdHg3Ir4
_chemical_formula_sum   'Tm12 Th4 Cd1 Hg3 Ir4'
_cell_volume   633.46924561
_cell_formula_units_Z   1
loop_
 _symmetry_equiv_pos_site_id
 _symmetry_equiv_pos_as_xyz
  1  'x, y, z'
loop_
 _atom_site_type_symbol
 _atom_site_label
 _atom_site_symmetry_multiplicity
 _atom_site_fract_x
 _atom_site_fract_y
 _atom_site_fract_z
 _atom_site_occupancy
  Tm  Tm0  1  0.062792  0.437137  0.437107  1
  Tm  Tm1  1  0.436387  0.063157  0.063192  1
  Tm  Tm2  1  0.436387  0.063156  0.437266  1
  Tm  Tm3  1  0.062794  0.437136  0.062964  1
  Tm  Tm4  1  0.436898  0.437680  0.062711  1
  Tm  Tm5  1  0.063215  0.063404  0.436692  1
  Tm  Tm6  1  0.184854  0.815828  0.814823  1
  Tm  Tm7  1  0.815332  0.185957  0.184156  1
  Tm  Tm8  1  0.815332  0.185957  0.814554  1
  Tm  Tm9  1  0.184855  0.815825  0.184495  1
  Tm  Tm10  1  0.815248  0.815532  0.184610  1
  Tm  Tm11  1  0.184383  0.185835  0.814888  1
  Th  Th12  1  0.601807  0.601604  0.600632  1
  Th  Th13  1  0.601810  0.601602  0.195955  1
  Th  Th14  1  0.603087  0.193659  0.601627  1
  Th  Th15  1  0.191848  0.603438  0.602356  1
  Cd  Cd16  1  0.498067  0.832701  0.834617  1
  Hg  Hg17  1  0.836042  0.838168  0.840120  1
  Hg  Hg18  1  0.836042  0.838168  0.485673  1
  Hg  Hg19  1  0.835463  0.485365  0.839584  1
  Ir  Ir20  1  0.391947  0.392305  0.393793  1
  Ir  Ir21  1  0.391946  0.392308  0.821953  1
  Ir  Ir22  1  0.391415  0.822257  0.393162  1
  Ir  Ir23  1  0.822046  0.391820  0.393067  1
