# generated using pymatgen
data_Tb8Dy12Co3Bi8Ru
_symmetry_space_group_name_H-M   'P 1'
_cell_length_a   8.04105837
_cell_length_b   8.93393300
_cell_length_c   12.46678300
_cell_angle_alpha   90.00000000
_cell_angle_beta   90.18513529
_cell_angle_gamma   90.00000000
_symmetry_Int_Tables_number   1
_chemical_formula_structural   Tb8Dy12Co3Bi8Ru
_chemical_formula_sum   'Tb8 Dy12 Co3 Bi8 Ru1'
_cell_volume   895.58753159
_cell_formula_units_Z   1
loop_
 _symmetry_equiv_pos_site_id
 _symmetry_equiv_pos_as_xyz
  1  'x, y, z'
loop_
 _atom_site_type_symbol
 _atom_site_label
 _atom_site_symmetry_multiplicity
 _atom_site_fract_x
 _atom_site_fract_y
 _atom_site_fract_z
 _atom_site_occupancy
  Tb  Tb0  1  0.846633  0.750000  0.800314  1
  Tb  Tb1  1  0.152594  0.250000  0.198434  1
  Tb  Tb2  1  0.347313  0.250000  0.699078  1
  Tb  Tb3  1  0.654099  0.750000  0.296258  1
  Tb  Tb4  1  0.378423  0.750000  0.693056  1
  Tb  Tb5  1  0.618710  0.250000  0.310497  1
  Tb  Tb6  1  0.880843  0.250000  0.811193  1
  Tb  Tb7  1  0.118367  0.750000  0.187389  1
  Dy  Dy8  1  0.949795  0.750000  0.503821  1
  Dy  Dy9  1  0.050265  0.250000  0.496738  1
  Dy  Dy10  1  0.451276  0.250000  0.997209  1
  Dy  Dy11  1  0.549146  0.750000  0.002591  1
  Dy  Dy12  1  0.676934  0.041809  0.564442  1
  Dy  Dy13  1  0.323728  0.965861  0.436324  1
  Dy  Dy14  1  0.175458  0.965504  0.936967  1
  Dy  Dy15  1  0.323728  0.534139  0.436324  1
  Dy  Dy16  1  0.823693  0.036346  0.063040  1
  Dy  Dy17  1  0.676934  0.458191  0.564442  1
  Dy  Dy18  1  0.823693  0.463654  0.063040  1
  Dy  Dy19  1  0.175458  0.534496  0.936967  1
  Co  Co20  1  0.434181  0.250000  0.490969  1
  Co  Co21  1  0.061304  0.250000  0.991966  1
  Co  Co22  1  0.936995  0.750000  0.007404  1
  Bi  Bi23  1  0.570740  0.491787  0.827157  1
  Bi  Bi24  1  0.428680  0.507865  0.173081  1
  Bi  Bi25  1  0.070883  0.507615  0.674193  1
  Bi  Bi26  1  0.428680  0.992135  0.173081  1
  Bi  Bi27  1  0.930477  0.492151  0.326219  1
  Bi  Bi28  1  0.570740  0.008213  0.827157  1
  Bi  Bi29  1  0.930477  0.007849  0.326219  1
  Bi  Bi30  1  0.070883  0.992385  0.674193  1
  Ru  Ru31  1  0.568867  0.750000  0.510234  1
