# generated using pymatgen
data_Na4SbMoO6
_symmetry_space_group_name_H-M   'P 1'
_cell_length_a   5.62598562
_cell_length_b   5.62597666
_cell_length_c   5.79443844
_cell_angle_alpha   99.53033063
_cell_angle_beta   99.53071091
_cell_angle_gamma   119.91160588
_symmetry_Int_Tables_number   1
_chemical_formula_structural   Na4SbMoO6
_chemical_formula_sum   'Na4 Sb1 Mo1 O6'
_cell_volume   150.02875004
_cell_formula_units_Z   1
loop_
 _symmetry_equiv_pos_site_id
 _symmetry_equiv_pos_as_xyz
  1  'x, y, z'
loop_
 _atom_site_type_symbol
 _atom_site_label
 _atom_site_symmetry_multiplicity
 _atom_site_fract_x
 _atom_site_fract_y
 _atom_site_fract_z
 _atom_site_occupancy
  Na  Na0  1  0.500462  0.499541  0.000001  1
  Na  Na1  1  0.997297  0.002699  0.499998  1
  Na  Na2  1  0.659059  0.340943  0.499999  1
  Na  Na3  1  0.341683  0.658315  0.499998  1
  Sb  Sb4  1  0.167443  0.832567  0.000003  1
  Mo  Mo5  1  0.833018  0.166980  0.999999  1
  O  O6  1  0.213851  0.194839  0.210708  1
  O  O7  1  0.552861  0.928957  0.210881  1
  O  O8  1  0.948658  0.590538  0.208198  1
  O  O9  1  0.409464  0.051337  0.791798  1
  O  O10  1  0.071038  0.447143  0.789120  1
  O  O11  1  0.805165  0.786149  0.789296  1
