# generated using pymatgen
data_Cd3Hg(SeO5)2
_symmetry_space_group_name_H-M   'P 1'
_cell_length_a   6.26520860
_cell_length_b   6.75652903
_cell_length_c   8.30407504
_cell_angle_alpha   64.44728317
_cell_angle_beta   67.96443811
_cell_angle_gamma   64.61379022
_symmetry_Int_Tables_number   1
_chemical_formula_structural   Cd3Hg(SeO5)2
_chemical_formula_sum   'Cd3 Hg1 Se2 O10'
_cell_volume   278.59938764
_cell_formula_units_Z   1
loop_
 _symmetry_equiv_pos_site_id
 _symmetry_equiv_pos_as_xyz
  1  'x, y, z'
loop_
 _atom_site_type_symbol
 _atom_site_label
 _atom_site_symmetry_multiplicity
 _atom_site_fract_x
 _atom_site_fract_y
 _atom_site_fract_z
 _atom_site_occupancy
  Cd  Cd0  1  0.079353  0.068532  0.768741  1
  Cd  Cd1  1  0.920647  0.931468  0.231259  1
  Cd  Cd2  1  0.000000  0.500000  0.000000  1
  Hg  Hg3  1  0.500000  0.000000  0.000000  1
  Se  Se4  1  0.616545  0.615448  0.679268  1
  Se  Se5  1  0.383455  0.384552  0.320732  1
  O  O6  1  0.689296  0.303869  0.236664  1
  O  O7  1  0.709432  0.327728  0.724655  1
  O  O8  1  0.310704  0.696131  0.763336  1
  O  O9  1  0.290568  0.672272  0.275345  1
  O  O10  1  0.141376  0.148286  0.985027  1
  O  O11  1  0.858624  0.851714  0.014973  1
  O  O12  1  0.253871  0.312574  0.219565  1
  O  O13  1  0.746129  0.687426  0.780435  1
  O  O14  1  0.670181  0.746462  0.452482  1
  O  O15  1  0.329819  0.253538  0.547518  1
