# generated using pymatgen
data_Nb3Si2MoRu10
_symmetry_space_group_name_H-M   'P 1'
_cell_length_a   4.06939100
_cell_length_b   5.42080421
_cell_length_c   10.58690439
_cell_angle_alpha   90.03139880
_cell_angle_beta   90.00000000
_cell_angle_gamma   90.00000000
_symmetry_Int_Tables_number   1
_chemical_formula_structural   Nb3Si2MoRu10
_chemical_formula_sum   'Nb3 Si2 Mo1 Ru10'
_cell_volume   233.54042565
_cell_formula_units_Z   1
loop_
 _symmetry_equiv_pos_site_id
 _symmetry_equiv_pos_as_xyz
  1  'x, y, z'
loop_
 _atom_site_type_symbol
 _atom_site_label
 _atom_site_symmetry_multiplicity
 _atom_site_fract_x
 _atom_site_fract_y
 _atom_site_fract_z
 _atom_site_occupancy
  Nb  Nb0  1  0.500000  0.168376  0.640722  1
  Nb  Nb1  1  0.500000  0.335135  0.138585  1
  Nb  Nb2  1  0.500000  0.669223  0.858756  1
  Si  Si3  1  0.000000  0.495429  0.500631  1
  Si  Si4  1  0.000000  0.999235  0.000014  1
  Mo  Mo5  1  0.500000  0.840256  0.357290  1
  Ru  Ru6  1  0.000000  0.499889  0.001878  1
  Ru  Ru7  1  0.000000  0.986850  0.495284  1
  Ru  Ru8  1  0.000000  0.593604  0.259625  1
  Ru  Ru9  1  0.000000  0.414303  0.746424  1
  Ru  Ru10  1  0.000000  0.086231  0.248380  1
  Ru  Ru11  1  0.000000  0.914999  0.752141  1
  Ru  Ru12  1  0.500000  0.824828  0.109057  1
  Ru  Ru13  1  0.500000  0.176268  0.895056  1
  Ru  Ru14  1  0.500000  0.319455  0.394377  1
  Ru  Ru15  1  0.500000  0.675919  0.601782  1
