# generated using pymatgen
data_Sc6Co5Sn6Rh
_symmetry_space_group_name_H-M   'P 1'
_cell_length_a   7.36961700
_cell_length_b   7.36961542
_cell_length_c   6.85610600
_cell_angle_alpha   90.00000000
_cell_angle_beta   90.00000000
_cell_angle_gamma   120.00000261
_symmetry_Int_Tables_number   1
_chemical_formula_structural   Sc6Co5Sn6Rh
_chemical_formula_sum   'Sc6 Co5 Sn6 Rh1'
_cell_volume   322.47636273
_cell_formula_units_Z   1
loop_
 _symmetry_equiv_pos_site_id
 _symmetry_equiv_pos_as_xyz
  1  'x, y, z'
loop_
 _atom_site_type_symbol
 _atom_site_label
 _atom_site_symmetry_multiplicity
 _atom_site_fract_x
 _atom_site_fract_y
 _atom_site_fract_z
 _atom_site_occupancy
  Sc  Sc0  1  0.394509  0.996761  0.248846  1
  Sc  Sc1  1  0.602251  0.605491  0.248846  1
  Sc  Sc2  1  0.003239  0.397749  0.248846  1
  Sc  Sc3  1  0.394097  0.996095  0.751342  1
  Sc  Sc4  1  0.601997  0.605903  0.751342  1
  Sc  Sc5  1  0.003905  0.398003  0.751342  1
  Co  Co6  1  0.000000  0.000000  0.771650  1
  Co  Co7  1  0.000000  0.000000  0.228491  1
  Co  Co8  1  0.666667  0.333333  0.997684  1
  Co  Co9  1  0.333333  0.666667  0.498668  1
  Co  Co10  1  0.333333  0.666667  0.001553  1
  Sn  Sn11  1  0.279292  0.277400  0.000024  1
  Sn  Sn12  1  0.998108  0.720708  0.000024  1
  Sn  Sn13  1  0.005502  0.741447  0.500044  1
  Sn  Sn14  1  0.735944  0.994498  0.500044  1
  Sn  Sn15  1  0.258553  0.264056  0.500044  1
  Sn  Sn16  1  0.722600  0.001892  0.000024  1
  Rh  Rh17  1  0.666667  0.333333  0.501183  1
