# generated using pymatgen
data_TbLu11(TcOs)2
_symmetry_space_group_name_H-M   'P 1'
_cell_length_a   7.31247080
_cell_length_b   8.85699500
_cell_length_c   6.16124768
_cell_angle_alpha   90.00000000
_cell_angle_beta   89.94627890
_cell_angle_gamma   90.00000000
_symmetry_Int_Tables_number   1
_chemical_formula_structural   TbLu11(TcOs)2
_chemical_formula_sum   'Tb1 Lu11 Tc2 Os2'
_cell_volume   399.04237914
_cell_formula_units_Z   1
loop_
 _symmetry_equiv_pos_site_id
 _symmetry_equiv_pos_as_xyz
  1  'x, y, z'
loop_
 _atom_site_type_symbol
 _atom_site_label
 _atom_site_symmetry_multiplicity
 _atom_site_fract_x
 _atom_site_fract_y
 _atom_site_fract_z
 _atom_site_occupancy
  Tb  Tb0  1  0.539401  0.250000  0.876181  1
  Lu  Lu1  1  0.674972  0.060815  0.338408  1
  Lu  Lu2  1  0.174800  0.438895  0.162744  1
  Lu  Lu3  1  0.324348  0.563098  0.664119  1
  Lu  Lu4  1  0.825574  0.937109  0.835538  1
  Lu  Lu5  1  0.324348  0.936902  0.664119  1
  Lu  Lu6  1  0.825574  0.562891  0.835538  1
  Lu  Lu7  1  0.674972  0.439185  0.338408  1
  Lu  Lu8  1  0.174800  0.061105  0.162744  1
  Lu  Lu9  1  0.039007  0.250000  0.624141  1
  Lu  Lu10  1  0.459710  0.750000  0.128450  1
  Lu  Lu11  1  0.959572  0.750000  0.371229  1
  Tc  Tc12  1  0.883996  0.250000  0.039023  1
  Tc  Tc13  1  0.382418  0.250000  0.459484  1
  Os  Os14  1  0.118120  0.750000  0.960631  1
  Os  Os15  1  0.618383  0.750000  0.539243  1
