# generated using pymatgen
data_Ho(AlB14)2
_symmetry_space_group_name_H-M   'P 1'
_cell_length_a   7.21516908
_cell_length_b   7.21516809
_cell_length_c   5.83167003
_cell_angle_alpha   66.40686282
_cell_angle_beta   66.40686444
_cell_angle_gamma   92.34153366
_symmetry_Int_Tables_number   1
_chemical_formula_structural   Ho(AlB14)2
_chemical_formula_sum   'Ho1 Al2 B28'
_cell_volume   247.54288180
_cell_formula_units_Z   1
loop_
 _symmetry_equiv_pos_site_id
 _symmetry_equiv_pos_as_xyz
  1  'x, y, z'
loop_
 _atom_site_type_symbol
 _atom_site_label
 _atom_site_symmetry_multiplicity
 _atom_site_fract_x
 _atom_site_fract_y
 _atom_site_fract_z
 _atom_site_occupancy
  Ho  Ho0  1  0.890610  0.890610  0.357708  1
  Al  Al1  1  0.497493  0.497493  0.506513  1
  Al  Al2  1  0.157710  0.157710  0.486235  1
  B  B3  1  0.417126  0.735672  0.172108  1
  B  B4  1  0.584432  0.258679  0.834254  1
  B  B5  1  0.258679  0.584432  0.834254  1
  B  B6  1  0.735672  0.417126  0.172108  1
  B  B7  1  0.695312  0.861391  0.972578  1
  B  B8  1  0.305067  0.134664  0.035887  1
  B  B9  1  0.134664  0.305067  0.035887  1
  B  B10  1  0.861391  0.695312  0.972578  1
  B  B11  1  0.534326  0.871913  0.299137  1
  B  B12  1  0.470705  0.123763  0.204933  1
  B  B13  1  0.123763  0.470705  0.204933  1
  B  B14  1  0.871913  0.534326  0.299137  1
  B  B15  1  0.462438  0.121933  0.712739  1
  B  B16  1  0.532453  0.870479  0.801556  1
  B  B17  1  0.870479  0.532453  0.801556  1
  B  B18  1  0.121933  0.462438  0.712739  1
  B  B19  1  0.723838  0.100305  0.999672  1
  B  B20  1  0.279441  0.893166  0.326004  1
  B  B21  1  0.893166  0.279441  0.326004  1
  B  B22  1  0.100305  0.723838  0.999672  1
  B  B23  1  0.276552  0.895800  0.008981  1
  B  B24  1  0.721313  0.101224  0.685209  1
  B  B25  1  0.101224  0.721313  0.685209  1
  B  B26  1  0.895800  0.276552  0.008981  1
  B  B27  1  0.269955  0.472200  0.381662  1
  B  B28  1  0.717451  0.522584  0.640052  1
  B  B29  1  0.522584  0.717451  0.640052  1
  B  B30  1  0.472200  0.269955  0.381662  1
