# generated using pymatgen
data_Dy4Al16GaGeIr6
_symmetry_space_group_name_H-M   'P 1'
_cell_length_a   7.54699605
_cell_length_b   7.54699591
_cell_length_c   9.47714000
_cell_angle_alpha   90.00000000
_cell_angle_beta   90.00000000
_cell_angle_gamma   119.58668395
_symmetry_Int_Tables_number   1
_chemical_formula_structural   Dy4Al16GaGeIr6
_chemical_formula_sum   'Dy4 Al16 Ga1 Ge1 Ir6'
_cell_volume   469.40737665
_cell_formula_units_Z   1
loop_
 _symmetry_equiv_pos_site_id
 _symmetry_equiv_pos_as_xyz
  1  'x, y, z'
loop_
 _atom_site_type_symbol
 _atom_site_label
 _atom_site_symmetry_multiplicity
 _atom_site_fract_x
 _atom_site_fract_y
 _atom_site_fract_z
 _atom_site_occupancy
  Dy  Dy0  1  0.994788  0.675471  0.750000  1
  Dy  Dy1  1  0.004045  0.327545  0.250000  1
  Dy  Dy2  1  0.675471  0.994788  0.750000  1
  Dy  Dy3  1  0.327545  0.004045  0.250000  1
  Al  Al4  1  0.000333  0.337660  0.573458  1
  Al  Al5  1  0.998075  0.664494  0.425401  1
  Al  Al6  1  0.998075  0.664494  0.074599  1
  Al  Al7  1  0.337660  0.000333  0.926542  1
  Al  Al8  1  0.000333  0.337660  0.926542  1
  Al  Al9  1  0.664494  0.998075  0.074599  1
  Al  Al10  1  0.664494  0.998075  0.425401  1
  Al  Al11  1  0.337660  0.000333  0.573458  1
  Al  Al12  1  0.333293  0.333293  0.058319  1
  Al  Al13  1  0.663907  0.663907  0.947044  1
  Al  Al14  1  0.663907  0.663907  0.552956  1
  Al  Al15  1  0.333293  0.333293  0.441681  1
  Al  Al16  1  0.337098  0.552846  0.750000  1
  Al  Al17  1  0.662128  0.451063  0.250000  1
  Al  Al18  1  0.552846  0.337098  0.750000  1
  Al  Al19  1  0.451063  0.662128  0.250000  1
  Ga  Ga20  1  0.868910  0.868910  0.250000  1
  Ge  Ge21  1  0.135478  0.135478  0.750000  1
  Ir  Ir22  1  0.669887  0.327311  0.500012  1
  Ir  Ir23  1  0.327311  0.669887  0.500012  1
  Ir  Ir24  1  0.327311  0.669887  0.999988  1
  Ir  Ir25  1  0.669887  0.327311  0.999988  1
  Ir  Ir26  1  0.000353  0.000353  0.503503  1
  Ir  Ir27  1  0.000353  0.000353  0.996497  1
