# generated using pymatgen
data_Ho(MnC)4
_symmetry_space_group_name_H-M   'P 1'
_cell_length_a   5.60439719
_cell_length_b   5.60439644
_cell_length_c   5.60439692
_cell_angle_alpha   94.84670640
_cell_angle_beta   94.84670715
_cell_angle_gamma   146.20360714
_symmetry_Int_Tables_number   1
_chemical_formula_structural   Ho(MnC)4
_chemical_formula_sum   'Ho1 Mn4 C4'
_cell_volume   93.68778498
_cell_formula_units_Z   1
loop_
 _symmetry_equiv_pos_site_id
 _symmetry_equiv_pos_as_xyz
  1  'x, y, z'
loop_
 _atom_site_type_symbol
 _atom_site_label
 _atom_site_symmetry_multiplicity
 _atom_site_fract_x
 _atom_site_fract_y
 _atom_site_fract_z
 _atom_site_occupancy
  Ho  Ho0  1  0.000000  0.000000  0.000000  1
  Mn  Mn1  1  0.637638  0.820746  0.458384  1
  Mn  Mn2  1  0.362362  0.179254  0.541616  1
  Mn  Mn3  1  0.820746  0.362362  0.183108  1
  Mn  Mn4  1  0.179254  0.637638  0.816892  1
  C  C5  1  0.246072  0.400186  0.646257  1
  C  C6  1  0.753928  0.599814  0.353743  1
  C  C7  1  0.400186  0.753928  0.154114  1
  C  C8  1  0.599814  0.246072  0.845886  1
