# generated using pymatgen
data_Lu10Bi2IrPd3
_symmetry_space_group_name_H-M   'P 1'
_cell_length_a   8.71860850
_cell_length_b   8.71860796
_cell_length_c   8.69010196
_cell_angle_alpha   128.00572474
_cell_angle_beta   128.00572659
_cell_angle_gamma   76.85277902
_symmetry_Int_Tables_number   1
_chemical_formula_structural   Lu10Bi2IrPd3
_chemical_formula_sum   'Lu10 Bi2 Ir1 Pd3'
_cell_volume   397.69672694
_cell_formula_units_Z   1
loop_
 _symmetry_equiv_pos_site_id
 _symmetry_equiv_pos_as_xyz
  1  'x, y, z'
loop_
 _atom_site_type_symbol
 _atom_site_label
 _atom_site_symmetry_multiplicity
 _atom_site_fract_x
 _atom_site_fract_y
 _atom_site_fract_z
 _atom_site_occupancy
  Lu  Lu0  1  0.001931  0.994418  0.996349  1
  Lu  Lu1  1  0.494418  0.501931  0.996349  1
  Lu  Lu2  1  0.793537  0.293537  0.810624  1
  Lu  Lu3  1  0.202648  0.702648  0.179195  1
  Lu  Lu4  1  0.476548  0.976548  0.179195  1
  Lu  Lu5  1  0.291417  0.487484  0.504952  1
  Lu  Lu6  1  0.017467  0.213535  0.504952  1
  Lu  Lu7  1  0.517086  0.017086  0.810624  1
  Lu  Lu8  1  0.713535  0.517467  0.504952  1
  Lu  Lu9  1  0.987484  0.791417  0.504952  1
  Bi  Bi10  1  0.251050  0.251050  0.002100  1
  Bi  Bi11  1  0.751050  0.751050  0.002100  1
  Ir  Ir12  1  0.139935  0.639935  0.779871  1
  Pd  Pd13  1  0.861840  0.361840  0.223680  1
  Pd  Pd14  1  0.638218  0.861835  0.500053  1
  Pd  Pd15  1  0.361835  0.138218  0.500053  1
