# generated using pymatgen
data_Pr(TiAu2)2
_symmetry_space_group_name_H-M   'P 1'
_cell_length_a   5.73389673
_cell_length_b   5.73389690
_cell_length_c   5.73389641
_cell_angle_alpha   102.32394624
_cell_angle_beta   102.32394662
_cell_angle_gamma   124.96826236
_symmetry_Int_Tables_number   1
_chemical_formula_structural   Pr(TiAu2)2
_chemical_formula_sum   'Pr1 Ti2 Au4'
_cell_volume   137.00888571
_cell_formula_units_Z   1
loop_
 _symmetry_equiv_pos_site_id
 _symmetry_equiv_pos_as_xyz
  1  'x, y, z'
loop_
 _atom_site_type_symbol
 _atom_site_label
 _atom_site_symmetry_multiplicity
 _atom_site_fract_x
 _atom_site_fract_y
 _atom_site_fract_z
 _atom_site_occupancy
  Pr  Pr0  1  0.000000  0.000000  0.000000  1
  Ti  Ti1  1  0.250000  0.750000  0.500000  1
  Ti  Ti2  1  0.750000  0.250000  0.500000  1
  Au  Au3  1  0.302625  0.302625  0.605249  1
  Au  Au4  1  0.697375  0.697375  0.394751  1
  Au  Au5  1  0.697375  0.302625  0.000000  1
  Au  Au6  1  0.302625  0.697375  0.000000  1
