# generated using pymatgen
data_Dy2Y3Tm3(CdNi)2
_symmetry_space_group_name_H-M   'P 1'
_cell_length_a   9.51200528
_cell_length_b   9.51200580
_cell_length_c   9.51200500
_cell_angle_alpha   59.99999932
_cell_angle_beta   59.99999748
_cell_angle_gamma   59.99999614
_symmetry_Int_Tables_number   1
_chemical_formula_structural   Dy2Y3Tm3(CdNi)2
_chemical_formula_sum   'Dy4 Y6 Tm6 Cd4 Ni4'
_cell_volume   608.55696591
_cell_formula_units_Z   2
loop_
 _symmetry_equiv_pos_site_id
 _symmetry_equiv_pos_as_xyz
  1  'x, y, z'
loop_
 _atom_site_type_symbol
 _atom_site_label
 _atom_site_symmetry_multiplicity
 _atom_site_fract_x
 _atom_site_fract_y
 _atom_site_fract_z
 _atom_site_occupancy
  Dy  Dy0  1  0.598734  0.598734  0.598734  1
  Dy  Dy1  1  0.598734  0.598734  0.203797  1
  Dy  Dy2  1  0.598734  0.203797  0.598734  1
  Dy  Dy3  1  0.203797  0.598734  0.598734  1
  Y  Y4  1  0.187365  0.812635  0.812635  1
  Y  Y5  1  0.812635  0.187365  0.187365  1
  Y  Y6  1  0.812635  0.187365  0.812635  1
  Y  Y7  1  0.187365  0.812635  0.187365  1
  Y  Y8  1  0.812635  0.812635  0.187365  1
  Y  Y9  1  0.187365  0.187365  0.812635  1
  Tm  Tm10  1  0.062714  0.437286  0.437286  1
  Tm  Tm11  1  0.437286  0.062714  0.062714  1
  Tm  Tm12  1  0.437286  0.062714  0.437286  1
  Tm  Tm13  1  0.062714  0.437286  0.062714  1
  Tm  Tm14  1  0.437286  0.437286  0.062714  1
  Tm  Tm15  1  0.062714  0.062714  0.437286  1
  Cd  Cd16  1  0.830771  0.830771  0.830771  1
  Cd  Cd17  1  0.830771  0.830771  0.507686  1
  Cd  Cd18  1  0.830771  0.507686  0.830771  1
  Cd  Cd19  1  0.507686  0.830771  0.830771  1
  Ni  Ni20  1  0.391808  0.391808  0.391808  1
  Ni  Ni21  1  0.391808  0.391808  0.824578  1
  Ni  Ni22  1  0.391808  0.824578  0.391808  1
  Ni  Ni23  1  0.824578  0.391808  0.391808  1
