# generated using pymatgen
data_Nd2ZnGaCoNi5B2
_symmetry_space_group_name_H-M   'P 1'
_cell_length_a   5.28561700
_cell_length_b   5.25730534
_cell_length_c   6.76288500
_cell_angle_alpha   90.00000000
_cell_angle_beta   90.00000000
_cell_angle_gamma   120.17829528
_symmetry_Int_Tables_number   1
_chemical_formula_structural   Nd2ZnGaCoNi5B2
_chemical_formula_sum   'Nd2 Zn1 Ga1 Co1 Ni5 B2'
_cell_volume   162.45701002
_cell_formula_units_Z   1
loop_
 _symmetry_equiv_pos_site_id
 _symmetry_equiv_pos_as_xyz
  1  'x, y, z'
loop_
 _atom_site_type_symbol
 _atom_site_label
 _atom_site_symmetry_multiplicity
 _atom_site_fract_x
 _atom_site_fract_y
 _atom_site_fract_z
 _atom_site_occupancy
  Nd  Nd0  1  0.000034  0.000068  0.502079  1
  Nd  Nd1  1  0.000010  0.000020  0.007235  1
  Zn  Zn2  1  0.335534  0.671069  0.999118  1
  Ga  Ga3  1  0.664153  0.328306  0.999351  1
  Co  Co4  1  0.500759  0.001518  0.300800  1
  Ni  Ni5  1  0.500466  0.500208  0.297368  1
  Ni  Ni6  1  0.999742  0.500208  0.297368  1
  Ni  Ni7  1  0.500251  0.000501  0.698393  1
  Ni  Ni8  1  0.500289  0.499330  0.701388  1
  Ni  Ni9  1  0.999041  0.499330  0.701388  1
  B  B10  1  0.665115  0.330228  0.497720  1
  B  B11  1  0.334607  0.669215  0.497790  1
