# generated using pymatgen
data_TbGaBRh3
_symmetry_space_group_name_H-M   'P 1'
_cell_length_a   5.51662900
_cell_length_b   5.51806198
_cell_length_c   7.00237700
_cell_angle_alpha   90.00000000
_cell_angle_beta   90.00000000
_cell_angle_gamma   119.99143993
_symmetry_Int_Tables_number   1
_chemical_formula_structural   TbGaBRh3
_chemical_formula_sum   'Tb2 Ga2 B2 Rh6'
_cell_volume   184.61795122
_cell_formula_units_Z   2
loop_
 _symmetry_equiv_pos_site_id
 _symmetry_equiv_pos_as_xyz
  1  'x, y, z'
loop_
 _atom_site_type_symbol
 _atom_site_label
 _atom_site_symmetry_multiplicity
 _atom_site_fract_x
 _atom_site_fract_y
 _atom_site_fract_z
 _atom_site_occupancy
  Tb  Tb0  1  0.999973  0.000000  0.000000  1
  Tb  Tb1  1  0.999989  0.000000  0.500000  1
  Ga  Ga2  1  0.333303  0.666648  0.000000  1
  Ga  Ga3  1  0.666655  0.333352  0.000000  1
  B  B4  1  0.333335  0.666705  0.500000  1
  B  B5  1  0.666630  0.333295  0.500000  1
  Rh  Rh6  1  0.499989  0.000000  0.290122  1
  Rh  Rh7  1  0.499984  0.499999  0.290116  1
  Rh  Rh8  1  0.999983  0.500001  0.290116  1
  Rh  Rh9  1  0.499989  0.000000  0.709878  1
  Rh  Rh10  1  0.499984  0.499999  0.709884  1
  Rh  Rh11  1  0.999983  0.500001  0.709884  1
