# generated using pymatgen
data_Sr7La(Y3Sn4)4
_symmetry_space_group_name_H-M   'P 1'
_cell_length_a   8.21914285
_cell_length_b   8.38000365
_cell_length_c   15.93310000
_cell_angle_alpha   89.80846910
_cell_angle_beta   89.90272639
_cell_angle_gamma   90.11450555
_symmetry_Int_Tables_number   1
_chemical_formula_structural   Sr7La(Y3Sn4)4
_chemical_formula_sum   'Sr7 La1 Y12 Sn16'
_cell_volume   1097.40540145
_cell_formula_units_Z   1
loop_
 _symmetry_equiv_pos_site_id
 _symmetry_equiv_pos_as_xyz
  1  'x, y, z'
loop_
 _atom_site_type_symbol
 _atom_site_label
 _atom_site_symmetry_multiplicity
 _atom_site_fract_x
 _atom_site_fract_y
 _atom_site_fract_z
 _atom_site_occupancy
  Sr  Sr0  1  0.999921  0.173899  0.595168  1
  Sr  Sr1  1  0.500301  0.673912  0.407403  1
  Sr  Sr2  1  0.000736  0.824356  0.092028  1
  Sr  Sr3  1  0.501596  0.674481  0.092218  1
  Sr  Sr4  1  0.000599  0.825812  0.407061  1
  Sr  Sr5  1  0.500263  0.326373  0.594861  1
  Sr  Sr6  1  0.000788  0.173047  0.906211  1
  La  La7  1  0.496187  0.323286  0.903567  1
  Y  Y8  1  0.330107  0.835625  0.874510  1
  Y  Y9  1  0.830450  0.664876  0.625793  1
  Y  Y10  1  0.669042  0.164824  0.375646  1
  Y  Y11  1  0.169444  0.336046  0.124088  1
  Y  Y12  1  0.668748  0.165023  0.124509  1
  Y  Y13  1  0.168711  0.334740  0.375957  1
  Y  Y14  1  0.329766  0.837065  0.626429  1
  Y  Y15  1  0.831247  0.664742  0.875024  1
  Y  Y16  1  0.166263  0.496082  0.749362  1
  Y  Y17  1  0.669117  0.004071  0.749803  1
  Y  Y18  1  0.832030  0.504984  0.249956  1
  Y  Y19  1  0.332049  0.994555  0.249857  1
  Sn  Sn20  1  0.338108  0.044951  0.039690  1
  Sn  Sn21  1  0.837273  0.458995  0.458081  1
  Sn  Sn22  1  0.662160  0.959380  0.543084  1
  Sn  Sn23  1  0.167696  0.536777  0.955671  1
  Sn  Sn24  1  0.662016  0.964700  0.955773  1
  Sn  Sn25  1  0.163031  0.540629  0.543196  1
  Sn  Sn26  1  0.337319  0.040584  0.458077  1
  Sn  Sn27  1  0.834015  0.456493  0.040428  1
  Sn  Sn28  1  0.529737  0.626037  0.751756  1
  Sn  Sn29  1  0.029770  0.869796  0.750660  1
  Sn  Sn30  1  0.468513  0.372764  0.250105  1
  Sn  Sn31  1  0.968625  0.127633  0.249800  1
  Sn  Sn32  1  0.306692  0.139675  0.752033  1
  Sn  Sn33  1  0.797864  0.363988  0.753113  1
  Sn  Sn34  1  0.699857  0.865968  0.249763  1
  Sn  Sn35  1  0.199963  0.633830  0.249317  1
