# generated using pymatgen
data_Ho2Sc2B12IrRh
_symmetry_space_group_name_H-M   'P 1'
_cell_length_a   3.54549600
_cell_length_b   9.00239212
_cell_length_c   11.36132642
_cell_angle_alpha   89.94271013
_cell_angle_beta   90.00000000
_cell_angle_gamma   90.00000000
_symmetry_Int_Tables_number   1
_chemical_formula_structural   Ho2Sc2B12IrRh
_chemical_formula_sum   'Ho4 Sc4 B24 Ir2 Rh2'
_cell_volume   362.63001358
_cell_formula_units_Z   2
loop_
 _symmetry_equiv_pos_site_id
 _symmetry_equiv_pos_as_xyz
  1  'x, y, z'
loop_
 _atom_site_type_symbol
 _atom_site_label
 _atom_site_symmetry_multiplicity
 _atom_site_fract_x
 _atom_site_fract_y
 _atom_site_fract_z
 _atom_site_occupancy
  Ho  Ho0  1  0.500000  0.319464  0.413472  1
  Ho  Ho1  1  0.500000  0.680536  0.586528  1
  Ho  Ho2  1  0.500000  0.179093  0.914523  1
  Ho  Ho3  1  0.500000  0.820907  0.085477  1
  Sc  Sc4  1  0.500000  0.444359  0.124441  1
  Sc  Sc5  1  0.500000  0.555641  0.875559  1
  Sc  Sc6  1  0.500000  0.054613  0.624792  1
  Sc  Sc7  1  0.500000  0.945387  0.375208  1
  B  B8  1  0.000000  0.100211  0.472941  1
  B  B9  1  0.000000  0.899789  0.527059  1
  B  B10  1  0.000000  0.399543  0.972915  1
  B  B11  1  0.000000  0.600457  0.027085  1
  B  B12  1  0.000000  0.130471  0.318526  1
  B  B13  1  0.000000  0.869529  0.681474  1
  B  B14  1  0.000000  0.370076  0.818501  1
  B  B15  1  0.000000  0.629924  0.181499  1
  B  B16  1  0.000000  0.054489  0.065443  1
  B  B17  1  0.000000  0.945511  0.934557  1
  B  B18  1  0.000000  0.445266  0.565753  1
  B  B19  1  0.000000  0.554734  0.434247  1
  B  B20  1  0.000000  0.481390  0.285165  1
  B  B21  1  0.000000  0.518610  0.714835  1
  B  B22  1  0.000000  0.018072  0.785419  1
  B  B23  1  0.000000  0.981928  0.214581  1
  B  B24  1  0.000000  0.253514  0.080292  1
  B  B25  1  0.000000  0.746486  0.919708  1
  B  B26  1  0.000000  0.245837  0.580164  1
  B  B27  1  0.000000  0.754163  0.419836  1
  B  B28  1  0.000000  0.295744  0.235832  1
  B  B29  1  0.000000  0.704256  0.764168  1
  B  B30  1  0.000000  0.204008  0.735550  1
  B  B31  1  0.000000  0.795992  0.264450  1
  Ir  Ir32  1  0.500000  0.358808  0.681059  1
  Ir  Ir33  1  0.500000  0.641192  0.318941  1
  Rh  Rh34  1  0.500000  0.141664  0.181988  1
  Rh  Rh35  1  0.500000  0.858336  0.818012  1
