# generated using pymatgen
data_Tb8AlSi12NiPt2
_symmetry_space_group_name_H-M   'P 1'
_cell_length_a   8.11434400
_cell_length_b   8.11434360
_cell_length_c   8.15873200
_cell_angle_alpha   90.00000000
_cell_angle_beta   90.00000000
_cell_angle_gamma   120.00000978
_symmetry_Int_Tables_number   1
_chemical_formula_structural   Tb8AlSi12NiPt2
_chemical_formula_sum   'Tb8 Al1 Si12 Ni1 Pt2'
_cell_volume   465.22180886
_cell_formula_units_Z   1
loop_
 _symmetry_equiv_pos_site_id
 _symmetry_equiv_pos_as_xyz
  1  'x, y, z'
loop_
 _atom_site_type_symbol
 _atom_site_label
 _atom_site_symmetry_multiplicity
 _atom_site_fract_x
 _atom_site_fract_y
 _atom_site_fract_z
 _atom_site_occupancy
  Tb  Tb0  1  0.503137  0.006272  0.249396  1
  Tb  Tb1  1  0.501567  0.003136  0.751217  1
  Tb  Tb2  1  0.993728  0.496863  0.249396  1
  Tb  Tb3  1  0.996864  0.498433  0.751217  1
  Tb  Tb4  1  0.503137  0.496863  0.249396  1
  Tb  Tb5  1  0.501567  0.498433  0.751217  1
  Tb  Tb6  1  0.000000  0.000000  0.248863  1
  Tb  Tb7  1  0.000000  0.000000  0.750297  1
  Al  Al8  1  0.333333  0.666667  0.005890  1
  Si  Si9  1  0.162089  0.324180  0.997970  1
  Si  Si10  1  0.825652  0.651305  0.001082  1
  Si  Si11  1  0.675820  0.837911  0.997970  1
  Si  Si12  1  0.834449  0.668899  0.501217  1
  Si  Si13  1  0.348695  0.174348  0.001082  1
  Si  Si14  1  0.165941  0.331881  0.498846  1
  Si  Si15  1  0.162089  0.837911  0.997970  1
  Si  Si16  1  0.331101  0.165551  0.501217  1
  Si  Si17  1  0.825652  0.174348  0.001082  1
  Si  Si18  1  0.668119  0.834059  0.498846  1
  Si  Si19  1  0.834449  0.165551  0.501217  1
  Si  Si20  1  0.165941  0.834059  0.498846  1
  Ni  Ni21  1  0.666667  0.333333  0.996754  1
  Pt  Pt22  1  0.666667  0.333333  0.500827  1
  Pt  Pt23  1  0.333333  0.666667  0.498177  1
