# generated using pymatgen
data_Hf18Re2MoW5Se2
_symmetry_space_group_name_H-M   'P 1'
_cell_length_a   8.70897311
_cell_length_b   8.70897334
_cell_length_c   8.63742500
_cell_angle_alpha   90.00000000
_cell_angle_beta   90.00000000
_cell_angle_gamma   119.84364012
_symmetry_Int_Tables_number   1
_chemical_formula_structural   Hf18Re2MoW5Se2
_chemical_formula_sum   'Hf18 Re2 Mo1 W5 Se2'
_cell_volume   568.23888032
_cell_formula_units_Z   1
loop_
 _symmetry_equiv_pos_site_id
 _symmetry_equiv_pos_as_xyz
  1  'x, y, z'
loop_
 _atom_site_type_symbol
 _atom_site_label
 _atom_site_symmetry_multiplicity
 _atom_site_fract_x
 _atom_site_fract_y
 _atom_site_fract_z
 _atom_site_occupancy
  Hf  Hf0  1  0.542509  0.084936  0.250000  1
  Hf  Hf1  1  0.457520  0.914888  0.750000  1
  Hf  Hf2  1  0.915064  0.457491  0.250000  1
  Hf  Hf3  1  0.085112  0.542480  0.750000  1
  Hf  Hf4  1  0.542473  0.457527  0.250000  1
  Hf  Hf5  1  0.457442  0.542558  0.750000  1
  Hf  Hf6  1  0.192830  0.385682  0.047435  1
  Hf  Hf7  1  0.806548  0.613582  0.952982  1
  Hf  Hf8  1  0.614318  0.807170  0.047435  1
  Hf  Hf9  1  0.806548  0.613582  0.547018  1
  Hf  Hf10  1  0.386418  0.193452  0.952982  1
  Hf  Hf11  1  0.192830  0.385682  0.452565  1
  Hf  Hf12  1  0.192719  0.807281  0.047370  1
  Hf  Hf13  1  0.386418  0.193452  0.547018  1
  Hf  Hf14  1  0.807040  0.192960  0.952426  1
  Hf  Hf15  1  0.614318  0.807170  0.452565  1
  Hf  Hf16  1  0.807040  0.192960  0.547574  1
  Hf  Hf17  1  0.192719  0.807281  0.452630  1
  Re  Re18  1  0.000024  0.999976  0.999942  1
  Re  Re19  1  0.000024  0.999976  0.500058  1
  Mo  Mo20  1  0.109681  0.890319  0.750000  1
  W  W21  1  0.890406  0.780792  0.250000  1
  W  W22  1  0.109452  0.218961  0.750000  1
  W  W23  1  0.219208  0.109594  0.250000  1
  W  W24  1  0.781039  0.890548  0.750000  1
  W  W25  1  0.890364  0.109636  0.250000  1
  Se  Se26  1  0.333311  0.666689  0.250000  1
  Se  Se27  1  0.666626  0.333374  0.750000  1
