# generated using pymatgen
data_TbNdHo6(Si3Pt)4
_symmetry_space_group_name_H-M   'P 1'
_cell_length_a   8.14842100
_cell_length_b   8.14842111
_cell_length_c   8.18956300
_cell_angle_alpha   90.00000000
_cell_angle_beta   90.00000000
_cell_angle_gamma   119.99999550
_symmetry_Int_Tables_number   1
_chemical_formula_structural   TbNdHo6(Si3Pt)4
_chemical_formula_sum   'Tb1 Nd1 Ho6 Si12 Pt4'
_cell_volume   470.91042399
_cell_formula_units_Z   1
loop_
 _symmetry_equiv_pos_site_id
 _symmetry_equiv_pos_as_xyz
  1  'x, y, z'
loop_
 _atom_site_type_symbol
 _atom_site_label
 _atom_site_symmetry_multiplicity
 _atom_site_fract_x
 _atom_site_fract_y
 _atom_site_fract_z
 _atom_site_occupancy
  Tb  Tb0  1  0.000000  0.000000  0.750000  1
  Nd  Nd1  1  0.000000  0.000000  0.250000  1
  Ho  Ho2  1  0.499314  0.500686  0.750000  1
  Ho  Ho3  1  0.500391  0.499609  0.250000  1
  Ho  Ho4  1  0.001373  0.500686  0.750000  1
  Ho  Ho5  1  0.999218  0.499609  0.250000  1
  Ho  Ho6  1  0.499314  0.998627  0.750000  1
  Ho  Ho7  1  0.500391  0.000782  0.250000  1
  Si  Si8  1  0.834041  0.165959  0.996575  1
  Si  Si9  1  0.166030  0.833970  0.997447  1
  Si  Si10  1  0.331920  0.165959  0.996575  1
  Si  Si11  1  0.166030  0.833970  0.502553  1
  Si  Si12  1  0.667940  0.833970  0.997447  1
  Si  Si13  1  0.834041  0.165959  0.503425  1
  Si  Si14  1  0.834041  0.668080  0.996575  1
  Si  Si15  1  0.667940  0.833970  0.502553  1
  Si  Si16  1  0.166030  0.332060  0.997447  1
  Si  Si17  1  0.331920  0.165959  0.503425  1
  Si  Si18  1  0.166030  0.332060  0.502553  1
  Si  Si19  1  0.834041  0.668080  0.503425  1
  Pt  Pt20  1  0.666667  0.333333  0.999756  1
  Pt  Pt21  1  0.333333  0.666667  0.001582  1
  Pt  Pt22  1  0.333333  0.666667  0.498418  1
  Pt  Pt23  1  0.666667  0.333333  0.500244  1
