# generated using pymatgen
data_Lu2Hf3ZrPt2F30
_symmetry_space_group_name_H-M   'P 1'
_cell_length_a   8.03317801
_cell_length_b   8.04052444
_cell_length_c   8.02810330
_cell_angle_alpha   79.83637494
_cell_angle_beta   79.92542950
_cell_angle_gamma   100.12225407
_symmetry_Int_Tables_number   1
_chemical_formula_structural   Lu2Hf3ZrPt2F30
_chemical_formula_sum   'Lu2 Hf3 Zr1 Pt2 F30'
_cell_volume   490.98203218
_cell_formula_units_Z   1
loop_
 _symmetry_equiv_pos_site_id
 _symmetry_equiv_pos_as_xyz
  1  'x, y, z'
loop_
 _atom_site_type_symbol
 _atom_site_label
 _atom_site_symmetry_multiplicity
 _atom_site_fract_x
 _atom_site_fract_y
 _atom_site_fract_z
 _atom_site_occupancy
  Lu  Lu0  1  0.676944  0.322910  0.749139  1
  Lu  Lu1  1  0.321808  0.676590  0.251527  1
  Hf  Hf2  1  0.823137  0.751333  0.327491  1
  Hf  Hf3  1  0.248821  0.177000  0.172157  1
  Hf  Hf4  1  0.177500  0.249546  0.672080  1
  Zr  Zr5  1  0.750618  0.822465  0.827437  1
  Pt  Pt6  1  0.249834  0.749975  0.749916  1
  Pt  Pt7  1  0.750278  0.249548  0.249441  1
  F  F8  1  0.152895  0.185502  0.943819  1
  F  F9  1  0.685211  0.560747  0.846137  1
  F  F10  1  0.042817  0.659466  0.314995  1
  F  F11  1  0.656887  0.044572  0.815496  1
  F  F12  1  0.564596  0.687782  0.344652  1
  F  F13  1  0.185885  0.153649  0.444213  1
  F  F14  1  0.850281  0.815521  0.057412  1
  F  F15  1  0.311375  0.435054  0.157443  1
  F  F16  1  0.957085  0.340795  0.685336  1
  F  F17  1  0.339578  0.956435  0.186326  1
  F  F18  1  0.435766  0.312261  0.655586  1
  F  F19  1  0.817645  0.849722  0.551597  1
  F  F20  1  0.974146  0.029441  0.748672  1
  F  F21  1  0.538192  0.752242  0.028806  1
  F  F22  1  0.246618  0.460677  0.474597  1
  F  F23  1  0.459593  0.246345  0.974088  1
  F  F24  1  0.753692  0.540763  0.526704  1
  F  F25  1  0.028113  0.973150  0.249582  1
  F  F26  1  0.211083  0.723943  0.003236  1
  F  F27  1  0.224630  0.495904  0.791534  1
  F  F28  1  0.994878  0.709258  0.778014  1
  F  F29  1  0.711072  0.994668  0.277033  1
  F  F30  1  0.495819  0.223847  0.291447  1
  F  F31  1  0.724556  0.211585  0.502888  1
  F  F32  1  0.788812  0.275130  0.996371  1
  F  F33  1  0.775918  0.503855  0.208515  1
  F  F34  1  0.005399  0.288517  0.221354  1
  F  F35  1  0.289059  0.005095  0.721694  1
  F  F36  1  0.504207  0.776011  0.706491  1
  F  F37  1  0.275254  0.788697  0.496777  1
