# generated using pymatgen
data_Ho2Tm2Al15(GaIr2)3
_symmetry_space_group_name_H-M   'P 1'
_cell_length_a   7.52254034
_cell_length_b   7.52228680
_cell_length_c   9.50265100
_cell_angle_alpha   90.00000000
_cell_angle_beta   90.00000000
_cell_angle_gamma   119.43827437
_symmetry_Int_Tables_number   1
_chemical_formula_structural   Ho2Tm2Al15(GaIr2)3
_chemical_formula_sum   'Ho2 Tm2 Al15 Ga3 Ir6'
_cell_volume   468.29588875
_cell_formula_units_Z   1
loop_
 _symmetry_equiv_pos_site_id
 _symmetry_equiv_pos_as_xyz
  1  'x, y, z'
loop_
 _atom_site_type_symbol
 _atom_site_label
 _atom_site_symmetry_multiplicity
 _atom_site_fract_x
 _atom_site_fract_y
 _atom_site_fract_z
 _atom_site_occupancy
  Ho  Ho0  1  0.997873  0.674978  0.250000  1
  Ho  Ho1  1  0.670625  0.991528  0.250000  1
  Tm  Tm2  1  0.005733  0.325737  0.750000  1
  Tm  Tm3  1  0.324652  0.003498  0.750000  1
  Al  Al4  1  0.001592  0.335415  0.072377  1
  Al  Al5  1  0.998735  0.664190  0.925643  1
  Al  Al6  1  0.998735  0.664190  0.574357  1
  Al  Al7  1  0.336060  0.003107  0.427480  1
  Al  Al8  1  0.001592  0.335415  0.427623  1
  Al  Al9  1  0.664362  0.999531  0.574133  1
  Al  Al10  1  0.664362  0.999531  0.925867  1
  Al  Al11  1  0.336060  0.003107  0.072520  1
  Al  Al12  1  0.333797  0.333790  0.557610  1
  Al  Al13  1  0.666026  0.665710  0.447908  1
  Al  Al14  1  0.666026  0.665710  0.052092  1
  Al  Al15  1  0.333797  0.333790  0.942390  1
  Al  Al16  1  0.662433  0.449410  0.750000  1
  Al  Al17  1  0.550368  0.339354  0.250000  1
  Al  Al18  1  0.450305  0.662471  0.750000  1
  Ga  Ga19  1  0.131813  0.132446  0.250000  1
  Ga  Ga20  1  0.865868  0.865717  0.750000  1
  Ga  Ga21  1  0.339178  0.546411  0.250000  1
  Ir  Ir22  1  0.671617  0.328897  0.000105  1
  Ir  Ir23  1  0.328117  0.672886  0.997462  1
  Ir  Ir24  1  0.328117  0.672886  0.502538  1
  Ir  Ir25  1  0.671617  0.328897  0.499895  1
  Ir  Ir26  1  0.000272  0.000701  0.999660  1
  Ir  Ir27  1  0.000272  0.000701  0.500340  1
