# generated using pymatgen
data_Tb5Er7InCo4Ru
_symmetry_space_group_name_H-M   'P 1'
_cell_length_a   8.24846513
_cell_length_b   8.25055430
_cell_length_c   8.24846578
_cell_angle_alpha   111.05468720
_cell_angle_beta   110.94778912
_cell_angle_gamma   106.44300267
_symmetry_Int_Tables_number   1
_chemical_formula_structural   Tb5Er7InCo4Ru
_chemical_formula_sum   'Tb5 Er7 In1 Co4 Ru1'
_cell_volume   431.27821567
_cell_formula_units_Z   1
loop_
 _symmetry_equiv_pos_site_id
 _symmetry_equiv_pos_as_xyz
  1  'x, y, z'
loop_
 _atom_site_type_symbol
 _atom_site_label
 _atom_site_symmetry_multiplicity
 _atom_site_fract_x
 _atom_site_fract_y
 _atom_site_fract_z
 _atom_site_occupancy
  Tb  Tb0  1  0.184544  0.282817  0.468237  1
  Tb  Tb1  1  0.815871  0.716792  0.532220  1
  Tb  Tb2  1  0.184572  0.716792  0.900921  1
  Tb  Tb3  1  0.814580  0.282817  0.098273  1
  Tb  Tb4  1  0.314118  0.619377  0.305258  1
  Er  Er5  1  0.685527  0.379359  0.693832  1
  Er  Er6  1  0.314565  0.008955  0.694390  1
  Er  Er7  1  0.685985  0.992126  0.306140  1
  Er  Er8  1  0.412689  0.218610  0.193481  1
  Er  Er9  1  0.587705  0.781183  0.807108  1
  Er  Er10  1  0.025129  0.218610  0.805921  1
  Er  Er11  1  0.974074  0.781183  0.193478  1
  In  In12  1  0.500177  0.499729  0.999551  1
  Co  Co13  1  0.111814  0.612070  0.500256  1
  Co  Co14  1  0.887714  0.387740  0.500026  1
  Co  Co15  1  0.376517  0.000883  0.376466  1
  Co  Co16  1  0.624417  0.000883  0.624366  1
  Ru  Ru17  1  0.000000  0.000074  0.000074  1
