# generated using pymatgen
data_NdTh7(Sc3Sn4)4
_symmetry_space_group_name_H-M   'P 1'
_cell_length_a   7.90873992
_cell_length_b   7.98826435
_cell_length_c   15.02581366
_cell_angle_alpha   90.02280942
_cell_angle_beta   90.04894995
_cell_angle_gamma   89.97477301
_symmetry_Int_Tables_number   1
_chemical_formula_structural   NdTh7(Sc3Sn4)4
_chemical_formula_sum   'Nd1 Th7 Sc12 Sn16'
_cell_volume   949.28689602
_cell_formula_units_Z   1
loop_
 _symmetry_equiv_pos_site_id
 _symmetry_equiv_pos_as_xyz
  1  'x, y, z'
loop_
 _atom_site_type_symbol
 _atom_site_label
 _atom_site_symmetry_multiplicity
 _atom_site_fract_x
 _atom_site_fract_y
 _atom_site_fract_z
 _atom_site_occupancy
  Nd  Nd0  1  0.515249  0.325416  0.904727  1
  Th  Th1  1  0.015589  0.174624  0.594629  1
  Th  Th2  1  0.484806  0.674713  0.405421  1
  Th  Th3  1  0.984925  0.825394  0.094275  1
  Th  Th4  1  0.485835  0.675492  0.095126  1
  Th  Th5  1  0.984960  0.825252  0.405783  1
  Th  Th6  1  0.514471  0.324846  0.594337  1
  Th  Th7  1  0.014040  0.173708  0.905699  1
  Sc  Sc8  1  0.349816  0.839296  0.873666  1
  Sc  Sc9  1  0.850113  0.659560  0.626145  1
  Sc  Sc10  1  0.649395  0.160474  0.374057  1
  Sc  Sc11  1  0.148984  0.339582  0.126110  1
  Sc  Sc12  1  0.650520  0.160134  0.126505  1
  Sc  Sc13  1  0.150097  0.340190  0.373906  1
  Sc  Sc14  1  0.349980  0.840351  0.626075  1
  Sc  Sc15  1  0.851767  0.660495  0.873704  1
  Sc  Sc16  1  0.180670  0.501447  0.749781  1
  Sc  Sc17  1  0.681897  0.997788  0.749513  1
  Sc  Sc18  1  0.819066  0.499041  0.250178  1
  Sc  Sc19  1  0.318520  0.000911  0.250181  1
  Sn  Sn20  1  0.311846  0.044894  0.044319  1
  Sn  Sn21  1  0.811565  0.454601  0.456283  1
  Sn  Sn22  1  0.688542  0.954855  0.543896  1
  Sn  Sn23  1  0.188768  0.545062  0.956229  1
  Sn  Sn24  1  0.686934  0.953538  0.956217  1
  Sn  Sn25  1  0.188209  0.545976  0.543534  1
  Sn  Sn26  1  0.311255  0.045492  0.455947  1
  Sn  Sn27  1  0.811730  0.454644  0.043978  1
  Sn  Sn28  1  0.544533  0.632512  0.749036  1
  Sn  Sn29  1  0.044830  0.868399  0.749683  1
  Sn  Sn30  1  0.455664  0.367956  0.249959  1
  Sn  Sn31  1  0.955649  0.132070  0.250323  1
  Sn  Sn32  1  0.321678  0.142655  0.750625  1
  Sn  Sn33  1  0.820605  0.358019  0.750037  1
  Sn  Sn34  1  0.679131  0.858701  0.250323  1
  Sn  Sn35  1  0.178363  0.641912  0.249793  1
