# generated using pymatgen
data_Y11Cd9NiPd3
_symmetry_space_group_name_H-M   'P 1'
_cell_length_a   13.20007400
_cell_length_b   13.20215501
_cell_length_c   3.67873100
_cell_angle_alpha   90.00000000
_cell_angle_beta   90.00000000
_cell_angle_gamma   112.52684858
_symmetry_Int_Tables_number   1
_chemical_formula_structural   Y11Cd9NiPd3
_chemical_formula_sum   'Y11 Cd9 Ni1 Pd3'
_cell_volume   592.17520579
_cell_formula_units_Z   1
loop_
 _symmetry_equiv_pos_site_id
 _symmetry_equiv_pos_as_xyz
  1  'x, y, z'
loop_
 _atom_site_type_symbol
 _atom_site_label
 _atom_site_symmetry_multiplicity
 _atom_site_fract_x
 _atom_site_fract_y
 _atom_site_fract_z
 _atom_site_occupancy
  Y  Y0  1  0.074766  0.415802  0.000000  1
  Y  Y1  1  0.925575  0.585839  0.000000  1
  Y  Y2  1  0.415349  0.073364  0.000000  1
  Y  Y3  1  0.583354  0.918673  0.000000  1
  Y  Y4  1  0.628214  0.372025  0.000000  1
  Y  Y5  1  0.379512  0.632998  0.000000  1
  Y  Y6  1  0.836954  0.161029  0.000000  1
  Y  Y7  1  0.163949  0.837545  0.000000  1
  Y  Y8  1  0.999007  0.999647  0.000000  1
  Y  Y9  1  0.306093  0.306879  0.000000  1
  Y  Y10  1  0.687472  0.695917  0.000000  1
  Cd  Cd11  1  0.842302  0.366689  0.500000  1
  Cd  Cd12  1  0.158848  0.632950  0.500000  1
  Cd  Cd13  1  0.368457  0.839642  0.500000  1
  Cd  Cd14  1  0.633567  0.156598  0.500000  1
  Cd  Cd15  1  0.070917  0.215343  0.500000  1
  Cd  Cd16  1  0.927845  0.785219  0.500000  1
  Cd  Cd17  1  0.214945  0.070500  0.500000  1
  Cd  Cd18  1  0.783038  0.927128  0.500000  1
  Cd  Cd19  1  0.500483  0.502030  0.500000  1
  Ni  Ni20  1  0.548785  0.751124  0.500000  1
  Pd  Pd21  1  0.251145  0.452444  0.500000  1
  Pd  Pd22  1  0.748815  0.550780  0.500000  1
  Pd  Pd23  1  0.450609  0.249834  0.500000  1
