# generated using pymatgen
data_Er16Hf3ScIr12
_symmetry_space_group_name_H-M   'P 1'
_cell_length_a   10.74955200
_cell_length_b   10.74955200
_cell_length_c   6.21949500
_cell_angle_alpha   90.00000000
_cell_angle_beta   90.00000000
_cell_angle_gamma   90.00000000
_symmetry_Int_Tables_number   1
_chemical_formula_structural   Er16Hf3ScIr12
_chemical_formula_sum   'Er16 Hf3 Sc1 Ir12'
_cell_volume   718.68048601
_cell_formula_units_Z   1
loop_
 _symmetry_equiv_pos_site_id
 _symmetry_equiv_pos_as_xyz
  1  'x, y, z'
loop_
 _atom_site_type_symbol
 _atom_site_label
 _atom_site_symmetry_multiplicity
 _atom_site_fract_x
 _atom_site_fract_y
 _atom_site_fract_z
 _atom_site_occupancy
  Er  Er0  1  0.288684  0.085926  0.374641  1
  Er  Er1  1  0.289388  0.913642  0.875244  1
  Er  Er2  1  0.710612  0.086358  0.875244  1
  Er  Er3  1  0.711316  0.914074  0.374641  1
  Er  Er4  1  0.586484  0.789418  0.874739  1
  Er  Er5  1  0.586171  0.210395  0.374351  1
  Er  Er6  1  0.413829  0.789605  0.374351  1
  Er  Er7  1  0.413516  0.210582  0.874739  1
  Er  Er8  1  0.210395  0.413829  0.625649  1
  Er  Er9  1  0.210582  0.586484  0.125261  1
  Er  Er10  1  0.789418  0.413516  0.125261  1
  Er  Er11  1  0.789605  0.586171  0.625649  1
  Er  Er12  1  0.913642  0.710612  0.124756  1
  Er  Er13  1  0.914074  0.288684  0.625359  1
  Er  Er14  1  0.085926  0.711316  0.625359  1
  Er  Er15  1  0.086358  0.289388  0.124756  1
  Hf  Hf16  1  0.000000  0.000000  0.000000  1
  Hf  Hf17  1  0.500000  0.500000  0.000000  1
  Hf  Hf18  1  0.500000  0.500000  0.500000  1
  Sc  Sc19  1  0.000000  0.000000  0.500000  1
  Ir  Ir20  1  0.854120  0.146309  0.245636  1
  Ir  Ir21  1  0.853691  0.854120  0.754364  1
  Ir  Ir22  1  0.146309  0.145880  0.754364  1
  Ir  Ir23  1  0.145880  0.853691  0.245636  1
  Ir  Ir24  1  0.644378  0.355717  0.749524  1
  Ir  Ir25  1  0.644283  0.644378  0.250476  1
  Ir  Ir26  1  0.355717  0.355622  0.250476  1
  Ir  Ir27  1  0.355622  0.644283  0.749524  1
  Ir  Ir28  1  0.500000  0.000000  0.123072  1
  Ir  Ir29  1  0.500000  0.000000  0.622681  1
  Ir  Ir30  1  0.000000  0.500000  0.876928  1
  Ir  Ir31  1  0.000000  0.500000  0.377319  1
