# generated using pymatgen
data_Nb3Zn2N
_symmetry_space_group_name_H-M   'P 1'
_cell_length_a   7.03810300
_cell_length_b   7.03810300
_cell_length_c   7.03810300
_cell_angle_alpha   90.00000000
_cell_angle_beta   90.00000000
_cell_angle_gamma   90.00000000
_symmetry_Int_Tables_number   1
_chemical_formula_structural   Nb3Zn2N
_chemical_formula_sum   'Nb12 Zn8 N4'
_cell_volume   348.63168493
_cell_formula_units_Z   4
loop_
 _symmetry_equiv_pos_site_id
 _symmetry_equiv_pos_as_xyz
  1  'x, y, z'
loop_
 _atom_site_type_symbol
 _atom_site_label
 _atom_site_symmetry_multiplicity
 _atom_site_fract_x
 _atom_site_fract_y
 _atom_site_fract_z
 _atom_site_occupancy
  Nb  Nb0  1  0.791760  0.958240  0.375000  1
  Nb  Nb1  1  0.708240  0.041760  0.875000  1
  Nb  Nb2  1  0.208240  0.458240  0.125000  1
  Nb  Nb3  1  0.291760  0.541760  0.625000  1
  Nb  Nb4  1  0.958240  0.375000  0.791760  1
  Nb  Nb5  1  0.041760  0.875000  0.708240  1
  Nb  Nb6  1  0.458240  0.125000  0.208240  1
  Nb  Nb7  1  0.541760  0.625000  0.291760  1
  Nb  Nb8  1  0.375000  0.791760  0.958240  1
  Nb  Nb9  1  0.875000  0.708240  0.041760  1
  Nb  Nb10  1  0.125000  0.208240  0.458240  1
  Nb  Nb11  1  0.625000  0.291760  0.541760  1
  Zn  Zn12  1  0.178389  0.821611  0.321611  1
  Zn  Zn13  1  0.321611  0.178389  0.821611  1
  Zn  Zn14  1  0.821611  0.321611  0.178389  1
  Zn  Zn15  1  0.678389  0.678389  0.678389  1
  Zn  Zn16  1  0.571611  0.428389  0.928389  1
  Zn  Zn17  1  0.428389  0.928389  0.571611  1
  Zn  Zn18  1  0.928389  0.571611  0.428389  1
  Zn  Zn19  1  0.071611  0.071611  0.071611  1
  N  N20  1  0.875000  0.125000  0.625000  1
  N  N21  1  0.625000  0.875000  0.125000  1
  N  N22  1  0.125000  0.625000  0.875000  1
  N  N23  1  0.375000  0.375000  0.375000  1
