# generated using pymatgen
data_Nd6Er(TmPb2)3
_symmetry_space_group_name_H-M   'P 1'
_cell_length_a   6.73215400
_cell_length_b   9.23655585
_cell_length_c   9.23713100
_cell_angle_alpha   119.99931151
_cell_angle_beta   89.99931841
_cell_angle_gamma   90.00116606
_symmetry_Int_Tables_number   1
_chemical_formula_structural   Nd6Er(TmPb2)3
_chemical_formula_sum   'Nd6 Er1 Tm3 Pb6'
_cell_volume   497.43329413
_cell_formula_units_Z   1
loop_
 _symmetry_equiv_pos_site_id
 _symmetry_equiv_pos_as_xyz
  1  'x, y, z'
loop_
 _atom_site_type_symbol
 _atom_site_label
 _atom_site_symmetry_multiplicity
 _atom_site_fract_x
 _atom_site_fract_y
 _atom_site_fract_z
 _atom_site_occupancy
  Nd  Nd0  1  0.750031  0.240126  0.000035  1
  Nd  Nd1  1  0.750027  0.759825  0.759829  1
  Nd  Nd2  1  0.750027  0.999940  0.240145  1
  Nd  Nd3  1  0.249973  0.759907  0.000032  1
  Nd  Nd4  1  0.249966  0.240208  0.240145  1
  Nd  Nd5  1  0.249968  0.000000  0.759831  1
  Er  Er6  1  0.499986  0.333338  0.666670  1
  Tm  Tm7  1  0.500001  0.666635  0.333301  1
  Tm  Tm8  1  0.999997  0.666663  0.333298  1
  Tm  Tm9  1  0.000000  0.333366  0.666701  1
  Pb  Pb10  1  0.750076  0.601730  0.000103  1
  Pb  Pb11  1  0.750080  0.398337  0.398224  1
  Pb  Pb12  1  0.750082  0.999919  0.601682  1
  Pb  Pb13  1  0.249925  0.398371  0.000100  1
  Pb  Pb14  1  0.249935  0.601757  0.601683  1
  Pb  Pb15  1  0.249932  0.999880  0.398221  1
