# generated using pymatgen
data_HoEr7Ga3Co
_symmetry_space_group_name_H-M   'P 1'
_cell_length_a   9.94194200
_cell_length_b   9.94194308
_cell_length_c   6.85604400
_cell_angle_alpha   90.00000000
_cell_angle_beta   90.00000000
_cell_angle_gamma   120.00000307
_symmetry_Int_Tables_number   1
_chemical_formula_structural   HoEr7Ga3Co
_chemical_formula_sum   'Ho2 Er14 Ga6 Co2'
_cell_volume   586.87648932
_cell_formula_units_Z   2
loop_
 _symmetry_equiv_pos_site_id
 _symmetry_equiv_pos_as_xyz
  1  'x, y, z'
loop_
 _atom_site_type_symbol
 _atom_site_label
 _atom_site_symmetry_multiplicity
 _atom_site_fract_x
 _atom_site_fract_y
 _atom_site_fract_z
 _atom_site_occupancy
  Ho  Ho0  1  0.000000  0.000000  0.270027  1
  Ho  Ho1  1  0.000000  0.000000  0.770027  1
  Er  Er2  1  0.173194  0.826806  0.991530  1
  Er  Er3  1  0.826806  0.173194  0.491530  1
  Er  Er4  1  0.173194  0.346387  0.991530  1
  Er  Er5  1  0.653613  0.826806  0.991530  1
  Er  Er6  1  0.346387  0.173194  0.491530  1
  Er  Er7  1  0.826806  0.653613  0.491530  1
  Er  Er8  1  0.333333  0.666667  0.672057  1
  Er  Er9  1  0.666667  0.333333  0.172057  1
  Er  Er10  1  0.464267  0.535733  0.292837  1
  Er  Er11  1  0.535733  0.464267  0.792837  1
  Er  Er12  1  0.464267  0.928535  0.292837  1
  Er  Er13  1  0.071465  0.535733  0.292837  1
  Er  Er14  1  0.928535  0.464267  0.792837  1
  Er  Er15  1  0.535733  0.071465  0.792837  1
  Ga  Ga16  1  0.163577  0.836423  0.539815  1
  Ga  Ga17  1  0.836423  0.163577  0.039815  1
  Ga  Ga18  1  0.163577  0.327154  0.539815  1
  Ga  Ga19  1  0.672846  0.836423  0.539815  1
  Ga  Ga20  1  0.327154  0.163577  0.039815  1
  Ga  Ga21  1  0.836423  0.672846  0.039815  1
  Co  Co22  1  0.333333  0.666667  0.058431  1
  Co  Co23  1  0.666667  0.333333  0.558431  1
