# generated using pymatgen
data_Sr4Np3ScO12
_symmetry_space_group_name_H-M   'P 1'
_cell_length_a   6.06434367
_cell_length_b   5.94047184
_cell_length_c   10.36187925
_cell_angle_alpha   54.88006674
_cell_angle_beta   89.94083305
_cell_angle_gamma   90.07273706
_symmetry_Int_Tables_number   1
_chemical_formula_structural   Sr4Np3ScO12
_chemical_formula_sum   'Sr4 Np3 Sc1 O12'
_cell_volume   305.32929277
_cell_formula_units_Z   1
loop_
 _symmetry_equiv_pos_site_id
 _symmetry_equiv_pos_as_xyz
  1  'x, y, z'
loop_
 _atom_site_type_symbol
 _atom_site_label
 _atom_site_symmetry_multiplicity
 _atom_site_fract_x
 _atom_site_fract_y
 _atom_site_fract_z
 _atom_site_occupancy
  Sr  Sr0  1  0.546562  0.273967  0.737167  1
  Sr  Sr1  1  0.036270  0.756147  0.735978  1
  Sr  Sr2  1  0.453438  0.726033  0.262833  1
  Sr  Sr3  1  0.963730  0.243853  0.264022  1
  Np  Np4  1  0.000000  0.000000  0.000000  1
  Np  Np5  1  0.500000  0.000000  0.500000  1
  Np  Np6  1  0.500000  0.500000  0.000000  1
  Sc  Sc7  1  0.000000  0.500000  0.500000  1
  O  O8  1  0.801659  0.352625  0.945793  1
  O  O9  1  0.284899  0.669952  0.542508  1
  O  O10  1  0.198341  0.647375  0.054207  1
  O  O11  1  0.715101  0.330048  0.457492  1
  O  O12  1  0.303531  0.257735  0.947149  1
  O  O13  1  0.788650  0.740702  0.544251  1
  O  O14  1  0.696469  0.742265  0.052851  1
  O  O15  1  0.211350  0.259298  0.455749  1
  O  O16  1  0.466929  0.842832  0.752776  1
  O  O17  1  0.969924  0.164653  0.749403  1
  O  O18  1  0.533071  0.157168  0.247224  1
  O  O19  1  0.030076  0.835347  0.250597  1
