# generated using pymatgen
data_Lu2Pa3Sn3C
_symmetry_space_group_name_H-M   'P 1'
_cell_length_a   8.95839600
_cell_length_b   8.95839592
_cell_length_c   6.23759300
_cell_angle_alpha   90.00000000
_cell_angle_beta   90.00000000
_cell_angle_gamma   119.99999290
_symmetry_Int_Tables_number   1
_chemical_formula_structural   Lu2Pa3Sn3C
_chemical_formula_sum   'Lu4 Pa6 Sn6 C2'
_cell_volume   433.51906891
_cell_formula_units_Z   2
loop_
 _symmetry_equiv_pos_site_id
 _symmetry_equiv_pos_as_xyz
  1  'x, y, z'
loop_
 _atom_site_type_symbol
 _atom_site_label
 _atom_site_symmetry_multiplicity
 _atom_site_fract_x
 _atom_site_fract_y
 _atom_site_fract_z
 _atom_site_occupancy
  Lu  Lu0  1  0.666667  0.333333  0.500000  1
  Lu  Lu1  1  0.333333  0.666667  0.500000  1
  Lu  Lu2  1  0.333333  0.666667  0.000000  1
  Lu  Lu3  1  0.666667  0.333333  0.000000  1
  Pa  Pa4  1  0.783252  0.783252  0.250000  1
  Pa  Pa5  1  0.216748  0.000000  0.250000  1
  Pa  Pa6  1  0.000000  0.216748  0.250000  1
  Pa  Pa7  1  0.216748  0.216748  0.750000  1
  Pa  Pa8  1  0.783252  0.000000  0.750000  1
  Pa  Pa9  1  0.000000  0.783252  0.750000  1
  Sn  Sn10  1  0.407815  0.407815  0.250000  1
  Sn  Sn11  1  0.592185  0.000000  0.250000  1
  Sn  Sn12  1  0.000000  0.592185  0.250000  1
  Sn  Sn13  1  0.592185  0.592185  0.750000  1
  Sn  Sn14  1  0.407815  0.000000  0.750000  1
  Sn  Sn15  1  0.000000  0.407815  0.750000  1
  C  C16  1  0.000000  0.000000  0.500000  1
  C  C17  1  0.000000  0.000000  0.000000  1
