# generated using pymatgen
data_H6SF4
_symmetry_space_group_name_H-M   'P 1'
_cell_length_a   4.24171602
_cell_length_b   4.01673860
_cell_length_c   9.97833227
_cell_angle_alpha   74.05316017
_cell_angle_beta   102.54340852
_cell_angle_gamma   101.74625040
_symmetry_Int_Tables_number   1
_chemical_formula_structural   H6SF4
_chemical_formula_sum   'H6 S1 F4'
_cell_volume   157.67852505
_cell_formula_units_Z   1
loop_
 _symmetry_equiv_pos_site_id
 _symmetry_equiv_pos_as_xyz
  1  'x, y, z'
loop_
 _atom_site_type_symbol
 _atom_site_label
 _atom_site_symmetry_multiplicity
 _atom_site_fract_x
 _atom_site_fract_y
 _atom_site_fract_z
 _atom_site_occupancy
  H  H0  1  0.814345  0.456915  0.226883  1
  H  H1  1  0.394000  0.092523  0.776412  1
  H  H2  1  0.916803  0.505903  0.440151  1
  H  H3  1  0.990532  0.754718  0.909712  1
  H  H4  1  0.419684  0.816646  0.030273  1
  H  H5  1  0.654349  0.416704  0.601619  1
  S  S6  1  0.214837  0.028897  0.937386  1
  F  F7  1  0.693853  0.467471  0.130436  1
  F  F8  1  0.490788  0.105458  0.689028  1
  F  F9  1  0.011559  0.436456  0.371630  1
  F  F10  1  0.786902  0.611969  0.543590  1
