# generated using pymatgen
data_Tb3Hf(Co4P3)2
_symmetry_space_group_name_H-M   'P 1'
_cell_length_a   3.72058900
_cell_length_b   10.68953600
_cell_length_c   12.40494000
_cell_angle_alpha   90.00000000
_cell_angle_beta   90.00000000
_cell_angle_gamma   90.00000000
_symmetry_Int_Tables_number   1
_chemical_formula_structural   Tb3Hf(Co4P3)2
_chemical_formula_sum   'Tb6 Hf2 Co16 P12'
_cell_volume   493.36145927
_cell_formula_units_Z   2
loop_
 _symmetry_equiv_pos_site_id
 _symmetry_equiv_pos_as_xyz
  1  'x, y, z'
loop_
 _atom_site_type_symbol
 _atom_site_label
 _atom_site_symmetry_multiplicity
 _atom_site_fract_x
 _atom_site_fract_y
 _atom_site_fract_z
 _atom_site_occupancy
  Tb  Tb0  1  0.000000  0.500000  0.527312  1
  Tb  Tb1  1  0.500000  0.000000  0.472688  1
  Tb  Tb2  1  0.500000  0.821383  0.204820  1
  Tb  Tb3  1  0.500000  0.178617  0.204820  1
  Tb  Tb4  1  0.000000  0.678617  0.795180  1
  Tb  Tb5  1  0.000000  0.321383  0.795180  1
  Hf  Hf6  1  0.500000  0.500000  0.155813  1
  Hf  Hf7  1  0.000000  0.000000  0.844187  1
  Co  Co8  1  0.500000  0.500000  0.702396  1
  Co  Co9  1  0.000000  0.000000  0.297604  1
  Co  Co10  1  0.000000  0.500000  0.985951  1
  Co  Co11  1  0.500000  0.000000  0.014049  1
  Co  Co12  1  0.500000  0.332224  0.993044  1
  Co  Co13  1  0.500000  0.667776  0.993044  1
  Co  Co14  1  0.000000  0.167776  0.006956  1
  Co  Co15  1  0.000000  0.832224  0.006956  1
  Co  Co16  1  0.500000  0.295316  0.432624  1
  Co  Co17  1  0.500000  0.704684  0.432624  1
  Co  Co18  1  0.000000  0.204684  0.567376  1
  Co  Co19  1  0.000000  0.795316  0.567376  1
  Co  Co20  1  0.500000  0.878134  0.703935  1
  Co  Co21  1  0.500000  0.121866  0.703935  1
  Co  Co22  1  0.000000  0.621866  0.296065  1
  Co  Co23  1  0.000000  0.378134  0.296065  1
  P  P24  1  0.500000  0.500000  0.882902  1
  P  P25  1  0.000000  0.000000  0.117098  1
  P  P26  1  0.500000  0.500000  0.359792  1
  P  P27  1  0.000000  0.000000  0.640208  1
  P  P28  1  0.500000  0.309592  0.615250  1
  P  P29  1  0.500000  0.690408  0.615250  1
  P  P30  1  0.000000  0.190408  0.384750  1
  P  P31  1  0.000000  0.809592  0.384750  1
  P  P32  1  0.500000  0.838892  0.894114  1
  P  P33  1  0.500000  0.161108  0.894114  1
  P  P34  1  0.000000  0.661108  0.105886  1
  P  P35  1  0.000000  0.338892  0.105886  1
