# generated using pymatgen
data_Nb4V4NiAs2P
_symmetry_space_group_name_H-M   'P 1'
_cell_length_a   3.43577700
_cell_length_b   6.56996230
_cell_length_c   7.90557145
_cell_angle_alpha   89.81501006
_cell_angle_beta   90.00000000
_cell_angle_gamma   90.00000000
_symmetry_Int_Tables_number   1
_chemical_formula_structural   Nb4V4NiAs2P
_chemical_formula_sum   'Nb4 V4 Ni1 As2 P1'
_cell_volume   178.45094413
_cell_formula_units_Z   1
loop_
 _symmetry_equiv_pos_site_id
 _symmetry_equiv_pos_as_xyz
  1  'x, y, z'
loop_
 _atom_site_type_symbol
 _atom_site_label
 _atom_site_symmetry_multiplicity
 _atom_site_fract_x
 _atom_site_fract_y
 _atom_site_fract_z
 _atom_site_occupancy
  Nb  Nb0  1  0.250000  0.027342  0.832020  1
  Nb  Nb1  1  0.250000  0.557907  0.670464  1
  Nb  Nb2  1  0.750000  0.951965  0.163389  1
  Nb  Nb3  1  0.750000  0.458956  0.337353  1
  V  V4  1  0.250000  0.127647  0.441201  1
  V  V5  1  0.250000  0.638130  0.057060  1
  V  V6  1  0.750000  0.862657  0.559795  1
  V  V7  1  0.750000  0.375596  0.938775  1
  Ni  Ni8  1  0.250000  0.754388  0.360275  1
  As  As9  1  0.250000  0.257974  0.139001  1
  As  As10  1  0.750000  0.246040  0.639022  1
  P  P11  1  0.750000  0.741398  0.861646  1
