# generated using pymatgen
data_Tl3SeF7
_symmetry_space_group_name_H-M   'P 1'
_cell_length_a   8.34368200
_cell_length_b   8.34368200
_cell_length_c   6.30679600
_cell_angle_alpha   90.00000000
_cell_angle_beta   90.00000000
_cell_angle_gamma   90.00000000
_symmetry_Int_Tables_number   1
_chemical_formula_structural   Tl3SeF7
_chemical_formula_sum   'Tl6 Se2 F14'
_cell_volume   439.06040203
_cell_formula_units_Z   2
loop_
 _symmetry_equiv_pos_site_id
 _symmetry_equiv_pos_as_xyz
  1  'x, y, z'
loop_
 _atom_site_type_symbol
 _atom_site_label
 _atom_site_symmetry_multiplicity
 _atom_site_fract_x
 _atom_site_fract_y
 _atom_site_fract_z
 _atom_site_occupancy
  Tl  Tl0  1  0.000000  0.000000  0.000000  1
  Tl  Tl1  1  0.500000  0.500000  0.000000  1
  Tl  Tl2  1  0.698598  0.198599  0.499999  1
  Tl  Tl3  1  0.198599  0.301401  0.499999  1
  Tl  Tl4  1  0.801402  0.698598  0.499999  1
  Tl  Tl5  1  0.301401  0.801402  0.499999  1
  Se  Se6  1  0.500000  0.000000  0.000000  1
  Se  Se7  1  0.000000  0.500000  0.000000  1
  F  F8  1  0.665943  0.165943  0.000000  1
  F  F9  1  0.165943  0.334056  0.000000  1
  F  F10  1  0.834057  0.665943  0.000000  1
  F  F11  1  0.334056  0.834057  0.000000  1
  F  F12  1  0.384719  0.115281  0.226507  1
  F  F13  1  0.884718  0.384719  0.226507  1
  F  F14  1  0.115281  0.615281  0.226507  1
  F  F15  1  0.615281  0.884718  0.226507  1
  F  F16  1  0.000000  0.000000  0.499999  1
  F  F17  1  0.500000  0.500000  0.499999  1
  F  F18  1  0.384719  0.115281  0.773494  1
  F  F19  1  0.884718  0.384719  0.773494  1
  F  F20  1  0.115281  0.615281  0.773494  1
  F  F21  1  0.615281  0.884718  0.773494  1
