# generated using pymatgen
data_EuAl6Cu7
_symmetry_space_group_name_H-M   'P 1'
_cell_length_a   8.41029197
_cell_length_b   8.41029029
_cell_length_c   8.41029100
_cell_angle_alpha   121.86803755
_cell_angle_beta   118.50446144
_cell_angle_gamma   89.70252593
_symmetry_Int_Tables_number   1
_chemical_formula_structural   EuAl6Cu7
_chemical_formula_sum   'Eu2 Al12 Cu14'
_cell_volume   419.00221735
_cell_formula_units_Z   2
loop_
 _symmetry_equiv_pos_site_id
 _symmetry_equiv_pos_as_xyz
  1  'x, y, z'
loop_
 _atom_site_type_symbol
 _atom_site_label
 _atom_site_symmetry_multiplicity
 _atom_site_fract_x
 _atom_site_fract_y
 _atom_site_fract_z
 _atom_site_occupancy
  Eu  Eu0  1  0.250000  0.750000  0.500000  1
  Eu  Eu1  1  0.750000  0.250000  0.500000  1
  Al  Al2  1  0.555101  0.546256  0.358342  1
  Al  Al3  1  0.444899  0.453744  0.641658  1
  Al  Al4  1  0.187914  0.196759  0.641658  1
  Al  Al5  1  0.312086  0.953744  0.008844  1
  Al  Al6  1  0.812086  0.803241  0.358342  1
  Al  Al7  1  0.687914  0.046256  0.991156  1
  Al  Al8  1  0.944899  0.303241  0.991156  1
  Al  Al9  1  0.055101  0.696759  0.008844  1
  Al  Al10  1  0.052378  0.310706  0.363084  1
  Al  Al11  1  0.947622  0.689294  0.636916  1
  Al  Al12  1  0.552378  0.189294  0.741672  1
  Al  Al13  1  0.447622  0.810706  0.258328  1
  Cu  Cu14  1  0.284441  0.297867  0.231553  1
  Cu  Cu15  1  0.715559  0.702133  0.768447  1
  Cu  Cu16  1  0.066314  0.052888  0.768447  1
  Cu  Cu17  1  0.433686  0.202133  0.986574  1
  Cu  Cu18  1  0.933686  0.947112  0.231553  1
  Cu  Cu19  1  0.566314  0.797867  0.013426  1
  Cu  Cu20  1  0.215559  0.447112  0.013426  1
  Cu  Cu21  1  0.784441  0.552888  0.986574  1
  Cu  Cu22  1  0.000000  0.000000  0.000000  1
  Cu  Cu23  1  0.500000  0.500000  0.000000  1
  Cu  Cu24  1  0.286000  0.066076  0.352078  1
  Cu  Cu25  1  0.714000  0.933924  0.647922  1
  Cu  Cu26  1  0.786000  0.433924  0.219924  1
  Cu  Cu27  1  0.214000  0.566076  0.780076  1
