# generated using pymatgen
data_Y6Zn21Pd2Se
_symmetry_space_group_name_H-M   'P 1'
_cell_length_a   9.03029572
_cell_length_b   8.98733561
_cell_length_c   9.03029700
_cell_angle_alpha   60.15724640
_cell_angle_beta   59.75246780
_cell_angle_gamma   60.15724585
_symmetry_Int_Tables_number   1
_chemical_formula_structural   Y6Zn21Pd2Se
_chemical_formula_sum   'Y6 Zn21 Pd2 Se1'
_cell_volume   518.47193749
_cell_formula_units_Z   1
loop_
 _symmetry_equiv_pos_site_id
 _symmetry_equiv_pos_as_xyz
  1  'x, y, z'
loop_
 _atom_site_type_symbol
 _atom_site_label
 _atom_site_symmetry_multiplicity
 _atom_site_fract_x
 _atom_site_fract_y
 _atom_site_fract_z
 _atom_site_occupancy
  Y  Y0  1  0.717823  0.281731  0.282177  1
  Y  Y1  1  0.716816  0.283184  0.716816  1
  Y  Y2  1  0.717823  0.718269  0.282177  1
  Y  Y3  1  0.282177  0.718269  0.717823  1
  Y  Y4  1  0.283184  0.716816  0.283184  1
  Y  Y5  1  0.282177  0.281731  0.717823  1
  Zn  Zn6  1  0.629913  0.122165  0.125759  1
  Zn  Zn7  1  0.123387  0.631967  0.123387  1
  Zn  Zn8  1  0.125759  0.122165  0.629913  1
  Zn  Zn9  1  0.123387  0.121259  0.123387  1
  Zn  Zn10  1  0.370087  0.877835  0.874241  1
  Zn  Zn11  1  0.876613  0.368033  0.876613  1
  Zn  Zn12  1  0.874241  0.877835  0.370087  1
  Zn  Zn13  1  0.876613  0.878741  0.876613  1
  Zn  Zn14  1  0.500000  0.000000  0.000000  1
  Zn  Zn15  1  0.500000  0.500000  0.000000  1
  Zn  Zn16  1  0.000000  0.500000  0.500000  1
  Zn  Zn17  1  0.000000  0.500000  0.000000  1
  Zn  Zn18  1  0.000000  0.000000  0.500000  1
  Zn  Zn19  1  0.010266  0.330533  0.328665  1
  Zn  Zn20  1  0.328082  0.014277  0.328082  1
  Zn  Zn21  1  0.328665  0.330533  0.010266  1
  Zn  Zn22  1  0.328082  0.329557  0.328082  1
  Zn  Zn23  1  0.989734  0.669467  0.671335  1
  Zn  Zn24  1  0.671918  0.985723  0.671918  1
  Zn  Zn25  1  0.671335  0.669467  0.989734  1
  Zn  Zn26  1  0.671918  0.670443  0.671918  1
  Pd  Pd27  1  0.500000  0.000000  0.500000  1
  Pd  Pd28  1  0.000000  0.000000  0.000000  1
  Se  Se29  1  0.500000  0.500000  0.500000  1
