# generated using pymatgen
data_Tb3Ho3Tm2(CdPt)2
_symmetry_space_group_name_H-M   'P 1'
_cell_length_a   9.64044415
_cell_length_b   9.63452760
_cell_length_c   9.63452782
_cell_angle_alpha   60.04063431
_cell_angle_beta   59.97967717
_cell_angle_gamma   59.97967752
_symmetry_Int_Tables_number   1
_chemical_formula_structural   Tb3Ho3Tm2(CdPt)2
_chemical_formula_sum   'Tb6 Ho6 Tm4 Cd4 Pt4'
_cell_volume   632.76513435
_cell_formula_units_Z   2
loop_
 _symmetry_equiv_pos_site_id
 _symmetry_equiv_pos_as_xyz
  1  'x, y, z'
loop_
 _atom_site_type_symbol
 _atom_site_label
 _atom_site_symmetry_multiplicity
 _atom_site_fract_x
 _atom_site_fract_y
 _atom_site_fract_z
 _atom_site_occupancy
  Tb  Tb0  1  0.936146  0.563854  0.563854  1
  Tb  Tb1  1  0.563854  0.936146  0.936146  1
  Tb  Tb2  1  0.563921  0.936079  0.563921  1
  Tb  Tb3  1  0.936079  0.563921  0.936079  1
  Tb  Tb4  1  0.563921  0.563921  0.936079  1
  Tb  Tb5  1  0.936079  0.936079  0.563921  1
  Ho  Ho6  1  0.351526  0.352060  0.352060  1
  Ho  Ho7  1  0.352060  0.351526  0.944355  1
  Ho  Ho8  1  0.352060  0.944355  0.351526  1
  Ho  Ho9  1  0.944355  0.352060  0.352060  1
  Ho  Ho10  1  0.811270  0.188730  0.188730  1
  Ho  Ho11  1  0.188730  0.811270  0.811270  1
  Tm  Tm12  1  0.189041  0.810959  0.189041  1
  Tm  Tm13  1  0.810959  0.189041  0.810959  1
  Tm  Tm14  1  0.189041  0.189041  0.810959  1
  Tm  Tm15  1  0.810959  0.810959  0.189041  1
  Cd  Cd16  1  0.581486  0.581289  0.581289  1
  Cd  Cd17  1  0.581289  0.581486  0.255936  1
  Cd  Cd18  1  0.581289  0.255936  0.581486  1
  Cd  Cd19  1  0.255936  0.581289  0.581289  1
  Pt  Pt20  1  0.143379  0.142385  0.142385  1
  Pt  Pt21  1  0.142385  0.143379  0.571853  1
  Pt  Pt22  1  0.142385  0.571853  0.143379  1
  Pt  Pt23  1  0.571853  0.142385  0.142385  1
