# generated using pymatgen
data_HoH7Ru
_symmetry_space_group_name_H-M   'P 1'
_cell_length_a   4.62690023
_cell_length_b   4.59291998
_cell_length_c   7.61835600
_cell_angle_alpha   90.00000000
_cell_angle_beta   90.00000000
_cell_angle_gamma   63.75071209
_symmetry_Int_Tables_number   1
_chemical_formula_structural   HoH7Ru
_chemical_formula_sum   'Ho2 H14 Ru2'
_cell_volume   145.20238940
_cell_formula_units_Z   2
loop_
 _symmetry_equiv_pos_site_id
 _symmetry_equiv_pos_as_xyz
  1  'x, y, z'
loop_
 _atom_site_type_symbol
 _atom_site_label
 _atom_site_symmetry_multiplicity
 _atom_site_fract_x
 _atom_site_fract_y
 _atom_site_fract_z
 _atom_site_occupancy
  Ho  Ho0  1  0.000000  0.000000  0.000000  1
  Ho  Ho1  1  0.000000  0.000000  0.500000  1
  H  H2  1  0.840823  0.887453  0.250000  1
  H  H3  1  0.159177  0.112547  0.750000  1
  H  H4  1  0.697532  0.692655  0.464958  1
  H  H5  1  0.302468  0.307345  0.964958  1
  H  H6  1  0.302468  0.307345  0.535042  1
  H  H7  1  0.697532  0.692655  0.035042  1
  H  H8  1  0.491663  0.446938  0.351767  1
  H  H9  1  0.508337  0.553062  0.851767  1
  H  H10  1  0.508337  0.553062  0.648233  1
  H  H11  1  0.491663  0.446938  0.148233  1
  H  H12  1  0.302273  0.975724  0.250000  1
  H  H13  1  0.697727  0.024276  0.750000  1
  H  H14  1  0.019522  0.322809  0.250000  1
  H  H15  1  0.980478  0.677191  0.750000  1
  Ru  Ru16  1  0.657527  0.642147  0.250000  1
  Ru  Ru17  1  0.342473  0.357853  0.750000  1
