# generated using pymatgen
data_Hf18BeCr2Re6S
_symmetry_space_group_name_H-M   'P 1'
_cell_length_a   8.54945000
_cell_length_b   8.54945010
_cell_length_c   8.43568600
_cell_angle_alpha   90.00000000
_cell_angle_beta   90.00000000
_cell_angle_gamma   119.99999963
_symmetry_Int_Tables_number   1
_chemical_formula_structural   Hf18BeCr2Re6S
_chemical_formula_sum   'Hf18 Be1 Cr2 Re6 S1'
_cell_volume   533.98295882
_cell_formula_units_Z   1
loop_
 _symmetry_equiv_pos_site_id
 _symmetry_equiv_pos_as_xyz
  1  'x, y, z'
loop_
 _atom_site_type_symbol
 _atom_site_label
 _atom_site_symmetry_multiplicity
 _atom_site_fract_x
 _atom_site_fract_y
 _atom_site_fract_z
 _atom_site_occupancy
  Hf  Hf0  1  0.196178  0.803822  0.445082  1
  Hf  Hf1  1  0.196178  0.392358  0.445082  1
  Hf  Hf2  1  0.607642  0.803822  0.445082  1
  Hf  Hf3  1  0.806209  0.193791  0.551264  1
  Hf  Hf4  1  0.806209  0.612420  0.551264  1
  Hf  Hf5  1  0.387580  0.193791  0.551264  1
  Hf  Hf6  1  0.806209  0.193791  0.948736  1
  Hf  Hf7  1  0.806209  0.612420  0.948736  1
  Hf  Hf8  1  0.387580  0.193791  0.948736  1
  Hf  Hf9  1  0.196178  0.803822  0.054918  1
  Hf  Hf10  1  0.196178  0.392358  0.054918  1
  Hf  Hf11  1  0.607642  0.803822  0.054918  1
  Hf  Hf12  1  0.540308  0.459692  0.250000  1
  Hf  Hf13  1  0.540308  0.080616  0.250000  1
  Hf  Hf14  1  0.919384  0.459692  0.250000  1
  Hf  Hf15  1  0.455401  0.544599  0.750000  1
  Hf  Hf16  1  0.455401  0.910802  0.750000  1
  Hf  Hf17  1  0.089198  0.544599  0.750000  1
  Be  Be18  1  0.333333  0.666667  0.250000  1
  Cr  Cr19  1  0.000000  0.000000  0.499748  1
  Cr  Cr20  1  0.000000  0.000000  0.000252  1
  Re  Re21  1  0.891859  0.108141  0.250000  1
  Re  Re22  1  0.891859  0.783717  0.250000  1
  Re  Re23  1  0.216283  0.108141  0.250000  1
  Re  Re24  1  0.108471  0.891529  0.750000  1
  Re  Re25  1  0.108471  0.216942  0.750000  1
  Re  Re26  1  0.783058  0.891529  0.750000  1
  S  S27  1  0.666667  0.333333  0.750000  1
