# generated using pymatgen
data_CdNi21SnB6
_symmetry_space_group_name_H-M   'P 1'
_cell_length_a   7.47680246
_cell_length_b   7.47680265
_cell_length_c   7.47680300
_cell_angle_alpha   60.00000286
_cell_angle_beta   60.00000203
_cell_angle_gamma   60.00000219
_symmetry_Int_Tables_number   1
_chemical_formula_structural   CdNi21SnB6
_chemical_formula_sum   'Cd1 Ni21 Sn1 B6'
_cell_volume   295.55124100
_cell_formula_units_Z   1
loop_
 _symmetry_equiv_pos_site_id
 _symmetry_equiv_pos_as_xyz
  1  'x, y, z'
loop_
 _atom_site_type_symbol
 _atom_site_label
 _atom_site_symmetry_multiplicity
 _atom_site_fract_x
 _atom_site_fract_y
 _atom_site_fract_z
 _atom_site_occupancy
  Cd  Cd0  1  0.750000  0.750000  0.750000  1
  Ni  Ni1  1  0.664174  0.999879  0.999879  1
  Ni  Ni2  1  0.162774  0.612409  0.612409  1
  Ni  Ni3  1  0.612409  0.612409  0.612409  1
  Ni  Ni4  1  0.612409  0.612409  0.162774  1
  Ni  Ni5  1  0.384563  0.846311  0.384563  1
  Ni  Ni6  1  0.664174  0.336068  0.999879  1
  Ni  Ni7  1  0.999879  0.336068  0.664174  1
  Ni  Ni8  1  0.999879  0.999879  0.336068  1
  Ni  Ni9  1  0.336068  0.999879  0.999879  1
  Ni  Ni10  1  0.999879  0.999879  0.664174  1
  Ni  Ni11  1  0.999879  0.336068  0.999879  1
  Ni  Ni12  1  0.664174  0.999879  0.336068  1
  Ni  Ni13  1  0.000000  0.000000  0.000000  1
  Ni  Ni14  1  0.999879  0.664174  0.999879  1
  Ni  Ni15  1  0.336068  0.999879  0.664174  1
  Ni  Ni16  1  0.999879  0.664174  0.336068  1
  Ni  Ni17  1  0.336068  0.664174  0.999879  1
  Ni  Ni18  1  0.846311  0.384563  0.384563  1
  Ni  Ni19  1  0.384563  0.384563  0.846311  1
  Ni  Ni20  1  0.612409  0.162774  0.612409  1
  Ni  Ni21  1  0.384563  0.384563  0.384563  1
  Sn  Sn22  1  0.250000  0.250000  0.250000  1
  B  B23  1  0.727538  0.727538  0.272462  1
  B  B24  1  0.727538  0.272462  0.727538  1
  B  B25  1  0.272462  0.727538  0.272462  1
  B  B26  1  0.727538  0.272462  0.272462  1
  B  B27  1  0.272462  0.727538  0.727538  1
  B  B28  1  0.272462  0.272462  0.727538  1
