# generated using pymatgen
data_K4OsO4
_symmetry_space_group_name_H-M   'P 1'
_cell_length_a   7.94051068
_cell_length_b   7.97456864
_cell_length_c   5.47119500
_cell_angle_alpha   90.00000000
_cell_angle_beta   90.00000000
_cell_angle_gamma   90.16906134
_symmetry_Int_Tables_number   1
_chemical_formula_structural   K4OsO4
_chemical_formula_sum   'K8 Os2 O8'
_cell_volume   346.44630839
_cell_formula_units_Z   2
loop_
 _symmetry_equiv_pos_site_id
 _symmetry_equiv_pos_as_xyz
  1  'x, y, z'
loop_
 _atom_site_type_symbol
 _atom_site_label
 _atom_site_symmetry_multiplicity
 _atom_site_fract_x
 _atom_site_fract_y
 _atom_site_fract_z
 _atom_site_occupancy
  K  K0  1  0.292065  0.096449  0.000170  1
  K  K1  1  0.096134  0.707680  0.999750  1
  K  K2  1  0.903866  0.292320  0.999750  1
  K  K3  1  0.792065  0.596449  0.499830  1
  K  K4  1  0.207935  0.403551  0.499830  1
  K  K5  1  0.403866  0.792320  0.500250  1
  K  K6  1  0.596134  0.207680  0.500250  1
  K  K7  1  0.707935  0.903551  0.000170  1
  Os  Os8  1  0.000000  0.000000  0.500251  1
  Os  Os9  1  0.500000  0.500000  0.999749  1
  O  O10  1  0.768801  0.928795  0.500544  1
  O  O11  1  0.268801  0.428795  0.999456  1
  O  O12  1  0.428948  0.730183  0.000647  1
  O  O13  1  0.071052  0.769817  0.499353  1
  O  O14  1  0.231199  0.071205  0.500544  1
  O  O15  1  0.928948  0.230183  0.499353  1
  O  O16  1  0.731199  0.571205  0.999456  1
  O  O17  1  0.571052  0.269817  0.000647  1
