# generated using pymatgen
data_YSc2Ni9
_symmetry_space_group_name_H-M   'P 1'
_cell_length_a   8.48023924
_cell_length_b   8.48023918
_cell_length_c   8.48024011
_cell_angle_alpha   33.52639312
_cell_angle_beta   33.52639229
_cell_angle_gamma   33.52639413
_symmetry_Int_Tables_number   1
_chemical_formula_structural   YSc2Ni9
_chemical_formula_sum   'Y1 Sc2 Ni9'
_cell_volume   165.70225281
_cell_formula_units_Z   1
loop_
 _symmetry_equiv_pos_site_id
 _symmetry_equiv_pos_as_xyz
  1  'x, y, z'
loop_
 _atom_site_type_symbol
 _atom_site_label
 _atom_site_symmetry_multiplicity
 _atom_site_fract_x
 _atom_site_fract_y
 _atom_site_fract_z
 _atom_site_occupancy
  Y  Y0  1  0.000000  0.000000  0.000000  1
  Sc  Sc1  1  0.859225  0.859225  0.859225  1
  Sc  Sc2  1  0.140775  0.140775  0.140775  1
  Ni  Ni3  1  0.414040  0.414040  0.917870  1
  Ni  Ni4  1  0.917870  0.414040  0.414040  1
  Ni  Ni5  1  0.500000  0.500000  0.500000  1
  Ni  Ni6  1  0.585960  0.082130  0.585960  1
  Ni  Ni7  1  0.585960  0.585960  0.082130  1
  Ni  Ni8  1  0.333319  0.333319  0.333319  1
  Ni  Ni9  1  0.414040  0.917870  0.414040  1
  Ni  Ni10  1  0.666681  0.666681  0.666681  1
  Ni  Ni11  1  0.082130  0.585960  0.585960  1
