# generated using pymatgen
data_Ti13Al9RuRh7
_symmetry_space_group_name_H-M   'P 1'
_cell_length_a   8.74182292
_cell_length_b   8.74182336
_cell_length_c   8.74182427
_cell_angle_alpha   59.68077467
_cell_angle_beta   59.68077367
_cell_angle_gamma   59.68078317
_symmetry_Int_Tables_number   1
_chemical_formula_structural   Ti13Al9RuRh7
_chemical_formula_sum   'Ti13 Al9 Ru1 Rh7'
_cell_volume   468.95388675
_cell_formula_units_Z   1
loop_
 _symmetry_equiv_pos_site_id
 _symmetry_equiv_pos_as_xyz
  1  'x, y, z'
loop_
 _atom_site_type_symbol
 _atom_site_label
 _atom_site_symmetry_multiplicity
 _atom_site_fract_x
 _atom_site_fract_y
 _atom_site_fract_z
 _atom_site_occupancy
  Ti  Ti0  1  0.210813  0.210813  0.789422  1
  Ti  Ti1  1  0.789422  0.210813  0.210813  1
  Ti  Ti2  1  0.210813  0.789422  0.210813  1
  Ti  Ti3  1  0.798873  0.798873  0.187230  1
  Ti  Ti4  1  0.187230  0.798873  0.798873  1
  Ti  Ti5  1  0.798873  0.187230  0.798873  1
  Ti  Ti6  1  0.378305  0.378305  0.378305  1
  Ti  Ti7  1  0.379113  0.866363  0.379113  1
  Ti  Ti8  1  0.866363  0.379113  0.379113  1
  Ti  Ti9  1  0.379113  0.379113  0.866363  1
  Ti  Ti10  1  0.844840  0.469013  0.844840  1
  Ti  Ti11  1  0.469013  0.844840  0.844840  1
  Ti  Ti12  1  0.844840  0.844840  0.469013  1
  Al  Al13  1  0.154016  0.154016  0.154016  1
  Al  Al14  1  0.158153  0.529768  0.158153  1
  Al  Al15  1  0.529768  0.158153  0.158153  1
  Al  Al16  1  0.158153  0.158153  0.529768  1
  Al  Al17  1  0.619668  0.619668  0.619668  1
  Al  Al18  1  0.619948  0.142729  0.619948  1
  Al  Al19  1  0.142729  0.619948  0.619948  1
  Al  Al20  1  0.619948  0.619948  0.142729  1
  Al  Al21  1  0.829419  0.829419  0.829419  1
  Ru  Ru22  1  0.003840  0.003840  0.003840  1
  Rh  Rh23  1  0.003734  0.003734  0.497740  1
  Rh  Rh24  1  0.497740  0.003734  0.003734  1
  Rh  Rh25  1  0.003734  0.497740  0.003734  1
  Rh  Rh26  1  0.499582  0.499582  0.001597  1
  Rh  Rh27  1  0.001597  0.499582  0.499582  1
  Rh  Rh28  1  0.499582  0.001597  0.499582  1
  Rh  Rh29  1  0.500776  0.500776  0.500776  1
