# generated using pymatgen
data_K8Ac3GdI20
_symmetry_space_group_name_H-M   'P 1'
_cell_length_a   9.40358556
_cell_length_b   10.08684500
_cell_length_c   14.70035705
_cell_angle_alpha   90.00000000
_cell_angle_beta   89.28125332
_cell_angle_gamma   90.00000000
_symmetry_Int_Tables_number   1
_chemical_formula_structural   K8Ac3GdI20
_chemical_formula_sum   'K8 Ac3 Gd1 I20'
_cell_volume   1394.25605380
_cell_formula_units_Z   1
loop_
 _symmetry_equiv_pos_site_id
 _symmetry_equiv_pos_as_xyz
  1  'x, y, z'
loop_
 _atom_site_type_symbol
 _atom_site_label
 _atom_site_symmetry_multiplicity
 _atom_site_fract_x
 _atom_site_fract_y
 _atom_site_fract_z
 _atom_site_occupancy
  K  K0  1  0.942542  0.001322  0.828634  1
  K  K1  1  0.054822  0.996680  0.171675  1
  K  K2  1  0.444910  0.997313  0.675469  1
  K  K3  1  0.054822  0.503320  0.171675  1
  K  K4  1  0.555789  0.001417  0.324673  1
  K  K5  1  0.942542  0.498678  0.828634  1
  K  K6  1  0.555789  0.498583  0.324673  1
  K  K7  1  0.444910  0.502687  0.675469  1
  Ac  Ac8  1  0.920069  0.750000  0.507048  1
  Ac  Ac9  1  0.081510  0.250000  0.492486  1
  Ac  Ac10  1  0.421942  0.250000  0.993153  1
  Gd  Gd11  1  0.578398  0.750000  0.004237  1
  I  I12  1  0.131817  0.750000  0.686540  1
  I  I13  1  0.867232  0.250000  0.313387  1
  I  I14  1  0.634514  0.250000  0.812124  1
  I  I15  1  0.379780  0.750000  0.176672  1
  I  I16  1  0.827357  0.047776  0.582085  1
  I  I17  1  0.174277  0.951779  0.417116  1
  I  I18  1  0.334419  0.945981  0.924370  1
  I  I19  1  0.174277  0.548221  0.417116  1
  I  I20  1  0.666947  0.035989  0.076290  1
  I  I21  1  0.827357  0.452224  0.582085  1
  I  I22  1  0.666947  0.464011  0.076290  1
  I  I23  1  0.334419  0.554019  0.924370  1
  I  I24  1  0.561870  0.750000  0.508433  1
  I  I25  1  0.438831  0.250000  0.493825  1
  I  I26  1  0.064812  0.250000  0.992756  1
  I  I27  1  0.921089  0.750000  0.007453  1
  I  I28  1  0.661093  0.750000  0.797400  1
  I  I29  1  0.334005  0.250000  0.212512  1
  I  I30  1  0.165562  0.250000  0.711921  1
  I  I31  1  0.835348  0.750000  0.289430  1
