# generated using pymatgen
data_Rb4Ti2Cl10F
_symmetry_space_group_name_H-M   'P 1'
_cell_length_a   7.55234935
_cell_length_b   7.55234959
_cell_length_c   10.36216600
_cell_angle_alpha   111.37186651
_cell_angle_beta   111.37186722
_cell_angle_gamma   89.99999169
_symmetry_Int_Tables_number   1
_chemical_formula_structural   Rb4Ti2Cl10F
_chemical_formula_sum   'Rb4 Ti2 Cl10 F1'
_cell_volume   506.50073911
_cell_formula_units_Z   1
loop_
 _symmetry_equiv_pos_site_id
 _symmetry_equiv_pos_as_xyz
  1  'x, y, z'
loop_
 _atom_site_type_symbol
 _atom_site_label
 _atom_site_symmetry_multiplicity
 _atom_site_fract_x
 _atom_site_fract_y
 _atom_site_fract_z
 _atom_site_occupancy
  Rb  Rb0  1  0.500000  0.000000  0.000000  1
  Rb  Rb1  1  0.000000  0.500000  0.000000  1
  Rb  Rb2  1  0.750000  0.250000  0.500000  1
  Rb  Rb3  1  0.250000  0.750000  0.500000  1
  Ti  Ti4  1  0.114979  0.114979  0.229959  1
  Ti  Ti5  1  0.885021  0.885021  0.770042  1
  Cl  Cl6  1  0.335936  0.335936  0.222369  1
  Cl  Cl7  1  0.886433  0.335936  0.222369  1
  Cl  Cl8  1  0.335936  0.886433  0.222369  1
  Cl  Cl9  1  0.886433  0.886433  0.222369  1
  Cl  Cl10  1  0.245110  0.245110  0.490220  1
  Cl  Cl11  1  0.754891  0.754891  0.509780  1
  Cl  Cl12  1  0.113567  0.113567  0.777631  1
  Cl  Cl13  1  0.664064  0.113567  0.777631  1
  Cl  Cl14  1  0.113567  0.664064  0.777631  1
  Cl  Cl15  1  0.664064  0.664064  0.777631  1
  F  F16  1  0.000000  0.000000  0.000000  1
