# generated using pymatgen
data_Pr2CoSi2Rh3
_symmetry_space_group_name_H-M   'P 1'
_cell_length_a   8.82255957
_cell_length_b   8.82256040
_cell_length_c   4.10022900
_cell_angle_alpha   90.00000000
_cell_angle_beta   90.00000000
_cell_angle_gamma   152.80455729
_symmetry_Int_Tables_number   1
_chemical_formula_structural   Pr2CoSi2Rh3
_chemical_formula_sum   'Pr2 Co1 Si2 Rh3'
_cell_volume   145.86106586
_cell_formula_units_Z   1
loop_
 _symmetry_equiv_pos_site_id
 _symmetry_equiv_pos_as_xyz
  1  'x, y, z'
loop_
 _atom_site_type_symbol
 _atom_site_label
 _atom_site_symmetry_multiplicity
 _atom_site_fract_x
 _atom_site_fract_y
 _atom_site_fract_z
 _atom_site_occupancy
  Pr  Pr0  1  0.098385  0.901615  0.750000  1
  Pr  Pr1  1  0.901156  0.098844  0.250000  1
  Co  Co2  1  0.541705  0.458295  0.250000  1
  Si  Si3  1  0.322400  0.677600  0.750000  1
  Si  Si4  1  0.674790  0.325210  0.250000  1
  Rh  Rh5  1  0.462706  0.537294  0.750000  1
  Rh  Rh6  1  0.248626  0.751374  0.250000  1
  Rh  Rh7  1  0.750233  0.249767  0.750000  1
