# generated using pymatgen
data_Ce3Mg2Pb3C
_symmetry_space_group_name_H-M   'P 1'
_cell_length_a   9.12739800
_cell_length_b   9.12739977
_cell_length_c   6.37858900
_cell_angle_alpha   90.00000000
_cell_angle_beta   90.00000000
_cell_angle_gamma   120.00000085
_symmetry_Int_Tables_number   1
_chemical_formula_structural   Ce3Mg2Pb3C
_chemical_formula_sum   'Ce6 Mg4 Pb6 C2'
_cell_volume   460.20285464
_cell_formula_units_Z   2
loop_
 _symmetry_equiv_pos_site_id
 _symmetry_equiv_pos_as_xyz
  1  'x, y, z'
loop_
 _atom_site_type_symbol
 _atom_site_label
 _atom_site_symmetry_multiplicity
 _atom_site_fract_x
 _atom_site_fract_y
 _atom_site_fract_z
 _atom_site_occupancy
  Ce  Ce0  1  0.219853  0.000000  0.250000  1
  Ce  Ce1  1  0.780147  0.000000  0.750000  1
  Ce  Ce2  1  0.000000  0.219853  0.250000  1
  Ce  Ce3  1  0.000000  0.780147  0.750000  1
  Ce  Ce4  1  0.780147  0.780147  0.250000  1
  Ce  Ce5  1  0.219853  0.219853  0.750000  1
  Mg  Mg6  1  0.333333  0.666667  0.000000  1
  Mg  Mg7  1  0.666667  0.333333  0.000000  1
  Mg  Mg8  1  0.666667  0.333333  0.500000  1
  Mg  Mg9  1  0.333333  0.666667  0.500000  1
  Pb  Pb10  1  0.589789  0.000000  0.250000  1
  Pb  Pb11  1  0.410211  0.000000  0.750000  1
  Pb  Pb12  1  0.000000  0.589789  0.250000  1
  Pb  Pb13  1  0.000000  0.410211  0.750000  1
  Pb  Pb14  1  0.410211  0.410211  0.250000  1
  Pb  Pb15  1  0.589789  0.589789  0.750000  1
  C  C16  1  0.000000  0.000000  0.000000  1
  C  C17  1  0.000000  0.000000  0.500000  1
