# generated using pymatgen
data_Ce4ErTm3(ReB6)4
_symmetry_space_group_name_H-M   'P 1'
_cell_length_a   3.70800500
_cell_length_b   9.16935700
_cell_length_c   11.56150400
_cell_angle_alpha   89.99986684
_cell_angle_beta   90.00000000
_cell_angle_gamma   90.00000000
_symmetry_Int_Tables_number   1
_chemical_formula_structural   Ce4ErTm3(ReB6)4
_chemical_formula_sum   'Ce4 Er1 Tm3 Re4 B24'
_cell_volume   393.09138576
_cell_formula_units_Z   1
loop_
 _symmetry_equiv_pos_site_id
 _symmetry_equiv_pos_as_xyz
  1  'x, y, z'
loop_
 _atom_site_type_symbol
 _atom_site_label
 _atom_site_symmetry_multiplicity
 _atom_site_fract_x
 _atom_site_fract_y
 _atom_site_fract_z
 _atom_site_occupancy
  Ce  Ce0  1  0.000000  0.322540  0.414451  1
  Ce  Ce1  1  0.000000  0.677548  0.585731  1
  Ce  Ce2  1  0.000000  0.822522  0.085680  1
  Ce  Ce3  1  0.000000  0.177368  0.914202  1
  Er  Er4  1  0.000000  0.555519  0.872678  1
  Tm  Tm5  1  0.000000  0.944467  0.372857  1
  Tm  Tm6  1  0.000000  0.055353  0.627171  1
  Tm  Tm7  1  0.000000  0.444454  0.127474  1
  Re  Re8  1  0.000000  0.639108  0.320602  1
  Re  Re9  1  0.000000  0.360717  0.679263  1
  Re  Re10  1  0.000000  0.139037  0.179725  1
  Re  Re11  1  0.000000  0.861435  0.820248  1
  B  B12  1  0.500000  0.554707  0.431600  1
  B  B13  1  0.500000  0.445396  0.568381  1
  B  B14  1  0.500000  0.054682  0.068462  1
  B  B15  1  0.500000  0.945420  0.931496  1
  B  B16  1  0.500000  0.749720  0.418616  1
  B  B17  1  0.500000  0.250220  0.581477  1
  B  B18  1  0.500000  0.249686  0.081493  1
  B  B19  1  0.500000  0.750648  0.918448  1
  B  B20  1  0.500000  0.792059  0.266013  1
  B  B21  1  0.500000  0.207807  0.733975  1
  B  B22  1  0.500000  0.292080  0.234080  1
  B  B23  1  0.500000  0.708233  0.765796  1
  B  B24  1  0.500000  0.631025  0.185614  1
  B  B25  1  0.500000  0.368726  0.814275  1
  B  B26  1  0.500000  0.130975  0.314515  1
  B  B27  1  0.500000  0.869022  0.685392  1
  B  B28  1  0.500000  0.983283  0.213400  1
  B  B29  1  0.500000  0.016717  0.786552  1
  B  B30  1  0.500000  0.483350  0.286671  1
  B  B31  1  0.500000  0.516578  0.713077  1
  B  B32  1  0.500000  0.604322  0.029076  1
  B  B33  1  0.500000  0.395410  0.971461  1
  B  B34  1  0.500000  0.104130  0.471295  1
  B  B35  1  0.500000  0.895738  0.528752  1
