# generated using pymatgen
data_PrNd3OsRu7
_symmetry_space_group_name_H-M   'P 1'
_cell_length_a   5.26216029
_cell_length_b   5.26216110
_cell_length_c   9.16111271
_cell_angle_alpha   90.05907602
_cell_angle_beta   89.94092076
_cell_angle_gamma   116.24836978
_symmetry_Int_Tables_number   1
_chemical_formula_structural   PrNd3OsRu7
_chemical_formula_sum   'Pr1 Nd3 Os1 Ru7'
_cell_volume   227.51657289
_cell_formula_units_Z   1
loop_
 _symmetry_equiv_pos_site_id
 _symmetry_equiv_pos_as_xyz
  1  'x, y, z'
loop_
 _atom_site_type_symbol
 _atom_site_label
 _atom_site_symmetry_multiplicity
 _atom_site_fract_x
 _atom_site_fract_y
 _atom_site_fract_z
 _atom_site_occupancy
  Pr  Pr0  1  0.329748  0.670252  0.434365  1
  Nd  Nd1  1  0.661937  0.338063  0.566074  1
  Nd  Nd2  1  0.661850  0.338150  0.933742  1
  Nd  Nd3  1  0.329574  0.670426  0.066386  1
  Os  Os4  1  0.842381  0.157619  0.249113  1
  Ru  Ru5  1  0.989083  0.010917  0.499660  1
  Ru  Ru6  1  0.989590  0.010410  0.000253  1
  Ru  Ru7  1  0.831447  0.646963  0.249322  1
  Ru  Ru8  1  0.353037  0.168553  0.249322  1
  Ru  Ru9  1  0.179188  0.820812  0.750900  1
  Ru  Ru10  1  0.159336  0.327171  0.750432  1
  Ru  Ru11  1  0.672829  0.840664  0.750432  1
