# generated using pymatgen
data_Ho5Er3(CoB14)2
_symmetry_space_group_name_H-M   'P 1'
_cell_length_a   7.20011095
_cell_length_b   7.20044795
_cell_length_c   7.47665800
_cell_angle_alpha   90.00000000
_cell_angle_beta   90.00000000
_cell_angle_gamma   90.10374909
_symmetry_Int_Tables_number   1
_chemical_formula_structural   Ho5Er3(CoB14)2
_chemical_formula_sum   'Ho5 Er3 Co2 B28'
_cell_volume   387.61940240
_cell_formula_units_Z   1
loop_
 _symmetry_equiv_pos_site_id
 _symmetry_equiv_pos_as_xyz
  1  'x, y, z'
loop_
 _atom_site_type_symbol
 _atom_site_label
 _atom_site_symmetry_multiplicity
 _atom_site_fract_x
 _atom_site_fract_y
 _atom_site_fract_z
 _atom_site_occupancy
  Ho  Ho0  1  0.192937  0.330250  0.000000  1
  Ho  Ho1  1  0.670251  0.193278  0.000000  1
  Ho  Ho2  1  0.329838  0.806873  0.000000  1
  Ho  Ho3  1  0.693457  0.169872  0.500000  1
  Ho  Ho4  1  0.306459  0.830052  0.500000  1
  Er  Er5  1  0.807321  0.669885  0.000000  1
  Er  Er6  1  0.830476  0.692983  0.500000  1
  Er  Er7  1  0.169521  0.307057  0.500000  1
  Co  Co8  1  0.999772  0.999632  0.000000  1
  Co  Co9  1  0.499931  0.499842  0.500000  1
  B  B10  1  0.174344  0.038813  0.230932  1
  B  B11  1  0.961415  0.174395  0.231082  1
  B  B12  1  0.038341  0.825351  0.230913  1
  B  B13  1  0.674654  0.461709  0.269339  1
  B  B14  1  0.325600  0.538586  0.269422  1
  B  B15  1  0.825401  0.960927  0.230783  1
  B  B16  1  0.539087  0.674580  0.269381  1
  B  B17  1  0.461153  0.325587  0.269376  1
  B  B18  1  0.825401  0.960927  0.769217  1
  B  B19  1  0.038341  0.825351  0.769087  1
  B  B20  1  0.961415  0.174395  0.768918  1
  B  B21  1  0.325600  0.538586  0.730578  1
  B  B22  1  0.674654  0.461709  0.730661  1
  B  B23  1  0.174344  0.038813  0.769068  1
  B  B24  1  0.461153  0.325587  0.730624  1
  B  B25  1  0.539087  0.674580  0.730619  1
  B  B26  1  0.088038  0.588133  0.250438  1
  B  B27  1  0.411951  0.088044  0.250073  1
  B  B28  1  0.587985  0.912018  0.250109  1
  B  B29  1  0.911934  0.411952  0.250309  1
  B  B30  1  0.911934  0.411952  0.749691  1
  B  B31  1  0.587985  0.912018  0.749891  1
  B  B32  1  0.411951  0.088044  0.749927  1
  B  B33  1  0.088038  0.588133  0.749562  1
  B  B34  1  0.999857  0.999837  0.388141  1
  B  B35  1  0.500260  0.500205  0.112011  1
  B  B36  1  0.999857  0.999837  0.611859  1
  B  B37  1  0.500260  0.500205  0.887989  1
