# generated using pymatgen
data_Li4Ca4Si7Ge
_symmetry_space_group_name_H-M   'P 1'
_cell_length_a   3.82143100
_cell_length_b   7.92312072
_cell_length_c   10.67895228
_cell_angle_alpha   90.12466605
_cell_angle_beta   90.00000000
_cell_angle_gamma   90.00000000
_symmetry_Int_Tables_number   1
_chemical_formula_structural   Li4Ca4Si7Ge
_chemical_formula_sum   'Li4 Ca4 Si7 Ge1'
_cell_volume   323.33291162
_cell_formula_units_Z   1
loop_
 _symmetry_equiv_pos_site_id
 _symmetry_equiv_pos_as_xyz
  1  'x, y, z'
loop_
 _atom_site_type_symbol
 _atom_site_label
 _atom_site_symmetry_multiplicity
 _atom_site_fract_x
 _atom_site_fract_y
 _atom_site_fract_z
 _atom_site_occupancy
  Li  Li0  1  0.250000  0.998304  0.388733  1
  Li  Li1  1  0.750000  0.001100  0.612008  1
  Li  Li2  1  0.250000  0.500003  0.112402  1
  Li  Li3  1  0.750000  0.502805  0.886864  1
  Ca  Ca4  1  0.250000  0.132557  0.862550  1
  Ca  Ca5  1  0.750000  0.864728  0.136179  1
  Ca  Ca6  1  0.250000  0.634004  0.635534  1
  Ca  Ca7  1  0.750000  0.366058  0.365351  1
  Si  Si8  1  0.250000  0.732082  0.932611  1
  Si  Si9  1  0.750000  0.767943  0.432917  1
  Si  Si10  1  0.250000  0.231773  0.567358  1
  Si  Si11  1  0.750000  0.833579  0.825526  1
  Si  Si12  1  0.250000  0.163873  0.177401  1
  Si  Si13  1  0.750000  0.333154  0.674604  1
  Si  Si14  1  0.250000  0.666806  0.325649  1
  Ge  Ge15  1  0.750000  0.271230  0.064311  1
