# generated using pymatgen
data_Y9ErIrPt5
_symmetry_space_group_name_H-M   'P 1'
_cell_length_a   11.06493000
_cell_length_b   11.06353700
_cell_length_c   6.42537300
_cell_angle_alpha   90.00000000
_cell_angle_beta   90.00000000
_cell_angle_gamma   90.00000000
_symmetry_Int_Tables_number   1
_chemical_formula_structural   Y9ErIrPt5
_chemical_formula_sum   'Y18 Er2 Ir2 Pt10'
_cell_volume   786.57657293
_cell_formula_units_Z   2
loop_
 _symmetry_equiv_pos_site_id
 _symmetry_equiv_pos_as_xyz
  1  'x, y, z'
loop_
 _atom_site_type_symbol
 _atom_site_label
 _atom_site_symmetry_multiplicity
 _atom_site_fract_x
 _atom_site_fract_y
 _atom_site_fract_z
 _atom_site_occupancy
  Y  Y0  1  0.292138  0.087962  0.376424  1
  Y  Y1  1  0.292138  0.912038  0.876424  1
  Y  Y2  1  0.707862  0.087962  0.876424  1
  Y  Y3  1  0.707862  0.912038  0.376424  1
  Y  Y4  1  0.587879  0.791851  0.876601  1
  Y  Y5  1  0.587879  0.208149  0.376601  1
  Y  Y6  1  0.412121  0.791851  0.376601  1
  Y  Y7  1  0.412121  0.208149  0.876601  1
  Y  Y8  1  0.205846  0.412799  0.623961  1
  Y  Y9  1  0.205846  0.587201  0.123961  1
  Y  Y10  1  0.794154  0.412799  0.123961  1
  Y  Y11  1  0.794154  0.587201  0.623961  1
  Y  Y12  1  0.912713  0.705552  0.124109  1
  Y  Y13  1  0.912713  0.294448  0.624109  1
  Y  Y14  1  0.087287  0.705552  0.624109  1
  Y  Y15  1  0.087287  0.294448  0.124109  1
  Y  Y16  1  0.000000  0.000000  0.500520  1
  Y  Y17  1  0.000000  0.000000  0.000520  1
  Er  Er18  1  0.500000  0.500000  0.000490  1
  Er  Er19  1  0.500000  0.500000  0.500490  1
  Ir  Ir20  1  0.000000  0.500000  0.879643  1
  Ir  Ir21  1  0.000000  0.500000  0.379643  1
  Pt  Pt22  1  0.845615  0.153270  0.249898  1
  Pt  Pt23  1  0.845615  0.846730  0.749898  1
  Pt  Pt24  1  0.154385  0.153270  0.749898  1
  Pt  Pt25  1  0.154385  0.846730  0.249898  1
  Pt  Pt26  1  0.651913  0.346987  0.749891  1
  Pt  Pt27  1  0.651913  0.653013  0.249891  1
  Pt  Pt28  1  0.348087  0.346987  0.249891  1
  Pt  Pt29  1  0.348087  0.653013  0.749891  1
  Pt  Pt30  1  0.500000  0.000000  0.117573  1
  Pt  Pt31  1  0.500000  0.000000  0.617573  1
