# generated using pymatgen
data_TiBe5(GaRh2)6
_symmetry_space_group_name_H-M   'P 1'
_cell_length_a   4.18116701
_cell_length_b   5.90137901
_cell_length_c   12.49258400
_cell_angle_alpha   90.00029234
_cell_angle_beta   89.99777555
_cell_angle_gamma   89.99424848
_symmetry_Int_Tables_number   1
_chemical_formula_structural   TiBe5(GaRh2)6
_chemical_formula_sum   'Ti1 Be5 Ga6 Rh12'
_cell_volume   308.25015101
_cell_formula_units_Z   1
loop_
 _symmetry_equiv_pos_site_id
 _symmetry_equiv_pos_as_xyz
  1  'x, y, z'
loop_
 _atom_site_type_symbol
 _atom_site_label
 _atom_site_symmetry_multiplicity
 _atom_site_fract_x
 _atom_site_fract_y
 _atom_site_fract_z
 _atom_site_occupancy
  Ti  Ti0  1  0.000000  0.000000  0.000000  1
  Be  Be1  1  0.499258  0.499998  0.170507  1
  Be  Be2  1  0.999129  0.999998  0.334943  1
  Be  Be3  1  0.500000  0.499999  0.500000  1
  Be  Be4  1  0.000870  0.000002  0.665058  1
  Be  Be5  1  0.500743  0.500000  0.829492  1
  Ga  Ga6  1  0.000000  0.499999  0.000000  1
  Ga  Ga7  1  0.499475  0.000000  0.168653  1
  Ga  Ga8  1  0.999416  0.499999  0.339122  1
  Ga  Ga9  1  0.500000  0.000000  0.500000  1
  Ga  Ga10  1  0.000583  0.499999  0.660878  1
  Ga  Ga11  1  0.500524  0.000000  0.831347  1
  Rh  Rh12  1  0.500026  0.259584  0.000000  1
  Rh  Rh13  1  0.499974  0.740416  0.000000  1
  Rh  Rh14  1  0.999467  0.255529  0.170736  1
  Rh  Rh15  1  0.999566  0.744473  0.170736  1
  Rh  Rh16  1  0.499531  0.250827  0.333886  1
  Rh  Rh17  1  0.499532  0.749172  0.333885  1
  Rh  Rh18  1  0.999969  0.246600  0.500000  1
  Rh  Rh19  1  0.000031  0.753400  0.500000  1
  Rh  Rh20  1  0.500470  0.250828  0.666115  1
  Rh  Rh21  1  0.500471  0.749173  0.666114  1
  Rh  Rh22  1  0.000433  0.255527  0.829264  1
  Rh  Rh23  1  0.000532  0.744471  0.829264  1
