# generated using pymatgen
data_Dy4Zr2MoO12
_symmetry_space_group_name_H-M   'P 1'
_cell_length_a   6.32515003
_cell_length_b   6.41480633
_cell_length_c   6.57718074
_cell_angle_alpha   100.33227712
_cell_angle_beta   98.35320298
_cell_angle_gamma   99.38586200
_symmetry_Int_Tables_number   1
_chemical_formula_structural   Dy4Zr2MoO12
_chemical_formula_sum   'Dy4 Zr2 Mo1 O12'
_cell_volume   254.80264517
_cell_formula_units_Z   1
loop_
 _symmetry_equiv_pos_site_id
 _symmetry_equiv_pos_as_xyz
  1  'x, y, z'
loop_
 _atom_site_type_symbol
 _atom_site_label
 _atom_site_symmetry_multiplicity
 _atom_site_fract_x
 _atom_site_fract_y
 _atom_site_fract_z
 _atom_site_occupancy
  Dy  Dy0  1  0.386452  0.700725  0.865480  1
  Dy  Dy1  1  0.700861  0.865717  0.391006  1
  Dy  Dy2  1  0.613548  0.299275  0.134520  1
  Dy  Dy3  1  0.299139  0.134283  0.608994  1
  Zr  Zr4  1  0.848053  0.396391  0.672708  1
  Zr  Zr5  1  0.151947  0.603609  0.327292  1
  Mo  Mo6  1  0.000000  0.000000  0.000000  1
  O  O7  1  0.022229  0.683446  0.891557  1
  O  O8  1  0.690431  0.933275  0.056912  1
  O  O9  1  0.925108  0.087910  0.694611  1
  O  O10  1  0.977771  0.316554  0.108443  1
  O  O11  1  0.309569  0.066725  0.943088  1
  O  O12  1  0.074892  0.912090  0.305389  1
  O  O13  1  0.589048  0.187288  0.434628  1
  O  O14  1  0.173188  0.433469  0.576314  1
  O  O15  1  0.417016  0.583570  0.177984  1
  O  O16  1  0.410952  0.812712  0.565372  1
  O  O17  1  0.826812  0.566531  0.423686  1
  O  O18  1  0.582984  0.416430  0.822016  1
