# generated using pymatgen
data_Gd5As2ClO10
_symmetry_space_group_name_H-M   'P 1'
_cell_length_a   5.63207604
_cell_length_b   6.72821318
_cell_length_c   8.81720289
_cell_angle_alpha   95.93206274
_cell_angle_beta   108.62543749
_cell_angle_gamma   114.74255314
_symmetry_Int_Tables_number   1
_chemical_formula_structural   Gd5As2ClO10
_chemical_formula_sum   'Gd5 As2 Cl1 O10'
_cell_volume   276.43202522
_cell_formula_units_Z   1
loop_
 _symmetry_equiv_pos_site_id
 _symmetry_equiv_pos_as_xyz
  1  'x, y, z'
loop_
 _atom_site_type_symbol
 _atom_site_label
 _atom_site_symmetry_multiplicity
 _atom_site_fract_x
 _atom_site_fract_y
 _atom_site_fract_z
 _atom_site_occupancy
  Gd  Gd0  1  0.000000  0.000000  0.000000  1
  Gd  Gd1  1  0.379734  0.636252  0.123215  1
  Gd  Gd2  1  0.793129  0.295722  0.290539  1
  Gd  Gd3  1  0.206872  0.704279  0.709462  1
  Gd  Gd4  1  0.620265  0.363747  0.876785  1
  As  As5  1  0.181937  0.968711  0.395161  1
  As  As6  1  0.818063  0.031289  0.604839  1
  Cl  Cl7  1  0.500000  0.500000  0.500000  1
  O  O8  1  0.460418  0.327944  0.086392  1
  O  O9  1  0.953917  0.327944  0.086392  1
  O  O10  1  0.341561  0.963484  0.243767  1
  O  O11  1  0.865689  0.963484  0.243767  1
  O  O12  1  0.043385  0.679714  0.407053  1
  O  O13  1  0.956614  0.320284  0.592947  1
  O  O14  1  0.134311  0.036517  0.756233  1
  O  O15  1  0.658439  0.036517  0.756233  1
  O  O16  1  0.046083  0.672057  0.913607  1
  O  O17  1  0.539582  0.672057  0.913607  1
