# generated using pymatgen
data_Er4MoRu3F28
_symmetry_space_group_name_H-M   'P 1'
_cell_length_a   5.54116917
_cell_length_b   8.84071756
_cell_length_c   11.89958900
_cell_angle_alpha   63.45421459
_cell_angle_beta   90.01435194
_cell_angle_gamma   89.99612240
_symmetry_Int_Tables_number   1
_chemical_formula_structural   Er4MoRu3F28
_chemical_formula_sum   'Er4 Mo1 Ru3 F28'
_cell_volume   521.48142504
_cell_formula_units_Z   1
loop_
 _symmetry_equiv_pos_site_id
 _symmetry_equiv_pos_as_xyz
  1  'x, y, z'
loop_
 _atom_site_type_symbol
 _atom_site_label
 _atom_site_symmetry_multiplicity
 _atom_site_fract_x
 _atom_site_fract_y
 _atom_site_fract_z
 _atom_site_occupancy
  Er  Er0  1  0.758493  0.809686  0.769637  1
  Er  Er1  1  0.259873  0.188951  0.727047  1
  Er  Er2  1  0.239828  0.187655  0.234379  1
  Er  Er3  1  0.741669  0.812246  0.267715  1
  Mo  Mo4  1  0.754916  0.271688  0.955638  1
  Ru  Ru5  1  0.254600  0.728606  0.543925  1
  Ru  Ru6  1  0.245206  0.726169  0.046008  1
  Ru  Ru7  1  0.745616  0.273859  0.454557  1
  F  F8  1  0.452140  0.703791  0.919719  1
  F  F9  1  0.949468  0.296049  0.581683  1
  F  F10  1  0.547281  0.295247  0.081107  1
  F  F11  1  0.047797  0.706375  0.418242  1
  F  F12  1  0.449943  0.284171  0.544414  1
  F  F13  1  0.952162  0.717994  0.953346  1
  F  F14  1  0.546919  0.717916  0.452314  1
  F  F15  1  0.057986  0.280908  0.050724  1
  F  F16  1  0.768363  0.519659  0.854982  1
  F  F17  1  0.263274  0.487915  0.639661  1
  F  F18  1  0.233400  0.485657  0.143076  1
  F  F19  1  0.734634  0.514280  0.358766  1
  F  F20  1  0.754029  0.024391  0.053911  1
  F  F21  1  0.255357  0.968645  0.451731  1
  F  F22  1  0.245645  0.964983  0.952318  1
  F  F23  1  0.745377  0.034791  0.547455  1
  F  F24  1  0.968956  0.733827  0.640374  1
  F  F25  1  0.463111  0.268186  0.852129  1
  F  F26  1  0.033823  0.270176  0.359505  1
  F  F27  1  0.529673  0.727192  0.144521  1
  F  F28  1  0.043201  0.747619  0.175006  1
  F  F29  1  0.545556  0.251359  0.325373  1
  F  F30  1  0.959772  0.246297  0.828018  1
  F  F31  1  0.457472  0.752033  0.671963  1
  F  F32  1  0.425464  0.975131  0.233948  1
  F  F33  1  0.922942  0.027190  0.268378  1
  F  F34  1  0.573274  0.026165  0.764860  1
  F  F35  1  0.072777  0.973188  0.733571  1
