# generated using pymatgen
data_Ho9Er(OsRh)2
_symmetry_space_group_name_H-M   'P 1'
_cell_length_a   6.35290184
_cell_length_b   7.22888637
_cell_length_c   8.48215800
_cell_angle_alpha   96.73838348
_cell_angle_beta   111.99255977
_cell_angle_gamma   89.99999587
_symmetry_Int_Tables_number   1
_chemical_formula_structural   Ho9Er(OsRh)2
_chemical_formula_sum   'Ho9 Er1 Os2 Rh2'
_cell_volume   358.28870634
_cell_formula_units_Z   1
loop_
 _symmetry_equiv_pos_site_id
 _symmetry_equiv_pos_as_xyz
  1  'x, y, z'
loop_
 _atom_site_type_symbol
 _atom_site_label
 _atom_site_symmetry_multiplicity
 _atom_site_fract_x
 _atom_site_fract_y
 _atom_site_fract_z
 _atom_site_occupancy
  Ho  Ho0  1  0.791627  0.581970  0.812382  1
  Ho  Ho1  1  0.979244  0.918030  0.187618  1
  Ho  Ho2  1  0.208800  0.415367  0.182840  1
  Ho  Ho3  1  0.025960  0.084633  0.817160  1
  Ho  Ho4  1  0.208689  0.683319  0.564624  1
  Ho  Ho5  1  0.644065  0.816681  0.435376  1
  Ho  Ho6  1  0.791622  0.313104  0.438476  1
  Ho  Ho7  1  0.353147  0.186896  0.561524  1
  Ho  Ho8  1  0.422211  0.750000  0.000000  1
  Er  Er9  1  0.573800  0.250000  0.000000  1
  Os  Os10  1  0.396908  0.074229  0.219220  1
  Os  Os11  1  0.177690  0.425771  0.780780  1
  Rh  Rh12  1  0.602361  0.924765  0.778484  1
  Rh  Rh13  1  0.823876  0.575235  0.221516  1
