# generated using pymatgen
data_Eu4DyPb3Cl
_symmetry_space_group_name_H-M   'P 1'
_cell_length_a   9.60074900
_cell_length_b   9.60074829
_cell_length_c   7.08483900
_cell_angle_alpha   90.00000000
_cell_angle_beta   90.00000000
_cell_angle_gamma   119.99999900
_symmetry_Int_Tables_number   1
_chemical_formula_structural   Eu4DyPb3Cl
_chemical_formula_sum   'Eu8 Dy2 Pb6 Cl2'
_cell_volume   565.54975821
_cell_formula_units_Z   2
loop_
 _symmetry_equiv_pos_site_id
 _symmetry_equiv_pos_as_xyz
  1  'x, y, z'
loop_
 _atom_site_type_symbol
 _atom_site_label
 _atom_site_symmetry_multiplicity
 _atom_site_fract_x
 _atom_site_fract_y
 _atom_site_fract_z
 _atom_site_occupancy
  Eu  Eu0  1  0.253031  0.000000  0.247670  1
  Eu  Eu1  1  0.746969  0.000000  0.752330  1
  Eu  Eu2  1  0.000000  0.253031  0.247670  1
  Eu  Eu3  1  0.000000  0.746969  0.752330  1
  Eu  Eu4  1  0.746969  0.746969  0.247670  1
  Eu  Eu5  1  0.253031  0.253031  0.752330  1
  Eu  Eu6  1  0.666667  0.333333  0.500000  1
  Eu  Eu7  1  0.333333  0.666667  0.500000  1
  Dy  Dy8  1  0.333333  0.666667  0.000000  1
  Dy  Dy9  1  0.666667  0.333333  0.000000  1
  Pb  Pb10  1  0.595041  0.000000  0.228781  1
  Pb  Pb11  1  0.404959  0.000000  0.771219  1
  Pb  Pb12  1  0.000000  0.595041  0.228781  1
  Pb  Pb13  1  0.000000  0.404959  0.771219  1
  Pb  Pb14  1  0.404959  0.404959  0.228781  1
  Pb  Pb15  1  0.595041  0.595041  0.771219  1
  Cl  Cl16  1  0.000000  0.000000  0.000000  1
  Cl  Cl17  1  0.000000  0.000000  0.500000  1
