# generated using pymatgen
data_Tm12Co6Rh
_symmetry_space_group_name_H-M   'P 1'
_cell_length_a   11.07717700
_cell_length_b   8.20595917
_cell_length_c   10.91162354
_cell_angle_alpha   54.64346222
_cell_angle_beta   90.00000000
_cell_angle_gamma   90.00000000
_symmetry_Int_Tables_number   1
_chemical_formula_structural   Tm12Co6Rh
_chemical_formula_sum   'Tm24 Co12 Rh2'
_cell_volume   808.92350576
_cell_formula_units_Z   2
loop_
 _symmetry_equiv_pos_site_id
 _symmetry_equiv_pos_as_xyz
  1  'x, y, z'
loop_
 _atom_site_type_symbol
 _atom_site_label
 _atom_site_symmetry_multiplicity
 _atom_site_fract_x
 _atom_site_fract_y
 _atom_site_fract_z
 _atom_site_occupancy
  Tm  Tm0  1  0.707332  0.232687  0.540160  1
  Tm  Tm1  1  0.207332  0.767313  0.959840  1
  Tm  Tm2  1  0.840588  0.502226  0.658534  1
  Tm  Tm3  1  0.340588  0.497774  0.841466  1
  Tm  Tm4  1  0.159412  0.497774  0.341466  1
  Tm  Tm5  1  0.659412  0.502226  0.158534  1
  Tm  Tm6  1  0.002058  0.840148  0.354848  1
  Tm  Tm7  1  0.502058  0.159852  0.145152  1
  Tm  Tm8  1  0.997942  0.159852  0.645152  1
  Tm  Tm9  1  0.497942  0.840148  0.854848  1
  Tm  Tm10  1  0.792668  0.232687  0.040160  1
  Tm  Tm11  1  0.292668  0.767313  0.459840  1
  Tm  Tm12  1  0.928332  0.769995  0.088426  1
  Tm  Tm13  1  0.428332  0.230005  0.411574  1
  Tm  Tm14  1  0.071668  0.230005  0.911574  1
  Tm  Tm15  1  0.571668  0.769995  0.588426  1
  Tm  Tm16  1  0.300595  0.244957  0.677977  1
  Tm  Tm17  1  0.800595  0.755043  0.822023  1
  Tm  Tm18  1  0.699405  0.755043  0.322023  1
  Tm  Tm19  1  0.199405  0.244957  0.177977  1
  Tm  Tm20  1  0.930942  0.258670  0.313225  1
  Tm  Tm21  1  0.430942  0.741330  0.186775  1
  Tm  Tm22  1  0.069058  0.741330  0.686775  1
  Tm  Tm23  1  0.569058  0.258670  0.813225  1
  Co  Co24  1  0.679108  0.907486  0.025831  1
  Co  Co25  1  0.179108  0.092514  0.474169  1
  Co  Co26  1  0.320892  0.092514  0.974169  1
  Co  Co27  1  0.820892  0.907486  0.525831  1
  Co  Co28  1  0.399349  0.494560  0.100539  1
  Co  Co29  1  0.899349  0.505440  0.399461  1
  Co  Co30  1  0.600651  0.505440  0.899461  1
  Co  Co31  1  0.100651  0.494560  0.600539  1
  Co  Co32  1  0.814256  0.100678  0.838383  1
  Co  Co33  1  0.314256  0.899322  0.661617  1
  Co  Co34  1  0.185744  0.899322  0.161617  1
  Co  Co35  1  0.685744  0.100678  0.338383  1
  Rh  Rh36  1  0.500000  0.500000  0.500000  1
  Rh  Rh37  1  0.000000  0.500000  0.000000  1
