# generated using pymatgen
data_Ac5InRu2
_symmetry_space_group_name_H-M   'P 1'
_cell_length_a   8.37019928
_cell_length_b   8.37019795
_cell_length_c   9.54290621
_cell_angle_alpha   116.01179721
_cell_angle_beta   116.01179178
_cell_angle_gamma   90.00000488
_symmetry_Int_Tables_number   1
_chemical_formula_structural   Ac5InRu2
_chemical_formula_sum   'Ac10 In2 Ru4'
_cell_volume   524.45554747
_cell_formula_units_Z   2
loop_
 _symmetry_equiv_pos_site_id
 _symmetry_equiv_pos_as_xyz
  1  'x, y, z'
loop_
 _atom_site_type_symbol
 _atom_site_label
 _atom_site_symmetry_multiplicity
 _atom_site_fract_x
 _atom_site_fract_y
 _atom_site_fract_z
 _atom_site_occupancy
  Ac  Ac0  1  0.500000  0.500000  0.000000  1
  Ac  Ac1  1  0.000000  0.000000  0.000000  1
  Ac  Ac2  1  0.970049  0.789298  0.259348  1
  Ac  Ac3  1  0.289298  0.470049  0.259348  1
  Ac  Ac4  1  0.789298  0.289298  0.259348  1
  Ac  Ac5  1  0.470049  0.970049  0.259348  1
  Ac  Ac6  1  0.029951  0.210702  0.740652  1
  Ac  Ac7  1  0.710702  0.529951  0.740652  1
  Ac  Ac8  1  0.210702  0.710702  0.740652  1
  Ac  Ac9  1  0.529951  0.029951  0.740652  1
  In  In10  1  0.750000  0.750000  0.500000  1
  In  In11  1  0.250000  0.250000  0.500000  1
  Ru  Ru12  1  0.642889  0.857111  0.000000  1
  Ru  Ru13  1  0.357111  0.142889  0.000000  1
  Ru  Ru14  1  0.857111  0.357111  0.000000  1
  Ru  Ru15  1  0.142889  0.642889  0.000000  1
