# generated using pymatgen
data_Eu5Ag2Hg
_symmetry_space_group_name_H-M   'P 1'
_cell_length_a   9.66828416
_cell_length_b   9.66828407
_cell_length_c   9.66828400
_cell_angle_alpha   128.55390630
_cell_angle_beta   128.55390679
_cell_angle_gamma   75.72942553
_symmetry_Int_Tables_number   1
_chemical_formula_structural   Eu5Ag2Hg
_chemical_formula_sum   'Eu10 Ag4 Hg2'
_cell_volume   537.60346486
_cell_formula_units_Z   2
loop_
 _symmetry_equiv_pos_site_id
 _symmetry_equiv_pos_as_xyz
  1  'x, y, z'
loop_
 _atom_site_type_symbol
 _atom_site_label
 _atom_site_symmetry_multiplicity
 _atom_site_fract_x
 _atom_site_fract_y
 _atom_site_fract_z
 _atom_site_occupancy
  Eu  Eu0  1  0.500000  0.500000  0.000000  1
  Eu  Eu1  1  0.000000  0.000000  0.000000  1
  Eu  Eu2  1  0.525295  0.025295  0.836932  1
  Eu  Eu3  1  0.188363  0.688363  0.163068  1
  Eu  Eu4  1  0.025295  0.188363  0.500000  1
  Eu  Eu5  1  0.688363  0.525295  0.500000  1
  Eu  Eu6  1  0.474705  0.974705  0.163068  1
  Eu  Eu7  1  0.811637  0.311637  0.836932  1
  Eu  Eu8  1  0.974705  0.811637  0.500000  1
  Eu  Eu9  1  0.311637  0.474705  0.500000  1
  Ag  Ag10  1  0.122905  0.622905  0.745809  1
  Ag  Ag11  1  0.877095  0.377095  0.254191  1
  Ag  Ag12  1  0.622905  0.877095  0.500000  1
  Ag  Ag13  1  0.377095  0.122905  0.500000  1
  Hg  Hg14  1  0.250000  0.250000  0.000000  1
  Hg  Hg15  1  0.750000  0.750000  0.000000  1
