# generated using pymatgen
data_SrMg2Ir9
_symmetry_space_group_name_H-M   'P 1'
_cell_length_a   8.94364600
_cell_length_b   8.94364600
_cell_length_c   5.08778200
_cell_angle_alpha   90.00000000
_cell_angle_beta   90.00000000
_cell_angle_gamma   90.00000000
_symmetry_Int_Tables_number   1
_chemical_formula_structural   SrMg2Ir9
_chemical_formula_sum   'Sr2 Mg4 Ir18'
_cell_volume   406.96559604
_cell_formula_units_Z   2
loop_
 _symmetry_equiv_pos_site_id
 _symmetry_equiv_pos_as_xyz
  1  'x, y, z'
loop_
 _atom_site_type_symbol
 _atom_site_label
 _atom_site_symmetry_multiplicity
 _atom_site_fract_x
 _atom_site_fract_y
 _atom_site_fract_z
 _atom_site_occupancy
  Sr  Sr0  1  0.500000  0.500000  0.000000  1
  Sr  Sr1  1  0.000000  0.000000  0.000000  1
  Mg  Mg2  1  0.617758  0.117758  0.000000  1
  Mg  Mg3  1  0.382242  0.882242  0.000000  1
  Mg  Mg4  1  0.117758  0.382242  0.000000  1
  Mg  Mg5  1  0.882242  0.617758  0.000000  1
  Ir  Ir6  1  0.500000  0.000000  0.500000  1
  Ir  Ir7  1  0.000000  0.500000  0.500000  1
  Ir  Ir8  1  0.704103  0.556006  0.500000  1
  Ir  Ir9  1  0.295897  0.443994  0.500000  1
  Ir  Ir10  1  0.204103  0.943994  0.500000  1
  Ir  Ir11  1  0.795897  0.056006  0.500000  1
  Ir  Ir12  1  0.443994  0.704103  0.500000  1
  Ir  Ir13  1  0.556006  0.295897  0.500000  1
  Ir  Ir14  1  0.056006  0.204103  0.500000  1
  Ir  Ir15  1  0.943994  0.795897  0.500000  1
  Ir  Ir16  1  0.818535  0.318535  0.759772  1
  Ir  Ir17  1  0.181465  0.681465  0.759772  1
  Ir  Ir18  1  0.318535  0.181465  0.759772  1
  Ir  Ir19  1  0.681465  0.818535  0.759772  1
  Ir  Ir20  1  0.181465  0.681465  0.240228  1
  Ir  Ir21  1  0.818535  0.318535  0.240228  1
  Ir  Ir22  1  0.681465  0.818535  0.240228  1
  Ir  Ir23  1  0.318535  0.181465  0.240228  1
