# generated using pymatgen
data_NaAcCr2O8
_symmetry_space_group_name_H-M   'P 1'
_cell_length_a   5.37385794
_cell_length_b   5.37385769
_cell_length_c   7.87265796
_cell_angle_alpha   91.09815277
_cell_angle_beta   91.09815505
_cell_angle_gamma   66.26264610
_symmetry_Int_Tables_number   1
_chemical_formula_structural   NaAcCr2O8
_chemical_formula_sum   'Na1 Ac1 Cr2 O8'
_cell_volume   208.06116904
_cell_formula_units_Z   1
loop_
 _symmetry_equiv_pos_site_id
 _symmetry_equiv_pos_as_xyz
  1  'x, y, z'
loop_
 _atom_site_type_symbol
 _atom_site_label
 _atom_site_symmetry_multiplicity
 _atom_site_fract_x
 _atom_site_fract_y
 _atom_site_fract_z
 _atom_site_occupancy
  Na  Na0  1  0.000000  0.000000  0.500000  1
  Ac  Ac1  1  0.000000  0.000000  0.000000  1
  Cr  Cr2  1  0.632183  0.632183  0.249970  1
  Cr  Cr3  1  0.367817  0.367817  0.750030  1
  O  O4  1  0.745910  0.745910  0.411843  1
  O  O5  1  0.254090  0.254090  0.588157  1
  O  O6  1  0.289461  0.763933  0.251450  1
  O  O7  1  0.710539  0.236067  0.748550  1
  O  O8  1  0.236067  0.710539  0.748550  1
  O  O9  1  0.763933  0.289461  0.251450  1
  O  O10  1  0.725167  0.725167  0.067264  1
  O  O11  1  0.274833  0.274833  0.932736  1
