# generated using pymatgen
data_Ho13Er3Cd4(IrRu)2
_symmetry_space_group_name_H-M   'P 1'
_cell_length_a   9.58397452
_cell_length_b   9.58504477
_cell_length_c   9.62396500
_cell_angle_alpha   59.86559152
_cell_angle_beta   59.86187735
_cell_angle_gamma   59.71341395
_symmetry_Int_Tables_number   1
_chemical_formula_structural   Ho13Er3Cd4(IrRu)2
_chemical_formula_sum   'Ho13 Er3 Cd4 Ir2 Ru2'
_cell_volume   622.49471655
_cell_formula_units_Z   1
loop_
 _symmetry_equiv_pos_site_id
 _symmetry_equiv_pos_as_xyz
  1  'x, y, z'
loop_
 _atom_site_type_symbol
 _atom_site_label
 _atom_site_symmetry_multiplicity
 _atom_site_fract_x
 _atom_site_fract_y
 _atom_site_fract_z
 _atom_site_occupancy
  Ho  Ho0  1  0.209152  0.596821  0.597014  1
  Ho  Ho1  1  0.061696  0.438067  0.440004  1
  Ho  Ho2  1  0.438106  0.061725  0.060079  1
  Ho  Ho3  1  0.438106  0.061725  0.440090  1
  Ho  Ho4  1  0.061696  0.438067  0.060233  1
  Ho  Ho5  1  0.438164  0.438311  0.061762  1
  Ho  Ho6  1  0.059621  0.059728  0.440326  1
  Ho  Ho7  1  0.187888  0.810579  0.813185  1
  Ho  Ho8  1  0.810483  0.187927  0.188483  1
  Ho  Ho9  1  0.810483  0.187927  0.813108  1
  Ho  Ho10  1  0.187888  0.810579  0.188349  1
  Ho  Ho11  1  0.811606  0.811677  0.188359  1
  Ho  Ho12  1  0.188295  0.188162  0.811771  1
  Er  Er13  1  0.598083  0.597982  0.597993  1
  Er  Er14  1  0.598083  0.597982  0.205943  1
  Er  Er15  1  0.596710  0.209522  0.596885  1
  Cd  Cd16  1  0.830159  0.830288  0.830403  1
  Cd  Cd17  1  0.830159  0.830288  0.509150  1
  Cd  Cd18  1  0.830382  0.508079  0.830768  1
  Cd  Cd19  1  0.508123  0.830478  0.830699  1
  Ir  Ir20  1  0.394443  0.826342  0.389607  1
  Ir  Ir21  1  0.826001  0.394112  0.389944  1
  Ru  Ru22  1  0.392337  0.391817  0.387799  1
  Ru  Ru23  1  0.392337  0.391817  0.828047  1
