# generated using pymatgen
data_Eu2Y3Lu3(Si3Rh)4
_symmetry_space_group_name_H-M   'P 1'
_cell_length_a   8.19237100
_cell_length_b   8.19237127
_cell_length_c   8.02599800
_cell_angle_alpha   90.00000000
_cell_angle_beta   90.00000000
_cell_angle_gamma   119.99999488
_symmetry_Int_Tables_number   1
_chemical_formula_structural   Eu2Y3Lu3(Si3Rh)4
_chemical_formula_sum   'Eu2 Y3 Lu3 Si12 Rh4'
_cell_volume   466.49708950
_cell_formula_units_Z   1
loop_
 _symmetry_equiv_pos_site_id
 _symmetry_equiv_pos_as_xyz
  1  'x, y, z'
loop_
 _atom_site_type_symbol
 _atom_site_label
 _atom_site_symmetry_multiplicity
 _atom_site_fract_x
 _atom_site_fract_y
 _atom_site_fract_z
 _atom_site_occupancy
  Eu  Eu0  1  0.000000  0.000000  0.250000  1
  Eu  Eu1  1  0.000000  0.000000  0.750000  1
  Y  Y2  1  0.495551  0.504449  0.750000  1
  Y  Y3  1  0.495551  0.991104  0.750000  1
  Y  Y4  1  0.008896  0.504449  0.750000  1
  Lu  Lu5  1  0.506843  0.493157  0.250000  1
  Lu  Lu6  1  0.506843  0.013684  0.250000  1
  Lu  Lu7  1  0.986316  0.493157  0.250000  1
  Si  Si8  1  0.168403  0.831597  0.499080  1
  Si  Si9  1  0.168403  0.336807  0.499080  1
  Si  Si10  1  0.663193  0.831597  0.499080  1
  Si  Si11  1  0.832746  0.167254  0.495843  1
  Si  Si12  1  0.832746  0.665493  0.495843  1
  Si  Si13  1  0.334507  0.167254  0.495843  1
  Si  Si14  1  0.832746  0.167254  0.004157  1
  Si  Si15  1  0.832746  0.665493  0.004157  1
  Si  Si16  1  0.334507  0.167254  0.004157  1
  Si  Si17  1  0.168403  0.831597  0.000920  1
  Si  Si18  1  0.168403  0.336807  0.000920  1
  Si  Si19  1  0.663193  0.831597  0.000920  1
  Rh  Rh20  1  0.333333  0.666667  0.461355  1
  Rh  Rh21  1  0.666667  0.333333  0.508589  1
  Rh  Rh22  1  0.666667  0.333333  0.991411  1
  Rh  Rh23  1  0.333333  0.666667  0.038645  1
