# generated using pymatgen
data_TbTm2Fe2Co7
_symmetry_space_group_name_H-M   'P 1'
_cell_length_a   5.06905795
_cell_length_b   5.06905829
_cell_length_c   8.40394319
_cell_angle_alpha   72.44698365
_cell_angle_beta   72.44697982
_cell_angle_gamma   59.99998799
_symmetry_Int_Tables_number   1
_chemical_formula_structural   TbTm2Fe2Co7
_chemical_formula_sum   'Tb1 Tm2 Fe2 Co7'
_cell_volume   175.30527825
_cell_formula_units_Z   1
loop_
 _symmetry_equiv_pos_site_id
 _symmetry_equiv_pos_as_xyz
  1  'x, y, z'
loop_
 _atom_site_type_symbol
 _atom_site_label
 _atom_site_symmetry_multiplicity
 _atom_site_fract_x
 _atom_site_fract_y
 _atom_site_fract_z
 _atom_site_occupancy
  Tb  Tb0  1  0.000000  0.000000  0.000000  1
  Tm  Tm1  1  0.141268  0.141268  0.576196  1
  Tm  Tm2  1  0.858732  0.858732  0.423804  1
  Fe  Fe3  1  0.334029  0.334029  0.997915  1
  Fe  Fe4  1  0.665971  0.665971  0.002085  1
  Co  Co5  1  0.080016  0.584160  0.751663  1
  Co  Co6  1  0.584160  0.584160  0.751663  1
  Co  Co7  1  0.584160  0.080016  0.751663  1
  Co  Co8  1  0.919984  0.415840  0.248337  1
  Co  Co9  1  0.415840  0.415840  0.248337  1
  Co  Co10  1  0.415840  0.919984  0.248337  1
  Co  Co11  1  0.500000  0.500000  0.500000  1
