# generated using pymatgen
data_CaY2(SiPd)3
_symmetry_space_group_name_H-M   'P 1'
_cell_length_a   4.34869600
_cell_length_b   7.46166900
_cell_length_c   21.29393900
_cell_angle_alpha   90.00000000
_cell_angle_beta   90.00000000
_cell_angle_gamma   90.00000000
_symmetry_Int_Tables_number   1
_chemical_formula_structural   CaY2(SiPd)3
_chemical_formula_sum   'Ca4 Y8 Si12 Pd12'
_cell_volume   690.95702131
_cell_formula_units_Z   4
loop_
 _symmetry_equiv_pos_site_id
 _symmetry_equiv_pos_as_xyz
  1  'x, y, z'
loop_
 _atom_site_type_symbol
 _atom_site_label
 _atom_site_symmetry_multiplicity
 _atom_site_fract_x
 _atom_site_fract_y
 _atom_site_fract_z
 _atom_site_occupancy
  Ca  Ca0  1  0.250000  0.704105  0.332669  1
  Ca  Ca1  1  0.750000  0.295895  0.667331  1
  Ca  Ca2  1  0.750000  0.204105  0.167331  1
  Ca  Ca3  1  0.250000  0.795895  0.832669  1
  Y  Y4  1  0.250000  0.795657  0.166327  1
  Y  Y5  1  0.750000  0.204343  0.833673  1
  Y  Y6  1  0.750000  0.295657  0.333673  1
  Y  Y7  1  0.250000  0.704343  0.666327  1
  Y  Y8  1  0.250000  0.706660  0.000465  1
  Y  Y9  1  0.750000  0.293340  0.999535  1
  Y  Y10  1  0.750000  0.206660  0.499535  1
  Y  Y11  1  0.250000  0.793340  0.500465  1
  Si  Si12  1  0.250000  0.087177  0.065294  1
  Si  Si13  1  0.750000  0.912823  0.934706  1
  Si  Si14  1  0.750000  0.587177  0.434706  1
  Si  Si15  1  0.250000  0.412823  0.565294  1
  Si  Si16  1  0.250000  0.086747  0.274147  1
  Si  Si17  1  0.750000  0.913253  0.725853  1
  Si  Si18  1  0.750000  0.586747  0.225853  1
  Si  Si19  1  0.250000  0.413253  0.774147  1
  Si  Si20  1  0.250000  0.090004  0.395211  1
  Si  Si21  1  0.750000  0.909996  0.604789  1
  Si  Si22  1  0.750000  0.590004  0.104789  1
  Si  Si23  1  0.250000  0.409996  0.895211  1
  Pd  Pd24  1  0.250000  0.415942  0.236648  1
  Pd  Pd25  1  0.750000  0.584058  0.763352  1
  Pd  Pd26  1  0.750000  0.915942  0.263352  1
  Pd  Pd27  1  0.250000  0.084058  0.736648  1
  Pd  Pd28  1  0.250000  0.416830  0.437225  1
  Pd  Pd29  1  0.750000  0.583170  0.562775  1
  Pd  Pd30  1  0.750000  0.916830  0.062775  1
  Pd  Pd31  1  0.250000  0.083170  0.937225  1
  Pd  Pd32  1  0.250000  0.419105  0.092581  1
  Pd  Pd33  1  0.750000  0.580895  0.907419  1
  Pd  Pd34  1  0.750000  0.919105  0.407419  1
  Pd  Pd35  1  0.250000  0.080895  0.592581  1
