# generated using pymatgen
data_TbErB2Cl2O5
_symmetry_space_group_name_H-M   'P 1'
_cell_length_a   5.32910700
_cell_length_b   10.15145700
_cell_length_c   14.98401700
_cell_angle_alpha   90.00000000
_cell_angle_beta   90.00000000
_cell_angle_gamma   90.00000000
_symmetry_Int_Tables_number   1
_chemical_formula_structural   TbErB2Cl2O5
_chemical_formula_sum   'Tb4 Er4 B8 Cl8 O20'
_cell_volume   810.60835684
_cell_formula_units_Z   4
loop_
 _symmetry_equiv_pos_site_id
 _symmetry_equiv_pos_as_xyz
  1  'x, y, z'
loop_
 _atom_site_type_symbol
 _atom_site_label
 _atom_site_symmetry_multiplicity
 _atom_site_fract_x
 _atom_site_fract_y
 _atom_site_fract_z
 _atom_site_occupancy
  Tb  Tb0  1  0.500000  0.531139  0.120637  1
  Tb  Tb1  1  0.500000  0.968861  0.620637  1
  Tb  Tb2  1  0.500000  0.429947  0.390834  1
  Tb  Tb3  1  0.500000  0.070053  0.890834  1
  Er  Er4  1  0.500000  0.468710  0.878702  1
  Er  Er5  1  0.500000  0.930858  0.109336  1
  Er  Er6  1  0.500000  0.031290  0.378702  1
  Er  Er7  1  0.500000  0.569142  0.609336  1
  B  B8  1  0.500000  0.303813  0.732136  1
  B  B9  1  0.500000  0.254327  0.065731  1
  B  B10  1  0.500000  0.744032  0.934389  1
  B  B11  1  0.500000  0.196187  0.232136  1
  B  B12  1  0.500000  0.755968  0.434389  1
  B  B13  1  0.500000  0.245673  0.565731  1
  B  B14  1  0.500000  0.699713  0.267379  1
  B  B15  1  0.500000  0.800287  0.767379  1
  Cl  Cl16  1  0.000000  0.412450  0.389430  1
  Cl  Cl17  1  0.000000  0.008269  0.369156  1
  Cl  Cl18  1  0.000000  0.913624  0.110227  1
  Cl  Cl19  1  0.000000  0.506881  0.131479  1
  Cl  Cl20  1  0.000000  0.491731  0.869156  1
  Cl  Cl21  1  0.000000  0.586376  0.610227  1
  Cl  Cl22  1  0.000000  0.087550  0.889430  1
  Cl  Cl23  1  0.000000  0.993119  0.631479  1
  O  O24  1  0.500000  0.867622  0.486031  1
  O  O25  1  0.500000  0.241418  0.318084  1
  O  O26  1  0.500000  0.787550  0.340753  1
  O  O27  1  0.500000  0.565406  0.275833  1
  O  O28  1  0.500000  0.934594  0.775833  1
  O  O29  1  0.500000  0.061706  0.224112  1
  O  O30  1  0.500000  0.712450  0.840753  1
  O  O31  1  0.500000  0.136132  0.511892  1
  O  O32  1  0.500000  0.746279  0.181738  1
  O  O33  1  0.500000  0.214141  0.659448  1
  O  O34  1  0.500000  0.258582  0.818084  1
  O  O35  1  0.500000  0.630443  0.464990  1
  O  O36  1  0.500000  0.753721  0.681738  1
  O  O37  1  0.500000  0.372588  0.537683  1
  O  O38  1  0.500000  0.285859  0.159448  1
  O  O39  1  0.500000  0.127412  0.037683  1
  O  O40  1  0.500000  0.632378  0.986031  1
  O  O41  1  0.500000  0.363868  0.011892  1
  O  O42  1  0.500000  0.869557  0.964990  1
  O  O43  1  0.500000  0.438294  0.724112  1
