# generated using pymatgen
data_Hf2Zr2Hg(AsO4)6
_symmetry_space_group_name_H-M   'P 1'
_cell_length_a   9.18136655
_cell_length_b   9.18136748
_cell_length_c   9.49181510
_cell_angle_alpha   61.07615790
_cell_angle_beta   61.07616069
_cell_angle_gamma   59.99999866
_symmetry_Int_Tables_number   1
_chemical_formula_structural   Hf2Zr2Hg(AsO4)6
_chemical_formula_sum   'Hf2 Zr2 Hg1 As6 O24'
_cell_volume   574.81087643
_cell_formula_units_Z   1
loop_
 _symmetry_equiv_pos_site_id
 _symmetry_equiv_pos_as_xyz
  1  'x, y, z'
loop_
 _atom_site_type_symbol
 _atom_site_label
 _atom_site_symmetry_multiplicity
 _atom_site_fract_x
 _atom_site_fract_y
 _atom_site_fract_z
 _atom_site_occupancy
  Hf  Hf0  1  0.141363  0.141363  0.575910  1
  Hf  Hf1  1  0.858637  0.858637  0.424090  1
  Zr  Zr2  1  0.646666  0.646666  0.060003  1
  Zr  Zr3  1  0.353334  0.353334  0.939997  1
  Hg  Hg4  1  0.500000  0.500000  0.500000  1
  As  As5  1  0.957528  0.254315  0.261488  1
  As  As6  1  0.254315  0.526668  0.261488  1
  As  As7  1  0.526668  0.957528  0.261488  1
  As  As8  1  0.042472  0.745685  0.738512  1
  As  As9  1  0.745685  0.473332  0.738512  1
  As  As10  1  0.473332  0.042472  0.738512  1
  O  O11  1  0.985168  0.265260  0.419977  1
  O  O12  1  0.265260  0.329596  0.419977  1
  O  O13  1  0.329596  0.985168  0.419977  1
  O  O14  1  0.014832  0.734740  0.580023  1
  O  O15  1  0.734740  0.670404  0.580023  1
  O  O16  1  0.670404  0.014832  0.580023  1
  O  O17  1  0.502065  0.884178  0.927339  1
  O  O18  1  0.884178  0.686420  0.927339  1
  O  O19  1  0.686420  0.502065  0.927339  1
  O  O20  1  0.497935  0.115822  0.072661  1
  O  O21  1  0.115822  0.313580  0.072661  1
  O  O22  1  0.313580  0.497935  0.072661  1
  O  O23  1  0.029441  0.947230  0.713911  1
  O  O24  1  0.947230  0.309418  0.713911  1
  O  O25  1  0.309418  0.029441  0.713911  1
  O  O26  1  0.970559  0.052770  0.286089  1
  O  O27  1  0.052770  0.690582  0.286089  1
  O  O28  1  0.690582  0.970559  0.286089  1
  O  O29  1  0.590734  0.748517  0.253914  1
  O  O30  1  0.748517  0.406835  0.253914  1
  O  O31  1  0.406835  0.590734  0.253914  1
  O  O32  1  0.409266  0.251483  0.746086  1
  O  O33  1  0.251483  0.593165  0.746086  1
  O  O34  1  0.593165  0.409266  0.746086  1
