# generated using pymatgen
data_Cs3Cu2P2Au
_symmetry_space_group_name_H-M   'P 1'
_cell_length_a   7.77402881
_cell_length_b   7.87399774
_cell_length_c   7.72159764
_cell_angle_alpha   49.04888135
_cell_angle_beta   48.03454775
_cell_angle_gamma   49.30149088
_symmetry_Int_Tables_number   1
_chemical_formula_structural   Cs3Cu2P2Au
_chemical_formula_sum   'Cs3 Cu2 P2 Au1'
_cell_volume   245.44391978
_cell_formula_units_Z   1
loop_
 _symmetry_equiv_pos_site_id
 _symmetry_equiv_pos_as_xyz
  1  'x, y, z'
loop_
 _atom_site_type_symbol
 _atom_site_label
 _atom_site_symmetry_multiplicity
 _atom_site_fract_x
 _atom_site_fract_y
 _atom_site_fract_z
 _atom_site_occupancy
  Cs  Cs0  1  0.906015  0.914073  0.903416  1
  Cs  Cs1  1  0.500000  0.500000  0.500000  1
  Cs  Cs2  1  0.093985  0.085927  0.096584  1
  Cu  Cu3  1  0.500000  0.500000  0.000000  1
  Cu  Cu4  1  0.000000  0.500000  0.500000  1
  P  P5  1  0.255600  0.290407  0.254855  1
  P  P6  1  0.744400  0.709593  0.745145  1
  Au  Au7  1  0.500000  0.000000  0.500000  1
