# generated using pymatgen
data_Yb3DyLu4(B6Os)4
_symmetry_space_group_name_H-M   'P 1'
_cell_length_a   3.60907200
_cell_length_b   9.08243791
_cell_length_c   11.47415015
_cell_angle_alpha   89.94865729
_cell_angle_beta   90.00000000
_cell_angle_gamma   90.00000000
_symmetry_Int_Tables_number   1
_chemical_formula_structural   Yb3DyLu4(B6Os)4
_chemical_formula_sum   'Yb3 Dy1 Lu4 B24 Os4'
_cell_volume   376.11299448
_cell_formula_units_Z   1
loop_
 _symmetry_equiv_pos_site_id
 _symmetry_equiv_pos_as_xyz
  1  'x, y, z'
loop_
 _atom_site_type_symbol
 _atom_site_label
 _atom_site_symmetry_multiplicity
 _atom_site_fract_x
 _atom_site_fract_y
 _atom_site_fract_z
 _atom_site_occupancy
  Yb  Yb0  1  0.000000  0.324493  0.414300  1
  Yb  Yb1  1  0.000000  0.675738  0.585127  1
  Yb  Yb2  1  0.000000  0.822958  0.086384  1
  Dy  Dy3  1  0.000000  0.176252  0.914699  1
  Lu  Lu4  1  0.000000  0.941846  0.368389  1
  Lu  Lu5  1  0.000000  0.057293  0.630239  1
  Lu  Lu6  1  0.000000  0.443763  0.131666  1
  Lu  Lu7  1  0.000000  0.557874  0.869068  1
  B  B8  1  0.500000  0.553483  0.432805  1
  B  B9  1  0.500000  0.446119  0.567609  1
  B  B10  1  0.500000  0.053776  0.067335  1
  B  B11  1  0.500000  0.945435  0.933160  1
  B  B12  1  0.500000  0.749733  0.417713  1
  B  B13  1  0.500000  0.250094  0.582099  1
  B  B14  1  0.500000  0.250131  0.082181  1
  B  B15  1  0.500000  0.750263  0.918042  1
  B  B16  1  0.500000  0.791918  0.264303  1
  B  B17  1  0.500000  0.207850  0.735477  1
  B  B18  1  0.500000  0.292238  0.235057  1
  B  B19  1  0.500000  0.708699  0.764872  1
  B  B20  1  0.500000  0.630757  0.185345  1
  B  B21  1  0.500000  0.369467  0.815306  1
  B  B22  1  0.500000  0.130789  0.314484  1
  B  B23  1  0.500000  0.869417  0.684539  1
  B  B24  1  0.500000  0.982310  0.211608  1
  B  B25  1  0.500000  0.017176  0.787719  1
  B  B26  1  0.500000  0.483160  0.288296  1
  B  B27  1  0.500000  0.516916  0.712202  1
  B  B28  1  0.500000  0.598212  0.027072  1
  B  B29  1  0.500000  0.401583  0.973082  1
  B  B30  1  0.500000  0.096538  0.473051  1
  B  B31  1  0.500000  0.903339  0.526198  1
  Os  Os32  1  0.000000  0.639428  0.320110  1
  Os  Os33  1  0.000000  0.359764  0.680869  1
  Os  Os34  1  0.000000  0.139073  0.179920  1
  Os  Os35  1  0.000000  0.862115  0.819673  1
