# generated using pymatgen
data_Yb5Si2SbH
_symmetry_space_group_name_H-M   'P 1'
_cell_length_a   9.06621218
_cell_length_b   9.06621112
_cell_length_c   9.06621113
_cell_angle_alpha   129.24516091
_cell_angle_beta   129.24515955
_cell_angle_gamma   74.61641769
_symmetry_Int_Tables_number   1
_chemical_formula_structural   Yb5Si2SbH
_chemical_formula_sum   'Yb10 Si4 Sb2 H2'
_cell_volume   435.48961013
_cell_formula_units_Z   2
loop_
 _symmetry_equiv_pos_site_id
 _symmetry_equiv_pos_as_xyz
  1  'x, y, z'
loop_
 _atom_site_type_symbol
 _atom_site_label
 _atom_site_symmetry_multiplicity
 _atom_site_fract_x
 _atom_site_fract_y
 _atom_site_fract_z
 _atom_site_occupancy
  Yb  Yb0  1  0.500000  0.500000  0.000000  1
  Yb  Yb1  1  0.000000  0.000000  0.000000  1
  Yb  Yb2  1  0.520693  0.020693  0.826505  1
  Yb  Yb3  1  0.194189  0.694189  0.173495  1
  Yb  Yb4  1  0.020693  0.194189  0.500000  1
  Yb  Yb5  1  0.694189  0.520693  0.500000  1
  Yb  Yb6  1  0.479307  0.979307  0.173495  1
  Yb  Yb7  1  0.805811  0.305811  0.826505  1
  Yb  Yb8  1  0.979307  0.805811  0.500000  1
  Yb  Yb9  1  0.305811  0.479307  0.500000  1
  Si  Si10  1  0.883961  0.383961  0.267922  1
  Si  Si11  1  0.116039  0.616039  0.732078  1
  Si  Si12  1  0.383961  0.116039  0.500000  1
  Si  Si13  1  0.616039  0.883961  0.500000  1
  Sb  Sb14  1  0.250000  0.250000  0.000000  1
  Sb  Sb15  1  0.750000  0.750000  0.000000  1
  H  H16  1  0.250000  0.750000  0.500000  1
  H  H17  1  0.750000  0.250000  0.500000  1
