# generated using pymatgen
data_Lu12CdInNi4
_symmetry_space_group_name_H-M   'P 1'
_cell_length_a   8.21140417
_cell_length_b   8.21140459
_cell_length_c   8.21140516
_cell_angle_alpha   112.60349489
_cell_angle_beta   109.65068536
_cell_angle_gamma   106.22222233
_symmetry_Int_Tables_number   1
_chemical_formula_structural   Lu12CdInNi4
_chemical_formula_sum   'Lu12 Cd1 In1 Ni4'
_cell_volume   424.89607543
_cell_formula_units_Z   1
loop_
 _symmetry_equiv_pos_site_id
 _symmetry_equiv_pos_as_xyz
  1  'x, y, z'
loop_
 _atom_site_type_symbol
 _atom_site_label
 _atom_site_symmetry_multiplicity
 _atom_site_fract_x
 _atom_site_fract_y
 _atom_site_fract_z
 _atom_site_occupancy
  Lu  Lu0  1  0.674632  0.869498  0.194866  1
  Lu  Lu1  1  0.325368  0.520234  0.194866  1
  Lu  Lu2  1  0.816602  0.791001  0.607603  1
  Lu  Lu3  1  0.183398  0.791001  0.974398  1
  Lu  Lu4  1  0.816602  0.208999  0.025602  1
  Lu  Lu5  1  0.183398  0.208999  0.392397  1
  Lu  Lu6  1  0.674632  0.479766  0.805134  1
  Lu  Lu7  1  0.325368  0.130502  0.805134  1
  Lu  Lu8  1  0.562345  0.266235  0.296108  1
  Lu  Lu9  1  0.437655  0.733765  0.703892  1
  Lu  Lu10  1  0.029873  0.733765  0.296108  1
  Lu  Lu11  1  0.970127  0.266235  0.703892  1
  Cd  Cd12  1  0.000000  0.500000  0.500000  1
  In  In13  1  0.500000  0.000000  0.500000  1
  Ni  Ni14  1  0.350028  0.500000  0.850028  1
  Ni  Ni15  1  0.649972  0.500000  0.149972  1
  Ni  Ni16  1  0.875007  0.875007  0.000000  1
  Ni  Ni17  1  0.124993  0.124993  0.000000  1
