# generated using pymatgen
data_Zr2Si7Ir7Rh5
_symmetry_space_group_name_H-M   'P 1'
_cell_length_a   9.71901100
_cell_length_b   9.68885979
_cell_length_c   3.84087473
_cell_angle_alpha   89.95254945
_cell_angle_beta   89.89022269
_cell_angle_gamma   119.94306440
_symmetry_Int_Tables_number   1
_chemical_formula_structural   Zr2Si7Ir7Rh5
_chemical_formula_sum   'Zr2 Si7 Ir7 Rh5'
_cell_volume   313.40266085
_cell_formula_units_Z   1
loop_
 _symmetry_equiv_pos_site_id
 _symmetry_equiv_pos_as_xyz
  1  'x, y, z'
loop_
 _atom_site_type_symbol
 _atom_site_label
 _atom_site_symmetry_multiplicity
 _atom_site_fract_x
 _atom_site_fract_y
 _atom_site_fract_z
 _atom_site_occupancy
  Zr  Zr0  1  0.333858  0.665759  0.740758  1
  Zr  Zr1  1  0.667815  0.333610  0.242882  1
  Si  Si2  1  0.998534  0.998779  0.662807  1
  Si  Si3  1  0.405810  0.290560  0.742417  1
  Si  Si4  1  0.708740  0.113905  0.742797  1
  Si  Si5  1  0.885804  0.596145  0.742769  1
  Si  Si6  1  0.595710  0.708967  0.241141  1
  Si  Si7  1  0.290692  0.885748  0.240648  1
  Si  Si8  1  0.113973  0.404972  0.240697  1
  Ir  Ir9  1  0.447319  0.070596  0.742329  1
  Ir  Ir10  1  0.927936  0.376102  0.742913  1
  Ir  Ir11  1  0.623785  0.552741  0.742295  1
  Ir  Ir12  1  0.552281  0.933085  0.241473  1
  Ir  Ir13  1  0.066158  0.619080  0.240496  1
  Ir  Ir14  1  0.381145  0.447376  0.240515  1
  Ir  Ir15  1  0.149254  0.273662  0.739686  1
  Rh  Rh16  1  0.725887  0.875682  0.739470  1
  Rh  Rh17  1  0.124258  0.850706  0.738991  1
  Rh  Rh18  1  0.861790  0.747721  0.244945  1
  Rh  Rh19  1  0.254300  0.115542  0.244970  1
  Rh  Rh20  1  0.884949  0.139265  0.245004  1
