# generated using pymatgen
data_Zr12Zn8CuPd3N4
_symmetry_space_group_name_H-M   'P 1'
_cell_length_a   8.61750144
_cell_length_b   8.59354739
_cell_length_c   8.61750100
_cell_angle_alpha   59.90774695
_cell_angle_beta   59.99999784
_cell_angle_gamma   59.90774322
_symmetry_Int_Tables_number   1
_chemical_formula_structural   Zr12Zn8CuPd3N4
_chemical_formula_sum   'Zr12 Zn8 Cu1 Pd3 N4'
_cell_volume   450.62281323
_cell_formula_units_Z   1
loop_
 _symmetry_equiv_pos_site_id
 _symmetry_equiv_pos_as_xyz
  1  'x, y, z'
loop_
 _atom_site_type_symbol
 _atom_site_label
 _atom_site_symmetry_multiplicity
 _atom_site_fract_x
 _atom_site_fract_y
 _atom_site_fract_z
 _atom_site_occupancy
  Zr  Zr0  1  0.812374  0.188615  0.186637  1
  Zr  Zr1  1  0.187201  0.813009  0.187201  1
  Zr  Zr2  1  0.812589  0.813009  0.187201  1
  Zr  Zr3  1  0.187201  0.813009  0.812589  1
  Zr  Zr4  1  0.812374  0.188615  0.812374  1
  Zr  Zr5  1  0.186637  0.188615  0.812374  1
  Zr  Zr6  1  0.437626  0.061385  0.063363  1
  Zr  Zr7  1  0.062799  0.436991  0.062799  1
  Zr  Zr8  1  0.437411  0.436991  0.062799  1
  Zr  Zr9  1  0.062799  0.436991  0.437411  1
  Zr  Zr10  1  0.437626  0.061385  0.437626  1
  Zr  Zr11  1  0.063363  0.061385  0.437626  1
  Zn  Zn12  1  0.422019  0.413707  0.742255  1
  Zn  Zn13  1  0.422019  0.413707  0.422019  1
  Zn  Zn14  1  0.742255  0.413707  0.422019  1
  Zn  Zn15  1  0.418920  0.743240  0.418920  1
  Zn  Zn16  1  0.827981  0.836293  0.507745  1
  Zn  Zn17  1  0.827981  0.836293  0.827981  1
  Zn  Zn18  1  0.507745  0.836293  0.827981  1
  Zn  Zn19  1  0.831080  0.506760  0.831080  1
  Cu  Cu20  1  0.625000  0.125000  0.625000  1
  Pd  Pd21  1  0.625000  0.625000  0.125000  1
  Pd  Pd22  1  0.625000  0.625000  0.625000  1
  Pd  Pd23  1  0.125000  0.625000  0.625000  1
  N  N24  1  0.125000  0.125000  0.625000  1
  N  N25  1  0.125000  0.125000  0.125000  1
  N  N26  1  0.625000  0.125000  0.125000  1
  N  N27  1  0.125000  0.625000  0.125000  1
