# generated using pymatgen
data_TbDy4P12Ir11Ru8
_symmetry_space_group_name_H-M   'P 1'
_cell_length_a   12.62421406
_cell_length_b   12.59158613
_cell_length_c   3.97412700
_cell_angle_alpha   90.00000000
_cell_angle_beta   90.00000000
_cell_angle_gamma   120.03923499
_symmetry_Int_Tables_number   1
_chemical_formula_structural   TbDy4P12Ir11Ru8
_chemical_formula_sum   'Tb1 Dy4 P12 Ir11 Ru8'
_cell_volume   546.87154479
_cell_formula_units_Z   1
loop_
 _symmetry_equiv_pos_site_id
 _symmetry_equiv_pos_as_xyz
  1  'x, y, z'
loop_
 _atom_site_type_symbol
 _atom_site_label
 _atom_site_symmetry_multiplicity
 _atom_site_fract_x
 _atom_site_fract_y
 _atom_site_fract_z
 _atom_site_occupancy
  Tb  Tb0  1  0.813826  0.000953  0.500000  1
  Dy  Dy1  1  0.666953  0.331409  0.000000  1
  Dy  Dy2  1  0.334711  0.669071  0.000000  1
  Dy  Dy3  1  0.183226  0.184790  0.500000  1
  Dy  Dy4  1  0.999392  0.815033  0.500000  1
  P  P5  1  0.633919  0.998999  0.000000  1
  P  P6  1  0.363290  0.363600  0.000000  1
  P  P7  1  0.000309  0.635994  0.000000  1
  P  P8  1  0.688793  0.517761  0.500000  1
  P  P9  1  0.829892  0.307396  0.500000  1
  P  P10  1  0.317213  0.834204  0.500000  1
  P  P11  1  0.519474  0.691363  0.500000  1
  P  P12  1  0.179076  0.000108  0.000000  1
  P  P13  1  0.819110  0.819155  0.000000  1
  P  P14  1  0.996776  0.181215  0.000000  1
  P  P15  1  0.479978  0.167321  0.500000  1
  P  P16  1  0.170396  0.482298  0.500000  1
  Ir  Ir17  1  0.624267  0.803558  0.000000  1
  Ir  Ir18  1  0.182957  0.376769  0.000000  1
  Ir  Ir19  1  0.374341  0.181371  0.000000  1
  Ir  Ir20  1  0.191939  0.818781  0.000000  1
  Ir  Ir21  1  0.805977  0.623207  0.000000  1
  Ir  Ir22  1  0.870187  0.506912  0.500000  1
  Ir  Ir23  1  0.492079  0.360237  0.500000  1
  Ir  Ir24  1  0.637039  0.129215  0.500000  1
  Ir  Ir25  1  0.132655  0.640949  0.500000  1
  Ir  Ir26  1  0.362629  0.492256  0.500000  1
  Ir  Ir27  1  0.999137  0.000381  0.000000  1
  Ru  Ru28  1  0.511715  0.871716  0.500000  1
  Ru  Ru29  1  0.712102  0.710396  0.500000  1
  Ru  Ru30  1  0.002422  0.289612  0.500000  1
  Ru  Ru31  1  0.450387  0.998762  0.000000  1
  Ru  Ru32  1  0.546748  0.544498  0.000000  1
  Ru  Ru33  1  0.002252  0.454950  0.000000  1
  Ru  Ru34  1  0.818389  0.196048  0.000000  1
  Ru  Ru35  1  0.286446  0.999710  0.500000  1
