# generated using pymatgen
data_Er4TaB4SbRu10
_symmetry_space_group_name_H-M   'P 1'
_cell_length_a   9.66214400
_cell_length_b   9.66214400
_cell_length_c   3.12325900
_cell_angle_alpha   90.00000000
_cell_angle_beta   90.00000000
_cell_angle_gamma   90.00000000
_symmetry_Int_Tables_number   1
_chemical_formula_structural   Er4TaB4SbRu10
_chemical_formula_sum   'Er4 Ta1 B4 Sb1 Ru10'
_cell_volume   291.57817378
_cell_formula_units_Z   1
loop_
 _symmetry_equiv_pos_site_id
 _symmetry_equiv_pos_as_xyz
  1  'x, y, z'
loop_
 _atom_site_type_symbol
 _atom_site_label
 _atom_site_symmetry_multiplicity
 _atom_site_fract_x
 _atom_site_fract_y
 _atom_site_fract_z
 _atom_site_occupancy
  Er  Er0  1  0.826432  0.676101  0.000000  1
  Er  Er1  1  0.173568  0.323899  0.000000  1
  Er  Er2  1  0.323899  0.826432  0.000000  1
  Er  Er3  1  0.676101  0.173568  0.000000  1
  Ta  Ta4  1  0.000000  0.000000  0.000000  1
  B  B5  1  0.621555  0.881404  0.000000  1
  B  B6  1  0.378445  0.118596  0.000000  1
  B  B7  1  0.118596  0.621555  0.000000  1
  B  B8  1  0.881404  0.378445  0.000000  1
  Sb  Sb9  1  0.500000  0.500000  0.000000  1
  Ru  Ru10  1  0.571768  0.721098  0.500000  1
  Ru  Ru11  1  0.428232  0.278902  0.500000  1
  Ru  Ru12  1  0.069785  0.781923  0.500000  1
  Ru  Ru13  1  0.930215  0.218077  0.500000  1
  Ru  Ru14  1  0.278902  0.571768  0.500000  1
  Ru  Ru15  1  0.721098  0.428232  0.500000  1
  Ru  Ru16  1  0.218077  0.069785  0.500000  1
  Ru  Ru17  1  0.781923  0.930215  0.500000  1
  Ru  Ru18  1  0.500000  0.000000  0.500000  1
  Ru  Ru19  1  0.000000  0.500000  0.500000  1
