# generated using pymatgen
data_Tb3Yb2Ho(MnC3)4
_symmetry_space_group_name_H-M   'P 1'
_cell_length_a   8.09989771
_cell_length_b   8.05851399
_cell_length_c   4.98530100
_cell_angle_alpha   90.00000000
_cell_angle_beta   90.00000000
_cell_angle_gamma   120.05379336
_symmetry_Int_Tables_number   1
_chemical_formula_structural   Tb3Yb2Ho(MnC3)4
_chemical_formula_sum   'Tb3 Yb2 Ho1 Mn4 C12'
_cell_volume   281.65719353
_cell_formula_units_Z   1
loop_
 _symmetry_equiv_pos_site_id
 _symmetry_equiv_pos_as_xyz
  1  'x, y, z'
loop_
 _atom_site_type_symbol
 _atom_site_label
 _atom_site_symmetry_multiplicity
 _atom_site_fract_x
 _atom_site_fract_y
 _atom_site_fract_z
 _atom_site_occupancy
  Tb  Tb0  1  0.311028  0.931108  0.750000  1
  Tb  Tb1  1  0.066208  0.382725  0.750000  1
  Tb  Tb2  1  0.380923  0.315070  0.250000  1
  Yb  Yb3  1  0.613088  0.682622  0.750000  1
  Yb  Yb4  1  0.928467  0.613952  0.250000  1
  Ho  Ho5  1  0.687773  0.067816  0.250000  1
  Mn  Mn6  1  0.996793  0.995961  0.500556  1
  Mn  Mn7  1  0.996793  0.995961  0.999444  1
  Mn  Mn8  1  0.666447  0.328647  0.750000  1
  Mn  Mn9  1  0.338233  0.669904  0.250000  1
  C  C10  1  0.956963  0.771068  0.750000  1
  C  C11  1  0.188074  0.961088  0.250000  1
  C  C12  1  0.777671  0.820590  0.250000  1
  C  C13  1  0.230080  0.194437  0.750000  1
  C  C14  1  0.817937  0.038755  0.750000  1
  C  C15  1  0.034306  0.230814  0.250000  1
  C  C16  1  0.857523  0.576520  0.750000  1
  C  C17  1  0.282745  0.861575  0.250000  1
  C  C18  1  0.584088  0.721151  0.250000  1
  C  C19  1  0.424321  0.282324  0.750000  1
  C  C20  1  0.143697  0.426022  0.250000  1
  C  C21  1  0.716842  0.131887  0.750000  1
