# generated using pymatgen
data_Y3Er3Al24Ru7Au
_symmetry_space_group_name_H-M   'P 1'
_cell_length_a   8.84098715
_cell_length_b   8.83851291
_cell_length_c   9.55837356
_cell_angle_alpha   89.84867756
_cell_angle_beta   90.13591766
_cell_angle_gamma   119.90037004
_symmetry_Int_Tables_number   1
_chemical_formula_structural   Y3Er3Al24Ru7Au
_chemical_formula_sum   'Y3 Er3 Al24 Ru7 Au1'
_cell_volume   647.48227519
_cell_formula_units_Z   1
loop_
 _symmetry_equiv_pos_site_id
 _symmetry_equiv_pos_as_xyz
  1  'x, y, z'
loop_
 _atom_site_type_symbol
 _atom_site_label
 _atom_site_symmetry_multiplicity
 _atom_site_fract_x
 _atom_site_fract_y
 _atom_site_fract_z
 _atom_site_occupancy
  Y  Y0  1  0.192369  0.386408  0.249693  1
  Y  Y1  1  0.807343  0.613382  0.750316  1
  Y  Y2  1  0.613553  0.807614  0.249750  1
  Er  Er3  1  0.387556  0.192667  0.749916  1
  Er  Er4  1  0.194733  0.805152  0.253700  1
  Er  Er5  1  0.804995  0.194720  0.746200  1
  Al  Al6  1  0.327722  0.672188  0.023179  1
  Al  Al7  1  0.671761  0.327662  0.976272  1
  Al  Al8  1  0.666354  0.333116  0.517598  1
  Al  Al9  1  0.333181  0.666640  0.482912  1
  Al  Al10  1  0.162492  0.324042  0.578537  1
  Al  Al11  1  0.837767  0.675671  0.421845  1
  Al  Al12  1  0.675742  0.837750  0.578380  1
  Al  Al13  1  0.849331  0.678256  0.080472  1
  Al  Al14  1  0.324202  0.162188  0.422197  1
  Al  Al15  1  0.150888  0.321553  0.919199  1
  Al  Al16  1  0.162932  0.837668  0.578761  1
  Al  Al17  1  0.321686  0.150698  0.080074  1
  Al  Al18  1  0.837258  0.162811  0.421578  1
  Al  Al19  1  0.678310  0.849322  0.919353  1
  Al  Al20  1  0.837305  0.162755  0.077547  1
  Al  Al21  1  0.162881  0.837744  0.922077  1
  Al  Al22  1  0.560227  0.121097  0.248416  1
  Al  Al23  1  0.439556  0.879352  0.751549  1
  Al  Al24  1  0.878907  0.439712  0.248473  1
  Al  Al25  1  0.121127  0.560297  0.751552  1
  Al  Al26  1  0.563840  0.436103  0.255872  1
  Al  Al27  1  0.435964  0.563254  0.744279  1
  Al  Al28  1  0.000008  0.000037  0.250152  1
  Al  Al29  1  0.001237  0.000540  0.749848  1
  Ru  Ru30  1  0.499845  0.000183  0.999684  1
  Ru  Ru31  1  0.999832  0.499902  0.999927  1
  Ru  Ru32  1  0.499846  0.000200  0.500356  1
  Ru  Ru33  1  0.999804  0.499902  0.500107  1
  Ru  Ru34  1  0.499796  0.499629  0.500316  1
  Ru  Ru35  1  0.999898  0.999963  0.000070  1
  Ru  Ru36  1  0.999836  0.999932  0.499932  1
  Au  Au37  1  0.499919  0.499889  0.999911  1
