# generated using pymatgen
data_Ho10In8IrPdPt2
_symmetry_space_group_name_H-M   'P 1'
_cell_length_a   3.61480600
_cell_length_b   8.14423358
_cell_length_c   18.22785018
_cell_angle_alpha   90.03908406
_cell_angle_beta   90.00000000
_cell_angle_gamma   90.00000000
_symmetry_Int_Tables_number   1
_chemical_formula_structural   Ho10In8IrPdPt2
_chemical_formula_sum   'Ho10 In8 Ir1 Pd1 Pt2'
_cell_volume   536.62458403
_cell_formula_units_Z   1
loop_
 _symmetry_equiv_pos_site_id
 _symmetry_equiv_pos_as_xyz
  1  'x, y, z'
loop_
 _atom_site_type_symbol
 _atom_site_label
 _atom_site_symmetry_multiplicity
 _atom_site_fract_x
 _atom_site_fract_y
 _atom_site_fract_z
 _atom_site_occupancy
  Ho  Ho0  1  0.000000  0.501112  0.500025  1
  Ho  Ho1  1  0.000000  0.000547  0.000626  1
  Ho  Ho2  1  0.000000  0.728417  0.277640  1
  Ho  Ho3  1  0.000000  0.260049  0.720596  1
  Ho  Ho4  1  0.000000  0.759695  0.778793  1
  Ho  Ho5  1  0.000000  0.253757  0.220049  1
  Ho  Ho6  1  0.000000  0.614132  0.087124  1
  Ho  Ho7  1  0.000000  0.384352  0.915000  1
  Ho  Ho8  1  0.000000  0.884720  0.584679  1
  Ho  Ho9  1  0.000000  0.116220  0.415107  1
  In  In10  1  0.500000  0.709707  0.933247  1
  In  In11  1  0.500000  0.291671  0.067972  1
  In  In12  1  0.500000  0.791470  0.431874  1
  In  In13  1  0.500000  0.209449  0.566448  1
  In  In14  1  0.500000  0.578165  0.648358  1
  In  In15  1  0.500000  0.421505  0.351612  1
  In  In16  1  0.500000  0.923191  0.150225  1
  In  In17  1  0.500000  0.077634  0.851337  1
  Ir  Ir18  1  0.500000  0.519498  0.195737  1
  Pd  Pd19  1  0.500000  0.019360  0.303748  1
  Pt  Pt20  1  0.500000  0.477633  0.803779  1
  Pt  Pt21  1  0.500000  0.977719  0.696025  1
