# generated using pymatgen
data_La16Cd4Os3Pt
_symmetry_space_group_name_H-M   'P 1'
_cell_length_a   10.07193367
_cell_length_b   10.13699241
_cell_length_c   10.13699200
_cell_angle_alpha   60.00000134
_cell_angle_beta   59.78609480
_cell_angle_gamma   59.78609903
_symmetry_Int_Tables_number   1
_chemical_formula_structural   La16Cd4Os3Pt
_chemical_formula_sum   'La16 Cd4 Os3 Pt1'
_cell_volume   729.46483302
_cell_formula_units_Z   1
loop_
 _symmetry_equiv_pos_site_id
 _symmetry_equiv_pos_as_xyz
  1  'x, y, z'
loop_
 _atom_site_type_symbol
 _atom_site_label
 _atom_site_symmetry_multiplicity
 _atom_site_fract_x
 _atom_site_fract_y
 _atom_site_fract_z
 _atom_site_occupancy
  La  La0  1  0.593303  0.599243  0.599243  1
  La  La1  1  0.593303  0.599243  0.208212  1
  La  La2  1  0.593303  0.208212  0.599243  1
  La  La3  1  0.214111  0.595297  0.595297  1
  La  La4  1  0.066138  0.440086  0.440086  1
  La  La5  1  0.438354  0.062094  0.062094  1
  La  La6  1  0.438354  0.062094  0.437458  1
  La  La7  1  0.066138  0.440086  0.053690  1
  La  La8  1  0.438354  0.437458  0.062094  1
  La  La9  1  0.066138  0.053690  0.440086  1
  La  La10  1  0.190761  0.809076  0.809076  1
  La  La11  1  0.804953  0.190970  0.190970  1
  La  La12  1  0.804953  0.190970  0.813106  1
  La  La13  1  0.190761  0.809076  0.191087  1
  La  La14  1  0.804953  0.813106  0.190970  1
  La  La15  1  0.190761  0.191087  0.809076  1
  Cd  Cd16  1  0.829407  0.829826  0.829826  1
  Cd  Cd17  1  0.829407  0.829826  0.510942  1
  Cd  Cd18  1  0.829407  0.510942  0.829826  1
  Cd  Cd19  1  0.511126  0.829625  0.829625  1
  Os  Os20  1  0.392452  0.387736  0.387736  1
  Os  Os21  1  0.392452  0.387736  0.832076  1
  Os  Os22  1  0.392452  0.832076  0.387736  1
  Pt  Pt23  1  0.828659  0.390447  0.390447  1
