# generated using pymatgen
data_Y3HoZr4F28
_symmetry_space_group_name_H-M   'P 1'
_cell_length_a   5.76157691
_cell_length_b   9.11626474
_cell_length_c   12.25762918
_cell_angle_alpha   62.40756523
_cell_angle_beta   90.01395868
_cell_angle_gamma   89.97676920
_symmetry_Int_Tables_number   1
_chemical_formula_structural   Y3HoZr4F28
_chemical_formula_sum   'Y3 Ho1 Zr4 F28'
_cell_volume   570.59525713
_cell_formula_units_Z   1
loop_
 _symmetry_equiv_pos_site_id
 _symmetry_equiv_pos_as_xyz
  1  'x, y, z'
loop_
 _atom_site_type_symbol
 _atom_site_label
 _atom_site_symmetry_multiplicity
 _atom_site_fract_x
 _atom_site_fract_y
 _atom_site_fract_z
 _atom_site_occupancy
  Y  Y0  1  0.743321  0.815334  0.266300  1
  Y  Y1  1  0.243224  0.184058  0.233845  1
  Y  Y2  1  0.256886  0.182784  0.733962  1
  Ho  Ho3  1  0.756741  0.815581  0.766097  1
  Zr  Zr4  1  0.744444  0.273547  0.455351  1
  Zr  Zr5  1  0.244136  0.725936  0.044365  1
  Zr  Zr6  1  0.255442  0.725637  0.546000  1
  Zr  Zr7  1  0.755617  0.274946  0.954358  1
  F  F8  1  0.467935  0.712529  0.920548  1
  F  F9  1  0.967130  0.288539  0.578886  1
  F  F10  1  0.533778  0.289167  0.078405  1
  F  F11  1  0.034396  0.711109  0.421621  1
  F  F12  1  0.453261  0.280260  0.549775  1
  F  F13  1  0.952781  0.720624  0.949102  1
  F  F14  1  0.545819  0.719247  0.450796  1
  F  F15  1  0.046450  0.281151  0.049265  1
  F  F16  1  0.767756  0.526963  0.857777  1
  F  F17  1  0.267573  0.474075  0.642235  1
  F  F18  1  0.232547  0.474596  0.141884  1
  F  F19  1  0.732513  0.525230  0.358053  1
  F  F20  1  0.759765  0.024132  0.057462  1
  F  F21  1  0.259723  0.976302  0.442513  1
  F  F22  1  0.240462  0.976797  0.941801  1
  F  F23  1  0.739959  0.022841  0.559336  1
  F  F24  1  0.983773  0.734657  0.650015  1
  F  F25  1  0.484673  0.266454  0.849999  1
  F  F26  1  0.014377  0.266149  0.350258  1
  F  F27  1  0.513948  0.733845  0.149538  1
  F  F28  1  0.034155  0.746456  0.172602  1
  F  F29  1  0.533603  0.253626  0.327330  1
  F  F30  1  0.966711  0.253498  0.826971  1
  F  F31  1  0.467872  0.747273  0.673170  1
  F  F32  1  0.428902  0.972976  0.234888  1
  F  F33  1  0.927945  0.026927  0.265238  1
  F  F34  1  0.572912  0.025236  0.765077  1
  F  F35  1  0.069468  0.971524  0.735177  1
