# generated using pymatgen
data_Na2PtO4
_symmetry_space_group_name_H-M   'P 1'
_cell_length_a   9.87065300
_cell_length_b   9.87065303
_cell_length_c   3.15070500
_cell_angle_alpha   90.00000000
_cell_angle_beta   90.00000000
_cell_angle_gamma   120.00000324
_symmetry_Int_Tables_number   1
_chemical_formula_structural   Na2PtO4
_chemical_formula_sum   'Na6 Pt3 O12'
_cell_volume   265.84600021
_cell_formula_units_Z   3
loop_
 _symmetry_equiv_pos_site_id
 _symmetry_equiv_pos_as_xyz
  1  'x, y, z'
loop_
 _atom_site_type_symbol
 _atom_site_label
 _atom_site_symmetry_multiplicity
 _atom_site_fract_x
 _atom_site_fract_y
 _atom_site_fract_z
 _atom_site_occupancy
  Na  Na0  1  0.000000  0.000000  0.000000  1
  Na  Na1  1  0.666667  0.333333  0.500000  1
  Na  Na2  1  0.333333  0.666667  0.500000  1
  Na  Na3  1  0.314999  0.314999  0.500000  1
  Na  Na4  1  0.685001  0.000000  0.500000  1
  Na  Na5  1  0.000000  0.685001  0.500000  1
  Pt  Pt6  1  0.676188  0.676188  0.000000  1
  Pt  Pt7  1  0.323812  0.000000  0.000000  1
  Pt  Pt8  1  0.000000  0.323812  0.000000  1
  O  O9  1  0.810900  0.810900  0.500000  1
  O  O10  1  0.189100  0.000000  0.500000  1
  O  O11  1  0.000000  0.189100  0.500000  1
  O  O12  1  0.548636  0.548636  0.500000  1
  O  O13  1  0.451364  0.000000  0.500000  1
  O  O14  1  0.000000  0.451364  0.500000  1
  O  O15  1  0.566872  0.789406  0.000000  1
  O  O16  1  0.210594  0.777467  0.000000  1
  O  O17  1  0.222533  0.433128  0.000000  1
  O  O18  1  0.789406  0.566872  0.000000  1
  O  O19  1  0.777467  0.210594  0.000000  1
  O  O20  1  0.433128  0.222533  0.000000  1
