# generated using pymatgen
data_Sr9Dy(PN5)2
_symmetry_space_group_name_H-M   'P 1'
_cell_length_a   7.49345302
_cell_length_b   7.49345267
_cell_length_c   8.56254440
_cell_angle_alpha   76.49828890
_cell_angle_beta   76.49828792
_cell_angle_gamma   95.33709893
_symmetry_Int_Tables_number   1
_chemical_formula_structural   Sr9Dy(PN5)2
_chemical_formula_sum   'Sr9 Dy1 P2 N10'
_cell_volume   449.02610566
_cell_formula_units_Z   1
loop_
 _symmetry_equiv_pos_site_id
 _symmetry_equiv_pos_as_xyz
  1  'x, y, z'
loop_
 _atom_site_type_symbol
 _atom_site_label
 _atom_site_symmetry_multiplicity
 _atom_site_fract_x
 _atom_site_fract_y
 _atom_site_fract_z
 _atom_site_occupancy
  Sr  Sr0  1  0.600016  0.600016  0.628983  1
  Sr  Sr1  1  0.677407  0.677407  0.998362  1
  Sr  Sr2  1  0.327413  0.327413  0.997005  1
  Sr  Sr3  1  0.925025  0.925025  0.200009  1
  Sr  Sr4  1  0.073268  0.073268  0.796083  1
  Sr  Sr5  1  0.551887  0.087989  0.758131  1
  Sr  Sr6  1  0.914888  0.444073  0.244349  1
  Sr  Sr7  1  0.444073  0.914888  0.244349  1
  Sr  Sr8  1  0.087989  0.551887  0.758131  1
  Dy  Dy9  1  0.421641  0.421641  0.358489  1
  P  P10  1  0.756152  0.242090  0.003904  1
  P  P11  1  0.242090  0.756152  0.003904  1
  N  N12  1  0.647478  0.647478  0.322159  1
  N  N13  1  0.341888  0.341888  0.645526  1
  N  N14  1  0.719712  0.023364  0.990891  1
  N  N15  1  0.975464  0.275612  0.018633  1
  N  N16  1  0.275612  0.975464  0.018633  1
  N  N17  1  0.023364  0.719712  0.990891  1
  N  N18  1  0.391674  0.726527  0.836251  1
  N  N19  1  0.274563  0.601870  0.174532  1
  N  N20  1  0.601870  0.274563  0.174532  1
  N  N21  1  0.726527  0.391674  0.836251  1
