# generated using pymatgen
data_K2Bi(BrO3)6
_symmetry_space_group_name_H-M   'P 1'
_cell_length_a   7.90075191
_cell_length_b   7.90075215
_cell_length_c   7.90075100
_cell_angle_alpha   96.35781970
_cell_angle_beta   96.35781990
_cell_angle_gamma   96.35779975
_symmetry_Int_Tables_number   1
_chemical_formula_structural   K2Bi(BrO3)6
_chemical_formula_sum   'K2 Bi1 Br6 O18'
_cell_volume   483.34029749
_cell_formula_units_Z   1
loop_
 _symmetry_equiv_pos_site_id
 _symmetry_equiv_pos_as_xyz
  1  'x, y, z'
loop_
 _atom_site_type_symbol
 _atom_site_label
 _atom_site_symmetry_multiplicity
 _atom_site_fract_x
 _atom_site_fract_y
 _atom_site_fract_z
 _atom_site_occupancy
  K  K0  1  0.174348  0.174348  0.174348  1
  K  K1  1  0.825652  0.825652  0.825652  1
  Bi  Bi2  1  0.500000  0.500000  0.500000  1
  Br  Br3  1  0.706145  0.311591  0.139543  1
  Br  Br4  1  0.688409  0.860457  0.293855  1
  Br  Br5  1  0.139543  0.706145  0.311591  1
  Br  Br6  1  0.860457  0.293855  0.688409  1
  Br  Br7  1  0.293855  0.688409  0.860457  1
  Br  Br8  1  0.311591  0.139543  0.706145  1
  O  O9  1  0.882088  0.356681  0.280948  1
  O  O10  1  0.643319  0.719052  0.117912  1
  O  O11  1  0.719052  0.117912  0.643319  1
  O  O12  1  0.691758  0.725844  0.460561  1
  O  O13  1  0.682189  0.103537  0.068297  1
  O  O14  1  0.460561  0.691758  0.725844  1
  O  O15  1  0.274156  0.539439  0.308242  1
  O  O16  1  0.308242  0.274156  0.539439  1
  O  O17  1  0.103537  0.068297  0.682189  1
  O  O18  1  0.931703  0.317811  0.896463  1
  O  O19  1  0.725844  0.460561  0.691758  1
  O  O20  1  0.117912  0.643319  0.719052  1
  O  O21  1  0.539439  0.308242  0.274156  1
  O  O22  1  0.317811  0.896463  0.931703  1
  O  O23  1  0.896463  0.931703  0.317811  1
  O  O24  1  0.356681  0.280948  0.882088  1
  O  O25  1  0.280948  0.882088  0.356681  1
  O  O26  1  0.068297  0.682189  0.103537  1
