# generated using pymatgen
data_Ti4In2CoCu3
_symmetry_space_group_name_H-M   'P 1'
_cell_length_a   6.94477452
_cell_length_b   6.94477378
_cell_length_c   6.42121327
_cell_angle_alpha   90.06610452
_cell_angle_beta   90.06610675
_cell_angle_gamma   90.87813019
_symmetry_Int_Tables_number   1
_chemical_formula_structural   Ti4In2CoCu3
_chemical_formula_sum   'Ti8 In4 Co2 Cu6'
_cell_volume   309.65760593
_cell_formula_units_Z   2
loop_
 _symmetry_equiv_pos_site_id
 _symmetry_equiv_pos_as_xyz
  1  'x, y, z'
loop_
 _atom_site_type_symbol
 _atom_site_label
 _atom_site_symmetry_multiplicity
 _atom_site_fract_x
 _atom_site_fract_y
 _atom_site_fract_z
 _atom_site_occupancy
  Ti  Ti0  1  0.151287  0.151287  0.011712  1
  Ti  Ti1  1  0.848713  0.848713  0.988288  1
  Ti  Ti2  1  0.642493  0.357507  0.500000  1
  Ti  Ti3  1  0.357507  0.642493  0.500000  1
  Ti  Ti4  1  0.677595  0.322405  0.000000  1
  Ti  Ti5  1  0.322405  0.677595  0.000000  1
  Ti  Ti6  1  0.800932  0.800932  0.511921  1
  Ti  Ti7  1  0.199068  0.199068  0.488079  1
  In  In8  1  0.501960  0.001912  0.248654  1
  In  In9  1  0.498040  0.998088  0.751346  1
  In  In10  1  0.001912  0.501960  0.248654  1
  In  In11  1  0.998088  0.498040  0.751346  1
  Co  Co12  1  0.376694  0.376694  0.222234  1
  Co  Co13  1  0.623306  0.623306  0.777766  1
  Cu  Cu14  1  0.630920  0.630920  0.200995  1
  Cu  Cu15  1  0.876373  0.126254  0.705007  1
  Cu  Cu16  1  0.873746  0.123627  0.294993  1
  Cu  Cu17  1  0.369080  0.369080  0.799005  1
  Cu  Cu18  1  0.123627  0.873746  0.294993  1
  Cu  Cu19  1  0.126254  0.876373  0.705007  1
