# generated using pymatgen
data_La4UP12Ru19
_symmetry_space_group_name_H-M   'P 1'
_cell_length_a   12.67030300
_cell_length_b   12.67030338
_cell_length_c   4.02564900
_cell_angle_alpha   90.00000000
_cell_angle_beta   90.00000000
_cell_angle_gamma   120.00000092
_symmetry_Int_Tables_number   1
_chemical_formula_structural   La4UP12Ru19
_chemical_formula_sum   'La4 U1 P12 Ru19'
_cell_volume   559.68097971
_cell_formula_units_Z   1
loop_
 _symmetry_equiv_pos_site_id
 _symmetry_equiv_pos_as_xyz
  1  'x, y, z'
loop_
 _atom_site_type_symbol
 _atom_site_label
 _atom_site_symmetry_multiplicity
 _atom_site_fract_x
 _atom_site_fract_y
 _atom_site_fract_z
 _atom_site_occupancy
  La  La0  1  0.185081  0.185151  0.500000  1
  La  La1  1  0.814849  0.999930  0.500000  1
  La  La2  1  0.000070  0.814919  0.500000  1
  La  La3  1  0.666667  0.333333  0.000000  1
  U  U4  1  0.333333  0.666667  0.000000  1
  P  P5  1  0.810421  0.811616  0.000000  1
  P  P6  1  0.188384  0.998806  0.000000  1
  P  P7  1  0.001194  0.189579  0.000000  1
  P  P8  1  0.173201  0.477021  0.500000  1
  P  P9  1  0.522979  0.696178  0.500000  1
  P  P10  1  0.303822  0.826799  0.500000  1
  P  P11  1  0.696069  0.524923  0.500000  1
  P  P12  1  0.828853  0.303931  0.500000  1
  P  P13  1  0.475077  0.171147  0.500000  1
  P  P14  1  0.376040  0.373097  0.000000  1
  P  P15  1  0.626903  0.002943  0.000000  1
  P  P16  1  0.997057  0.623960  0.000000  1
  Ru  Ru17  1  0.552250  0.554871  0.000000  1
  Ru  Ru18  1  0.445129  0.997379  0.000000  1
  Ru  Ru19  1  0.002621  0.447750  0.000000  1
  Ru  Ru20  1  0.712343  0.714283  0.500000  1
  Ru  Ru21  1  0.285717  0.998060  0.500000  1
  Ru  Ru22  1  0.001940  0.287657  0.500000  1
  Ru  Ru23  1  0.187872  0.385277  0.000000  1
  Ru  Ru24  1  0.614723  0.802595  0.000000  1
  Ru  Ru25  1  0.197405  0.812128  0.000000  1
  Ru  Ru26  1  0.804121  0.621654  0.000000  1
  Ru  Ru27  1  0.817533  0.195879  0.000000  1
  Ru  Ru28  1  0.378346  0.182467  0.000000  1
  Ru  Ru29  1  0.368077  0.499777  0.500000  1
  Ru  Ru30  1  0.500223  0.868301  0.500000  1
  Ru  Ru31  1  0.131699  0.631923  0.500000  1
  Ru  Ru32  1  0.878748  0.510135  0.500000  1
  Ru  Ru33  1  0.631388  0.121252  0.500000  1
  Ru  Ru34  1  0.489865  0.368612  0.500000  1
  Ru  Ru35  1  0.000000  0.000000  0.000000  1
