# generated using pymatgen
data_Tb8SbPd23Rh
_symmetry_space_group_name_H-M   'P 1'
_cell_length_a   8.40489500
_cell_length_b   8.40489500
_cell_length_c   8.41988000
_cell_angle_alpha   90.00000000
_cell_angle_beta   90.00000000
_cell_angle_gamma   90.00000000
_symmetry_Int_Tables_number   1
_chemical_formula_structural   Tb8SbPd23Rh
_chemical_formula_sum   'Tb8 Sb1 Pd23 Rh1'
_cell_volume   594.79935180
_cell_formula_units_Z   1
loop_
 _symmetry_equiv_pos_site_id
 _symmetry_equiv_pos_as_xyz
  1  'x, y, z'
loop_
 _atom_site_type_symbol
 _atom_site_label
 _atom_site_symmetry_multiplicity
 _atom_site_fract_x
 _atom_site_fract_y
 _atom_site_fract_z
 _atom_site_occupancy
  Tb  Tb0  1  0.748684  0.748684  0.254002  1
  Tb  Tb1  1  0.746276  0.253724  0.746013  1
  Tb  Tb2  1  0.253724  0.746276  0.746013  1
  Tb  Tb3  1  0.746276  0.746276  0.746013  1
  Tb  Tb4  1  0.748684  0.251316  0.254002  1
  Tb  Tb5  1  0.253724  0.253724  0.746013  1
  Tb  Tb6  1  0.251316  0.748684  0.254002  1
  Tb  Tb7  1  0.251316  0.251316  0.254002  1
  Sb  Sb8  1  0.000000  0.000000  0.004204  1
  Pd  Pd9  1  0.737022  0.000000  0.499311  1
  Pd  Pd10  1  0.735323  0.500000  0.000079  1
  Pd  Pd11  1  0.500000  0.000000  0.735449  1
  Pd  Pd12  1  0.000000  0.737022  0.499311  1
  Pd  Pd13  1  0.500000  0.000000  0.264679  1
  Pd  Pd14  1  0.000000  0.262978  0.499311  1
  Pd  Pd15  1  0.500000  0.735323  0.000079  1
  Pd  Pd16  1  0.254498  0.500000  0.500116  1
  Pd  Pd17  1  0.500000  0.500000  0.745769  1
  Pd  Pd18  1  0.500000  0.500000  0.254618  1
  Pd  Pd19  1  0.500000  0.254498  0.500116  1
  Pd  Pd20  1  0.500000  0.745502  0.500116  1
  Pd  Pd21  1  0.745502  0.500000  0.500116  1
  Pd  Pd22  1  0.306083  0.000000  0.999492  1
  Pd  Pd23  1  0.000000  0.000000  0.697514  1
  Pd  Pd24  1  0.000000  0.500000  0.264679  1
  Pd  Pd25  1  0.000000  0.306083  0.999492  1
  Pd  Pd26  1  0.000000  0.693917  0.999492  1
  Pd  Pd27  1  0.693917  0.000000  0.999492  1
  Pd  Pd28  1  0.264677  0.500000  0.000079  1
  Pd  Pd29  1  0.262978  0.000000  0.499311  1
  Pd  Pd30  1  0.000000  0.500000  0.735449  1
  Pd  Pd31  1  0.500000  0.264677  0.000079  1
  Rh  Rh32  1  0.000000  0.000000  0.301591  1
