# generated using pymatgen
data_CeSm2Th(Ni2Hg)2
_symmetry_space_group_name_H-M   'P 1'
_cell_length_a   7.52776232
_cell_length_b   7.52776362
_cell_length_c   3.69892800
_cell_angle_alpha   90.00000000
_cell_angle_beta   90.00000000
_cell_angle_gamma   92.44430797
_symmetry_Int_Tables_number   1
_chemical_formula_structural   CeSm2Th(Ni2Hg)2
_chemical_formula_sum   'Ce1 Sm2 Th1 Ni4 Hg2'
_cell_volume   209.41723727
_cell_formula_units_Z   1
loop_
 _symmetry_equiv_pos_site_id
 _symmetry_equiv_pos_as_xyz
  1  'x, y, z'
loop_
 _atom_site_type_symbol
 _atom_site_label
 _atom_site_symmetry_multiplicity
 _atom_site_fract_x
 _atom_site_fract_y
 _atom_site_fract_z
 _atom_site_occupancy
  Ce  Ce0  1  0.675075  0.675075  0.500000  1
  Sm  Sm1  1  0.173730  0.826363  0.500000  1
  Sm  Sm2  1  0.826363  0.173730  0.500000  1
  Th  Th3  1  0.325781  0.325781  0.500000  1
  Ni  Ni4  1  0.125223  0.125223  0.000000  1
  Ni  Ni5  1  0.873419  0.873419  0.000000  1
  Ni  Ni6  1  0.617185  0.384551  0.000000  1
  Ni  Ni7  1  0.384551  0.617185  0.000000  1
  Hg  Hg8  1  0.502744  0.995929  0.000000  1
  Hg  Hg9  1  0.995929  0.502744  0.000000  1
