# generated using pymatgen
data_Dy8NiHg2Ir
_symmetry_space_group_name_H-M   'P 1'
_cell_length_a   9.53774659
_cell_length_b   9.53774658
_cell_length_c   9.51255200
_cell_angle_alpha   60.08734387
_cell_angle_beta   60.08734390
_cell_angle_gamma   60.50055952
_symmetry_Int_Tables_number   1
_chemical_formula_structural   Dy8NiHg2Ir
_chemical_formula_sum   'Dy16 Ni2 Hg4 Ir2'
_cell_volume   614.98723644
_cell_formula_units_Z   2
loop_
 _symmetry_equiv_pos_site_id
 _symmetry_equiv_pos_as_xyz
  1  'x, y, z'
loop_
 _atom_site_type_symbol
 _atom_site_label
 _atom_site_symmetry_multiplicity
 _atom_site_fract_x
 _atom_site_fract_y
 _atom_site_fract_z
 _atom_site_occupancy
  Dy  Dy0  1  0.598560  0.598560  0.603552  1
  Dy  Dy1  1  0.598560  0.598560  0.199327  1
  Dy  Dy2  1  0.598965  0.196966  0.602035  1
  Dy  Dy3  1  0.196966  0.598965  0.602035  1
  Dy  Dy4  1  0.061970  0.440565  0.439236  1
  Dy  Dy5  1  0.440565  0.061970  0.058229  1
  Dy  Dy6  1  0.440565  0.061970  0.439236  1
  Dy  Dy7  1  0.061970  0.440565  0.058229  1
  Dy  Dy8  1  0.440303  0.440303  0.059697  1
  Dy  Dy9  1  0.060564  0.060564  0.439436  1
  Dy  Dy10  1  0.188330  0.814114  0.810363  1
  Dy  Dy11  1  0.814114  0.188330  0.187193  1
  Dy  Dy12  1  0.814114  0.188330  0.810363  1
  Dy  Dy13  1  0.188330  0.814114  0.187193  1
  Dy  Dy14  1  0.810979  0.810979  0.189021  1
  Dy  Dy15  1  0.186272  0.186272  0.813728  1
  Ni  Ni16  1  0.392104  0.392104  0.393637  1
  Ni  Ni17  1  0.392104  0.392104  0.822156  1
  Hg  Hg18  1  0.835012  0.835012  0.833821  1
  Hg  Hg19  1  0.835012  0.835012  0.496154  1
  Hg  Hg20  1  0.835555  0.494480  0.834983  1
  Hg  Hg21  1  0.494480  0.835555  0.834983  1
  Ir  Ir22  1  0.391944  0.822664  0.392696  1
  Ir  Ir23  1  0.822664  0.391944  0.392696  1
