# generated using pymatgen
data_ErLuGa(PRh2)6
_symmetry_space_group_name_H-M   'P 1'
_cell_length_a   9.65719100
_cell_length_b   9.65718875
_cell_length_c   3.86799200
_cell_angle_alpha   90.00000000
_cell_angle_beta   90.00000000
_cell_angle_gamma   119.99999744
_symmetry_Int_Tables_number   1
_chemical_formula_structural   ErLuGa(PRh2)6
_chemical_formula_sum   'Er1 Lu1 Ga1 P6 Rh12'
_cell_volume   312.40483788
_cell_formula_units_Z   1
loop_
 _symmetry_equiv_pos_site_id
 _symmetry_equiv_pos_as_xyz
  1  'x, y, z'
loop_
 _atom_site_type_symbol
 _atom_site_label
 _atom_site_symmetry_multiplicity
 _atom_site_fract_x
 _atom_site_fract_y
 _atom_site_fract_z
 _atom_site_occupancy
  Er  Er0  1  0.666667  0.333333  0.248784  1
  Lu  Lu1  1  0.333333  0.666667  0.751122  1
  Ga  Ga2  1  0.000000  0.000000  0.500384  1
  P  P3  1  0.403341  0.285367  0.749530  1
  P  P4  1  0.714633  0.117974  0.749530  1
  P  P5  1  0.882026  0.596659  0.749530  1
  P  P6  1  0.596161  0.714442  0.250490  1
  P  P7  1  0.285558  0.881719  0.250490  1
  P  P8  1  0.118281  0.403839  0.250490  1
  Rh  Rh9  1  0.452568  0.067091  0.750042  1
  Rh  Rh10  1  0.932909  0.385476  0.750042  1
  Rh  Rh11  1  0.614524  0.547432  0.750042  1
  Rh  Rh12  1  0.546069  0.930886  0.249984  1
  Rh  Rh13  1  0.069114  0.615184  0.249984  1
  Rh  Rh14  1  0.384816  0.453931  0.249984  1
  Rh  Rh15  1  0.157406  0.280473  0.752163  1
  Rh  Rh16  1  0.719527  0.876933  0.752163  1
  Rh  Rh17  1  0.123067  0.842594  0.752163  1
  Rh  Rh18  1  0.842671  0.719778  0.247694  1
  Rh  Rh19  1  0.280222  0.122893  0.247694  1
  Rh  Rh20  1  0.877107  0.157329  0.247694  1
