# generated using pymatgen
data_GdY3(CCl)2
_symmetry_space_group_name_H-M   'P 1'
_cell_length_a   3.66714800
_cell_length_b   3.66714772
_cell_length_c   13.68275700
_cell_angle_alpha   90.00000000
_cell_angle_beta   90.00000000
_cell_angle_gamma   120.00000256
_symmetry_Int_Tables_number   1
_chemical_formula_structural   GdY3(CCl)2
_chemical_formula_sum   'Gd1 Y3 C2 Cl2'
_cell_volume   159.35330547
_cell_formula_units_Z   1
loop_
 _symmetry_equiv_pos_site_id
 _symmetry_equiv_pos_as_xyz
  1  'x, y, z'
loop_
 _atom_site_type_symbol
 _atom_site_label
 _atom_site_symmetry_multiplicity
 _atom_site_fract_x
 _atom_site_fract_y
 _atom_site_fract_z
 _atom_site_occupancy
  Gd  Gd0  1  0.333333  0.666667  0.405535  1
  Y  Y1  1  0.333333  0.666667  0.093757  1
  Y  Y2  1  0.666667  0.333333  0.594756  1
  Y  Y3  1  0.666667  0.333333  0.906869  1
  C  C4  1  0.000000  0.000000  0.000182  1
  C  C5  1  0.000000  0.000000  0.501604  1
  Cl  Cl6  1  0.333333  0.666667  0.750382  1
  Cl  Cl7  1  0.666667  0.333333  0.246915  1
