# generated using pymatgen
data_Mn6Nb4RuPt
_symmetry_space_group_name_H-M   'P 1'
_cell_length_a   4.83295400
_cell_length_b   4.83295492
_cell_length_c   8.25063000
_cell_angle_alpha   90.00000000
_cell_angle_beta   90.00000000
_cell_angle_gamma   119.99999371
_symmetry_Int_Tables_number   1
_chemical_formula_structural   Mn6Nb4RuPt
_chemical_formula_sum   'Mn6 Nb4 Ru1 Pt1'
_cell_volume   166.89494258
_cell_formula_units_Z   1
loop_
 _symmetry_equiv_pos_site_id
 _symmetry_equiv_pos_as_xyz
  1  'x, y, z'
loop_
 _atom_site_type_symbol
 _atom_site_label
 _atom_site_symmetry_multiplicity
 _atom_site_fract_x
 _atom_site_fract_y
 _atom_site_fract_z
 _atom_site_occupancy
  Mn  Mn0  1  0.178601  0.357203  0.251783  1
  Mn  Mn1  1  0.178601  0.821399  0.251783  1
  Mn  Mn2  1  0.642798  0.821399  0.251783  1
  Mn  Mn3  1  0.357204  0.178602  0.748217  1
  Mn  Mn4  1  0.821399  0.178602  0.748217  1
  Mn  Mn5  1  0.821399  0.642796  0.748217  1
  Nb  Nb6  1  0.666667  0.333334  0.072958  1
  Nb  Nb7  1  0.666667  0.333334  0.431155  1
  Nb  Nb8  1  0.333334  0.666668  0.568846  1
  Nb  Nb9  1  0.333334  0.666668  0.927042  1
  Ru  Ru10  1  0.000000  0.000000  0.500000  1
  Pt  Pt11  1  0.000000  0.000000  0.000000  1
