# generated using pymatgen
data_Tb3Ho5(Sc3Ga4)4
_symmetry_space_group_name_H-M   'P 1'
_cell_length_a   7.27364905
_cell_length_b   7.57197606
_cell_length_c   14.45873617
_cell_angle_alpha   90.01280099
_cell_angle_beta   90.01232560
_cell_angle_gamma   90.00588887
_symmetry_Int_Tables_number   1
_chemical_formula_structural   Tb3Ho5(Sc3Ga4)4
_chemical_formula_sum   'Tb3 Ho5 Sc12 Ga16'
_cell_volume   796.32781406
_cell_formula_units_Z   1
loop_
 _symmetry_equiv_pos_site_id
 _symmetry_equiv_pos_as_xyz
  1  'x, y, z'
loop_
 _atom_site_type_symbol
 _atom_site_label
 _atom_site_symmetry_multiplicity
 _atom_site_fract_x
 _atom_site_fract_y
 _atom_site_fract_z
 _atom_site_occupancy
  Tb  Tb0  1  0.011021  0.180187  0.094402  1
  Tb  Tb1  1  0.988946  0.819935  0.905614  1
  Tb  Tb2  1  0.488941  0.680021  0.905698  1
  Ho  Ho3  1  0.988974  0.819692  0.594412  1
  Ho  Ho4  1  0.511045  0.319645  0.094477  1
  Ho  Ho5  1  0.011023  0.180292  0.405536  1
  Ho  Ho6  1  0.511054  0.319715  0.405580  1
  Ho  Ho7  1  0.488962  0.680306  0.594411  1
  Sc  Sc8  1  0.162233  0.503019  0.749856  1
  Sc  Sc9  1  0.837674  0.496880  0.250066  1
  Sc  Sc10  1  0.337887  0.003165  0.250072  1
  Sc  Sc11  1  0.662177  0.997030  0.749853  1
  Sc  Sc12  1  0.329605  0.172227  0.624564  1
  Sc  Sc13  1  0.670370  0.827769  0.375394  1
  Sc  Sc14  1  0.170399  0.672254  0.375422  1
  Sc  Sc15  1  0.670240  0.827728  0.124717  1
  Sc  Sc16  1  0.829630  0.327736  0.624553  1
  Sc  Sc17  1  0.329784  0.172303  0.875363  1
  Sc  Sc18  1  0.829662  0.327714  0.875315  1
  Sc  Sc19  1  0.170454  0.672197  0.124718  1
  Ga  Ga20  1  0.030205  0.116406  0.749933  1
  Ga  Ga21  1  0.969789  0.883602  0.250064  1
  Ga  Ga22  1  0.469804  0.616278  0.250009  1
  Ga  Ga23  1  0.530206  0.383581  0.749937  1
  Ga  Ga24  1  0.283165  0.871013  0.749762  1
  Ga  Ga25  1  0.716662  0.129151  0.250132  1
  Ga  Ga26  1  0.217014  0.370953  0.250111  1
  Ga  Ga27  1  0.783184  0.628988  0.749788  1
  Ga  Ga28  1  0.162284  0.465078  0.540547  1
  Ga  Ga29  1  0.837735  0.534886  0.459457  1
  Ga  Ga30  1  0.337728  0.965063  0.459442  1
  Ga  Ga31  1  0.837673  0.534999  0.040596  1
  Ga  Ga32  1  0.662271  0.034917  0.540550  1
  Ga  Ga33  1  0.162168  0.464791  0.959502  1
  Ga  Ga34  1  0.661925  0.035371  0.959559  1
  Ga  Ga35  1  0.338105  0.965110  0.040585  1
