# generated using pymatgen
data_Y10Ga3TcBi2
_symmetry_space_group_name_H-M   'P 1'
_cell_length_a   8.77097098
_cell_length_b   8.77100011
_cell_length_c   8.87851065
_cell_angle_alpha   125.90013147
_cell_angle_beta   125.90036944
_cell_angle_gamma   79.21586731
_symmetry_Int_Tables_number   1
_chemical_formula_structural   Y10Ga3TcBi2
_chemical_formula_sum   'Y10 Ga3 Tc1 Bi2'
_cell_volume   435.20398912
_cell_formula_units_Z   1
loop_
 _symmetry_equiv_pos_site_id
 _symmetry_equiv_pos_as_xyz
  1  'x, y, z'
loop_
 _atom_site_type_symbol
 _atom_site_label
 _atom_site_symmetry_multiplicity
 _atom_site_fract_x
 _atom_site_fract_y
 _atom_site_fract_z
 _atom_site_occupancy
  Y  Y0  1  0.004060  0.006779  0.010838  1
  Y  Y1  1  0.493220  0.495940  0.989163  1
  Y  Y2  1  0.016051  0.503202  0.802179  1
  Y  Y3  1  0.713876  0.201032  0.197843  1
  Y  Y4  1  0.519372  0.704855  0.499992  1
  Y  Y5  1  0.193272  0.038466  0.499993  1
  Y  Y6  1  0.996798  0.483951  0.197826  1
  Y  Y7  1  0.298972  0.786128  0.802161  1
  Y  Y8  1  0.461530  0.306729  0.500005  1
  Y  Y9  1  0.795139  0.980630  0.500002  1
  Ga  Ga10  1  0.361016  0.855308  0.216312  1
  Ga  Ga11  1  0.644688  0.138979  0.783684  1
  Ga  Ga12  1  0.867421  0.632583  0.500002  1
  Tc  Tc13  1  0.124332  0.375672  0.500004  1
  Bi  Bi14  1  0.755126  0.744870  0.999999  1
  Bi  Bi15  1  0.255126  0.244873  0.999998  1
