# generated using pymatgen
data_LaTePdO6
_symmetry_space_group_name_H-M   'P 1'
_cell_length_a   5.32309749
_cell_length_b   5.45276945
_cell_length_c   10.41906915
_cell_angle_alpha   91.07180771
_cell_angle_beta   89.44970567
_cell_angle_gamma   120.82934528
_symmetry_Int_Tables_number   1
_chemical_formula_structural   LaTePdO6
_chemical_formula_sum   'La2 Te2 Pd2 O12'
_cell_volume   259.64185156
_cell_formula_units_Z   2
loop_
 _symmetry_equiv_pos_site_id
 _symmetry_equiv_pos_as_xyz
  1  'x, y, z'
loop_
 _atom_site_type_symbol
 _atom_site_label
 _atom_site_symmetry_multiplicity
 _atom_site_fract_x
 _atom_site_fract_y
 _atom_site_fract_z
 _atom_site_occupancy
  La  La0  1  0.000000  0.000000  0.000000  1
  La  La1  1  0.000001  0.000000  0.500000  1
  Te  Te2  1  0.662276  0.331313  0.249989  1
  Te  Te3  1  0.337724  0.668688  0.750011  1
  Pd  Pd4  1  0.332014  0.666100  0.249903  1
  Pd  Pd5  1  0.667986  0.333899  0.750097  1
  O  O6  1  0.648381  0.628177  0.148171  1
  O  O7  1  0.987613  0.359304  0.144715  1
  O  O8  1  0.381151  0.037795  0.136038  1
  O  O9  1  0.987623  0.628722  0.355289  1
  O  O10  1  0.381319  0.343746  0.364000  1
  O  O11  1  0.648178  0.020330  0.351778  1
  O  O12  1  0.351823  0.979671  0.648223  1
  O  O13  1  0.618682  0.656254  0.636000  1
  O  O14  1  0.012378  0.371279  0.644711  1
  O  O15  1  0.618849  0.962206  0.863963  1
  O  O16  1  0.012388  0.640697  0.855286  1
  O  O17  1  0.351620  0.371824  0.851828  1
