# generated using pymatgen
data_Dy9Tm5(LuBi2)6
_symmetry_space_group_name_H-M   'P 1'
_cell_length_a   8.19170283
_cell_length_b   9.43823219
_cell_length_c   11.98749091
_cell_angle_alpha   89.99475244
_cell_angle_beta   89.90769942
_cell_angle_gamma   90.00052963
_symmetry_Int_Tables_number   1
_chemical_formula_structural   Dy9Tm5(LuBi2)6
_chemical_formula_sum   'Dy9 Tm5 Lu6 Bi12'
_cell_volume   926.81397114
_cell_formula_units_Z   1
loop_
 _symmetry_equiv_pos_site_id
 _symmetry_equiv_pos_as_xyz
  1  'x, y, z'
loop_
 _atom_site_type_symbol
 _atom_site_label
 _atom_site_symmetry_multiplicity
 _atom_site_fract_x
 _atom_site_fract_y
 _atom_site_fract_z
 _atom_site_occupancy
  Dy  Dy0  1  0.525245  0.249973  0.988125  1
  Dy  Dy1  1  0.354282  0.250008  0.283457  1
  Dy  Dy2  1  0.645382  0.750353  0.716940  1
  Dy  Dy3  1  0.144871  0.750218  0.783009  1
  Dy  Dy4  1  0.855180  0.250073  0.216716  1
  Dy  Dy5  1  0.187109  0.249920  0.781431  1
  Dy  Dy6  1  0.813322  0.750195  0.218134  1
  Dy  Dy7  1  0.313286  0.750180  0.281869  1
  Dy  Dy8  1  0.686770  0.249994  0.718183  1
  Tm  Tm9  1  0.807913  0.565640  0.940927  1
  Tm  Tm10  1  0.693434  0.065520  0.441158  1
  Tm  Tm11  1  0.191754  0.434721  0.059077  1
  Tm  Tm12  1  0.692773  0.434266  0.441233  1
  Tm  Tm13  1  0.307200  0.565418  0.558941  1
  Lu  Lu14  1  0.024530  0.250159  0.511109  1
  Lu  Lu15  1  0.975936  0.750085  0.488982  1
  Lu  Lu16  1  0.475562  0.750162  0.010929  1
  Lu  Lu17  1  0.193235  0.066086  0.059882  1
  Lu  Lu18  1  0.806762  0.933635  0.940137  1
  Lu  Lu19  1  0.306591  0.933553  0.559701  1
  Bi  Bi20  1  0.404762  0.248520  0.542820  1
  Bi  Bi21  1  0.595090  0.750215  0.457735  1
  Bi  Bi22  1  0.095536  0.751768  0.042742  1
  Bi  Bi23  1  0.907258  0.248232  0.957251  1
  Bi  Bi24  1  0.066048  0.004003  0.328301  1
  Bi  Bi25  1  0.933752  0.996144  0.671607  1
  Bi  Bi26  1  0.432444  0.994613  0.827069  1
  Bi  Bi27  1  0.933564  0.504245  0.671630  1
  Bi  Bi28  1  0.565741  0.003024  0.172879  1
  Bi  Bi29  1  0.066299  0.496240  0.328280  1
  Bi  Bi30  1  0.566088  0.497167  0.172769  1
  Bi  Bi31  1  0.432281  0.505669  0.826976  1
