# generated using pymatgen
data_HoErTm4(Co3P2)6
_symmetry_space_group_name_H-M   'P 1'
_cell_length_a   3.68265100
_cell_length_b   10.48063300
_cell_length_c   12.12293200
_cell_angle_alpha   90.00000000
_cell_angle_beta   90.00000000
_cell_angle_gamma   90.00000000
_symmetry_Int_Tables_number   1
_chemical_formula_structural   HoErTm4(Co3P2)6
_chemical_formula_sum   'Ho1 Er1 Tm4 Co18 P12'
_cell_volume   467.90290979
_cell_formula_units_Z   1
loop_
 _symmetry_equiv_pos_site_id
 _symmetry_equiv_pos_as_xyz
  1  'x, y, z'
loop_
 _atom_site_type_symbol
 _atom_site_label
 _atom_site_symmetry_multiplicity
 _atom_site_fract_x
 _atom_site_fract_y
 _atom_site_fract_z
 _atom_site_occupancy
  Ho  Ho0  1  0.750000  0.250000  0.477467  1
  Er  Er1  1  0.250000  0.750000  0.522457  1
  Tm  Tm2  1  0.250000  0.932196  0.793988  1
  Tm  Tm3  1  0.250000  0.567804  0.793988  1
  Tm  Tm4  1  0.750000  0.067650  0.206034  1
  Tm  Tm5  1  0.750000  0.432350  0.206034  1
  Co  Co6  1  0.250000  0.250000  0.841021  1
  Co  Co7  1  0.750000  0.750000  0.159071  1
  Co  Co8  1  0.250000  0.250000  0.296694  1
  Co  Co9  1  0.750000  0.750000  0.703093  1
  Co  Co10  1  0.750000  0.250000  0.014442  1
  Co  Co11  1  0.250000  0.750000  0.985524  1
  Co  Co12  1  0.250000  0.416853  0.005817  1
  Co  Co13  1  0.250000  0.083147  0.005817  1
  Co  Co14  1  0.750000  0.583274  0.994188  1
  Co  Co15  1  0.750000  0.916726  0.994188  1
  Co  Co16  1  0.250000  0.452856  0.569538  1
  Co  Co17  1  0.250000  0.047144  0.569538  1
  Co  Co18  1  0.750000  0.547446  0.430467  1
  Co  Co19  1  0.750000  0.952554  0.430467  1
  Co  Co20  1  0.250000  0.871424  0.290243  1
  Co  Co21  1  0.250000  0.628576  0.290243  1
  Co  Co22  1  0.750000  0.128481  0.709830  1
  Co  Co23  1  0.750000  0.371519  0.709830  1
  P  P24  1  0.250000  0.250000  0.118370  1
  P  P25  1  0.750000  0.750000  0.881577  1
  P  P26  1  0.250000  0.250000  0.655848  1
  P  P27  1  0.750000  0.750000  0.344429  1
  P  P28  1  0.250000  0.438726  0.383280  1
  P  P29  1  0.250000  0.061274  0.383280  1
  P  P30  1  0.750000  0.561518  0.616626  1
  P  P31  1  0.750000  0.938482  0.616626  1
  P  P32  1  0.250000  0.902999  0.107416  1
  P  P33  1  0.250000  0.597001  0.107416  1
  P  P34  1  0.750000  0.096919  0.892577  1
  P  P35  1  0.750000  0.403081  0.892577  1
