# generated using pymatgen
data_Tb7Sn23(Os2Ru)2
_symmetry_space_group_name_H-M   'P 1'
_cell_length_a   9.86612379
_cell_length_b   9.87492806
_cell_length_c   10.14909408
_cell_angle_alpha   89.99999994
_cell_angle_beta   89.83386086
_cell_angle_gamma   120.02953644
_symmetry_Int_Tables_number   1
_chemical_formula_structural   Tb7Sn23(Os2Ru)2
_chemical_formula_sum   'Tb7 Sn23 Os4 Ru2'
_cell_volume   856.06479916
_cell_formula_units_Z   1
loop_
 _symmetry_equiv_pos_site_id
 _symmetry_equiv_pos_as_xyz
  1  'x, y, z'
loop_
 _atom_site_type_symbol
 _atom_site_label
 _atom_site_symmetry_multiplicity
 _atom_site_fract_x
 _atom_site_fract_y
 _atom_site_fract_z
 _atom_site_occupancy
  Tb  Tb0  1  0.000000  0.000000  0.000000  1
  Tb  Tb1  1  0.484649  0.515998  0.302395  1
  Tb  Tb2  1  0.515351  0.484002  0.697605  1
  Tb  Tb3  1  0.484649  0.968651  0.302395  1
  Tb  Tb4  1  0.515351  0.031349  0.697605  1
  Tb  Tb5  1  0.031118  0.515559  0.302131  1
  Tb  Tb6  1  0.968882  0.484441  0.697869  1
  Sn  Sn7  1  0.349296  0.000135  0.000926  1
  Sn  Sn8  1  0.650704  0.999865  0.999074  1
  Sn  Sn9  1  0.000000  0.349483  0.000000  1
  Sn  Sn10  1  0.000000  0.650517  0.000000  1
  Sn  Sn11  1  0.650704  0.650839  0.999074  1
  Sn  Sn12  1  0.349296  0.349161  0.000926  1
  Sn  Sn13  1  0.333480  0.666740  0.822847  1
  Sn  Sn14  1  0.666520  0.333260  0.177153  1
  Sn  Sn15  1  0.000000  0.000000  0.500000  1
  Sn  Sn16  1  0.780295  0.219018  0.462891  1
  Sn  Sn17  1  0.219705  0.780982  0.537109  1
  Sn  Sn18  1  0.780295  0.561277  0.462891  1
  Sn  Sn19  1  0.219705  0.438723  0.537109  1
  Sn  Sn20  1  0.438874  0.219437  0.462233  1
  Sn  Sn21  1  0.561126  0.780563  0.537767  1
  Sn  Sn22  1  0.333655  0.666828  0.127224  1
  Sn  Sn23  1  0.666345  0.333172  0.872776  1
  Sn  Sn24  1  0.118379  0.882557  0.273788  1
  Sn  Sn25  1  0.881621  0.117443  0.726212  1
  Sn  Sn26  1  0.118379  0.235822  0.273788  1
  Sn  Sn27  1  0.881621  0.764178  0.726212  1
  Sn  Sn28  1  0.764501  0.882251  0.275068  1
  Sn  Sn29  1  0.235499  0.117749  0.724932  1
  Os  Os30  1  0.829385  0.169607  0.202325  1
  Os  Os31  1  0.170615  0.830393  0.797675  1
  Os  Os32  1  0.829385  0.659777  0.202325  1
  Os  Os33  1  0.170615  0.340223  0.797675  1
  Ru  Ru34  1  0.339579  0.169789  0.202186  1
  Ru  Ru35  1  0.660421  0.830211  0.797814  1
