# generated using pymatgen
data_Pr5SnBi2N
_symmetry_space_group_name_H-M   'P 1'
_cell_length_a   9.44293840
_cell_length_b   9.44293853
_cell_length_c   6.66521000
_cell_angle_alpha   90.00000000
_cell_angle_beta   90.00000000
_cell_angle_gamma   119.90271495
_symmetry_Int_Tables_number   1
_chemical_formula_structural   Pr5SnBi2N
_chemical_formula_sum   'Pr10 Sn2 Bi4 N2'
_cell_volume   515.20930362
_cell_formula_units_Z   2
loop_
 _symmetry_equiv_pos_site_id
 _symmetry_equiv_pos_as_xyz
  1  'x, y, z'
loop_
 _atom_site_type_symbol
 _atom_site_label
 _atom_site_symmetry_multiplicity
 _atom_site_fract_x
 _atom_site_fract_y
 _atom_site_fract_z
 _atom_site_occupancy
  Pr  Pr0  1  0.667701  0.330706  0.002470  1
  Pr  Pr1  1  0.330706  0.667701  0.002470  1
  Pr  Pr2  1  0.330706  0.667701  0.497530  1
  Pr  Pr3  1  0.667701  0.330706  0.497530  1
  Pr  Pr4  1  0.787833  0.787833  0.750000  1
  Pr  Pr5  1  0.216596  0.000589  0.750000  1
  Pr  Pr6  1  0.000589  0.216596  0.750000  1
  Pr  Pr7  1  0.211992  0.211992  0.250000  1
  Pr  Pr8  1  0.786046  0.003669  0.250000  1
  Pr  Pr9  1  0.003669  0.786046  0.250000  1
  Sn  Sn10  1  0.401119  0.000635  0.250000  1
  Sn  Sn11  1  0.000635  0.401119  0.250000  1
  Bi  Bi12  1  0.399672  0.399672  0.750000  1
  Bi  Bi13  1  0.598947  0.999017  0.750000  1
  Bi  Bi14  1  0.999017  0.598947  0.750000  1
  Bi  Bi15  1  0.599623  0.599623  0.250000  1
  N  N16  1  0.998724  0.998724  0.999656  1
  N  N17  1  0.998724  0.998724  0.500344  1
