# generated using pymatgen
data_Yb5SiBi2
_symmetry_space_group_name_H-M   'P 1'
_cell_length_a   8.08870600
_cell_length_b   9.58057000
_cell_length_c   12.82582800
_cell_angle_alpha   90.00000000
_cell_angle_beta   90.00000000
_cell_angle_gamma   90.00000000
_symmetry_Int_Tables_number   1
_chemical_formula_structural   Yb5SiBi2
_chemical_formula_sum   'Yb20 Si4 Bi8'
_cell_volume   993.93002547
_cell_formula_units_Z   4
loop_
 _symmetry_equiv_pos_site_id
 _symmetry_equiv_pos_as_xyz
  1  'x, y, z'
loop_
 _atom_site_type_symbol
 _atom_site_label
 _atom_site_symmetry_multiplicity
 _atom_site_fract_x
 _atom_site_fract_y
 _atom_site_fract_z
 _atom_site_occupancy
  Yb  Yb0  1  0.824713  0.529031  0.072710  1
  Yb  Yb1  1  0.828104  0.250000  0.782793  1
  Yb  Yb2  1  0.059891  0.750000  0.500134  1
  Yb  Yb3  1  0.357694  0.250000  0.696757  1
  Yb  Yb4  1  0.175287  0.029031  0.927290  1
  Yb  Yb5  1  0.559891  0.250000  0.999866  1
  Yb  Yb6  1  0.857694  0.750000  0.803243  1
  Yb  Yb7  1  0.328104  0.750000  0.717207  1
  Yb  Yb8  1  0.324713  0.470969  0.427290  1
  Yb  Yb9  1  0.671896  0.250000  0.282793  1
  Yb  Yb10  1  0.440109  0.750000  0.000134  1
  Yb  Yb11  1  0.675287  0.529031  0.572710  1
  Yb  Yb12  1  0.940109  0.250000  0.499866  1
  Yb  Yb13  1  0.142306  0.250000  0.196757  1
  Yb  Yb14  1  0.171896  0.750000  0.217207  1
  Yb  Yb15  1  0.175287  0.470969  0.927290  1
  Yb  Yb16  1  0.824713  0.970969  0.072710  1
  Yb  Yb17  1  0.675287  0.970969  0.572710  1
  Yb  Yb18  1  0.324713  0.029031  0.427290  1
  Yb  Yb19  1  0.642306  0.750000  0.303243  1
  Si  Si20  1  0.438159  0.750000  0.490909  1
  Si  Si21  1  0.561841  0.250000  0.509091  1
  Si  Si22  1  0.061841  0.750000  0.990909  1
  Si  Si23  1  0.938159  0.250000  0.009091  1
  Bi  Bi24  1  0.060689  0.008224  0.668948  1
  Bi  Bi25  1  0.939311  0.991776  0.331052  1
  Bi  Bi26  1  0.060689  0.491776  0.668948  1
  Bi  Bi27  1  0.560689  0.991776  0.831052  1
  Bi  Bi28  1  0.439311  0.008224  0.168948  1
  Bi  Bi29  1  0.439311  0.491776  0.168948  1
  Bi  Bi30  1  0.560689  0.508224  0.831052  1
  Bi  Bi31  1  0.939311  0.508224  0.331052  1
