# generated using pymatgen
data_GeB2Mo2Ru5
_symmetry_space_group_name_H-M   'P 1'
_cell_length_a   9.35219200
_cell_length_b   9.35219200
_cell_length_c   2.90255000
_cell_angle_alpha   90.00000000
_cell_angle_beta   90.00000000
_cell_angle_gamma   90.00000000
_symmetry_Int_Tables_number   1
_chemical_formula_structural   GeB2Mo2Ru5
_chemical_formula_sum   'Ge2 B4 Mo4 Ru10'
_cell_volume   253.86716801
_cell_formula_units_Z   2
loop_
 _symmetry_equiv_pos_site_id
 _symmetry_equiv_pos_as_xyz
  1  'x, y, z'
loop_
 _atom_site_type_symbol
 _atom_site_label
 _atom_site_symmetry_multiplicity
 _atom_site_fract_x
 _atom_site_fract_y
 _atom_site_fract_z
 _atom_site_occupancy
  Ge  Ge0  1  0.000000  0.000000  0.000000  1
  Ge  Ge1  1  0.500000  0.500000  0.000000  1
  B  B2  1  0.124819  0.624819  0.000000  1
  B  B3  1  0.875181  0.375181  0.000000  1
  B  B4  1  0.624819  0.875181  0.000000  1
  B  B5  1  0.375181  0.124819  0.000000  1
  Mo  Mo6  1  0.677244  0.177244  0.000000  1
  Mo  Mo7  1  0.322756  0.822756  0.000000  1
  Mo  Mo8  1  0.177244  0.322756  0.000000  1
  Mo  Mo9  1  0.822756  0.677244  0.000000  1
  Ru  Ru10  1  0.213884  0.068224  0.500000  1
  Ru  Ru11  1  0.786116  0.931776  0.500000  1
  Ru  Ru12  1  0.068224  0.786116  0.500000  1
  Ru  Ru13  1  0.713884  0.431776  0.500000  1
  Ru  Ru14  1  0.931776  0.213884  0.500000  1
  Ru  Ru15  1  0.286116  0.568224  0.500000  1
  Ru  Ru16  1  0.568224  0.713884  0.500000  1
  Ru  Ru17  1  0.431776  0.286116  0.500000  1
  Ru  Ru18  1  0.500000  0.000000  0.500000  1
  Ru  Ru19  1  0.000000  0.500000  0.500000  1
