# generated using pymatgen
data_BaSiPdS4
_symmetry_space_group_name_H-M   'P 1'
_cell_length_a   8.52900000
_cell_length_b   8.52900000
_cell_length_c   10.72913100
_cell_angle_alpha   90.00000000
_cell_angle_beta   90.00000000
_cell_angle_gamma   90.00000000
_symmetry_Int_Tables_number   1
_chemical_formula_structural   BaSiPdS4
_chemical_formula_sum   'Ba4 Si4 Pd4 S16'
_cell_volume   780.47819953
_cell_formula_units_Z   4
loop_
 _symmetry_equiv_pos_site_id
 _symmetry_equiv_pos_as_xyz
  1  'x, y, z'
loop_
 _atom_site_type_symbol
 _atom_site_label
 _atom_site_symmetry_multiplicity
 _atom_site_fract_x
 _atom_site_fract_y
 _atom_site_fract_z
 _atom_site_occupancy
  Ba  Ba0  1  0.000000  0.500000  0.750000  1
  Ba  Ba1  1  0.500000  0.000000  0.750000  1
  Ba  Ba2  1  0.500000  0.000000  0.250000  1
  Ba  Ba3  1  0.000000  0.500000  0.250000  1
  Si  Si4  1  0.748280  0.748280  0.000000  1
  Si  Si5  1  0.251720  0.251720  0.000000  1
  Si  Si6  1  0.248280  0.751720  0.500000  1
  Si  Si7  1  0.751720  0.248280  0.500000  1
  Pd  Pd8  1  0.500000  0.500000  0.500000  1
  Pd  Pd9  1  0.000000  0.000000  0.000000  1
  Pd  Pd10  1  0.500000  0.500000  0.000000  1
  Pd  Pd11  1  0.000000  0.000000  0.500000  1
  S  S12  1  0.359731  0.359731  0.156382  1
  S  S13  1  0.640269  0.640269  0.156382  1
  S  S14  1  0.140269  0.859731  0.343618  1
  S  S15  1  0.859731  0.140269  0.343618  1
  S  S16  1  0.640269  0.640269  0.843618  1
  S  S17  1  0.359731  0.359731  0.843618  1
  S  S18  1  0.140269  0.859731  0.656382  1
  S  S19  1  0.859731  0.140269  0.656382  1
  S  S20  1  0.502252  0.222424  0.500000  1
  S  S21  1  0.497748  0.777576  0.500000  1
  S  S22  1  0.997748  0.722424  0.000000  1
  S  S23  1  0.002252  0.277576  0.000000  1
  S  S24  1  0.777576  0.497748  0.500000  1
  S  S25  1  0.222424  0.502252  0.500000  1
  S  S26  1  0.277576  0.002252  0.000000  1
  S  S27  1  0.722424  0.997748  0.000000  1
