# generated using pymatgen
data_YbY19(Cd3Ir)2
_symmetry_space_group_name_H-M   'P 1'
_cell_length_a   9.68682900
_cell_length_b   9.68682875
_cell_length_c   9.84586900
_cell_angle_alpha   90.00000000
_cell_angle_beta   90.00000000
_cell_angle_gamma   119.99999743
_symmetry_Int_Tables_number   1
_chemical_formula_structural   YbY19(Cd3Ir)2
_chemical_formula_sum   'Yb1 Y19 Cd6 Ir2'
_cell_volume   800.10678189
_cell_formula_units_Z   1
loop_
 _symmetry_equiv_pos_site_id
 _symmetry_equiv_pos_as_xyz
  1  'x, y, z'
loop_
 _atom_site_type_symbol
 _atom_site_label
 _atom_site_symmetry_multiplicity
 _atom_site_fract_x
 _atom_site_fract_y
 _atom_site_fract_z
 _atom_site_occupancy
  Yb  Yb0  1  0.000000  0.000000  0.500000  1
  Y  Y1  1  0.000000  0.000000  0.000000  1
  Y  Y2  1  0.209901  0.790099  0.439569  1
  Y  Y3  1  0.209901  0.419803  0.439569  1
  Y  Y4  1  0.580197  0.790099  0.439569  1
  Y  Y5  1  0.790099  0.209901  0.560431  1
  Y  Y6  1  0.790099  0.580197  0.560431  1
  Y  Y7  1  0.419803  0.209901  0.560431  1
  Y  Y8  1  0.790354  0.209646  0.941041  1
  Y  Y9  1  0.790354  0.580706  0.941041  1
  Y  Y10  1  0.419294  0.209646  0.941041  1
  Y  Y11  1  0.209646  0.790354  0.058959  1
  Y  Y12  1  0.209646  0.419294  0.058959  1
  Y  Y13  1  0.580706  0.790354  0.058959  1
  Y  Y14  1  0.541612  0.458388  0.251080  1
  Y  Y15  1  0.541612  0.083225  0.251080  1
  Y  Y16  1  0.916775  0.458388  0.251080  1
  Y  Y17  1  0.458388  0.541612  0.748920  1
  Y  Y18  1  0.458388  0.916775  0.748920  1
  Y  Y19  1  0.083225  0.541612  0.748920  1
  Cd  Cd20  1  0.885033  0.114967  0.250214  1
  Cd  Cd21  1  0.885033  0.770066  0.250214  1
  Cd  Cd22  1  0.229934  0.114967  0.250214  1
  Cd  Cd23  1  0.114967  0.885033  0.749786  1
  Cd  Cd24  1  0.114967  0.229934  0.749786  1
  Cd  Cd25  1  0.770066  0.885033  0.749786  1
  Ir  Ir26  1  0.333333  0.666667  0.250445  1
  Ir  Ir27  1  0.666667  0.333333  0.749555  1
