# generated using pymatgen
data_Y2TaB2Ru5
_symmetry_space_group_name_H-M   'P 1'
_cell_length_a   9.70534800
_cell_length_b   9.70534800
_cell_length_c   3.12969000
_cell_angle_alpha   90.00000000
_cell_angle_beta   90.00000000
_cell_angle_gamma   90.00000000
_symmetry_Int_Tables_number   1
_chemical_formula_structural   Y2TaB2Ru5
_chemical_formula_sum   'Y4 Ta2 B4 Ru10'
_cell_volume   294.79733071
_cell_formula_units_Z   2
loop_
 _symmetry_equiv_pos_site_id
 _symmetry_equiv_pos_as_xyz
  1  'x, y, z'
loop_
 _atom_site_type_symbol
 _atom_site_label
 _atom_site_symmetry_multiplicity
 _atom_site_fract_x
 _atom_site_fract_y
 _atom_site_fract_z
 _atom_site_occupancy
  Y  Y0  1  0.825010  0.674990  0.000000  1
  Y  Y1  1  0.174990  0.325010  0.000000  1
  Y  Y2  1  0.325010  0.825010  0.000000  1
  Y  Y3  1  0.674990  0.174990  0.000000  1
  Ta  Ta4  1  0.500000  0.500000  0.000000  1
  Ta  Ta5  1  0.000000  0.000000  0.000000  1
  B  B6  1  0.620357  0.879643  0.000000  1
  B  B7  1  0.379643  0.120357  0.000000  1
  B  B8  1  0.120357  0.620357  0.000000  1
  B  B9  1  0.879643  0.379643  0.000000  1
  Ru  Ru10  1  0.570681  0.718086  0.500000  1
  Ru  Ru11  1  0.429319  0.281914  0.500000  1
  Ru  Ru12  1  0.070681  0.781914  0.500000  1
  Ru  Ru13  1  0.929319  0.218086  0.500000  1
  Ru  Ru14  1  0.281914  0.570681  0.500000  1
  Ru  Ru15  1  0.718086  0.429319  0.500000  1
  Ru  Ru16  1  0.218086  0.070681  0.500000  1
  Ru  Ru17  1  0.781914  0.929319  0.500000  1
  Ru  Ru18  1  0.500000  0.000000  0.500000  1
  Ru  Ru19  1  0.000000  0.500000  0.500000  1
