# generated using pymatgen
data_Y9Tm(AlBi)4
_symmetry_space_group_name_H-M   'P 1'
_cell_length_a   8.87037846
_cell_length_b   8.87037860
_cell_length_c   8.12037200
_cell_angle_alpha   90.04264381
_cell_angle_beta   90.04263736
_cell_angle_gamma   125.47146305
_symmetry_Int_Tables_number   1
_chemical_formula_structural   Y9Tm(AlBi)4
_chemical_formula_sum   'Y9 Tm1 Al4 Bi4'
_cell_volume   520.35520110
_cell_formula_units_Z   1
loop_
 _symmetry_equiv_pos_site_id
 _symmetry_equiv_pos_as_xyz
  1  'x, y, z'
loop_
 _atom_site_type_symbol
 _atom_site_label
 _atom_site_symmetry_multiplicity
 _atom_site_fract_x
 _atom_site_fract_y
 _atom_site_fract_z
 _atom_site_occupancy
  Y  Y0  1  0.541446  0.799993  0.168732  1
  Y  Y1  1  0.298610  0.040860  0.330745  1
  Y  Y2  1  0.200007  0.458554  0.831268  1
  Y  Y3  1  0.959140  0.701390  0.669255  1
  Y  Y4  1  0.701390  0.959140  0.669255  1
  Y  Y5  1  0.458554  0.200007  0.831268  1
  Y  Y6  1  0.799993  0.541446  0.168732  1
  Y  Y7  1  0.040860  0.298610  0.330745  1
  Y  Y8  1  0.500000  0.500000  0.500000  1
  Tm  Tm9  1  0.000000  0.000000  0.000000  1
  Al  Al10  1  0.623141  0.623141  0.878064  1
  Al  Al11  1  0.122184  0.122184  0.623205  1
  Al  Al12  1  0.877816  0.877816  0.376795  1
  Al  Al13  1  0.376859  0.376859  0.121936  1
  Bi  Bi14  1  0.293626  0.706374  0.500000  1
  Bi  Bi15  1  0.205630  0.794370  0.000000  1
  Bi  Bi16  1  0.706374  0.293626  0.500000  1
  Bi  Bi17  1  0.794370  0.205630  0.000000  1
