# generated using pymatgen
data_Sc12Si16Os7Ru
_symmetry_space_group_name_H-M   'P 1'
_cell_length_a   10.10744981
_cell_length_b   10.11031222
_cell_length_c   13.65007936
_cell_angle_alpha   55.09629405
_cell_angle_beta   55.11281479
_cell_angle_gamma   31.07099940
_symmetry_Int_Tables_number   1
_chemical_formula_structural   Sc12Si16Os7Ru
_chemical_formula_sum   'Sc12 Si16 Os7 Ru1'
_cell_volume   579.25805010
_cell_formula_units_Z   1
loop_
 _symmetry_equiv_pos_site_id
 _symmetry_equiv_pos_as_xyz
  1  'x, y, z'
loop_
 _atom_site_type_symbol
 _atom_site_label
 _atom_site_symmetry_multiplicity
 _atom_site_fract_x
 _atom_site_fract_y
 _atom_site_fract_z
 _atom_site_occupancy
  Sc  Sc0  1  0.749118  0.486718  0.050325  1
  Sc  Sc1  1  0.541144  0.299549  0.155940  1
  Sc  Sc2  1  0.513786  0.250808  0.450198  1
  Sc  Sc3  1  0.458274  0.700657  0.844006  1
  Sc  Sc4  1  0.293755  0.037839  0.135187  1
  Sc  Sc5  1  0.962559  0.706241  0.364646  1
  Sc  Sc6  1  0.705965  0.962838  0.864697  1
  Sc  Sc7  1  0.037302  0.293618  0.635271  1
  Sc  Sc8  1  0.251301  0.513529  0.949351  1
  Sc  Sc9  1  0.485816  0.750100  0.550318  1
  Sc  Sc10  1  0.298802  0.540609  0.656791  1
  Sc  Sc11  1  0.700111  0.460102  0.342994  1
  Si  Si12  1  0.888626  0.111800  0.250174  1
  Si  Si13  1  0.111508  0.889106  0.749369  1
  Si  Si14  1  0.357551  0.642475  0.250233  1
  Si  Si15  1  0.643372  0.356949  0.749176  1
  Si  Si16  1  0.998108  0.231015  0.876831  1
  Si  Si17  1  0.770460  0.000211  0.623514  1
  Si  Si18  1  0.001822  0.769274  0.123014  1
  Si  Si19  1  0.229829  0.999628  0.376570  1
  Si  Si20  1  0.594983  0.053509  0.074361  1
  Si  Si21  1  0.946777  0.403810  0.426226  1
  Si  Si22  1  0.404698  0.946972  0.925748  1
  Si  Si23  1  0.052685  0.594976  0.574415  1
  Si  Si24  1  0.393013  0.151350  0.388688  1
  Si  Si25  1  0.848930  0.607019  0.111057  1
  Si  Si26  1  0.606868  0.848821  0.611261  1
  Si  Si27  1  0.151395  0.392621  0.888905  1
  Os  Os28  1  0.638040  0.829651  0.285911  1
  Os  Os29  1  0.829751  0.638186  0.786015  1
  Os  Os30  1  0.361799  0.169728  0.714256  1
  Os  Os31  1  0.170070  0.362405  0.214101  1
  Os  Os32  1  0.139550  0.910930  0.078773  1
  Os  Os33  1  0.089871  0.859740  0.421733  1
  Os  Os34  1  0.860388  0.089108  0.921710  1
  Ru  Ru35  1  0.911970  0.138106  0.578234  1
