# generated using pymatgen
data_YLu2Al2Co9B4
_symmetry_space_group_name_H-M   'P 1'
_cell_length_a   5.11110107
_cell_length_b   5.10957759
_cell_length_c   9.52831100
_cell_angle_alpha   89.99989069
_cell_angle_beta   89.99988217
_cell_angle_gamma   119.98885656
_symmetry_Int_Tables_number   1
_chemical_formula_structural   YLu2Al2Co9B4
_chemical_formula_sum   'Y1 Lu2 Al2 Co9 B4'
_cell_volume   215.52357306
_cell_formula_units_Z   1
loop_
 _symmetry_equiv_pos_site_id
 _symmetry_equiv_pos_as_xyz
  1  'x, y, z'
loop_
 _atom_site_type_symbol
 _atom_site_label
 _atom_site_symmetry_multiplicity
 _atom_site_fract_x
 _atom_site_fract_y
 _atom_site_fract_z
 _atom_site_occupancy
  Y  Y0  1  0.999995  0.000001  0.000044  1
  Lu  Lu1  1  0.999975  0.999991  0.339752  1
  Lu  Lu2  1  0.000021  0.000009  0.659845  1
  Al  Al3  1  0.333498  0.666615  0.000197  1
  Al  Al4  1  0.666489  0.333384  0.000198  1
  Co  Co5  1  0.499995  0.000001  0.499997  1
  Co  Co6  1  0.499993  0.499999  0.499984  1
  Co  Co7  1  0.000002  0.500003  0.499975  1
  Co  Co8  1  0.499991  0.000002  0.207505  1
  Co  Co9  1  0.499989  0.499997  0.207474  1
  Co  Co10  1  0.999990  0.500000  0.207516  1
  Co  Co11  1  0.499998  0.999998  0.792519  1
  Co  Co12  1  0.499995  0.500004  0.792546  1
  Co  Co13  1  0.999995  0.499999  0.792517  1
  B  B14  1  0.333407  0.666767  0.349272  1
  B  B15  1  0.666577  0.333233  0.349272  1
  B  B16  1  0.666647  0.333436  0.650694  1
  B  B17  1  0.333342  0.666563  0.650695  1
