# generated using pymatgen
data_NbAl2PdPt8
_symmetry_space_group_name_H-M   'P 1'
_cell_length_a   3.96261600
_cell_length_b   3.96261600
_cell_length_c   11.79648100
_cell_angle_alpha   90.00000000
_cell_angle_beta   90.00000000
_cell_angle_gamma   90.00000000
_symmetry_Int_Tables_number   1
_chemical_formula_structural   NbAl2PdPt8
_chemical_formula_sum   'Nb1 Al2 Pd1 Pt8'
_cell_volume   185.23218517
_cell_formula_units_Z   1
loop_
 _symmetry_equiv_pos_site_id
 _symmetry_equiv_pos_as_xyz
  1  'x, y, z'
loop_
 _atom_site_type_symbol
 _atom_site_label
 _atom_site_symmetry_multiplicity
 _atom_site_fract_x
 _atom_site_fract_y
 _atom_site_fract_z
 _atom_site_occupancy
  Nb  Nb0  1  0.000000  0.000000  0.998845  1
  Al  Al1  1  0.000000  0.000000  0.341741  1
  Al  Al2  1  0.000000  0.000000  0.658330  1
  Pd  Pd3  1  0.500000  0.500000  0.666412  1
  Pt  Pt4  1  0.500000  0.500000  0.000213  1
  Pt  Pt5  1  0.500000  0.500000  0.333958  1
  Pt  Pt6  1  0.500000  0.000000  0.167179  1
  Pt  Pt7  1  0.500000  0.000000  0.500656  1
  Pt  Pt8  1  0.500000  0.000000  0.832416  1
  Pt  Pt9  1  0.000000  0.500000  0.167179  1
  Pt  Pt10  1  0.000000  0.500000  0.500656  1
  Pt  Pt11  1  0.000000  0.500000  0.832416  1
