# generated using pymatgen
data_Ti12InAgSn8
_symmetry_space_group_name_H-M   'P 1'
_cell_length_a   9.25864300
_cell_length_b   9.25864408
_cell_length_c   5.72795600
_cell_angle_alpha   90.00000000
_cell_angle_beta   90.00000000
_cell_angle_gamma   119.99999972
_symmetry_Int_Tables_number   1
_chemical_formula_structural   Ti12InAgSn8
_chemical_formula_sum   'Ti12 In1 Ag1 Sn8'
_cell_volume   425.23111390
_cell_formula_units_Z   1
loop_
 _symmetry_equiv_pos_site_id
 _symmetry_equiv_pos_as_xyz
  1  'x, y, z'
loop_
 _atom_site_type_symbol
 _atom_site_label
 _atom_site_symmetry_multiplicity
 _atom_site_fract_x
 _atom_site_fract_y
 _atom_site_fract_z
 _atom_site_occupancy
  Ti  Ti0  1  0.842528  0.685056  0.754491  1
  Ti  Ti1  1  0.157472  0.842528  0.245509  1
  Ti  Ti2  1  0.685056  0.842528  0.245509  1
  Ti  Ti3  1  0.314944  0.157472  0.754491  1
  Ti  Ti4  1  0.842528  0.157472  0.754491  1
  Ti  Ti5  1  0.157472  0.314944  0.245509  1
  Ti  Ti6  1  0.500000  0.000000  0.500000  1
  Ti  Ti7  1  0.500000  0.500000  0.000000  1
  Ti  Ti8  1  0.000000  0.500000  0.000000  1
  Ti  Ti9  1  0.000000  0.500000  0.500000  1
  Ti  Ti10  1  0.500000  0.000000  0.000000  1
  Ti  Ti11  1  0.500000  0.500000  0.500000  1
  In  In12  1  0.000000  0.000000  0.000000  1
  Ag  Ag13  1  0.000000  0.000000  0.500000  1
  Sn  Sn14  1  0.197672  0.395344  0.747787  1
  Sn  Sn15  1  0.802328  0.197672  0.252213  1
  Sn  Sn16  1  0.395344  0.197672  0.252213  1
  Sn  Sn17  1  0.604656  0.802328  0.747787  1
  Sn  Sn18  1  0.197672  0.802328  0.747787  1
  Sn  Sn19  1  0.802328  0.604656  0.252213  1
  Sn  Sn20  1  0.666667  0.333333  0.749942  1
  Sn  Sn21  1  0.333333  0.666667  0.250058  1
