# generated using pymatgen
data_Tb5Ho5(Si3O)2
_symmetry_space_group_name_H-M   'P 1'
_cell_length_a   8.41368000
_cell_length_b   8.41307239
_cell_length_c   6.21477800
_cell_angle_alpha   90.00000000
_cell_angle_beta   90.00000000
_cell_angle_gamma   120.00238913
_symmetry_Int_Tables_number   1
_chemical_formula_structural   Tb5Ho5(Si3O)2
_chemical_formula_sum   'Tb5 Ho5 Si6 O2'
_cell_volume   380.96616972
_cell_formula_units_Z   1
loop_
 _symmetry_equiv_pos_site_id
 _symmetry_equiv_pos_as_xyz
  1  'x, y, z'
loop_
 _atom_site_type_symbol
 _atom_site_label
 _atom_site_symmetry_multiplicity
 _atom_site_fract_x
 _atom_site_fract_y
 _atom_site_fract_z
 _atom_site_occupancy
  Tb  Tb0  1  0.767758  0.767755  0.250000  1
  Tb  Tb1  1  0.767693  0.000000  0.750000  1
  Tb  Tb2  1  0.000003  0.232245  0.250000  1
  Tb  Tb3  1  0.000201  0.767851  0.750000  1
  Tb  Tb4  1  0.232350  0.232149  0.750000  1
  Ho  Ho5  1  0.231548  0.000000  0.250000  1
  Ho  Ho6  1  0.666442  0.333181  0.000051  1
  Ho  Ho7  1  0.333259  0.666819  0.499949  1
  Ho  Ho8  1  0.333259  0.666819  0.000051  1
  Ho  Ho9  1  0.666442  0.333181  0.499949  1
  Si  Si10  1  0.399288  0.000000  0.750000  1
  Si  Si11  1  0.398903  0.398423  0.250000  1
  Si  Si12  1  0.000481  0.601577  0.250000  1
  Si  Si13  1  0.999996  0.399320  0.750000  1
  Si  Si14  1  0.600676  0.600680  0.750000  1
  Si  Si15  1  0.600248  0.000000  0.250000  1
  O  O16  1  0.000727  0.000000  0.499084  1
  O  O17  1  0.000727  0.000000  0.000916  1
