# generated using pymatgen
data_Y12Er4CdIn3PdPt3
_symmetry_space_group_name_H-M   'P 1'
_cell_length_a   9.70373991
_cell_length_b   9.70374133
_cell_length_c   9.70374000
_cell_angle_alpha   60.01495514
_cell_angle_beta   60.01495031
_cell_angle_gamma   60.01495520
_symmetry_Int_Tables_number   1
_chemical_formula_structural   Y12Er4CdIn3PdPt3
_chemical_formula_sum   'Y12 Er4 Cd1 In3 Pd1 Pt3'
_cell_volume   646.32315437
_cell_formula_units_Z   1
loop_
 _symmetry_equiv_pos_site_id
 _symmetry_equiv_pos_as_xyz
  1  'x, y, z'
loop_
 _atom_site_type_symbol
 _atom_site_label
 _atom_site_symmetry_multiplicity
 _atom_site_fract_x
 _atom_site_fract_y
 _atom_site_fract_z
 _atom_site_occupancy
  Y  Y0  1  0.807891  0.191140  0.191140  1
  Y  Y1  1  0.192556  0.809125  0.809125  1
  Y  Y2  1  0.190995  0.808878  0.189919  1
  Y  Y3  1  0.808482  0.192995  0.808313  1
  Y  Y4  1  0.190995  0.189919  0.808878  1
  Y  Y5  1  0.808482  0.808313  0.192995  1
  Y  Y6  1  0.938049  0.563498  0.563498  1
  Y  Y7  1  0.563951  0.937492  0.937492  1
  Y  Y8  1  0.563585  0.936553  0.562596  1
  Y  Y9  1  0.938791  0.563263  0.936698  1
  Y  Y10  1  0.563585  0.562596  0.936553  1
  Y  Y11  1  0.938791  0.936698  0.563263  1
  Er  Er12  1  0.349318  0.350072  0.350072  1
  Er  Er13  1  0.351893  0.352636  0.944831  1
  Er  Er14  1  0.351893  0.944831  0.352636  1
  Er  Er15  1  0.944511  0.352153  0.352153  1
  Cd  Cd16  1  0.252660  0.581895  0.581895  1
  In  In17  1  0.582817  0.583655  0.583655  1
  In  In18  1  0.581272  0.582962  0.252081  1
  In  In19  1  0.581272  0.252081  0.582962  1
  Pd  Pd20  1  0.145187  0.145006  0.145006  1
  Pt  Pt21  1  0.142690  0.143221  0.567977  1
  Pt  Pt22  1  0.142690  0.567977  0.143221  1
  Pt  Pt23  1  0.567644  0.143039  0.143039  1
