# generated using pymatgen
data_Pr2Fe3Mo2(PIr)7
_symmetry_space_group_name_H-M   'P 1'
_cell_length_a   9.45191208
_cell_length_b   9.40721975
_cell_length_c   3.93593500
_cell_angle_alpha   90.00000000
_cell_angle_beta   90.00000000
_cell_angle_gamma   120.13103798
_symmetry_Int_Tables_number   1
_chemical_formula_structural   Pr2Fe3Mo2(PIr)7
_chemical_formula_sum   'Pr2 Fe3 Mo2 P7 Ir7'
_cell_volume   302.68056932
_cell_formula_units_Z   1
loop_
 _symmetry_equiv_pos_site_id
 _symmetry_equiv_pos_as_xyz
  1  'x, y, z'
loop_
 _atom_site_type_symbol
 _atom_site_label
 _atom_site_symmetry_multiplicity
 _atom_site_fract_x
 _atom_site_fract_y
 _atom_site_fract_z
 _atom_site_occupancy
  Pr  Pr0  1  0.333616  0.668029  0.000000  1
  Pr  Pr1  1  0.668815  0.334515  0.500000  1
  Fe  Fe2  1  0.159594  0.898976  0.000000  1
  Fe  Fe3  1  0.110185  0.264868  0.000000  1
  Fe  Fe4  1  0.727997  0.837520  0.000000  1
  Mo  Mo5  1  0.880802  0.089351  0.500000  1
  Mo  Mo6  1  0.908196  0.787260  0.500000  1
  P  P7  1  0.410227  0.105683  0.000000  1
  P  P8  1  0.893613  0.296430  0.000000  1
  P  P9  1  0.706254  0.596769  0.000000  1
  P  P10  1  0.115713  0.720852  0.500000  1
  P  P11  1  0.279527  0.401659  0.500000  1
  P  P12  1  0.604447  0.882604  0.500000  1
  P  P13  1  0.991836  0.994574  0.000000  1
  Ir  Ir14  1  0.425638  0.361092  0.000000  1
  Ir  Ir15  1  0.637252  0.062068  0.000000  1
  Ir  Ir16  1  0.939528  0.573232  0.000000  1
  Ir  Ir17  1  0.383448  0.948658  0.500000  1
  Ir  Ir18  1  0.053036  0.435898  0.500000  1
  Ir  Ir19  1  0.558860  0.610231  0.500000  1
  Ir  Ir20  1  0.211418  0.129731  0.500000  1
