# generated using pymatgen
data_Tb4NdHo5(In2Pd)4
_symmetry_space_group_name_H-M   'P 1'
_cell_length_a   3.63360800
_cell_length_b   8.18589165
_cell_length_c   18.35457093
_cell_angle_alpha   90.11188328
_cell_angle_beta   90.00000000
_cell_angle_gamma   90.00000000
_symmetry_Int_Tables_number   1
_chemical_formula_structural   Tb4NdHo5(In2Pd)4
_chemical_formula_sum   'Tb4 Nd1 Ho5 In8 Pd4'
_cell_volume   545.94321587
_cell_formula_units_Z   1
loop_
 _symmetry_equiv_pos_site_id
 _symmetry_equiv_pos_as_xyz
  1  'x, y, z'
loop_
 _atom_site_type_symbol
 _atom_site_label
 _atom_site_symmetry_multiplicity
 _atom_site_fract_x
 _atom_site_fract_y
 _atom_site_fract_z
 _atom_site_occupancy
  Tb  Tb0  1  0.000000  0.999667  0.000048  1
  Tb  Tb1  1  0.000000  0.740218  0.280981  1
  Tb  Tb2  1  0.000000  0.260254  0.718893  1
  Tb  Tb3  1  0.000000  0.761522  0.782902  1
  Nd  Nd4  1  0.000000  0.500207  0.499667  1
  Ho  Ho5  1  0.000000  0.238763  0.217517  1
  Ho  Ho6  1  0.000000  0.617787  0.084031  1
  Ho  Ho7  1  0.000000  0.381430  0.916622  1
  Ho  Ho8  1  0.000000  0.878779  0.584069  1
  Ho  Ho9  1  0.000000  0.121513  0.415505  1
  In  In10  1  0.500000  0.704893  0.933845  1
  In  In11  1  0.500000  0.293890  0.067072  1
  In  In12  1  0.500000  0.800476  0.432023  1
  In  In13  1  0.500000  0.200096  0.567746  1
  In  In14  1  0.500000  0.582685  0.653269  1
  In  In15  1  0.500000  0.417262  0.346377  1
  In  In16  1  0.500000  0.919376  0.150365  1
  In  In17  1  0.500000  0.081514  0.849603  1
  Pd  Pd18  1  0.500000  0.521585  0.194834  1
  Pd  Pd19  1  0.500000  0.475721  0.805591  1
  Pd  Pd20  1  0.500000  0.974579  0.695774  1
  Pd  Pd21  1  0.500000  0.027782  0.303266  1
