# generated using pymatgen
data_K16ThUAs8
_symmetry_space_group_name_H-M   'P 1'
_cell_length_a   11.16650045
_cell_length_b   11.16732740
_cell_length_c   11.16715000
_cell_angle_alpha   60.02830680
_cell_angle_beta   60.02285071
_cell_angle_gamma   60.02367520
_symmetry_Int_Tables_number   1
_chemical_formula_structural   K16ThUAs8
_chemical_formula_sum   'K16 Th1 U1 As8'
_cell_volume   985.23355022
_cell_formula_units_Z   1
loop_
 _symmetry_equiv_pos_site_id
 _symmetry_equiv_pos_as_xyz
  1  'x, y, z'
loop_
 _atom_site_type_symbol
 _atom_site_label
 _atom_site_symmetry_multiplicity
 _atom_site_fract_x
 _atom_site_fract_y
 _atom_site_fract_z
 _atom_site_occupancy
  K  K0  1  0.623311  0.127242  0.624730  1
  K  K1  1  0.623202  0.624785  0.127215  1
  K  K2  1  0.127518  0.624244  0.624145  1
  K  K3  1  0.623152  0.624788  0.624791  1
  K  K4  1  0.033427  0.032769  0.466937  1
  K  K5  1  0.783454  0.216304  0.216301  1
  K  K6  1  0.217128  0.782898  0.782934  1
  K  K7  1  0.783451  0.783870  0.216389  1
  K  K8  1  0.783487  0.216350  0.783931  1
  K  K9  1  0.217092  0.782934  0.217031  1
  K  K10  1  0.466534  0.033192  0.467004  1
  K  K11  1  0.466594  0.033266  0.033249  1
  K  K12  1  0.033354  0.466958  0.466927  1
  K  K13  1  0.033430  0.466941  0.032741  1
  K  K14  1  0.217129  0.217064  0.782895  1
  K  K15  1  0.466523  0.466909  0.033265  1
  Th  Th16  1  0.750112  0.750046  0.750023  1
  U  U17  1  0.500907  0.499643  0.499697  1
  As  As18  1  0.397360  0.807128  0.397706  1
  As  As19  1  0.855055  0.855297  0.434359  1
  As  As20  1  0.434492  0.855190  0.855180  1
  As  As21  1  0.855132  0.855288  0.855289  1
  As  As22  1  0.808362  0.397174  0.397197  1
  As  As23  1  0.397343  0.397660  0.397664  1
  As  As24  1  0.397408  0.397698  0.807101  1
  As  As25  1  0.855043  0.434363  0.855298  1
