# generated using pymatgen
data_Yb2CoCuRu2
_symmetry_space_group_name_H-M   'P 1'
_cell_length_a   5.27482857
_cell_length_b   5.31437324
_cell_length_c   5.31437285
_cell_angle_alpha   56.94888250
_cell_angle_beta   57.57383640
_cell_angle_gamma   57.57382166
_symmetry_Int_Tables_number   1
_chemical_formula_structural   Yb2CoCuRu2
_chemical_formula_sum   'Yb2 Co1 Cu1 Ru2'
_cell_volume   98.94530552
_cell_formula_units_Z   1
loop_
 _symmetry_equiv_pos_site_id
 _symmetry_equiv_pos_as_xyz
  1  'x, y, z'
loop_
 _atom_site_type_symbol
 _atom_site_label
 _atom_site_symmetry_multiplicity
 _atom_site_fract_x
 _atom_site_fract_y
 _atom_site_fract_z
 _atom_site_occupancy
  Yb  Yb0  1  0.125245  0.122275  0.122275  1
  Yb  Yb1  1  0.874755  0.877725  0.877725  1
  Co  Co2  1  0.000000  0.500000  0.500000  1
  Cu  Cu3  1  0.500000  0.500000  0.500000  1
  Ru  Ru4  1  0.500000  0.000000  0.500000  1
  Ru  Ru5  1  0.500000  0.500000  0.000000  1
