# generated using pymatgen
data_Er6Zn21AsIr2
_symmetry_space_group_name_H-M   'P 1'
_cell_length_a   8.99444534
_cell_length_b   8.99444578
_cell_length_c   9.07435689
_cell_angle_alpha   60.00079808
_cell_angle_beta   60.00079294
_cell_angle_gamma   60.23097179
_symmetry_Int_Tables_number   1
_chemical_formula_structural   Er6Zn21AsIr2
_chemical_formula_sum   'Er6 Zn21 As1 Ir2'
_cell_volume   520.00468178
_cell_formula_units_Z   1
loop_
 _symmetry_equiv_pos_site_id
 _symmetry_equiv_pos_as_xyz
  1  'x, y, z'
loop_
 _atom_site_type_symbol
 _atom_site_label
 _atom_site_symmetry_multiplicity
 _atom_site_fract_x
 _atom_site_fract_y
 _atom_site_fract_z
 _atom_site_occupancy
  Er  Er0  1  0.723744  0.284691  0.276742  1
  Er  Er1  1  0.715309  0.276256  0.723258  1
  Er  Er2  1  0.717955  0.717955  0.270885  1
  Er  Er3  1  0.276256  0.715309  0.723258  1
  Er  Er4  1  0.284691  0.723744  0.276742  1
  Er  Er5  1  0.282045  0.282045  0.729115  1
  Zn  Zn6  1  0.622625  0.123995  0.122854  1
  Zn  Zn7  1  0.123995  0.622625  0.122854  1
  Zn  Zn8  1  0.124837  0.124837  0.623624  1
  Zn  Zn9  1  0.127995  0.127995  0.123490  1
  Zn  Zn10  1  0.377375  0.876005  0.877146  1
  Zn  Zn11  1  0.876005  0.377375  0.877146  1
  Zn  Zn12  1  0.875163  0.875163  0.376376  1
  Zn  Zn13  1  0.872005  0.872005  0.876510  1
  Zn  Zn14  1  0.500000  0.000000  0.500000  1
  Zn  Zn15  1  0.500000  0.500000  0.000000  1
  Zn  Zn16  1  0.000000  0.500000  0.500000  1
  Zn  Zn17  1  0.000000  0.000000  0.500000  1
  Zn  Zn18  1  0.000000  0.000000  0.000000  1
  Zn  Zn19  1  0.004198  0.332955  0.330901  1
  Zn  Zn20  1  0.332955  0.004198  0.330901  1
  Zn  Zn21  1  0.331340  0.331340  0.007090  1
  Zn  Zn22  1  0.332211  0.332211  0.332388  1
  Zn  Zn23  1  0.995802  0.667045  0.669099  1
  Zn  Zn24  1  0.667045  0.995802  0.669099  1
  Zn  Zn25  1  0.668660  0.668660  0.992910  1
  Zn  Zn26  1  0.667789  0.667789  0.667612  1
  As  As27  1  0.500000  0.500000  0.500000  1
  Ir  Ir28  1  0.500000  0.000000  0.000000  1
  Ir  Ir29  1  0.000000  0.500000  0.000000  1
