# generated using pymatgen
data_Y5Te9
_symmetry_space_group_name_H-M   'P 1'
_cell_length_a   13.18981067
_cell_length_b   13.18981048
_cell_length_c   10.85864168
_cell_angle_alpha   80.21387013
_cell_angle_beta   80.21386998
_cell_angle_gamma   26.94614230
_symmetry_Int_Tables_number   1
_chemical_formula_structural   Y5Te9
_chemical_formula_sum   'Y10 Te18'
_cell_volume   842.86944969
_cell_formula_units_Z   2
loop_
 _symmetry_equiv_pos_site_id
 _symmetry_equiv_pos_as_xyz
  1  'x, y, z'
loop_
 _atom_site_type_symbol
 _atom_site_label
 _atom_site_symmetry_multiplicity
 _atom_site_fract_x
 _atom_site_fract_y
 _atom_site_fract_z
 _atom_site_occupancy
  Y  Y0  1  0.946803  0.044008  0.241486  1
  Y  Y1  1  0.146849  0.247380  0.842189  1
  Y  Y2  1  0.345017  0.450513  0.436919  1
  Y  Y3  1  0.537732  0.654429  0.036213  1
  Y  Y4  1  0.755660  0.833693  0.637579  1
  Y  Y5  1  0.345571  0.462268  0.963787  1
  Y  Y6  1  0.549487  0.654983  0.563081  1
  Y  Y7  1  0.752620  0.853151  0.157811  1
  Y  Y8  1  0.955992  0.053197  0.758514  1
  Y  Y9  1  0.166307  0.244340  0.362421  1
  Te  Te10  1  0.474448  0.571043  0.822095  1
  Te  Te11  1  0.071282  0.178752  0.621194  1
  Te  Te12  1  0.870288  0.979087  0.020669  1
  Te  Te13  1  0.681514  0.763283  0.423063  1
  Te  Te14  1  0.273175  0.376524  0.222154  1
  Te  Te15  1  0.020913  0.129712  0.979331  1
  Te  Te16  1  0.623476  0.726825  0.777846  1
  Te  Te17  1  0.428957  0.525552  0.177905  1
  Te  Te18  1  0.236717  0.318486  0.576937  1
  Te  Te19  1  0.821248  0.928718  0.378806  1
  Te  Te20  1  0.699497  0.300503  0.500000  1
  Te  Te21  1  0.299228  0.901100  0.300174  1
  Te  Te22  1  0.098900  0.700772  0.699826  1
  Te  Te23  1  0.892492  0.492670  0.115327  1
  Te  Te24  1  0.507330  0.107508  0.884673  1
  Te  Te25  1  0.001128  0.601700  0.896576  1
  Te  Te26  1  0.199067  0.800933  0.500000  1
  Te  Te27  1  0.398300  0.998872  0.103424  1
