# generated using pymatgen
data_Tb5TmNiI10
_symmetry_space_group_name_H-M   'P 1'
_cell_length_a   7.70751590
_cell_length_b   9.70165207
_cell_length_c   9.72617316
_cell_angle_alpha   107.13607948
_cell_angle_beta   96.87518757
_cell_angle_gamma   104.56979165
_symmetry_Int_Tables_number   1
_chemical_formula_structural   Tb5TmNiI10
_chemical_formula_sum   'Tb5 Tm1 Ni1 I10'
_cell_volume   657.70835993
_cell_formula_units_Z   1
loop_
 _symmetry_equiv_pos_site_id
 _symmetry_equiv_pos_as_xyz
  1  'x, y, z'
loop_
 _atom_site_type_symbol
 _atom_site_label
 _atom_site_symmetry_multiplicity
 _atom_site_fract_x
 _atom_site_fract_y
 _atom_site_fract_z
 _atom_site_occupancy
  Tb  Tb0  1  0.888641  0.960201  0.237163  1
  Tb  Tb1  1  0.115010  0.041399  0.764398  1
  Tb  Tb2  1  0.032997  0.720252  0.916903  1
  Tb  Tb3  1  0.969293  0.280374  0.084570  1
  Tb  Tb4  1  0.659479  0.879378  0.838241  1
  Tm  Tm5  1  0.333902  0.118881  0.158962  1
  Ni  Ni6  1  0.000025  0.999994  0.999743  1
  I  I7  1  0.648559  0.549100  0.728252  1
  I  I8  1  0.354476  0.447246  0.271966  1
  I  I9  1  0.742090  0.912668  0.538008  1
  I  I10  1  0.261497  0.088748  0.460307  1
  I  I11  1  0.085329  0.372050  0.819293  1
  I  I12  1  0.914937  0.627844  0.181015  1
  I  I13  1  0.454568  0.818228  0.094281  1
  I  I14  1  0.545425  0.185869  0.910117  1
  I  I15  1  0.224957  0.743378  0.654421  1
  I  I16  1  0.768814  0.254391  0.342359  1
