# generated using pymatgen
data_Ca3Nd(GePd2)4
_symmetry_space_group_name_H-M   'P 1'
_cell_length_a   5.64487512
_cell_length_b   7.13234400
_cell_length_c   7.61277010
_cell_angle_alpha   90.00000000
_cell_angle_beta   90.14971435
_cell_angle_gamma   90.00000000
_symmetry_Int_Tables_number   1
_chemical_formula_structural   Ca3Nd(GePd2)4
_chemical_formula_sum   'Ca3 Nd1 Ge4 Pd8'
_cell_volume   306.49814624
_cell_formula_units_Z   1
loop_
 _symmetry_equiv_pos_site_id
 _symmetry_equiv_pos_as_xyz
  1  'x, y, z'
loop_
 _atom_site_type_symbol
 _atom_site_label
 _atom_site_symmetry_multiplicity
 _atom_site_fract_x
 _atom_site_fract_y
 _atom_site_fract_z
 _atom_site_occupancy
  Ca  Ca0  1  0.365277  0.750000  0.026870  1
  Ca  Ca1  1  0.137416  0.750000  0.526106  1
  Ca  Ca2  1  0.636707  0.250000  0.974612  1
  Nd  Nd3  1  0.862032  0.250000  0.472100  1
  Ge  Ge4  1  0.635729  0.750000  0.375740  1
  Ge  Ge5  1  0.864526  0.750000  0.876172  1
  Ge  Ge6  1  0.363584  0.250000  0.627516  1
  Ge  Ge7  1  0.137330  0.250000  0.120847  1
  Pd  Pd8  1  0.905306  0.553151  0.174203  1
  Pd  Pd9  1  0.597469  0.945945  0.672650  1
  Pd  Pd10  1  0.091987  0.053171  0.826955  1
  Pd  Pd11  1  0.403937  0.446265  0.326210  1
  Pd  Pd12  1  0.091987  0.446829  0.826955  1
  Pd  Pd13  1  0.403937  0.053735  0.326210  1
  Pd  Pd14  1  0.905306  0.946849  0.174203  1
  Pd  Pd15  1  0.597469  0.554055  0.672650  1
