# generated using pymatgen
data_TbNdSm2(CI)2
_symmetry_space_group_name_H-M   'P 1'
_cell_length_a   3.83399400
_cell_length_b   3.83399383
_cell_length_c   15.26212400
_cell_angle_alpha   90.00000000
_cell_angle_beta   90.00000000
_cell_angle_gamma   120.00000151
_symmetry_Int_Tables_number   1
_chemical_formula_structural   TbNdSm2(CI)2
_chemical_formula_sum   'Tb1 Nd1 Sm2 C2 I2'
_cell_volume   194.28910192
_cell_formula_units_Z   1
loop_
 _symmetry_equiv_pos_site_id
 _symmetry_equiv_pos_as_xyz
  1  'x, y, z'
loop_
 _atom_site_type_symbol
 _atom_site_label
 _atom_site_symmetry_multiplicity
 _atom_site_fract_x
 _atom_site_fract_y
 _atom_site_fract_z
 _atom_site_occupancy
  Tb  Tb0  1  0.333333  0.666667  0.914840  1
  Nd  Nd1  1  0.333333  0.666667  0.588553  1
  Sm  Sm2  1  0.666667  0.333333  0.412847  1
  Sm  Sm3  1  0.666667  0.333333  0.084740  1
  C  C4  1  0.000000  0.000000  0.996196  1
  C  C5  1  0.000000  0.000000  0.497720  1
  I  I6  1  0.333333  0.666667  0.248311  1
  I  I7  1  0.666667  0.333333  0.756794  1
