# generated using pymatgen
data_Ho6Tm2Sc12Si15Pt
_symmetry_space_group_name_H-M   'P 1'
_cell_length_a   7.06508502
_cell_length_b   7.41358890
_cell_length_c   13.95637301
_cell_angle_alpha   89.95734009
_cell_angle_beta   89.99153419
_cell_angle_gamma   90.24808447
_symmetry_Int_Tables_number   1
_chemical_formula_structural   Ho6Tm2Sc12Si15Pt
_chemical_formula_sum   'Ho6 Tm2 Sc12 Si15 Pt1'
_cell_volume   730.99476066
_cell_formula_units_Z   1
loop_
 _symmetry_equiv_pos_site_id
 _symmetry_equiv_pos_as_xyz
  1  'x, y, z'
loop_
 _atom_site_type_symbol
 _atom_site_label
 _atom_site_symmetry_multiplicity
 _atom_site_fract_x
 _atom_site_fract_y
 _atom_site_fract_z
 _atom_site_occupancy
  Ho  Ho0  1  0.488816  0.676613  0.904917  1
  Ho  Ho1  1  0.990310  0.821939  0.594520  1
  Ho  Ho2  1  0.511203  0.322829  0.096708  1
  Ho  Ho3  1  0.011567  0.177910  0.403903  1
  Ho  Ho4  1  0.511032  0.322878  0.403152  1
  Ho  Ho5  1  0.489010  0.676571  0.595279  1
  Tm  Tm6  1  0.011610  0.178150  0.096337  1
  Tm  Tm7  1  0.990356  0.821911  0.905141  1
  Sc  Sc8  1  0.158757  0.503229  0.750105  1
  Sc  Sc9  1  0.838156  0.496979  0.249892  1
  Sc  Sc10  1  0.338815  0.004722  0.249896  1
  Sc  Sc11  1  0.666132  0.999042  0.750115  1
  Sc  Sc12  1  0.324536  0.174348  0.624994  1
  Sc  Sc13  1  0.671293  0.825059  0.373569  1
  Sc  Sc14  1  0.170345  0.676944  0.373800  1
  Sc  Sc15  1  0.671379  0.825253  0.126312  1
  Sc  Sc16  1  0.830552  0.323899  0.625005  1
  Sc  Sc17  1  0.324066  0.174121  0.875152  1
  Sc  Sc18  1  0.830815  0.323698  0.875099  1
  Sc  Sc19  1  0.170193  0.677233  0.126010  1
  Si  Si20  1  0.969342  0.886229  0.249798  1
  Si  Si21  1  0.467886  0.614624  0.249941  1
  Si  Si22  1  0.531708  0.387888  0.750043  1
  Si  Si23  1  0.287450  0.868105  0.750224  1
  Si  Si24  1  0.714165  0.130487  0.249722  1
  Si  Si25  1  0.212409  0.370770  0.249712  1
  Si  Si26  1  0.780770  0.626897  0.750257  1
  Si  Si27  1  0.159792  0.466683  0.537994  1
  Si  Si28  1  0.841204  0.535614  0.460521  1
  Si  Si29  1  0.344371  0.965262  0.460620  1
  Si  Si30  1  0.841562  0.535655  0.039471  1
  Si  Si31  1  0.659004  0.033789  0.538520  1
  Si  Si32  1  0.159474  0.466797  0.962018  1
  Si  Si33  1  0.659880  0.033326  0.961393  1
  Si  Si34  1  0.343422  0.965660  0.039453  1
  Pt  Pt35  1  0.028615  0.108886  0.750409  1
