# generated using pymatgen
data_Zr3Co2MoN
_symmetry_space_group_name_H-M   'P 1'
_cell_length_a   8.44899672
_cell_length_b   8.44899652
_cell_length_c   8.44899600
_cell_angle_alpha   60.00000202
_cell_angle_beta   60.00000281
_cell_angle_gamma   60.00000335
_symmetry_Int_Tables_number   1
_chemical_formula_structural   Zr3Co2MoN
_chemical_formula_sum   'Zr12 Co8 Mo4 N4'
_cell_volume   426.48170519
_cell_formula_units_Z   4
loop_
 _symmetry_equiv_pos_site_id
 _symmetry_equiv_pos_as_xyz
  1  'x, y, z'
loop_
 _atom_site_type_symbol
 _atom_site_label
 _atom_site_symmetry_multiplicity
 _atom_site_fract_x
 _atom_site_fract_y
 _atom_site_fract_z
 _atom_site_occupancy
  Zr  Zr0  1  0.807400  0.807400  0.192600  1
  Zr  Zr1  1  0.192600  0.192600  0.807400  1
  Zr  Zr2  1  0.807400  0.192600  0.807400  1
  Zr  Zr3  1  0.192600  0.807400  0.192600  1
  Zr  Zr4  1  0.192600  0.807400  0.807400  1
  Zr  Zr5  1  0.807400  0.192600  0.192600  1
  Zr  Zr6  1  0.442600  0.442600  0.057400  1
  Zr  Zr7  1  0.057400  0.057400  0.442600  1
  Zr  Zr8  1  0.442600  0.057400  0.442600  1
  Zr  Zr9  1  0.057400  0.442600  0.057400  1
  Zr  Zr10  1  0.057400  0.442600  0.442600  1
  Zr  Zr11  1  0.442600  0.057400  0.057400  1
  Co  Co12  1  0.725414  0.424862  0.424862  1
  Co  Co13  1  0.424862  0.725414  0.424862  1
  Co  Co14  1  0.424862  0.424862  0.725414  1
  Co  Co15  1  0.424862  0.424862  0.424862  1
  Co  Co16  1  0.524586  0.825138  0.825138  1
  Co  Co17  1  0.825138  0.524586  0.825138  1
  Co  Co18  1  0.825138  0.825138  0.524586  1
  Co  Co19  1  0.825138  0.825138  0.825138  1
  Mo  Mo20  1  0.125000  0.625000  0.625000  1
  Mo  Mo21  1  0.625000  0.125000  0.625000  1
  Mo  Mo22  1  0.625000  0.625000  0.125000  1
  Mo  Mo23  1  0.625000  0.625000  0.625000  1
  N  N24  1  0.625000  0.125000  0.125000  1
  N  N25  1  0.125000  0.625000  0.125000  1
  N  N26  1  0.125000  0.125000  0.625000  1
  N  N27  1  0.125000  0.125000  0.125000  1
