# generated using pymatgen
data_Tb3ErTcRu7
_symmetry_space_group_name_H-M   'P 1'
_cell_length_a   5.20682087
_cell_length_b   5.41097719
_cell_length_c   9.02162201
_cell_angle_alpha   89.99999964
_cell_angle_beta   90.00428133
_cell_angle_gamma   121.30574626
_symmetry_Int_Tables_number   1
_chemical_formula_structural   Tb3ErTcRu7
_chemical_formula_sum   'Tb3 Er1 Tc1 Ru7'
_cell_volume   217.16889524
_cell_formula_units_Z   1
loop_
 _symmetry_equiv_pos_site_id
 _symmetry_equiv_pos_as_xyz
  1  'x, y, z'
loop_
 _atom_site_type_symbol
 _atom_site_label
 _atom_site_symmetry_multiplicity
 _atom_site_fract_x
 _atom_site_fract_y
 _atom_site_fract_z
 _atom_site_occupancy
  Tb  Tb0  1  0.327915  0.663958  0.432874  1
  Tb  Tb1  1  0.655837  0.327917  0.565539  1
  Tb  Tb2  1  0.655976  0.327987  0.935025  1
  Er  Er3  1  0.328799  0.664400  0.067231  1
  Tc  Tc4  1  0.686172  0.843086  0.750742  1
  Ru  Ru5  1  0.978608  0.989304  0.499503  1
  Ru  Ru6  1  0.977780  0.988890  0.000626  1
  Ru  Ru7  1  0.836683  0.167327  0.248874  1
  Ru  Ru8  1  0.836683  0.669358  0.248874  1
  Ru  Ru9  1  0.354907  0.177454  0.248961  1
  Ru  Ru10  1  0.180321  0.826819  0.750876  1
  Ru  Ru11  1  0.180321  0.353501  0.750876  1
