# generated using pymatgen
data_Y3ScAu5
_symmetry_space_group_name_H-M   'P 1'
_cell_length_a   7.93277074
_cell_length_b   7.93277031
_cell_length_c   7.93276911
_cell_angle_alpha   66.19920955
_cell_angle_beta   66.19921165
_cell_angle_gamma   66.19919985
_symmetry_Int_Tables_number   1
_chemical_formula_structural   Y3ScAu5
_chemical_formula_sum   'Y6 Sc2 Au10'
_cell_volume   400.25415561
_cell_formula_units_Z   2
loop_
 _symmetry_equiv_pos_site_id
 _symmetry_equiv_pos_as_xyz
  1  'x, y, z'
loop_
 _atom_site_type_symbol
 _atom_site_label
 _atom_site_symmetry_multiplicity
 _atom_site_fract_x
 _atom_site_fract_y
 _atom_site_fract_z
 _atom_site_occupancy
  Y  Y0  1  0.891241  0.188805  0.618960  1
  Y  Y1  1  0.618960  0.891241  0.188805  1
  Y  Y2  1  0.188805  0.618960  0.891241  1
  Y  Y3  1  0.108759  0.811195  0.381040  1
  Y  Y4  1  0.381040  0.108759  0.811195  1
  Y  Y5  1  0.811195  0.381040  0.108759  1
  Sc  Sc6  1  0.659172  0.659172  0.659172  1
  Sc  Sc7  1  0.340828  0.340828  0.340828  1
  Au  Au8  1  0.000000  0.000000  0.000000  1
  Au  Au9  1  0.500000  0.500000  0.500000  1
  Au  Au10  1  0.806894  0.806894  0.806894  1
  Au  Au11  1  0.193106  0.193106  0.193106  1
  Au  Au12  1  0.937321  0.549929  0.320657  1
  Au  Au13  1  0.320657  0.937321  0.549929  1
  Au  Au14  1  0.549929  0.320657  0.937321  1
  Au  Au15  1  0.062679  0.450071  0.679343  1
  Au  Au16  1  0.679343  0.062679  0.450071  1
  Au  Au17  1  0.450071  0.679343  0.062679  1
