# generated using pymatgen
data_ErTm4(SiSb)2
_symmetry_space_group_name_H-M   'P 1'
_cell_length_a   8.42361838
_cell_length_b   8.42361888
_cell_length_c   7.77309402
_cell_angle_alpha   90.00756920
_cell_angle_beta   89.99243120
_cell_angle_gamma   125.24768809
_symmetry_Int_Tables_number   1
_chemical_formula_structural   ErTm4(SiSb)2
_chemical_formula_sum   'Er2 Tm8 Si4 Sb4'
_cell_volume   450.43815260
_cell_formula_units_Z   2
loop_
 _symmetry_equiv_pos_site_id
 _symmetry_equiv_pos_as_xyz
  1  'x, y, z'
loop_
 _atom_site_type_symbol
 _atom_site_label
 _atom_site_symmetry_multiplicity
 _atom_site_fract_x
 _atom_site_fract_y
 _atom_site_fract_z
 _atom_site_occupancy
  Er  Er0  1  0.540346  0.791423  0.165472  1
  Er  Er1  1  0.291423  0.040346  0.334528  1
  Tm  Tm2  1  0.209273  0.459432  0.834814  1
  Tm  Tm3  1  0.959432  0.709273  0.665186  1
  Tm  Tm4  1  0.709286  0.959401  0.665167  1
  Tm  Tm5  1  0.459401  0.209286  0.834833  1
  Tm  Tm6  1  0.790578  0.540498  0.165100  1
  Tm  Tm7  1  0.040498  0.290578  0.334900  1
  Tm  Tm8  1  0.500075  0.500057  0.500225  1
  Tm  Tm9  1  0.000057  0.000075  0.999775  1
  Si  Si10  1  0.632719  0.632549  0.868016  1
  Si  Si11  1  0.132549  0.132719  0.631984  1
  Si  Si12  1  0.867316  0.867134  0.368501  1
  Si  Si13  1  0.367134  0.367316  0.131499  1
  Sb  Sb14  1  0.293479  0.705573  0.500636  1
  Sb  Sb15  1  0.205573  0.793479  0.999364  1
  Sb  Sb16  1  0.706700  0.294159  0.500263  1
  Sb  Sb17  1  0.794159  0.206700  0.999737  1
