# generated using pymatgen
data_Sm2Co12GeP6
_symmetry_space_group_name_H-M   'P 1'
_cell_length_a   9.13416600
_cell_length_b   9.13416617
_cell_length_c   3.60580100
_cell_angle_alpha   90.00000000
_cell_angle_beta   90.00000000
_cell_angle_gamma   119.99999937
_symmetry_Int_Tables_number   1
_chemical_formula_structural   Sm2Co12GeP6
_chemical_formula_sum   'Sm2 Co12 Ge1 P6'
_cell_volume   260.53747365
_cell_formula_units_Z   1
loop_
 _symmetry_equiv_pos_site_id
 _symmetry_equiv_pos_as_xyz
  1  'x, y, z'
loop_
 _atom_site_type_symbol
 _atom_site_label
 _atom_site_symmetry_multiplicity
 _atom_site_fract_x
 _atom_site_fract_y
 _atom_site_fract_z
 _atom_site_occupancy
  Sm  Sm0  1  0.333333  0.666667  0.500000  1
  Sm  Sm1  1  0.000000  0.000000  0.000000  1
  Co  Co2  1  0.101111  0.392903  0.000000  1
  Co  Co3  1  0.607097  0.708208  0.000000  1
  Co  Co4  1  0.291792  0.898889  0.000000  1
  Co  Co5  1  0.052828  0.769732  0.500000  1
  Co  Co6  1  0.230268  0.283096  0.500000  1
  Co  Co7  1  0.716904  0.947172  0.500000  1
  Co  Co8  1  0.826275  0.618822  0.000000  1
  Co  Co9  1  0.381178  0.207452  0.000000  1
  Co  Co10  1  0.792548  0.173725  0.000000  1
  Co  Co11  1  0.912603  0.443196  0.500000  1
  Co  Co12  1  0.556804  0.469407  0.500000  1
  Co  Co13  1  0.530593  0.087397  0.500000  1
  Ge  Ge14  1  0.666667  0.333333  0.000000  1
  P  P15  1  0.774665  0.733087  0.500000  1
  P  P16  1  0.266913  0.041578  0.500000  1
  P  P17  1  0.958422  0.225335  0.500000  1
  P  P18  1  0.069838  0.627045  0.000000  1
  P  P19  1  0.372955  0.442793  0.000000  1
  P  P20  1  0.557207  0.930162  0.000000  1
