# generated using pymatgen
data_Nd8AsP13Ir16
_symmetry_space_group_name_H-M   'P 1'
_cell_length_a   3.99897300
_cell_length_b   12.91767591
_cell_length_c   13.27214112
_cell_angle_alpha   80.67108711
_cell_angle_beta   90.00000000
_cell_angle_gamma   90.00000000
_symmetry_Int_Tables_number   1
_chemical_formula_structural   Nd8AsP13Ir16
_chemical_formula_sum   'Nd8 As1 P13 Ir16'
_cell_volume   676.53701535
_cell_formula_units_Z   1
loop_
 _symmetry_equiv_pos_site_id
 _symmetry_equiv_pos_as_xyz
  1  'x, y, z'
loop_
 _atom_site_type_symbol
 _atom_site_label
 _atom_site_symmetry_multiplicity
 _atom_site_fract_x
 _atom_site_fract_y
 _atom_site_fract_z
 _atom_site_occupancy
  Nd  Nd0  1  0.750000  0.789028  0.563332  1
  Nd  Nd1  1  0.250000  0.210520  0.439539  1
  Nd  Nd2  1  0.750000  0.480674  0.706618  1
  Nd  Nd3  1  0.250000  0.516835  0.293130  1
  Nd  Nd4  1  0.750000  0.720467  0.896941  1
  Nd  Nd5  1  0.250000  0.103507  0.788762  1
  Nd  Nd6  1  0.750000  0.896835  0.208361  1
  Nd  Nd7  1  0.250000  0.280592  0.102430  1
  As  As8  1  0.250000  0.906371  0.409000  1
  P  P9  1  0.750000  0.474082  0.127125  1
  P  P10  1  0.250000  0.526072  0.872026  1
  P  P11  1  0.750000  0.092046  0.590396  1
  P  P12  1  0.250000  0.741564  0.080580  1
  P  P13  1  0.750000  0.258354  0.918781  1
  P  P14  1  0.750000  0.158161  0.281270  1
  P  P15  1  0.250000  0.843422  0.719051  1
  P  P16  1  0.250000  0.053084  0.097414  1
  P  P17  1  0.750000  0.947933  0.901472  1
  P  P18  1  0.250000  0.313081  0.689362  1
  P  P19  1  0.750000  0.684772  0.310112  1
  P  P20  1  0.250000  0.605454  0.563446  1
  P  P21  1  0.750000  0.392504  0.437339  1
  Ir  Ir22  1  0.250000  0.991846  0.580416  1
  Ir  Ir23  1  0.750000  0.019562  0.425142  1
  Ir  Ir24  1  0.250000  0.662483  0.731134  1
  Ir  Ir25  1  0.750000  0.338450  0.268371  1
  Ir  Ir26  1  0.250000  0.551635  0.046994  1
  Ir  Ir27  1  0.750000  0.448557  0.952500  1
  Ir  Ir28  1  0.250000  0.065942  0.268940  1
  Ir  Ir29  1  0.750000  0.936761  0.729301  1
  Ir  Ir30  1  0.250000  0.422303  0.527534  1
  Ir  Ir31  1  0.750000  0.575366  0.473861  1
  Ir  Ir32  1  0.250000  0.914938  0.998860  1
  Ir  Ir33  1  0.750000  0.085141  0.001035  1
  Ir  Ir34  1  0.250000  0.720721  0.393264  1
  Ir  Ir35  1  0.750000  0.270846  0.606759  1
  Ir  Ir36  1  0.250000  0.341648  0.859433  1
  Ir  Ir37  1  0.750000  0.658442  0.139970  1
