# generated using pymatgen
data_Pr7Nd(MgIr)8
_symmetry_space_group_name_H-M   'P 1'
_cell_length_a   4.16977700
_cell_length_b   7.51514925
_cell_length_c   17.00124000
_cell_angle_alpha   89.64133244
_cell_angle_beta   90.00000000
_cell_angle_gamma   90.00000000
_symmetry_Int_Tables_number   1
_chemical_formula_structural   Pr7Nd(MgIr)8
_chemical_formula_sum   'Pr7 Nd1 Mg8 Ir8'
_cell_volume   532.74885890
_cell_formula_units_Z   1
loop_
 _symmetry_equiv_pos_site_id
 _symmetry_equiv_pos_as_xyz
  1  'x, y, z'
loop_
 _atom_site_type_symbol
 _atom_site_label
 _atom_site_symmetry_multiplicity
 _atom_site_fract_x
 _atom_site_fract_y
 _atom_site_fract_z
 _atom_site_occupancy
  Pr  Pr0  1  0.750000  0.951799  0.282339  1
  Pr  Pr1  1  0.750000  0.836928  0.061843  1
  Pr  Pr2  1  0.250000  0.048260  0.717370  1
  Pr  Pr3  1  0.250000  0.158573  0.939104  1
  Pr  Pr4  1  0.250000  0.547494  0.783116  1
  Pr  Pr5  1  0.750000  0.341683  0.438250  1
  Pr  Pr6  1  0.250000  0.662398  0.560642  1
  Nd  Nd7  1  0.750000  0.450150  0.217032  1
  Mg  Mg8  1  0.250000  0.999278  0.435302  1
  Mg  Mg9  1  0.750000  0.503265  0.936713  1
  Mg  Mg10  1  0.750000  0.005500  0.563385  1
  Mg  Mg11  1  0.250000  0.628641  0.349705  1
  Mg  Mg12  1  0.750000  0.373659  0.650023  1
  Mg  Mg13  1  0.750000  0.872851  0.850454  1
  Mg  Mg14  1  0.250000  0.494014  0.064255  1
  Mg  Mg15  1  0.250000  0.126074  0.150146  1
  Ir  Ir16  1  0.250000  0.248312  0.561167  1
  Ir  Ir17  1  0.750000  0.251647  0.062244  1
  Ir  Ir18  1  0.250000  0.250001  0.310141  1
  Ir  Ir19  1  0.750000  0.251441  0.811755  1
  Ir  Ir20  1  0.250000  0.745369  0.939063  1
  Ir  Ir21  1  0.750000  0.752202  0.688744  1
  Ir  Ir22  1  0.750000  0.756449  0.437940  1
  Ir  Ir23  1  0.250000  0.744013  0.189266  1
