# generated using pymatgen
data_Er7TmB24MoOs3
_symmetry_space_group_name_H-M   'P 1'
_cell_length_a   3.63210400
_cell_length_b   9.12644854
_cell_length_c   11.50934313
_cell_angle_alpha   89.91347556
_cell_angle_beta   90.00000000
_cell_angle_gamma   90.00000000
_symmetry_Int_Tables_number   1
_chemical_formula_structural   Er7TmB24MoOs3
_chemical_formula_sum   'Er7 Tm1 B24 Mo1 Os3'
_cell_volume   381.51369085
_cell_formula_units_Z   1
loop_
 _symmetry_equiv_pos_site_id
 _symmetry_equiv_pos_as_xyz
  1  'x, y, z'
loop_
 _atom_site_type_symbol
 _atom_site_label
 _atom_site_symmetry_multiplicity
 _atom_site_fract_x
 _atom_site_fract_y
 _atom_site_fract_z
 _atom_site_occupancy
  Er  Er0  1  0.000000  0.321886  0.413230  1
  Er  Er1  1  0.000000  0.677517  0.584818  1
  Er  Er2  1  0.000000  0.820133  0.087376  1
  Er  Er3  1  0.000000  0.177947  0.914477  1
  Er  Er4  1  0.000000  0.944947  0.372778  1
  Er  Er5  1  0.000000  0.057598  0.628411  1
  Er  Er6  1  0.000000  0.443261  0.126640  1
  Tm  Tm7  1  0.000000  0.556924  0.871306  1
  B  B8  1  0.500000  0.551030  0.435668  1
  B  B9  1  0.500000  0.446270  0.567932  1
  B  B10  1  0.500000  0.053361  0.066774  1
  B  B11  1  0.500000  0.946323  0.933349  1
  B  B12  1  0.500000  0.750713  0.421785  1
  B  B13  1  0.500000  0.252100  0.581022  1
  B  B14  1  0.500000  0.248368  0.080161  1
  B  B15  1  0.500000  0.751099  0.919094  1
  B  B16  1  0.500000  0.794280  0.264530  1
  B  B17  1  0.500000  0.208810  0.734571  1
  B  B18  1  0.500000  0.290800  0.233008  1
  B  B19  1  0.500000  0.709043  0.765836  1
  B  B20  1  0.500000  0.631666  0.183096  1
  B  B21  1  0.500000  0.368513  0.815105  1
  B  B22  1  0.500000  0.131301  0.313865  1
  B  B23  1  0.500000  0.869384  0.685695  1
  B  B24  1  0.500000  0.982905  0.212583  1
  B  B25  1  0.500000  0.017562  0.788158  1
  B  B26  1  0.500000  0.478193  0.286703  1
  B  B27  1  0.500000  0.516997  0.713138  1
  B  B28  1  0.500000  0.605228  0.027478  1
  B  B29  1  0.500000  0.394490  0.969766  1
  B  B30  1  0.500000  0.106469  0.471091  1
  B  B31  1  0.500000  0.896311  0.530256  1
  Mo  Mo32  1  0.000000  0.637382  0.321321  1
  Os  Os33  1  0.000000  0.361546  0.680568  1
  Os  Os34  1  0.000000  0.137463  0.177180  1
  Os  Os35  1  0.000000  0.862178  0.821232  1
