# generated using pymatgen
data_Y16Tm4(IrRh3)3
_symmetry_space_group_name_H-M   'P 1'
_cell_length_a   10.91080052
_cell_length_b   10.91074952
_cell_length_c   6.35905001
_cell_angle_alpha   90.00376920
_cell_angle_beta   90.00329875
_cell_angle_gamma   89.93969399
_symmetry_Int_Tables_number   1
_chemical_formula_structural   Y16Tm4(IrRh3)3
_chemical_formula_sum   'Y16 Tm4 Ir3 Rh9'
_cell_volume   757.01275858
_cell_formula_units_Z   1
loop_
 _symmetry_equiv_pos_site_id
 _symmetry_equiv_pos_as_xyz
  1  'x, y, z'
loop_
 _atom_site_type_symbol
 _atom_site_label
 _atom_site_symmetry_multiplicity
 _atom_site_fract_x
 _atom_site_fract_y
 _atom_site_fract_z
 _atom_site_occupancy
  Y  Y0  1  0.290328  0.089525  0.378224  1
  Y  Y1  1  0.290460  0.910214  0.877978  1
  Y  Y2  1  0.709791  0.087976  0.878051  1
  Y  Y3  1  0.709512  0.910328  0.378018  1
  Y  Y4  1  0.586896  0.788605  0.879256  1
  Y  Y5  1  0.586652  0.210416  0.377987  1
  Y  Y6  1  0.413032  0.788891  0.378653  1
  Y  Y7  1  0.411363  0.210553  0.879399  1
  Y  Y8  1  0.211398  0.413105  0.620743  1
  Y  Y9  1  0.211109  0.586968  0.121346  1
  Y  Y10  1  0.789584  0.413348  0.122015  1
  Y  Y11  1  0.789446  0.588640  0.620603  1
  Y  Y12  1  0.910476  0.709672  0.121773  1
  Y  Y13  1  0.912022  0.290209  0.621951  1
  Y  Y14  1  0.089785  0.709541  0.622025  1
  Y  Y15  1  0.089673  0.290486  0.121988  1
  Tm  Tm16  1  0.999888  0.999921  0.499898  1
  Tm  Tm17  1  0.000078  0.000111  0.000102  1
  Tm  Tm18  1  0.499653  0.500157  0.000091  1
  Tm  Tm19  1  0.499844  0.500348  0.499908  1
  Ir  Ir20  1  0.652401  0.651639  0.249961  1
  Ir  Ir21  1  0.348363  0.347599  0.250037  1
  Ir  Ir22  1  0.347640  0.652356  0.749998  1
  Rh  Rh23  1  0.848733  0.151264  0.250001  1
  Rh  Rh24  1  0.849314  0.849557  0.750101  1
  Rh  Rh25  1  0.150447  0.150678  0.749897  1
  Rh  Rh26  1  0.150609  0.849391  0.250005  1
  Rh  Rh27  1  0.652169  0.347829  0.749994  1
  Rh  Rh28  1  0.500169  0.000437  0.123640  1
  Rh  Rh29  1  0.500265  0.000662  0.624304  1
  Rh  Rh30  1  0.999334  0.499737  0.875689  1
  Rh  Rh31  1  0.999567  0.499838  0.376363  1
