# generated using pymatgen
data_HoEr5ZnTcNi
_symmetry_space_group_name_H-M   'P 1'
_cell_length_a   8.29577035
_cell_length_b   8.29662468
_cell_length_c   8.29662410
_cell_angle_alpha   112.71112977
_cell_angle_beta   111.89708484
_cell_angle_gamma   103.94777117
_symmetry_Int_Tables_number   1
_chemical_formula_structural   HoEr5ZnTcNi
_chemical_formula_sum   'Ho2 Er10 Zn2 Tc2 Ni2'
_cell_volume   436.50897480
_cell_formula_units_Z   2
loop_
 _symmetry_equiv_pos_site_id
 _symmetry_equiv_pos_as_xyz
  1  'x, y, z'
loop_
 _atom_site_type_symbol
 _atom_site_label
 _atom_site_symmetry_multiplicity
 _atom_site_fract_x
 _atom_site_fract_y
 _atom_site_fract_z
 _atom_site_occupancy
  Ho  Ho0  1  0.055905  0.745055  0.310850  1
  Ho  Ho1  1  0.944095  0.254945  0.689150  1
  Er  Er2  1  0.565412  0.255248  0.310161  1
  Er  Er3  1  0.434588  0.744752  0.689839  1
  Er  Er4  1  0.667495  0.851410  0.183242  1
  Er  Er5  1  0.332505  0.515747  0.183915  1
  Er  Er6  1  0.332505  0.148590  0.816758  1
  Er  Er7  1  0.667495  0.484253  0.816085  1
  Er  Er8  1  0.180854  0.220031  0.400352  1
  Er  Er9  1  0.819146  0.219498  0.039177  1
  Er  Er10  1  0.180854  0.780502  0.960823  1
  Er  Er11  1  0.819146  0.779969  0.599648  1
  Zn  Zn12  1  0.000000  0.500000  0.500000  1
  Zn  Zn13  1  0.500000  0.000000  0.500000  1
  Tc  Tc14  1  0.681724  0.499941  0.181783  1
  Tc  Tc15  1  0.318276  0.500059  0.818217  1
  Ni  Ni16  1  0.882599  0.882798  0.999800  1
  Ni  Ni17  1  0.117401  0.117202  0.000200  1
