# generated using pymatgen
data_Er3Co8ReP6
_symmetry_space_group_name_H-M   'P 1'
_cell_length_a   3.70745800
_cell_length_b   10.47323800
_cell_length_c   12.16415700
_cell_angle_alpha   90.00000000
_cell_angle_beta   90.00000000
_cell_angle_gamma   90.00000000
_symmetry_Int_Tables_number   1
_chemical_formula_structural   Er3Co8ReP6
_chemical_formula_sum   'Er6 Co16 Re2 P12'
_cell_volume   472.32314704
_cell_formula_units_Z   2
loop_
 _symmetry_equiv_pos_site_id
 _symmetry_equiv_pos_as_xyz
  1  'x, y, z'
loop_
 _atom_site_type_symbol
 _atom_site_label
 _atom_site_symmetry_multiplicity
 _atom_site_fract_x
 _atom_site_fract_y
 _atom_site_fract_z
 _atom_site_occupancy
  Er  Er0  1  0.750000  0.250000  0.474643  1
  Er  Er1  1  0.250000  0.750000  0.525357  1
  Er  Er2  1  0.250000  0.931539  0.794176  1
  Er  Er3  1  0.250000  0.568461  0.794176  1
  Er  Er4  1  0.750000  0.068461  0.205824  1
  Er  Er5  1  0.750000  0.431539  0.205824  1
  Co  Co6  1  0.250000  0.250000  0.298340  1
  Co  Co7  1  0.750000  0.750000  0.701660  1
  Co  Co8  1  0.750000  0.250000  0.012118  1
  Co  Co9  1  0.250000  0.750000  0.987882  1
  Co  Co10  1  0.250000  0.417637  0.010718  1
  Co  Co11  1  0.250000  0.082363  0.010718  1
  Co  Co12  1  0.750000  0.582363  0.989282  1
  Co  Co13  1  0.750000  0.917637  0.989282  1
  Co  Co14  1  0.250000  0.453124  0.568686  1
  Co  Co15  1  0.250000  0.046876  0.568686  1
  Co  Co16  1  0.750000  0.546876  0.431314  1
  Co  Co17  1  0.750000  0.953124  0.431314  1
  Co  Co18  1  0.250000  0.871252  0.291908  1
  Co  Co19  1  0.250000  0.628748  0.291908  1
  Co  Co20  1  0.750000  0.128748  0.708092  1
  Co  Co21  1  0.750000  0.371252  0.708092  1
  Re  Re22  1  0.250000  0.250000  0.843458  1
  Re  Re23  1  0.750000  0.750000  0.156542  1
  P  P24  1  0.250000  0.250000  0.120763  1
  P  P25  1  0.750000  0.750000  0.879237  1
  P  P26  1  0.250000  0.250000  0.649626  1
  P  P27  1  0.750000  0.750000  0.350374  1
  P  P28  1  0.250000  0.437531  0.383577  1
  P  P29  1  0.250000  0.062469  0.383577  1
  P  P30  1  0.750000  0.562469  0.616423  1
  P  P31  1  0.750000  0.937531  0.616423  1
  P  P32  1  0.250000  0.904555  0.108187  1
  P  P33  1  0.250000  0.595445  0.108187  1
  P  P34  1  0.750000  0.095445  0.891813  1
  P  P35  1  0.750000  0.404555  0.891813  1
