# generated using pymatgen
data_Tb2Th2Al7Tc
_symmetry_space_group_name_H-M   'P 1'
_cell_length_a   5.61024400
_cell_length_b   5.61024502
_cell_length_c   9.05399400
_cell_angle_alpha   90.00000000
_cell_angle_beta   90.00000000
_cell_angle_gamma   119.99999400
_symmetry_Int_Tables_number   1
_chemical_formula_structural   Tb2Th2Al7Tc
_chemical_formula_sum   'Tb2 Th2 Al7 Tc1'
_cell_volume   246.79391017
_cell_formula_units_Z   1
loop_
 _symmetry_equiv_pos_site_id
 _symmetry_equiv_pos_as_xyz
  1  'x, y, z'
loop_
 _atom_site_type_symbol
 _atom_site_label
 _atom_site_symmetry_multiplicity
 _atom_site_fract_x
 _atom_site_fract_y
 _atom_site_fract_z
 _atom_site_occupancy
  Tb  Tb0  1  0.666667  0.333333  0.438283  1
  Tb  Tb1  1  0.333333  0.666667  0.561717  1
  Th  Th2  1  0.333333  0.666667  0.939915  1
  Th  Th3  1  0.666667  0.333333  0.060085  1
  Al  Al4  1  0.000000  0.000000  0.500000  1
  Al  Al5  1  0.666161  0.833081  0.247839  1
  Al  Al6  1  0.166919  0.833081  0.247839  1
  Al  Al7  1  0.166919  0.333839  0.247839  1
  Al  Al8  1  0.333839  0.166919  0.752161  1
  Al  Al9  1  0.833081  0.166919  0.752161  1
  Al  Al10  1  0.833081  0.666161  0.752161  1
  Tc  Tc11  1  0.000000  0.000000  0.000000  1
