# generated using pymatgen
data_YEr2NiSn3Pd2
_symmetry_space_group_name_H-M   'P 1'
_cell_length_a   7.60161527
_cell_length_b   7.60161570
_cell_length_c   3.79467100
_cell_angle_alpha   90.00000000
_cell_angle_beta   90.00000000
_cell_angle_gamma   120.25121870
_symmetry_Int_Tables_number   1
_chemical_formula_structural   YEr2NiSn3Pd2
_chemical_formula_sum   'Y1 Er2 Ni1 Sn3 Pd2'
_cell_volume   189.41378674
_cell_formula_units_Z   1
loop_
 _symmetry_equiv_pos_site_id
 _symmetry_equiv_pos_as_xyz
  1  'x, y, z'
loop_
 _atom_site_type_symbol
 _atom_site_label
 _atom_site_symmetry_multiplicity
 _atom_site_fract_x
 _atom_site_fract_y
 _atom_site_fract_z
 _atom_site_occupancy
  Y  Y0  1  0.399237  0.399237  0.500000  1
  Er  Er1  1  0.601029  0.000023  0.500000  1
  Er  Er2  1  0.000023  0.601029  0.500000  1
  Ni  Ni3  1  0.998720  0.998720  0.500000  1
  Sn  Sn4  1  0.747547  0.747547  0.000000  1
  Sn  Sn5  1  0.253023  0.998713  0.000000  1
  Sn  Sn6  1  0.998713  0.253023  0.000000  1
  Pd  Pd7  1  0.668802  0.332906  0.000000  1
  Pd  Pd8  1  0.332906  0.668802  0.000000  1
