# generated using pymatgen
data_Pr5Ho11Cd4(OsPd)2
_symmetry_space_group_name_H-M   'P 1'
_cell_length_a   9.78459170
_cell_length_b   9.78034057
_cell_length_c   9.82080642
_cell_angle_alpha   59.50479779
_cell_angle_beta   59.53288979
_cell_angle_gamma   59.59741029
_symmetry_Int_Tables_number   1
_chemical_formula_structural   Pr5Ho11Cd4(OsPd)2
_chemical_formula_sum   'Pr5 Ho11 Cd4 Os2 Pd2'
_cell_volume   657.67652881
_cell_formula_units_Z   1
loop_
 _symmetry_equiv_pos_site_id
 _symmetry_equiv_pos_as_xyz
  1  'x, y, z'
loop_
 _atom_site_type_symbol
 _atom_site_label
 _atom_site_symmetry_multiplicity
 _atom_site_fract_x
 _atom_site_fract_y
 _atom_site_fract_z
 _atom_site_occupancy
  Pr  Pr0  1  0.550649  0.942039  0.943673  1
  Pr  Pr1  1  0.557415  0.936567  0.563868  1
  Pr  Pr2  1  0.941243  0.552710  0.939606  1
  Pr  Pr3  1  0.564513  0.560754  0.935708  1
  Pr  Pr4  1  0.941578  0.939551  0.558712  1
  Ho  Ho5  1  0.348899  0.348409  0.354657  1
  Ho  Ho6  1  0.347475  0.351790  0.951080  1
  Ho  Ho7  1  0.342198  0.959732  0.351645  1
  Ho  Ho8  1  0.956603  0.344871  0.349945  1
  Ho  Ho9  1  0.819919  0.184943  0.186456  1
  Ho  Ho10  1  0.181997  0.820955  0.807535  1
  Ho  Ho11  1  0.183437  0.818618  0.189254  1
  Ho  Ho12  1  0.819674  0.184311  0.807306  1
  Ho  Ho13  1  0.184746  0.186810  0.812792  1
  Ho  Ho14  1  0.812311  0.810838  0.188986  1
  Ho  Ho15  1  0.943980  0.547822  0.562118  1
  Cd  Cd16  1  0.582927  0.577168  0.578084  1
  Cd  Cd17  1  0.577690  0.578488  0.263413  1
  Cd  Cd18  1  0.579676  0.260503  0.579204  1
  Cd  Cd19  1  0.258339  0.579750  0.578554  1
  Os  Os20  1  0.145356  0.143989  0.137911  1
  Os  Os21  1  0.142355  0.150690  0.573199  1
  Pd  Pd22  1  0.143547  0.573847  0.144739  1
  Pd  Pd23  1  0.573473  0.144841  0.141554  1
