# generated using pymatgen
data_Ho4SnHgAu4
_symmetry_space_group_name_H-M   'P 1'
_cell_length_a   8.00879000
_cell_length_b   8.00879000
_cell_length_c   7.30740000
_cell_angle_alpha   90.00000000
_cell_angle_beta   90.00000000
_cell_angle_gamma   90.00000000
_symmetry_Int_Tables_number   1
_chemical_formula_structural   Ho4SnHgAu4
_chemical_formula_sum   'Ho8 Sn2 Hg2 Au8'
_cell_volume   468.70187734
_cell_formula_units_Z   2
loop_
 _symmetry_equiv_pos_site_id
 _symmetry_equiv_pos_as_xyz
  1  'x, y, z'
loop_
 _atom_site_type_symbol
 _atom_site_label
 _atom_site_symmetry_multiplicity
 _atom_site_fract_x
 _atom_site_fract_y
 _atom_site_fract_z
 _atom_site_occupancy
  Ho  Ho0  1  0.841968  0.158032  0.500000  1
  Ho  Ho1  1  0.158032  0.841968  0.500000  1
  Ho  Ho2  1  0.341968  0.341968  0.000000  1
  Ho  Ho3  1  0.658032  0.658032  0.000000  1
  Ho  Ho4  1  0.684545  0.684545  0.500000  1
  Ho  Ho5  1  0.315455  0.315455  0.500000  1
  Ho  Ho6  1  0.184545  0.815455  0.000000  1
  Ho  Ho7  1  0.815455  0.184545  0.000000  1
  Sn  Sn8  1  0.500000  0.000000  0.750000  1
  Sn  Sn9  1  0.000000  0.500000  0.250000  1
  Hg  Hg10  1  0.500000  0.000000  0.250000  1
  Hg  Hg11  1  0.000000  0.500000  0.750000  1
  Au  Au12  1  0.627417  0.371955  0.276351  1
  Au  Au13  1  0.372583  0.628045  0.276351  1
  Au  Au14  1  0.127417  0.128045  0.776351  1
  Au  Au15  1  0.872583  0.871955  0.776351  1
  Au  Au16  1  0.371955  0.627417  0.723649  1
  Au  Au17  1  0.628045  0.372583  0.723649  1
  Au  Au18  1  0.871955  0.872583  0.223649  1
  Au  Au19  1  0.128045  0.127417  0.223649  1
