# generated using pymatgen
data_Ho2Ge4Mo3
_symmetry_space_group_name_H-M   'P 1'
_cell_length_a   7.04783000
_cell_length_b   6.90219358
_cell_length_c   6.99283784
_cell_angle_alpha   70.58877115
_cell_angle_beta   90.00000000
_cell_angle_gamma   90.00000000
_symmetry_Int_Tables_number   1
_chemical_formula_structural   Ho2Ge4Mo3
_chemical_formula_sum   'Ho4 Ge8 Mo6'
_cell_volume   320.83390300
_cell_formula_units_Z   2
loop_
 _symmetry_equiv_pos_site_id
 _symmetry_equiv_pos_as_xyz
  1  'x, y, z'
loop_
 _atom_site_type_symbol
 _atom_site_label
 _atom_site_symmetry_multiplicity
 _atom_site_fract_x
 _atom_site_fract_y
 _atom_site_fract_z
 _atom_site_occupancy
  Ho  Ho0  1  0.329622  0.556837  0.809388  1
  Ho  Ho1  1  0.829622  0.943163  0.190612  1
  Ho  Ho2  1  0.670378  0.443163  0.190612  1
  Ho  Ho3  1  0.170378  0.056837  0.809388  1
  Ge  Ge4  1  0.545602  0.859254  0.908479  1
  Ge  Ge5  1  0.045602  0.640746  0.091521  1
  Ge  Ge6  1  0.454398  0.140746  0.091521  1
  Ge  Ge7  1  0.954398  0.359254  0.908479  1
  Ge  Ge8  1  0.136931  0.866932  0.496601  1
  Ge  Ge9  1  0.636931  0.633068  0.503399  1
  Ge  Ge10  1  0.863069  0.133068  0.503399  1
  Ge  Ge11  1  0.363069  0.366932  0.496601  1
  Mo  Mo12  1  0.500000  0.000000  0.500000  1
  Mo  Mo13  1  0.000000  0.500000  0.500000  1
  Mo  Mo14  1  0.841133  0.747936  0.751592  1
  Mo  Mo15  1  0.341133  0.752064  0.248408  1
  Mo  Mo16  1  0.158867  0.252064  0.248408  1
  Mo  Mo17  1  0.658867  0.247936  0.751592  1
