# generated using pymatgen
data_Fe3Co(PW)4
_symmetry_space_group_name_H-M   'P 1'
_cell_length_a   3.72858500
_cell_length_b   5.83384321
_cell_length_c   6.73920683
_cell_angle_alpha   89.61761377
_cell_angle_beta   90.00000000
_cell_angle_gamma   90.00000000
_symmetry_Int_Tables_number   1
_chemical_formula_structural   Fe3Co(PW)4
_chemical_formula_sum   'Fe3 Co1 P4 W4'
_cell_volume   146.58782958
_cell_formula_units_Z   1
loop_
 _symmetry_equiv_pos_site_id
 _symmetry_equiv_pos_as_xyz
  1  'x, y, z'
loop_
 _atom_site_type_symbol
 _atom_site_label
 _atom_site_symmetry_multiplicity
 _atom_site_fract_x
 _atom_site_fract_y
 _atom_site_fract_z
 _atom_site_occupancy
  Fe  Fe0  1  0.250000  0.861037  0.935964  1
  Fe  Fe1  1  0.250000  0.361952  0.564289  1
  Fe  Fe2  1  0.750000  0.140126  0.067159  1
  Co  Co3  1  0.750000  0.639943  0.431512  1
  P  P4  1  0.250000  0.230699  0.876190  1
  P  P5  1  0.250000  0.733181  0.624107  1
  P  P6  1  0.750000  0.770059  0.120638  1
  P  P7  1  0.750000  0.266522  0.379435  1
  W  W8  1  0.250000  0.970875  0.328177  1
  W  W9  1  0.250000  0.468801  0.168910  1
  W  W10  1  0.750000  0.027897  0.673813  1
  W  W11  1  0.750000  0.528909  0.829804  1
