# generated using pymatgen
data_Pr2Tm3Pt4
_symmetry_space_group_name_H-M   'P 1'
_cell_length_a   7.75337600
_cell_length_b   7.68519100
_cell_length_c   14.49266700
_cell_angle_alpha   90.00000000
_cell_angle_beta   90.00000000
_cell_angle_gamma   90.00000000
_symmetry_Int_Tables_number   1
_chemical_formula_structural   Pr2Tm3Pt4
_chemical_formula_sum   'Pr8 Tm12 Pt16'
_cell_volume   863.56259867
_cell_formula_units_Z   4
loop_
 _symmetry_equiv_pos_site_id
 _symmetry_equiv_pos_as_xyz
  1  'x, y, z'
loop_
 _atom_site_type_symbol
 _atom_site_label
 _atom_site_symmetry_multiplicity
 _atom_site_fract_x
 _atom_site_fract_y
 _atom_site_fract_z
 _atom_site_occupancy
  Pr  Pr0  1  0.015845  0.174626  0.402008  1
  Pr  Pr1  1  0.515845  0.325374  0.402008  1
  Pr  Pr2  1  0.484155  0.674626  0.902008  1
  Pr  Pr3  1  0.484155  0.674626  0.597992  1
  Pr  Pr4  1  0.984155  0.825374  0.597992  1
  Pr  Pr5  1  0.984155  0.825374  0.902008  1
  Pr  Pr6  1  0.515845  0.325374  0.097992  1
  Pr  Pr7  1  0.015845  0.174626  0.097992  1
  Tm  Tm8  1  0.330762  0.165200  0.621944  1
  Tm  Tm9  1  0.669238  0.834800  0.378056  1
  Tm  Tm10  1  0.663591  0.998086  0.750000  1
  Tm  Tm11  1  0.169238  0.665200  0.378056  1
  Tm  Tm12  1  0.830762  0.334800  0.878056  1
  Tm  Tm13  1  0.830762  0.334800  0.621944  1
  Tm  Tm14  1  0.836409  0.498086  0.250000  1
  Tm  Tm15  1  0.336409  0.001914  0.250000  1
  Tm  Tm16  1  0.330762  0.165200  0.878056  1
  Tm  Tm17  1  0.169238  0.665200  0.121944  1
  Tm  Tm18  1  0.669238  0.834800  0.121944  1
  Tm  Tm19  1  0.163591  0.501914  0.750000  1
  Pt  Pt20  1  0.294860  0.865540  0.750000  1
  Pt  Pt21  1  0.465138  0.631385  0.250000  1
  Pt  Pt22  1  0.034862  0.131385  0.750000  1
  Pt  Pt23  1  0.534862  0.368615  0.750000  1
  Pt  Pt24  1  0.165794  0.462348  0.546341  1
  Pt  Pt25  1  0.965138  0.868615  0.250000  1
  Pt  Pt26  1  0.705140  0.134460  0.250000  1
  Pt  Pt27  1  0.834206  0.537652  0.046341  1
  Pt  Pt28  1  0.334206  0.962348  0.046341  1
  Pt  Pt29  1  0.165794  0.462348  0.953659  1
  Pt  Pt30  1  0.665794  0.037652  0.546341  1
  Pt  Pt31  1  0.334206  0.962348  0.453659  1
  Pt  Pt32  1  0.834206  0.537652  0.453659  1
  Pt  Pt33  1  0.794860  0.634460  0.750000  1
  Pt  Pt34  1  0.205140  0.365540  0.250000  1
  Pt  Pt35  1  0.665794  0.037652  0.953659  1
