# generated using pymatgen
data_Tm4Sb6Ru3Rh4
_symmetry_space_group_name_H-M   'P 1'
_cell_length_a   7.54463848
_cell_length_b   7.54463872
_cell_length_c   7.53712512
_cell_angle_alpha   109.44073917
_cell_angle_beta   109.44073939
_cell_angle_gamma   109.57250813
_symmetry_Int_Tables_number   1
_chemical_formula_structural   Tm4Sb6Ru3Rh4
_chemical_formula_sum   'Tm4 Sb6 Ru3 Rh4'
_cell_volume   330.09870624
_cell_formula_units_Z   1
loop_
 _symmetry_equiv_pos_site_id
 _symmetry_equiv_pos_as_xyz
  1  'x, y, z'
loop_
 _atom_site_type_symbol
 _atom_site_label
 _atom_site_symmetry_multiplicity
 _atom_site_fract_x
 _atom_site_fract_y
 _atom_site_fract_z
 _atom_site_occupancy
  Tm  Tm0  1  0.499048  0.999048  0.998096  1
  Tm  Tm1  1  0.999048  0.499048  0.998096  1
  Tm  Tm2  1  0.002689  0.002689  0.501657  1
  Tm  Tm3  1  0.498968  0.498968  0.501657  1
  Sb  Sb4  1  0.314614  0.001150  0.315764  1
  Sb  Sb5  1  0.000883  0.685504  0.686387  1
  Sb  Sb6  1  0.683730  0.683730  0.997388  1
  Sb  Sb7  1  0.685504  0.000883  0.686387  1
  Sb  Sb8  1  0.001150  0.314614  0.315764  1
  Sb  Sb9  1  0.313657  0.313657  0.997388  1
  Ru  Ru10  1  0.249458  0.500122  0.749580  1
  Ru  Ru11  1  0.500122  0.249458  0.749580  1
  Ru  Ru12  1  0.000071  0.000071  0.000142  1
  Rh  Rh13  1  0.750364  0.250364  0.500729  1
  Rh  Rh14  1  0.499838  0.750490  0.250329  1
  Rh  Rh15  1  0.250364  0.750364  0.500729  1
  Rh  Rh16  1  0.750490  0.499838  0.250329  1
