# generated using pymatgen
data_Rb2LiTaO4
_symmetry_space_group_name_H-M   'P 1'
_cell_length_a   6.07472326
_cell_length_b   6.07472318
_cell_length_c   8.25874865
_cell_angle_alpha   90.13338030
_cell_angle_beta   90.13337512
_cell_angle_gamma   83.91068439
_symmetry_Int_Tables_number   1
_chemical_formula_structural   Rb2LiTaO4
_chemical_formula_sum   'Rb4 Li2 Ta2 O8'
_cell_volume   303.04545258
_cell_formula_units_Z   2
loop_
 _symmetry_equiv_pos_site_id
 _symmetry_equiv_pos_as_xyz
  1  'x, y, z'
loop_
 _atom_site_type_symbol
 _atom_site_label
 _atom_site_symmetry_multiplicity
 _atom_site_fract_x
 _atom_site_fract_y
 _atom_site_fract_z
 _atom_site_occupancy
  Rb  Rb0  1  0.283528  0.283528  0.194660  1
  Rb  Rb1  1  0.218201  0.781799  0.500000  1
  Rb  Rb2  1  0.716472  0.716472  0.805340  1
  Rb  Rb3  1  0.781799  0.218201  0.500000  1
  Li  Li4  1  0.173815  0.826185  0.000000  1
  Li  Li5  1  0.826185  0.173815  0.000000  1
  Ta  Ta6  1  0.298076  0.298076  0.769801  1
  Ta  Ta7  1  0.701924  0.701924  0.230199  1
  O  O8  1  0.778260  0.404232  0.175934  1
  O  O9  1  0.879452  0.879452  0.114167  1
  O  O10  1  0.404232  0.778260  0.175934  1
  O  O11  1  0.120548  0.120548  0.885833  1
  O  O12  1  0.736050  0.736050  0.455260  1
  O  O13  1  0.595768  0.221740  0.824066  1
  O  O14  1  0.221740  0.595768  0.824066  1
  O  O15  1  0.263950  0.263950  0.544740  1
