# generated using pymatgen
data_Ho6Tm3LuSi6
_symmetry_space_group_name_H-M   'P 1'
_cell_length_a   8.36543500
_cell_length_b   8.36543419
_cell_length_c   6.26175500
_cell_angle_alpha   90.00000000
_cell_angle_beta   90.00000000
_cell_angle_gamma   120.00000716
_symmetry_Int_Tables_number   1
_chemical_formula_structural   Ho6Tm3LuSi6
_chemical_formula_sum   'Ho6 Tm3 Lu1 Si6'
_cell_volume   379.49292855
_cell_formula_units_Z   1
loop_
 _symmetry_equiv_pos_site_id
 _symmetry_equiv_pos_as_xyz
  1  'x, y, z'
loop_
 _atom_site_type_symbol
 _atom_site_label
 _atom_site_symmetry_multiplicity
 _atom_site_fract_x
 _atom_site_fract_y
 _atom_site_fract_z
 _atom_site_occupancy
  Ho  Ho0  1  0.756614  0.756553  0.250062  1
  Ho  Ho1  1  0.243447  0.000061  0.250062  1
  Ho  Ho2  1  0.999939  0.243386  0.250062  1
  Ho  Ho3  1  0.243447  0.243386  0.749938  1
  Ho  Ho4  1  0.756614  0.000061  0.749938  1
  Ho  Ho5  1  0.999939  0.756553  0.749938  1
  Tm  Tm6  1  0.333333  0.666667  0.500000  1
  Tm  Tm7  1  0.333333  0.666667  0.000000  1
  Tm  Tm8  1  0.666667  0.333333  0.000000  1
  Lu  Lu9  1  0.666667  0.333333  0.500000  1
  Si  Si10  1  0.394452  0.394287  0.250146  1
  Si  Si11  1  0.605713  0.000165  0.250146  1
  Si  Si12  1  0.999835  0.605548  0.250146  1
  Si  Si13  1  0.605713  0.605548  0.749854  1
  Si  Si14  1  0.394452  0.000165  0.749854  1
  Si  Si15  1  0.999835  0.394287  0.749854  1
