# generated using pymatgen
data_TbErZr2(Co5P3)4
_symmetry_space_group_name_H-M   'P 1'
_cell_length_a   3.62544300
_cell_length_b   10.21091517
_cell_length_c   11.67291420
_cell_angle_alpha   89.97891808
_cell_angle_beta   90.00000000
_cell_angle_gamma   90.00000000
_symmetry_Int_Tables_number   1
_chemical_formula_structural   TbErZr2(Co5P3)4
_chemical_formula_sum   'Tb1 Er1 Zr2 Co20 P12'
_cell_volume   432.12064293
_cell_formula_units_Z   1
loop_
 _symmetry_equiv_pos_site_id
 _symmetry_equiv_pos_as_xyz
  1  'x, y, z'
loop_
 _atom_site_type_symbol
 _atom_site_label
 _atom_site_symmetry_multiplicity
 _atom_site_fract_x
 _atom_site_fract_y
 _atom_site_fract_z
 _atom_site_occupancy
  Tb  Tb0  1  0.750000  0.082564  0.796972  1
  Er  Er1  1  0.750000  0.417392  0.297133  1
  Zr  Zr2  1  0.250000  0.582048  0.701366  1
  Zr  Zr3  1  0.250000  0.917946  0.201351  1
  Co  Co4  1  0.250000  0.718211  0.993267  1
  Co  Co5  1  0.250000  0.781688  0.493192  1
  Co  Co6  1  0.750000  0.282500  0.009014  1
  Co  Co7  1  0.750000  0.217594  0.508936  1
  Co  Co8  1  0.250000  0.409722  0.490035  1
  Co  Co9  1  0.250000  0.090223  0.990867  1
  Co  Co10  1  0.750000  0.593554  0.515244  1
  Co  Co11  1  0.750000  0.906266  0.015389  1
  Co  Co12  1  0.250000  0.221677  0.177883  1
  Co  Co13  1  0.250000  0.278908  0.677539  1
  Co  Co14  1  0.750000  0.776241  0.822743  1
  Co  Co15  1  0.750000  0.723542  0.322649  1
  Co  Co16  1  0.250000  0.880175  0.698573  1
  Co  Co17  1  0.250000  0.619197  0.198836  1
  Co  Co18  1  0.750000  0.114042  0.299442  1
  Co  Co19  1  0.750000  0.386285  0.799485  1
  Co  Co20  1  0.250000  0.470419  0.928954  1
  Co  Co21  1  0.250000  0.029855  0.428713  1
  Co  Co22  1  0.750000  0.534819  0.067107  1
  Co  Co23  1  0.750000  0.965007  0.566671  1
  P  P24  1  0.250000  0.419112  0.111130  1
  P  P25  1  0.250000  0.080881  0.610309  1
  P  P26  1  0.750000  0.581514  0.884566  1
  P  P27  1  0.750000  0.918501  0.384492  1
  P  P28  1  0.250000  0.270743  0.871803  1
  P  P29  1  0.250000  0.230265  0.371454  1
  P  P30  1  0.750000  0.732520  0.131375  1
  P  P31  1  0.750000  0.767485  0.631442  1
  P  P32  1  0.250000  0.601581  0.390711  1
  P  P33  1  0.250000  0.897558  0.891094  1
  P  P34  1  0.750000  0.400396  0.610160  1
  P  P35  1  0.750000  0.099569  0.110106  1
