# generated using pymatgen
data_TbNp(SeBr)4
_symmetry_space_group_name_H-M   'P 1'
_cell_length_a   7.50010753
_cell_length_b   7.50010588
_cell_length_c   7.93387232
_cell_angle_alpha   79.10305234
_cell_angle_beta   79.10304212
_cell_angle_gamma   122.68012673
_symmetry_Int_Tables_number   1
_chemical_formula_structural   TbNp(SeBr)4
_chemical_formula_sum   'Tb1 Np1 Se4 Br4'
_cell_volume   345.23250243
_cell_formula_units_Z   1
loop_
 _symmetry_equiv_pos_site_id
 _symmetry_equiv_pos_as_xyz
  1  'x, y, z'
loop_
 _atom_site_type_symbol
 _atom_site_label
 _atom_site_symmetry_multiplicity
 _atom_site_fract_x
 _atom_site_fract_y
 _atom_site_fract_z
 _atom_site_occupancy
  Tb  Tb0  1  0.850164  0.149836  0.000000  1
  Np  Np1  1  0.150335  0.849665  0.000000  1
  Se  Se2  1  0.869641  0.867019  0.296718  1
  Se  Se3  1  0.677534  0.669179  0.121836  1
  Se  Se4  1  0.330821  0.322466  0.878164  1
  Se  Se5  1  0.132981  0.130359  0.703282  1
  Br  Br6  1  0.983144  0.581432  0.772593  1
  Br  Br7  1  0.016551  0.429739  0.227409  1
  Br  Br8  1  0.570261  0.983449  0.772591  1
  Br  Br9  1  0.418568  0.016856  0.227407  1
