# generated using pymatgen
data_Ba5Sr3Sb4H2O
_symmetry_space_group_name_H-M   'P 1'
_cell_length_a   5.10192414
_cell_length_b   5.10192383
_cell_length_c   19.21737423
_cell_angle_alpha   97.62808547
_cell_angle_beta   97.62808396
_cell_angle_gamma   90.00001125
_symmetry_Int_Tables_number   1
_chemical_formula_structural   Ba5Sr3Sb4H2O
_chemical_formula_sum   'Ba5 Sr3 Sb4 H2 O1'
_cell_volume   491.32790573
_cell_formula_units_Z   1
loop_
 _symmetry_equiv_pos_site_id
 _symmetry_equiv_pos_as_xyz
  1  'x, y, z'
loop_
 _atom_site_type_symbol
 _atom_site_label
 _atom_site_symmetry_multiplicity
 _atom_site_fract_x
 _atom_site_fract_y
 _atom_site_fract_z
 _atom_site_occupancy
  Ba  Ba0  1  0.081923  0.081923  0.163844  1
  Ba  Ba1  1  0.659317  0.659317  0.318635  1
  Ba  Ba2  1  0.250000  0.749999  0.500000  1
  Ba  Ba3  1  0.340683  0.340683  0.681365  1
  Ba  Ba4  1  0.918077  0.918077  0.836156  1
  Sr  Sr5  1  0.499984  0.999985  0.999969  1
  Sr  Sr6  1  0.000015  0.500014  0.000031  1
  Sr  Sr7  1  0.749999  0.250000  0.500000  1
  Sb  Sb8  1  0.563879  0.563879  0.127761  1
  Sb  Sb9  1  0.180547  0.180547  0.361094  1
  Sb  Sb10  1  0.819452  0.819452  0.638906  1
  Sb  Sb11  1  0.436120  0.436120  0.872239  1
  H  H12  1  0.729520  0.729520  0.459043  1
  H  H13  1  0.270479  0.270479  0.540957  1
  O  O14  1  0.000000  0.000000  0.000000  1
