# generated using pymatgen
data_Th4Zn8Cd3Ag
_symmetry_space_group_name_H-M   'P 1'
_cell_length_a   4.53175600
_cell_length_b   7.38848409
_cell_length_c   10.19614800
_cell_angle_alpha   89.85674652
_cell_angle_beta   90.00000000
_cell_angle_gamma   90.00000000
_symmetry_Int_Tables_number   1
_chemical_formula_structural   Th4Zn8Cd3Ag
_chemical_formula_sum   'Th4 Zn8 Cd3 Ag1'
_cell_volume   341.39458980
_cell_formula_units_Z   1
loop_
 _symmetry_equiv_pos_site_id
 _symmetry_equiv_pos_as_xyz
  1  'x, y, z'
loop_
 _atom_site_type_symbol
 _atom_site_label
 _atom_site_symmetry_multiplicity
 _atom_site_fract_x
 _atom_site_fract_y
 _atom_site_fract_z
 _atom_site_occupancy
  Th  Th0  1  0.250000  0.307659  0.672776  1
  Th  Th1  1  0.250000  0.814224  0.822862  1
  Th  Th2  1  0.750000  0.690191  0.329806  1
  Th  Th3  1  0.750000  0.189465  0.173070  1
  Zn  Zn4  1  0.250000  0.903457  0.146229  1
  Zn  Zn5  1  0.250000  0.401800  0.354579  1
  Zn  Zn6  1  0.750000  0.097935  0.850685  1
  Zn  Zn7  1  0.750000  0.602602  0.645739  1
  Zn  Zn8  1  0.250000  0.185466  0.964398  1
  Zn  Zn9  1  0.250000  0.683621  0.535779  1
  Zn  Zn10  1  0.750000  0.813754  0.035624  1
  Zn  Zn11  1  0.750000  0.309024  0.465867  1
  Cd  Cd12  1  0.250000  0.526116  0.096006  1
  Cd  Cd13  1  0.250000  0.023422  0.406883  1
  Cd  Cd14  1  0.750000  0.476269  0.903443  1
  Ag  Ag15  1  0.750000  0.974996  0.596256  1
