# generated using pymatgen
data_Nd5ThH18
_symmetry_space_group_name_H-M   'P 1'
_cell_length_a   6.69442800
_cell_length_b   6.69720499
_cell_length_c   6.87746037
_cell_angle_alpha   90.29872126
_cell_angle_beta   90.00000000
_cell_angle_gamma   119.98628444
_symmetry_Int_Tables_number   1
_chemical_formula_structural   Nd5ThH18
_chemical_formula_sum   'Nd5 Th1 H18'
_cell_volume   267.06558910
_cell_formula_units_Z   1
loop_
 _symmetry_equiv_pos_site_id
 _symmetry_equiv_pos_as_xyz
  1  'x, y, z'
loop_
 _atom_site_type_symbol
 _atom_site_label
 _atom_site_symmetry_multiplicity
 _atom_site_fract_x
 _atom_site_fract_y
 _atom_site_fract_z
 _atom_site_occupancy
  Nd  Nd0  1  0.999685  0.666700  0.250142  1
  Nd  Nd1  1  0.332985  0.333300  0.249858  1
  Nd  Nd2  1  0.666524  0.663548  0.750240  1
  Nd  Nd3  1  0.002976  0.336452  0.749760  1
  Nd  Nd4  1  0.330974  0.000000  0.750000  1
  Th  Th5  1  0.666137  0.000000  0.250000  1
  H  H6  1  0.667517  0.676262  0.098340  1
  H  H7  1  0.344022  0.001799  0.098225  1
  H  H8  1  0.989488  0.323597  0.097983  1
  H  H9  1  0.332362  0.666231  0.249882  1
  H  H10  1  0.000510  0.000000  0.250000  1
  H  H11  1  0.666132  0.333769  0.250118  1
  H  H12  1  0.991255  0.323738  0.401660  1
  H  H13  1  0.342223  0.998201  0.401775  1
  H  H14  1  0.665891  0.676403  0.402017  1
  H  H15  1  0.670533  0.007291  0.590266  1
  H  H16  1  0.337811  0.329733  0.592916  1
  H  H17  1  0.991949  0.662404  0.592592  1
  H  H18  1  0.335621  0.668754  0.729756  1
  H  H19  1  0.997671  0.000000  0.750000  1
  H  H20  1  0.666868  0.331246  0.770244  1
  H  H21  1  0.008078  0.670267  0.907084  1
  H  H22  1  0.663243  0.992709  0.909734  1
  H  H23  1  0.329545  0.337596  0.907408  1
