# generated using pymatgen
data_Cr4FeRuSe8
_symmetry_space_group_name_H-M   'P 1'
_cell_length_a   6.49024693
_cell_length_b   6.50402871
_cell_length_c   6.54934008
_cell_angle_alpha   92.28769773
_cell_angle_beta   94.33682171
_cell_angle_gamma   93.85221276
_symmetry_Int_Tables_number   1
_chemical_formula_structural   Cr4FeRuSe8
_chemical_formula_sum   'Cr4 Fe1 Ru1 Se8'
_cell_volume   274.76976143
_cell_formula_units_Z   1
loop_
 _symmetry_equiv_pos_site_id
 _symmetry_equiv_pos_as_xyz
  1  'x, y, z'
loop_
 _atom_site_type_symbol
 _atom_site_label
 _atom_site_symmetry_multiplicity
 _atom_site_fract_x
 _atom_site_fract_y
 _atom_site_fract_z
 _atom_site_occupancy
  Cr  Cr0  1  0.235250  0.543306  0.409724  1
  Cr  Cr1  1  0.413778  0.239334  0.550683  1
  Cr  Cr2  1  0.762494  0.455490  0.590409  1
  Cr  Cr3  1  0.587975  0.763044  0.449869  1
  Fe  Fe4  1  0.548340  0.412179  0.241064  1
  Ru  Ru5  1  0.450529  0.590548  0.764990  1
  Se  Se6  1  0.224425  0.221745  0.218861  1
  Se  Se7  1  0.792104  0.784477  0.777047  1
  Se  Se8  1  0.380135  0.716990  0.128041  1
  Se  Se9  1  0.122557  0.369051  0.719806  1
  Se  Se10  1  0.722401  0.133135  0.384874  1
  Se  Se11  1  0.622707  0.274281  0.881375  1
  Se  Se12  1  0.866613  0.621128  0.276214  1
  Se  Se13  1  0.270691  0.875292  0.607044  1
