# generated using pymatgen
data_Tm3Zr(Si4Tc3)2
_symmetry_space_group_name_H-M   'P 1'
_cell_length_a   6.72622400
_cell_length_b   6.72730938
_cell_length_c   12.61015924
_cell_angle_alpha   90.12847862
_cell_angle_beta   90.12184030
_cell_angle_gamma   90.02963329
_symmetry_Int_Tables_number   1
_chemical_formula_structural   Tm3Zr(Si4Tc3)2
_chemical_formula_sum   'Tm6 Zr2 Si16 Tc12'
_cell_volume   570.59920921
_cell_formula_units_Z   2
loop_
 _symmetry_equiv_pos_site_id
 _symmetry_equiv_pos_as_xyz
  1  'x, y, z'
loop_
 _atom_site_type_symbol
 _atom_site_label
 _atom_site_symmetry_multiplicity
 _atom_site_fract_x
 _atom_site_fract_y
 _atom_site_fract_z
 _atom_site_occupancy
  Tm  Tm0  1  0.007380  0.661116  0.030493  1
  Tm  Tm1  1  0.994693  0.337588  0.531485  1
  Tm  Tm2  1  0.661360  0.006141  0.969177  1
  Tm  Tm3  1  0.162214  0.493547  0.780244  1
  Tm  Tm4  1  0.838793  0.506678  0.281742  1
  Tm  Tm5  1  0.493615  0.161562  0.218668  1
  Zr  Zr6  1  0.510187  0.841303  0.717444  1
  Zr  Zr7  1  0.340087  0.989848  0.466600  1
  Si  Si8  1  0.022469  0.729066  0.439647  1
  Si  Si9  1  0.981024  0.271658  0.938226  1
  Si  Si10  1  0.724752  0.021328  0.562787  1
  Si  Si11  1  0.227997  0.481085  0.189462  1
  Si  Si12  1  0.771949  0.522800  0.688119  1
  Si  Si13  1  0.478208  0.225451  0.811148  1
  Si  Si14  1  0.519345  0.772796  0.312425  1
  Si  Si15  1  0.270641  0.981767  0.060070  1
  Si  Si16  1  0.884307  0.804583  0.815418  1
  Si  Si17  1  0.116244  0.193232  0.317771  1
  Si  Si18  1  0.806545  0.885722  0.184439  1
  Si  Si19  1  0.306711  0.617762  0.567520  1
  Si  Si20  1  0.694509  0.386005  0.065186  1
  Si  Si21  1  0.612628  0.303990  0.435163  1
  Si  Si22  1  0.386089  0.693812  0.932523  1
  Si  Si23  1  0.196441  0.112230  0.682697  1
  Tc  Tc24  1  0.314263  0.479816  0.382726  1
  Tc  Tc25  1  0.812252  0.021309  0.370269  1
  Tc  Tc26  1  0.979653  0.188064  0.132339  1
  Tc  Tc27  1  0.023395  0.813812  0.631076  1
  Tc  Tc28  1  0.686069  0.522088  0.879754  1
  Tc  Tc29  1  0.474096  0.311079  0.618354  1
  Tc  Tc30  1  0.519746  0.687205  0.118950  1
  Tc  Tc31  1  0.189841  0.973559  0.865893  1
  Tc  Tc32  1  0.662122  0.670546  0.502332  1
  Tc  Tc33  1  0.828867  0.162334  0.748686  1
  Tc  Tc34  1  0.166229  0.836041  0.252609  1
  Tc  Tc35  1  0.335280  0.333077  0.998555  1
