# generated using pymatgen
data_LiTb16In3Ru4
_symmetry_space_group_name_H-M   'P 1'
_cell_length_a   9.69458597
_cell_length_b   9.63769435
_cell_length_c   9.63769400
_cell_angle_alpha   59.99999435
_cell_angle_beta   60.19393007
_cell_angle_gamma   60.19393859
_symmetry_Int_Tables_number   1
_chemical_formula_structural   LiTb16In3Ru4
_chemical_formula_sum   'Li1 Tb16 In3 Ru4'
_cell_volume   638.59775362
_cell_formula_units_Z   1
loop_
 _symmetry_equiv_pos_site_id
 _symmetry_equiv_pos_as_xyz
  1  'x, y, z'
loop_
 _atom_site_type_symbol
 _atom_site_label
 _atom_site_symmetry_multiplicity
 _atom_site_fract_x
 _atom_site_fract_y
 _atom_site_fract_z
 _atom_site_occupancy
  Li  Li0  1  0.534916  0.821694  0.821694  1
  Tb  Tb1  1  0.598347  0.596094  0.596094  1
  Tb  Tb2  1  0.598347  0.596094  0.209466  1
  Tb  Tb3  1  0.598347  0.209466  0.596094  1
  Tb  Tb4  1  0.206097  0.597968  0.597968  1
  Tb  Tb5  1  0.056799  0.442446  0.442446  1
  Tb  Tb6  1  0.438320  0.061824  0.061824  1
  Tb  Tb7  1  0.438320  0.061824  0.438031  1
  Tb  Tb8  1  0.056799  0.442446  0.058309  1
  Tb  Tb9  1  0.438320  0.438031  0.061824  1
  Tb  Tb10  1  0.056799  0.058309  0.442446  1
  Tb  Tb11  1  0.190634  0.810274  0.810274  1
  Tb  Tb12  1  0.811788  0.188817  0.188817  1
  Tb  Tb13  1  0.811788  0.188817  0.810578  1
  Tb  Tb14  1  0.190634  0.810274  0.188818  1
  Tb  Tb15  1  0.811788  0.810578  0.188817  1
  Tb  Tb16  1  0.190634  0.188818  0.810274  1
  In  In17  1  0.826631  0.832195  0.832195  1
  In  In18  1  0.826631  0.832195  0.508978  1
  In  In19  1  0.826631  0.508978  0.832195  1
  Ru  Ru20  1  0.386659  0.390781  0.390781  1
  Ru  Ru21  1  0.386659  0.390781  0.831777  1
  Ru  Ru22  1  0.386659  0.831777  0.390781  1
  Ru  Ru23  1  0.831450  0.389517  0.389517  1
