# generated using pymatgen
data_Ho3In3IrAu2
_symmetry_space_group_name_H-M   'P 1'
_cell_length_a   7.70299500
_cell_length_b   7.70299531
_cell_length_c   3.94236000
_cell_angle_alpha   90.00000000
_cell_angle_beta   90.00000000
_cell_angle_gamma   119.99999438
_symmetry_Int_Tables_number   1
_chemical_formula_structural   Ho3In3IrAu2
_chemical_formula_sum   'Ho3 In3 Ir1 Au2'
_cell_volume   202.58448669
_cell_formula_units_Z   1
loop_
 _symmetry_equiv_pos_site_id
 _symmetry_equiv_pos_as_xyz
  1  'x, y, z'
loop_
 _atom_site_type_symbol
 _atom_site_label
 _atom_site_symmetry_multiplicity
 _atom_site_fract_x
 _atom_site_fract_y
 _atom_site_fract_z
 _atom_site_occupancy
  Ho  Ho0  1  0.580472  0.601059  0.000000  1
  Ho  Ho1  1  0.398941  0.979413  0.000000  1
  Ho  Ho2  1  0.020587  0.419528  0.000000  1
  In  In3  1  0.003677  0.738516  0.500000  1
  In  In4  1  0.261484  0.265160  0.500000  1
  In  In5  1  0.734840  0.996323  0.500000  1
  Ir  Ir6  1  0.333333  0.666667  0.500000  1
  Au  Au7  1  0.000000  0.000000  0.000000  1
  Au  Au8  1  0.666667  0.333333  0.500000  1
