# generated using pymatgen
data_La4Se3I3N
_symmetry_space_group_name_H-M   'P 1'
_cell_length_a   10.29684000
_cell_length_b   10.29699450
_cell_length_c   7.31555100
_cell_angle_alpha   90.00000000
_cell_angle_beta   90.00000000
_cell_angle_gamma   119.99949723
_symmetry_Int_Tables_number   1
_chemical_formula_structural   La4Se3I3N
_chemical_formula_sum   'La8 Se6 I6 N2'
_cell_volume   671.72934244
_cell_formula_units_Z   2
loop_
 _symmetry_equiv_pos_site_id
 _symmetry_equiv_pos_as_xyz
  1  'x, y, z'
loop_
 _atom_site_type_symbol
 _atom_site_label
 _atom_site_symmetry_multiplicity
 _atom_site_fract_x
 _atom_site_fract_y
 _atom_site_fract_z
 _atom_site_occupancy
  La  La0  1  0.666681  0.333360  0.205879  1
  La  La1  1  0.211516  0.423033  0.246999  1
  La  La2  1  0.211519  0.788472  0.247007  1
  La  La3  1  0.576953  0.788472  0.247007  1
  La  La4  1  0.333319  0.666640  0.705878  1
  La  La5  1  0.788484  0.576967  0.747000  1
  La  La6  1  0.423046  0.211528  0.747007  1
  La  La7  1  0.788482  0.211528  0.747007  1
  Se  Se8  1  0.534979  0.069957  0.469712  1
  Se  Se9  1  0.534958  0.465045  0.469742  1
  Se  Se10  1  0.930087  0.465045  0.469742  1
  Se  Se11  1  0.465022  0.930043  0.969713  1
  Se  Se12  1  0.069913  0.534954  0.969742  1
  Se  Se13  1  0.465041  0.534954  0.969742  1
  I  I14  1  0.262761  0.131378  0.148607  1
  I  I15  1  0.868617  0.131378  0.148607  1
  I  I16  1  0.868621  0.737243  0.148606  1
  I  I17  1  0.131384  0.868622  0.648607  1
  I  I18  1  0.737238  0.868622  0.648607  1
  I  I19  1  0.131379  0.262757  0.648606  1
  N  N20  1  0.333331  0.666662  0.367789  1
  N  N21  1  0.666669  0.333337  0.867790  1
