# generated using pymatgen
data_Co8PdSe8
_symmetry_space_group_name_H-M   'P 1'
_cell_length_a   7.45492301
_cell_length_b   7.45492348
_cell_length_c   7.45492300
_cell_angle_alpha   60.00000657
_cell_angle_beta   60.00000448
_cell_angle_gamma   60.00000508
_symmetry_Int_Tables_number   1
_chemical_formula_structural   Co8PdSe8
_chemical_formula_sum   'Co8 Pd1 Se8'
_cell_volume   292.96421128
_cell_formula_units_Z   1
loop_
 _symmetry_equiv_pos_site_id
 _symmetry_equiv_pos_as_xyz
  1  'x, y, z'
loop_
 _atom_site_type_symbol
 _atom_site_label
 _atom_site_symmetry_multiplicity
 _atom_site_fract_x
 _atom_site_fract_y
 _atom_site_fract_z
 _atom_site_occupancy
  Co  Co0  1  0.876314  0.371056  0.876314  1
  Co  Co1  1  0.123686  0.123686  0.628944  1
  Co  Co2  1  0.628944  0.123686  0.123686  1
  Co  Co3  1  0.123686  0.123686  0.123686  1
  Co  Co4  1  0.371056  0.876314  0.876314  1
  Co  Co5  1  0.876314  0.876314  0.876314  1
  Co  Co6  1  0.876314  0.876314  0.371056  1
  Co  Co7  1  0.123686  0.628944  0.123686  1
  Pd  Pd8  1  0.500000  0.500000  0.500000  1
  Se  Se9  1  0.750000  0.750000  0.750000  1
  Se  Se10  1  0.250000  0.250000  0.250000  1
  Se  Se11  1  0.253954  0.253954  0.746046  1
  Se  Se12  1  0.253954  0.746046  0.746046  1
  Se  Se13  1  0.746046  0.253954  0.253954  1
  Se  Se14  1  0.253954  0.746046  0.253954  1
  Se  Se15  1  0.746046  0.253954  0.746046  1
  Se  Se16  1  0.746046  0.746046  0.253954  1
