# generated using pymatgen
data_Sm2BC
_symmetry_space_group_name_H-M   'P 1'
_cell_length_a   6.72924421
_cell_length_b   6.72924517
_cell_length_c   9.43310904
_cell_angle_alpha   50.94227724
_cell_angle_beta   50.94227165
_cell_angle_gamma   30.98817254
_symmetry_Int_Tables_number   1
_chemical_formula_structural   Sm2BC
_chemical_formula_sum   'Sm4 B2 C2'
_cell_volume   166.39871695
_cell_formula_units_Z   2
loop_
 _symmetry_equiv_pos_site_id
 _symmetry_equiv_pos_as_xyz
  1  'x, y, z'
loop_
 _atom_site_type_symbol
 _atom_site_label
 _atom_site_symmetry_multiplicity
 _atom_site_fract_x
 _atom_site_fract_y
 _atom_site_fract_z
 _atom_site_occupancy
  Sm  Sm0  1  0.205750  0.205750  0.883016  1
  Sm  Sm1  1  0.794250  0.794250  0.116984  1
  Sm  Sm2  1  0.560048  0.560048  0.639733  1
  Sm  Sm3  1  0.439952  0.439952  0.360267  1
  B  B4  1  0.923048  0.923048  0.608278  1
  B  B5  1  0.076952  0.076952  0.391722  1
  C  C6  1  0.126648  0.126648  0.196320  1
  C  C7  1  0.873352  0.873352  0.803680  1
