# generated using pymatgen
data_Nd3MgCd2Si2Ag
_symmetry_space_group_name_H-M   'P 1'
_cell_length_a   7.42686355
_cell_length_b   7.42686286
_cell_length_c   4.48928000
_cell_angle_alpha   90.00000000
_cell_angle_beta   90.00000000
_cell_angle_gamma   120.67422073
_symmetry_Int_Tables_number   1
_chemical_formula_structural   Nd3MgCd2Si2Ag
_chemical_formula_sum   'Nd3 Mg1 Cd2 Si2 Ag1'
_cell_volume   212.97437308
_cell_formula_units_Z   1
loop_
 _symmetry_equiv_pos_site_id
 _symmetry_equiv_pos_as_xyz
  1  'x, y, z'
loop_
 _atom_site_type_symbol
 _atom_site_label
 _atom_site_symmetry_multiplicity
 _atom_site_fract_x
 _atom_site_fract_y
 _atom_site_fract_z
 _atom_site_occupancy
  Nd  Nd0  1  0.578110  0.001244  0.000000  1
  Nd  Nd1  1  0.001244  0.578110  0.000000  1
  Nd  Nd2  1  0.418352  0.418352  0.000000  1
  Mg  Mg3  1  0.758852  0.758852  0.500000  1
  Cd  Cd4  1  0.249712  0.999495  0.500000  1
  Cd  Cd5  1  0.999495  0.249712  0.500000  1
  Si  Si6  1  0.336065  0.666131  0.500000  1
  Si  Si7  1  0.666131  0.336065  0.500000  1
  Ag  Ag8  1  0.992039  0.992039  0.000000  1
