# generated using pymatgen
data_SrCeNd2(Cu5Sn)4
_symmetry_space_group_name_H-M   'P 1'
_cell_length_a   5.08366100
_cell_length_b   8.34962165
_cell_length_c   10.65513900
_cell_angle_alpha   89.80675186
_cell_angle_beta   90.00000000
_cell_angle_gamma   90.00000000
_symmetry_Int_Tables_number   1
_chemical_formula_structural   SrCeNd2(Cu5Sn)4
_chemical_formula_sum   'Sr1 Ce1 Nd2 Cu20 Sn4'
_cell_volume   452.27234033
_cell_formula_units_Z   1
loop_
 _symmetry_equiv_pos_site_id
 _symmetry_equiv_pos_as_xyz
  1  'x, y, z'
loop_
 _atom_site_type_symbol
 _atom_site_label
 _atom_site_symmetry_multiplicity
 _atom_site_fract_x
 _atom_site_fract_y
 _atom_site_fract_z
 _atom_site_occupancy
  Sr  Sr0  1  0.750000  0.242927  0.941503  1
  Ce  Ce1  1  0.250000  0.756447  0.058806  1
  Nd  Nd2  1  0.750000  0.744463  0.558998  1
  Nd  Nd3  1  0.250000  0.254645  0.440865  1
  Cu  Cu4  1  0.250000  0.818323  0.745156  1
  Cu  Cu5  1  0.750000  0.182549  0.257165  1
  Cu  Cu6  1  0.750000  0.681819  0.244563  1
  Cu  Cu7  1  0.250000  0.318636  0.753825  1
  Cu  Cu8  1  0.499877  0.568481  0.811653  1
  Cu  Cu9  1  0.498538  0.432963  0.188743  1
  Cu  Cu10  1  0.500200  0.932875  0.311669  1
  Cu  Cu11  1  0.001462  0.432963  0.188743  1
  Cu  Cu12  1  0.499379  0.067216  0.687517  1
  Cu  Cu13  1  0.000123  0.568481  0.811653  1
  Cu  Cu14  1  0.000621  0.067216  0.687517  1
  Cu  Cu15  1  0.999800  0.932875  0.311669  1
  Cu  Cu16  1  0.250000  0.916032  0.516227  1
  Cu  Cu17  1  0.750000  0.081549  0.484212  1
  Cu  Cu18  1  0.750000  0.586963  0.017946  1
  Cu  Cu19  1  0.250000  0.423719  0.984354  1
  Cu  Cu20  1  0.250000  0.563143  0.604021  1
  Cu  Cu21  1  0.750000  0.437822  0.394770  1
  Cu  Cu22  1  0.750000  0.932188  0.105551  1
  Cu  Cu23  1  0.250000  0.057855  0.894906  1
  Sn  Sn24  1  0.250000  0.642561  0.359084  1
  Sn  Sn25  1  0.750000  0.360109  0.639066  1
  Sn  Sn26  1  0.750000  0.857032  0.859936  1
  Sn  Sn27  1  0.250000  0.138144  0.139881  1
