# generated using pymatgen
data_Th2Co2Si5Os
_symmetry_space_group_name_H-M   'P 1'
_cell_length_a   8.08039088
_cell_length_b   8.08038963
_cell_length_c   8.08304012
_cell_angle_alpha   137.70531229
_cell_angle_beta   105.71302414
_cell_angle_gamma   89.37866466
_symmetry_Int_Tables_number   1
_chemical_formula_structural   Th2Co2Si5Os
_chemical_formula_sum   'Th4 Co4 Si10 Os2'
_cell_volume   326.93133236
_cell_formula_units_Z   2
loop_
 _symmetry_equiv_pos_site_id
 _symmetry_equiv_pos_as_xyz
  1  'x, y, z'
loop_
 _atom_site_type_symbol
 _atom_site_label
 _atom_site_symmetry_multiplicity
 _atom_site_fract_x
 _atom_site_fract_y
 _atom_site_fract_z
 _atom_site_occupancy
  Th  Th0  1  0.865491  0.629645  0.235746  1
  Th  Th1  1  0.134509  0.370355  0.764254  1
  Th  Th2  1  0.393899  0.129745  0.264254  1
  Th  Th3  1  0.606101  0.870255  0.735746  1
  Co  Co4  1  0.251141  0.861650  0.388847  1
  Co  Co5  1  0.748859  0.138350  0.611153  1
  Co  Co6  1  0.472803  0.362293  0.111153  1
  Co  Co7  1  0.527197  0.637707  0.888847  1
  Si  Si8  1  0.500297  0.750297  0.250000  1
  Si  Si9  1  0.499703  0.249703  0.750000  1
  Si  Si10  1  0.234488  0.984488  0.750000  1
  Si  Si11  1  0.765698  0.515698  0.750000  1
  Si  Si12  1  0.765512  0.015512  0.250000  1
  Si  Si13  1  0.234302  0.484302  0.250000  1
  Si  Si14  1  0.047500  0.891497  0.156074  1
  Si  Si15  1  0.952500  0.108503  0.843926  1
  Si  Si16  1  0.735422  0.391426  0.343926  1
  Si  Si17  1  0.264578  0.608574  0.656074  1
  Os  Os18  1  0.999897  0.749897  0.750000  1
  Os  Os19  1  0.000103  0.250103  0.250000  1
