# generated using pymatgen
data_Pr2Th(GaPt)4
_symmetry_space_group_name_H-M   'P 1'
_cell_length_a   8.41014344
_cell_length_b   8.41014407
_cell_length_c   8.41014300
_cell_angle_alpha   150.83587487
_cell_angle_beta   128.25360965
_cell_angle_gamma   60.50347332
_symmetry_Int_Tables_number   1
_chemical_formula_structural   Pr2Th(GaPt)4
_chemical_formula_sum   'Pr2 Th1 Ga4 Pt4'
_cell_volume   225.81722391
_cell_formula_units_Z   1
loop_
 _symmetry_equiv_pos_site_id
 _symmetry_equiv_pos_as_xyz
  1  'x, y, z'
loop_
 _atom_site_type_symbol
 _atom_site_label
 _atom_site_symmetry_multiplicity
 _atom_site_fract_x
 _atom_site_fract_y
 _atom_site_fract_z
 _atom_site_occupancy
  Pr  Pr0  1  0.873536  0.873536  0.000000  1
  Pr  Pr1  1  0.126464  0.126464  0.000000  1
  Th  Th2  1  0.500000  0.000000  0.500000  1
  Ga  Ga3  1  0.478732  0.674500  0.804233  1
  Ga  Ga4  1  0.870266  0.674500  0.195767  1
  Ga  Ga5  1  0.129734  0.325500  0.804233  1
  Ga  Ga6  1  0.521268  0.325500  0.195767  1
  Pt  Pt7  1  0.286941  0.786941  0.500000  1
  Pt  Pt8  1  0.713059  0.213059  0.500000  1
  Pt  Pt9  1  0.788714  0.500000  0.288714  1
  Pt  Pt10  1  0.211286  0.500000  0.711286  1
