# generated using pymatgen
data_Dy5Er3(LuPb3)2
_symmetry_space_group_name_H-M   'P 1'
_cell_length_a   6.55653400
_cell_length_b   9.01508583
_cell_length_c   9.02071425
_cell_angle_alpha   120.01556615
_cell_angle_beta   90.00161253
_cell_angle_gamma   90.00035483
_symmetry_Int_Tables_number   1
_chemical_formula_structural   Dy5Er3(LuPb3)2
_chemical_formula_sum   'Dy5 Er3 Lu2 Pb6'
_cell_volume   461.68694912
_cell_formula_units_Z   1
loop_
 _symmetry_equiv_pos_site_id
 _symmetry_equiv_pos_as_xyz
  1  'x, y, z'
loop_
 _atom_site_type_symbol
 _atom_site_label
 _atom_site_symmetry_multiplicity
 _atom_site_fract_x
 _atom_site_fract_y
 _atom_site_fract_z
 _atom_site_occupancy
  Dy  Dy0  1  0.750259  0.237058  0.999816  1
  Dy  Dy1  1  0.750261  0.762929  0.762549  1
  Dy  Dy2  1  0.750249  0.000125  0.237965  1
  Dy  Dy3  1  0.249765  0.762733  0.999765  1
  Dy  Dy4  1  0.249753  0.237339  0.237228  1
  Er  Er5  1  0.249740  0.999875  0.762689  1
  Er  Er6  1  0.499938  0.333259  0.666772  1
  Er  Er7  1  0.499931  0.666666  0.333183  1
  Lu  Lu8  1  0.000086  0.666652  0.333183  1
  Lu  Lu9  1  0.000101  0.333349  0.666804  1
  Pb  Pb10  1  0.751396  0.604136  0.999924  1
  Pb  Pb11  1  0.751449  0.396049  0.395988  1
  Pb  Pb12  1  0.751465  0.000031  0.603987  1
  Pb  Pb13  1  0.248525  0.394833  0.999403  1
  Pb  Pb14  1  0.248556  0.605002  0.604424  1
  Pb  Pb15  1  0.248524  0.999963  0.396321  1
