# generated using pymatgen
data_La2SmGd(TeO6)2
_symmetry_space_group_name_H-M   'P 1'
_cell_length_a   5.50597200
_cell_length_b   9.42189409
_cell_length_c   10.31508420
_cell_angle_alpha   90.05519733
_cell_angle_beta   90.00000000
_cell_angle_gamma   90.00000000
_symmetry_Int_Tables_number   1
_chemical_formula_structural   La2SmGd(TeO6)2
_chemical_formula_sum   'La4 Sm2 Gd2 Te4 O24'
_cell_volume   535.11212596
_cell_formula_units_Z   2
loop_
 _symmetry_equiv_pos_site_id
 _symmetry_equiv_pos_as_xyz
  1  'x, y, z'
loop_
 _atom_site_type_symbol
 _atom_site_label
 _atom_site_symmetry_multiplicity
 _atom_site_fract_x
 _atom_site_fract_y
 _atom_site_fract_z
 _atom_site_occupancy
  La  La0  1  0.530832  0.219258  0.357268  1
  La  La1  1  0.030832  0.280742  0.642732  1
  La  La2  1  0.469567  0.719284  0.142147  1
  La  La3  1  0.969567  0.780716  0.857853  1
  Sm  Sm4  1  0.477747  0.603024  0.543936  1
  Sm  Sm5  1  0.977747  0.896976  0.456064  1
  Gd  Gd6  1  0.522234  0.103666  0.956137  1
  Gd  Gd7  1  0.022234  0.396334  0.043863  1
  Te  Te8  1  0.463880  0.992476  0.642019  1
  Te  Te9  1  0.963880  0.507524  0.357981  1
  Te  Te10  1  0.536224  0.491254  0.859377  1
  Te  Te11  1  0.036224  0.008746  0.140623  1
  O  O12  1  0.305468  0.141053  0.169277  1
  O  O13  1  0.805468  0.358947  0.830723  1
  O  O14  1  0.694875  0.640380  0.329470  1
  O  O15  1  0.194875  0.859620  0.670530  1
  O  O16  1  0.725035  0.108011  0.563716  1
  O  O17  1  0.225035  0.391989  0.436284  1
  O  O18  1  0.275812  0.607841  0.937099  1
  O  O19  1  0.775812  0.892159  0.062901  1
  O  O20  1  0.674377  0.633784  0.745515  1
  O  O21  1  0.174377  0.866216  0.254485  1
  O  O22  1  0.326359  0.134344  0.756668  1
  O  O23  1  0.826359  0.365656  0.243332  1
  O  O24  1  0.665343  0.948842  0.790330  1
  O  O25  1  0.165343  0.551158  0.209670  1
  O  O26  1  0.335333  0.447612  0.710807  1
  O  O27  1  0.835333  0.052388  0.289193  1
  O  O28  1  0.257122  0.079213  0.505851  1
  O  O29  1  0.757122  0.420787  0.494149  1
  O  O30  1  0.743753  0.576710  0.995994  1
  O  O31  1  0.243753  0.923290  0.004006  1
  O  O32  1  0.090643  0.656433  0.470845  1
  O  O33  1  0.590643  0.843567  0.529155  1
  O  O34  1  0.905396  0.158017  0.029338  1
  O  O35  1  0.405396  0.341983  0.970662  1
