# generated using pymatgen
data_Sc5(Ga2Ni)2
_symmetry_space_group_name_H-M   'P 1'
_cell_length_a   3.26200800
_cell_length_b   7.24227100
_cell_length_c   16.41283400
_cell_angle_alpha   90.00000000
_cell_angle_beta   90.00000000
_cell_angle_gamma   90.00000000
_symmetry_Int_Tables_number   1
_chemical_formula_structural   Sc5(Ga2Ni)2
_chemical_formula_sum   'Sc10 Ga8 Ni4'
_cell_volume   387.74246827
_cell_formula_units_Z   2
loop_
 _symmetry_equiv_pos_site_id
 _symmetry_equiv_pos_as_xyz
  1  'x, y, z'
loop_
 _atom_site_type_symbol
 _atom_site_label
 _atom_site_symmetry_multiplicity
 _atom_site_fract_x
 _atom_site_fract_y
 _atom_site_fract_z
 _atom_site_occupancy
  Sc  Sc0  1  0.500000  0.500000  0.500000  1
  Sc  Sc1  1  0.500000  0.000000  0.000000  1
  Sc  Sc2  1  0.500000  0.877833  0.418513  1
  Sc  Sc3  1  0.500000  0.122167  0.581487  1
  Sc  Sc4  1  0.500000  0.622167  0.918513  1
  Sc  Sc5  1  0.500000  0.377833  0.081487  1
  Sc  Sc6  1  0.500000  0.257974  0.281136  1
  Sc  Sc7  1  0.500000  0.742026  0.718864  1
  Sc  Sc8  1  0.500000  0.242026  0.781136  1
  Sc  Sc9  1  0.500000  0.757974  0.218864  1
  Ga  Ga10  1  0.000000  0.205654  0.429472  1
  Ga  Ga11  1  0.000000  0.794346  0.570528  1
  Ga  Ga12  1  0.000000  0.294346  0.929472  1
  Ga  Ga13  1  0.000000  0.705654  0.070528  1
  Ga  Ga14  1  0.000000  0.579797  0.347470  1
  Ga  Ga15  1  0.000000  0.420203  0.652530  1
  Ga  Ga16  1  0.000000  0.920203  0.847470  1
  Ga  Ga17  1  0.000000  0.079797  0.152530  1
  Ni  Ni18  1  0.000000  0.972200  0.306003  1
  Ni  Ni19  1  0.000000  0.027800  0.693997  1
  Ni  Ni20  1  0.000000  0.527800  0.806003  1
  Ni  Ni21  1  0.000000  0.472200  0.193997  1
