# generated using pymatgen
data_Sm2DyY(Sn5Rh3)2
_symmetry_space_group_name_H-M   'P 1'
_cell_length_a   13.49956205
_cell_length_b   13.49956274
_cell_length_c   7.27151301
_cell_angle_alpha   90.00520889
_cell_angle_beta   89.99479019
_cell_angle_gamma   161.00156529
_symmetry_Int_Tables_number   1
_chemical_formula_structural   Sm2DyY(Sn5Rh3)2
_chemical_formula_sum   'Sm2 Dy1 Y1 Sn10 Rh6'
_cell_volume   431.39153907
_cell_formula_units_Z   1
loop_
 _symmetry_equiv_pos_site_id
 _symmetry_equiv_pos_as_xyz
  1  'x, y, z'
loop_
 _atom_site_type_symbol
 _atom_site_label
 _atom_site_symmetry_multiplicity
 _atom_site_fract_x
 _atom_site_fract_y
 _atom_site_fract_z
 _atom_site_occupancy
  Sm  Sm0  1  0.172355  0.827645  0.753950  1
  Sm  Sm1  1  0.827656  0.172344  0.253955  1
  Dy  Dy2  1  0.523802  0.476198  0.238303  1
  Y  Y3  1  0.476316  0.523684  0.738416  1
  Sn  Sn4  1  0.880966  0.119034  0.730643  1
  Sn  Sn5  1  0.119053  0.880947  0.230684  1
  Sn  Sn6  1  0.704447  0.295553  0.049712  1
  Sn  Sn7  1  0.295558  0.704442  0.549711  1
  Sn  Sn8  1  0.595698  0.404302  0.613965  1
  Sn  Sn9  1  0.404315  0.595685  0.114024  1
  Sn  Sn10  1  0.952715  0.047285  0.399057  1
  Sn  Sn11  1  0.047274  0.952726  0.899065  1
  Sn  Sn12  1  0.290575  0.709425  0.975814  1
  Sn  Sn13  1  0.709438  0.290562  0.475803  1
  Rh  Rh14  1  0.050244  0.949756  0.518138  1
  Rh  Rh15  1  0.949746  0.050254  0.018624  1
  Rh  Rh16  1  0.777594  0.222406  0.763273  1
  Rh  Rh17  1  0.222403  0.777597  0.263297  1
  Rh  Rh18  1  0.394564  0.605436  0.484590  1
  Rh  Rh19  1  0.605280  0.394720  0.984969  1
