# generated using pymatgen
data_HoTh2In3CuPd2
_symmetry_space_group_name_H-M   'P 1'
_cell_length_a   7.71118600
_cell_length_b   7.75925754
_cell_length_c   3.97587700
_cell_angle_alpha   90.00000000
_cell_angle_beta   90.00000000
_cell_angle_gamma   119.79526928
_symmetry_Int_Tables_number   1
_chemical_formula_structural   HoTh2In3CuPd2
_chemical_formula_sum   'Ho1 Th2 In3 Cu1 Pd2'
_cell_volume   206.44158106
_cell_formula_units_Z   1
loop_
 _symmetry_equiv_pos_site_id
 _symmetry_equiv_pos_as_xyz
  1  'x, y, z'
loop_
 _atom_site_type_symbol
 _atom_site_label
 _atom_site_symmetry_multiplicity
 _atom_site_fract_x
 _atom_site_fract_y
 _atom_site_fract_z
 _atom_site_occupancy
  Ho  Ho0  1  0.590898  0.000000  0.000000  1
  Th  Th1  1  0.999326  0.587197  0.000000  1
  Th  Th2  1  0.412128  0.412803  0.000000  1
  In  In3  1  0.751614  0.759703  0.500000  1
  In  In4  1  0.991911  0.240297  0.500000  1
  In  In5  1  0.253189  0.000000  0.500000  1
  Cu  Cu6  1  0.003387  0.000000  0.000000  1
  Pd  Pd7  1  0.330167  0.662790  0.500000  1
  Pd  Pd8  1  0.667378  0.337210  0.500000  1
