# generated using pymatgen
data_Ce8Co3Si12Hg
_symmetry_space_group_name_H-M   'P 1'
_cell_length_a   8.15616100
_cell_length_b   8.15616331
_cell_length_c   8.52356500
_cell_angle_alpha   90.00000000
_cell_angle_beta   90.00000000
_cell_angle_gamma   119.99999469
_symmetry_Int_Tables_number   1
_chemical_formula_structural   Ce8Co3Si12Hg
_chemical_formula_sum   'Ce8 Co3 Si12 Hg1'
_cell_volume   491.04764806
_cell_formula_units_Z   1
loop_
 _symmetry_equiv_pos_site_id
 _symmetry_equiv_pos_as_xyz
  1  'x, y, z'
loop_
 _atom_site_type_symbol
 _atom_site_label
 _atom_site_symmetry_multiplicity
 _atom_site_fract_x
 _atom_site_fract_y
 _atom_site_fract_z
 _atom_site_occupancy
  Ce  Ce0  1  0.494485  0.505515  0.758787  1
  Ce  Ce1  1  0.494871  0.505129  0.241702  1
  Ce  Ce2  1  0.011029  0.505515  0.758787  1
  Ce  Ce3  1  0.010259  0.505129  0.241702  1
  Ce  Ce4  1  0.494485  0.988971  0.758787  1
  Ce  Ce5  1  0.494871  0.989741  0.241702  1
  Ce  Ce6  1  0.000000  0.000000  0.753359  1
  Ce  Ce7  1  0.000000  0.000000  0.246005  1
  Co  Co8  1  0.666667  0.333333  0.998287  1
  Co  Co9  1  0.333333  0.666667  0.002136  1
  Co  Co10  1  0.333333  0.666667  0.497878  1
  Si  Si11  1  0.828475  0.171525  0.999617  1
  Si  Si12  1  0.169088  0.830912  0.000557  1
  Si  Si13  1  0.343051  0.171525  0.999617  1
  Si  Si14  1  0.174756  0.825244  0.500173  1
  Si  Si15  1  0.661823  0.830912  0.000557  1
  Si  Si16  1  0.843921  0.156079  0.499107  1
  Si  Si17  1  0.828475  0.656949  0.999617  1
  Si  Si18  1  0.650489  0.825244  0.500173  1
  Si  Si19  1  0.169088  0.338177  0.000557  1
  Si  Si20  1  0.312157  0.156079  0.499107  1
  Si  Si21  1  0.174756  0.349511  0.500173  1
  Si  Si22  1  0.843921  0.687843  0.499107  1
  Hg  Hg23  1  0.666667  0.333333  0.502499  1
