# generated using pymatgen
data_Pr2CoRuCl
_symmetry_space_group_name_H-M   'P 1'
_cell_length_a   4.12712900
_cell_length_b   4.12712963
_cell_length_c   16.57470200
_cell_angle_alpha   90.00000000
_cell_angle_beta   90.00000000
_cell_angle_gamma   120.00000295
_symmetry_Int_Tables_number   1
_chemical_formula_structural   Pr2CoRuCl
_chemical_formula_sum   'Pr4 Co2 Ru2 Cl2'
_cell_volume   244.49641836
_cell_formula_units_Z   2
loop_
 _symmetry_equiv_pos_site_id
 _symmetry_equiv_pos_as_xyz
  1  'x, y, z'
loop_
 _atom_site_type_symbol
 _atom_site_label
 _atom_site_symmetry_multiplicity
 _atom_site_fract_x
 _atom_site_fract_y
 _atom_site_fract_z
 _atom_site_occupancy
  Pr  Pr0  1  0.000000  0.000000  0.613133  1
  Pr  Pr1  1  0.000000  0.000000  0.386937  1
  Pr  Pr2  1  0.000000  0.000000  0.113133  1
  Pr  Pr3  1  0.000000  0.000000  0.886937  1
  Co  Co4  1  0.666667  0.333333  0.998436  1
  Co  Co5  1  0.333333  0.666667  0.498436  1
  Ru  Ru6  1  0.666667  0.333333  0.501544  1
  Ru  Ru7  1  0.333333  0.666667  0.001544  1
  Cl  Cl8  1  0.666667  0.333333  0.249950  1
  Cl  Cl9  1  0.333333  0.666667  0.749950  1
