# generated using pymatgen
data_SmNiAgPt3
_symmetry_space_group_name_H-M   'P 1'
_cell_length_a   5.40849347
_cell_length_b   5.40849352
_cell_length_c   5.20059726
_cell_angle_alpha   58.66855106
_cell_angle_beta   58.66856311
_cell_angle_gamma   60.00000460
_symmetry_Int_Tables_number   1
_chemical_formula_structural   SmNiAgPt3
_chemical_formula_sum   'Sm1 Ni1 Ag1 Pt3'
_cell_volume   105.35402321
_cell_formula_units_Z   1
loop_
 _symmetry_equiv_pos_site_id
 _symmetry_equiv_pos_as_xyz
  1  'x, y, z'
loop_
 _atom_site_type_symbol
 _atom_site_label
 _atom_site_symmetry_multiplicity
 _atom_site_fract_x
 _atom_site_fract_y
 _atom_site_fract_z
 _atom_site_occupancy
  Sm  Sm0  1  0.998825  0.998825  0.003525  1
  Ni  Ni1  1  0.375949  0.375949  0.872154  1
  Ag  Ag2  1  0.747767  0.747767  0.756699  1
  Pt  Pt3  1  0.376648  0.376648  0.372541  1
  Pt  Pt4  1  0.874165  0.376648  0.372541  1
  Pt  Pt5  1  0.376648  0.874165  0.372541  1
