# generated using pymatgen
data_SrMgVP2O9
_symmetry_space_group_name_H-M   'P 1'
_cell_length_a   6.59667300
_cell_length_b   7.68618100
_cell_length_c   14.37389600
_cell_angle_alpha   90.00000000
_cell_angle_beta   90.00000000
_cell_angle_gamma   90.00000000
_symmetry_Int_Tables_number   1
_chemical_formula_structural   SrMgVP2O9
_chemical_formula_sum   'Sr4 Mg4 V4 P8 O36'
_cell_volume   728.80284961
_cell_formula_units_Z   4
loop_
 _symmetry_equiv_pos_site_id
 _symmetry_equiv_pos_as_xyz
  1  'x, y, z'
loop_
 _atom_site_type_symbol
 _atom_site_label
 _atom_site_symmetry_multiplicity
 _atom_site_fract_x
 _atom_site_fract_y
 _atom_site_fract_z
 _atom_site_occupancy
  Sr  Sr0  1  0.750000  0.874214  0.779759  1
  Sr  Sr1  1  0.750000  0.625786  0.279759  1
  Sr  Sr2  1  0.250000  0.125786  0.220241  1
  Sr  Sr3  1  0.250000  0.374214  0.720241  1
  Mg  Mg4  1  0.500000  0.000000  0.000000  1
  Mg  Mg5  1  0.500000  0.500000  0.500000  1
  Mg  Mg6  1  0.000000  0.500000  0.500000  1
  Mg  Mg7  1  0.000000  0.000000  0.000000  1
  V  V8  1  0.750000  0.344963  0.883727  1
  V  V9  1  0.250000  0.655037  0.116273  1
  V  V10  1  0.250000  0.844963  0.616273  1
  V  V11  1  0.750000  0.155037  0.383727  1
  P  P12  1  0.250000  0.347258  0.943041  1
  P  P13  1  0.750000  0.652742  0.056959  1
  P  P14  1  0.750000  0.847258  0.556959  1
  P  P15  1  0.250000  0.152742  0.443041  1
  P  P16  1  0.750000  0.387702  0.691464  1
  P  P17  1  0.250000  0.612298  0.308536  1
  P  P18  1  0.250000  0.887702  0.808536  1
  P  P19  1  0.750000  0.112298  0.191464  1
  O  O20  1  0.059885  0.600494  0.369784  1
  O  O21  1  0.559885  0.399506  0.630216  1
  O  O22  1  0.940115  0.100494  0.130216  1
  O  O23  1  0.440115  0.899506  0.869784  1
  O  O24  1  0.940115  0.399506  0.630216  1
  O  O25  1  0.440115  0.600494  0.369784  1
  O  O26  1  0.059885  0.899506  0.869784  1
  O  O27  1  0.559885  0.100494  0.130216  1
  O  O28  1  0.250000  0.333293  0.490160  1
  O  O29  1  0.750000  0.666707  0.509840  1
  O  O30  1  0.750000  0.833293  0.009840  1
  O  O31  1  0.250000  0.166707  0.990160  1
  O  O32  1  0.750000  0.146175  0.937931  1
  O  O33  1  0.250000  0.853825  0.062069  1
  O  O34  1  0.250000  0.646175  0.562069  1
  O  O35  1  0.750000  0.353825  0.437931  1
  O  O36  1  0.750000  0.219033  0.753275  1
  O  O37  1  0.250000  0.780967  0.246725  1
  O  O38  1  0.250000  0.719033  0.746725  1
  O  O39  1  0.750000  0.280967  0.253275  1
  O  O40  1  0.437149  0.135995  0.377084  1
  O  O41  1  0.937149  0.864005  0.622916  1
  O  O42  1  0.562851  0.635995  0.122916  1
  O  O43  1  0.062851  0.364005  0.877084  1
  O  O44  1  0.562851  0.864005  0.622916  1
  O  O45  1  0.062851  0.135995  0.377084  1
  O  O46  1  0.437149  0.364005  0.877084  1
  O  O47  1  0.937149  0.635995  0.122916  1
  O  O48  1  0.750000  0.971206  0.271320  1
  O  O49  1  0.250000  0.028794  0.728680  1
  O  O50  1  0.250000  0.471206  0.228680  1
  O  O51  1  0.750000  0.528794  0.771320  1
  O  O52  1  0.750000  0.987753  0.481754  1
  O  O53  1  0.250000  0.012247  0.518246  1
  O  O54  1  0.250000  0.487753  0.018246  1
  O  O55  1  0.750000  0.512247  0.981754  1
