# generated using pymatgen
data_Hf9BeMo3W
_symmetry_space_group_name_H-M   'P 1'
_cell_length_a   8.56673400
_cell_length_b   8.63645479
_cell_length_c   8.63645600
_cell_angle_alpha   120.00091876
_cell_angle_beta   90.00000000
_cell_angle_gamma   90.00000000
_symmetry_Int_Tables_number   1
_chemical_formula_structural   Hf9BeMo3W
_chemical_formula_sum   'Hf18 Be2 Mo6 W2'
_cell_volume   553.36662448
_cell_formula_units_Z   2
loop_
 _symmetry_equiv_pos_site_id
 _symmetry_equiv_pos_as_xyz
  1  'x, y, z'
loop_
 _atom_site_type_symbol
 _atom_site_label
 _atom_site_symmetry_multiplicity
 _atom_site_fract_x
 _atom_site_fract_y
 _atom_site_fract_z
 _atom_site_occupancy
  Hf  Hf0  1  0.553213  0.800072  0.600126  1
  Hf  Hf1  1  0.553203  0.800074  0.199935  1
  Hf  Hf2  1  0.553224  0.399875  0.199932  1
  Hf  Hf3  1  0.446787  0.199928  0.399874  1
  Hf  Hf4  1  0.446797  0.199926  0.800065  1
  Hf  Hf5  1  0.446776  0.600125  0.800068  1
  Hf  Hf6  1  0.053213  0.199928  0.399874  1
  Hf  Hf7  1  0.053203  0.199926  0.800065  1
  Hf  Hf8  1  0.053224  0.600125  0.800068  1
  Hf  Hf9  1  0.946787  0.800072  0.600126  1
  Hf  Hf10  1  0.946797  0.800074  0.199935  1
  Hf  Hf11  1  0.946776  0.399875  0.199932  1
  Hf  Hf12  1  0.750000  0.461028  0.922045  1
  Hf  Hf13  1  0.750000  0.461020  0.538976  1
  Hf  Hf14  1  0.750000  0.077953  0.538971  1
  Hf  Hf15  1  0.250000  0.538972  0.077955  1
  Hf  Hf16  1  0.250000  0.538980  0.461024  1
  Hf  Hf17  1  0.250000  0.922047  0.461029  1
  Be  Be18  1  0.750000  0.666659  0.333327  1
  Be  Be19  1  0.250000  0.333341  0.666673  1
  Mo  Mo20  1  0.750000  0.112011  0.223985  1
  Mo  Mo21  1  0.750000  0.112006  0.888006  1
  Mo  Mo22  1  0.750000  0.776021  0.887997  1
  Mo  Mo23  1  0.250000  0.887989  0.776015  1
  Mo  Mo24  1  0.250000  0.887994  0.111994  1
  Mo  Mo25  1  0.250000  0.223979  0.112003  1
  W  W26  1  0.500000  0.000000  0.000000  1
  W  W27  1  0.000000  0.000000  0.000000  1
