# generated using pymatgen
data_Tm5Pb3N
_symmetry_space_group_name_H-M   'P 1'
_cell_length_a   9.05668941
_cell_length_b   9.05668983
_cell_length_c   9.05668906
_cell_angle_alpha   126.09514141
_cell_angle_beta   126.09513817
_cell_angle_gamma   79.73182633
_symmetry_Int_Tables_number   1
_chemical_formula_structural   Tm5Pb3N
_chemical_formula_sum   'Tm10 Pb6 N2'
_cell_volume   468.54351653
_cell_formula_units_Z   2
loop_
 _symmetry_equiv_pos_site_id
 _symmetry_equiv_pos_as_xyz
  1  'x, y, z'
loop_
 _atom_site_type_symbol
 _atom_site_label
 _atom_site_symmetry_multiplicity
 _atom_site_fract_x
 _atom_site_fract_y
 _atom_site_fract_z
 _atom_site_occupancy
  Tm  Tm0  1  0.507015  0.297988  0.500000  1
  Tm  Tm1  1  0.797988  0.007015  0.500000  1
  Tm  Tm2  1  0.007015  0.507015  0.209028  1
  Tm  Tm3  1  0.297988  0.797988  0.790972  1
  Tm  Tm4  1  0.494822  0.704002  0.500000  1
  Tm  Tm5  1  0.204002  0.994822  0.500000  1
  Tm  Tm6  1  0.994822  0.494822  0.790820  1
  Tm  Tm7  1  0.704002  0.204002  0.209180  1
  Tm  Tm8  1  0.502986  0.502986  0.000000  1
  Tm  Tm9  1  0.002986  0.002986  0.000000  1
  Pb  Pb10  1  0.152508  0.349070  0.500000  1
  Pb  Pb11  1  0.849070  0.652508  0.500000  1
  Pb  Pb12  1  0.652508  0.152508  0.803437  1
  Pb  Pb13  1  0.349070  0.849070  0.196563  1
  Pb  Pb14  1  0.752164  0.752164  0.000000  1
  Pb  Pb15  1  0.252164  0.252164  0.000000  1
  N  N16  1  0.750868  0.250868  0.500000  1
  N  N17  1  0.250868  0.750868  0.500000  1
