# generated using pymatgen
data_Ce2NpMn3
_symmetry_space_group_name_H-M   'P 1'
_cell_length_a   5.60375131
_cell_length_b   5.60375143
_cell_length_c   5.22377300
_cell_angle_alpha   57.56312051
_cell_angle_beta   57.56311979
_cell_angle_gamma   60.00000712
_symmetry_Int_Tables_number   1
_chemical_formula_structural   Ce2NpMn3
_chemical_formula_sum   'Ce2 Np1 Mn3'
_cell_volume   111.53400428
_cell_formula_units_Z   1
loop_
 _symmetry_equiv_pos_site_id
 _symmetry_equiv_pos_as_xyz
  1  'x, y, z'
loop_
 _atom_site_type_symbol
 _atom_site_label
 _atom_site_symmetry_multiplicity
 _atom_site_fract_x
 _atom_site_fract_y
 _atom_site_fract_z
 _atom_site_occupancy
  Ce  Ce0  1  0.745189  0.745189  0.764431  1
  Ce  Ce1  1  0.504811  0.504811  0.485569  1
  Np  Np2  1  0.125000  0.125000  0.625000  1
  Mn  Mn3  1  0.125000  0.625000  0.125000  1
  Mn  Mn4  1  0.625000  0.125000  0.125000  1
  Mn  Mn5  1  0.125000  0.125000  0.125000  1
