# generated using pymatgen
data_TmLuFe9Ni3P7
_symmetry_space_group_name_H-M   'P 1'
_cell_length_a   3.60137800
_cell_length_b   8.95826731
_cell_length_c   8.96459433
_cell_angle_alpha   119.61734851
_cell_angle_beta   90.00000000
_cell_angle_gamma   90.00000000
_symmetry_Int_Tables_number   1
_chemical_formula_structural   TmLuFe9Ni3P7
_chemical_formula_sum   'Tm1 Lu1 Fe9 Ni3 P7'
_cell_volume   251.42918744
_cell_formula_units_Z   1
loop_
 _symmetry_equiv_pos_site_id
 _symmetry_equiv_pos_as_xyz
  1  'x, y, z'
loop_
 _atom_site_type_symbol
 _atom_site_label
 _atom_site_symmetry_multiplicity
 _atom_site_fract_x
 _atom_site_fract_y
 _atom_site_fract_z
 _atom_site_occupancy
  Tm  Tm0  1  0.000000  0.663612  0.332107  1
  Lu  Lu1  1  0.500000  0.338935  0.669260  1
  Fe  Fe2  1  0.000000  0.570301  0.632696  1
  Fe  Fe3  1  0.000000  0.880304  0.723211  1
  Fe  Fe4  1  0.000000  0.271340  0.155214  1
  Fe  Fe5  1  0.000000  0.845353  0.119991  1
  Fe  Fe6  1  0.500000  0.433383  0.386314  1
  Fe  Fe7  1  0.500000  0.611880  0.049078  1
  Fe  Fe8  1  0.500000  0.127507  0.900722  1
  Fe  Fe9  1  0.500000  0.096590  0.216888  1
  Fe  Fe10  1  0.500000  0.779021  0.876956  1
  Ni  Ni11  1  0.000000  0.371089  0.938273  1
  Ni  Ni12  1  0.000000  0.063682  0.434343  1
  Ni  Ni13  1  0.500000  0.949121  0.560925  1
  P  P14  1  0.000000  0.114623  0.706573  1
  P  P15  1  0.000000  0.302766  0.412877  1
  P  P16  1  0.000000  0.595506  0.889028  1
  P  P17  1  0.500000  0.705627  0.599096  1
  P  P18  1  0.500000  0.403510  0.120906  1
  P  P19  1  0.500000  0.877859  0.278486  1
  P  P20  1  0.000000  0.997990  0.997058  1
