# generated using pymatgen
data_SrAcBi2O7
_symmetry_space_group_name_H-M   'P 1'
_cell_length_a   7.95325594
_cell_length_b   7.95325703
_cell_length_c   7.95922300
_cell_angle_alpha   59.97517866
_cell_angle_beta   59.97517415
_cell_angle_gamma   59.80879526
_symmetry_Int_Tables_number   1
_chemical_formula_structural   SrAcBi2O7
_chemical_formula_sum   'Sr2 Ac2 Bi4 O14'
_cell_volume   355.34611217
_cell_formula_units_Z   2
loop_
 _symmetry_equiv_pos_site_id
 _symmetry_equiv_pos_as_xyz
  1  'x, y, z'
loop_
 _atom_site_type_symbol
 _atom_site_label
 _atom_site_symmetry_multiplicity
 _atom_site_fract_x
 _atom_site_fract_y
 _atom_site_fract_z
 _atom_site_occupancy
  Sr  Sr0  1  0.125000  0.125000  0.125000  1
  Sr  Sr1  1  0.125000  0.125000  0.625000  1
  Ac  Ac2  1  0.625000  0.125000  0.125000  1
  Ac  Ac3  1  0.125000  0.625000  0.125000  1
  Bi  Bi4  1  0.625000  0.625000  0.125000  1
  Bi  Bi5  1  0.625000  0.625000  0.625000  1
  Bi  Bi6  1  0.625000  0.125000  0.625000  1
  Bi  Bi7  1  0.125000  0.625000  0.625000  1
  O  O8  1  0.702805  0.295758  0.294016  1
  O  O9  1  0.705596  0.705596  0.294404  1
  O  O10  1  0.295758  0.702805  0.294016  1
  O  O11  1  0.994980  0.994980  0.005020  1
  O  O12  1  0.702805  0.295758  0.707422  1
  O  O13  1  0.954242  0.547195  0.542578  1
  O  O14  1  0.295758  0.702805  0.707422  1
  O  O15  1  0.547195  0.954242  0.542578  1
  O  O16  1  0.255020  0.255020  0.244980  1
  O  O17  1  0.954242  0.547195  0.955984  1
  O  O18  1  0.544404  0.544404  0.955596  1
  O  O19  1  0.954401  0.954401  0.545599  1
  O  O20  1  0.547195  0.954242  0.955984  1
  O  O21  1  0.295599  0.295599  0.704401  1
