# generated using pymatgen
data_HfZr2AsN
_symmetry_space_group_name_H-M   'P 1'
_cell_length_a   5.89988279
_cell_length_b   5.89988335
_cell_length_c   8.49502800
_cell_angle_alpha   90.00000000
_cell_angle_beta   90.00000000
_cell_angle_gamma   145.63370098
_symmetry_Int_Tables_number   1
_chemical_formula_structural   HfZr2AsN
_chemical_formula_sum   'Hf2 Zr4 As2 N2'
_cell_volume   166.91731802
_cell_formula_units_Z   2
loop_
 _symmetry_equiv_pos_site_id
 _symmetry_equiv_pos_as_xyz
  1  'x, y, z'
loop_
 _atom_site_type_symbol
 _atom_site_label
 _atom_site_symmetry_multiplicity
 _atom_site_fract_x
 _atom_site_fract_y
 _atom_site_fract_z
 _atom_site_occupancy
  Hf  Hf0  1  0.943425  0.056575  0.750000  1
  Hf  Hf1  1  0.056575  0.943425  0.250000  1
  Zr  Zr2  1  0.631734  0.368266  0.944828  1
  Zr  Zr3  1  0.368266  0.631734  0.444828  1
  Zr  Zr4  1  0.368266  0.631734  0.055172  1
  Zr  Zr5  1  0.631734  0.368266  0.555172  1
  As  As6  1  0.257972  0.742028  0.750000  1
  As  As7  1  0.742028  0.257972  0.250000  1
  N  N8  1  0.000000  0.000000  0.000000  1
  N  N9  1  0.000000  0.000000  0.500000  1
