# generated using pymatgen
data_TmTh3(PdPt5)2
_symmetry_space_group_name_H-M   'P 1'
_cell_length_a   5.94657601
_cell_length_b   5.94657491
_cell_length_c   9.79360400
_cell_angle_alpha   90.05762748
_cell_angle_beta   89.94237253
_cell_angle_gamma   120.14578694
_symmetry_Int_Tables_number   1
_chemical_formula_structural   TmTh3(PdPt5)2
_chemical_formula_sum   'Tm1 Th3 Pd2 Pt10'
_cell_volume   299.47934371
_cell_formula_units_Z   1
loop_
 _symmetry_equiv_pos_site_id
 _symmetry_equiv_pos_as_xyz
  1  'x, y, z'
loop_
 _atom_site_type_symbol
 _atom_site_label
 _atom_site_symmetry_multiplicity
 _atom_site_fract_x
 _atom_site_fract_y
 _atom_site_fract_z
 _atom_site_occupancy
  Tm  Tm0  1  0.999632  0.000368  0.499445  1
  Th  Th1  1  0.999958  0.000042  0.000049  1
  Th  Th2  1  0.333212  0.666788  0.253229  1
  Th  Th3  1  0.667160  0.332840  0.746814  1
  Pd  Pd4  1  0.499974  0.500026  0.999302  1
  Pd  Pd5  1  0.174202  0.825798  0.749031  1
  Pt  Pt6  1  0.499961  0.500039  0.500994  1
  Pt  Pt7  1  0.500049  0.000033  0.500418  1
  Pt  Pt8  1  0.999967  0.499951  0.500418  1
  Pt  Pt9  1  0.500121  0.000154  0.999552  1
  Pt  Pt10  1  0.999846  0.499879  0.999552  1
  Pt  Pt11  1  0.825677  0.651785  0.251696  1
  Pt  Pt12  1  0.348215  0.174323  0.251696  1
  Pt  Pt13  1  0.826212  0.173788  0.251119  1
  Pt  Pt14  1  0.174428  0.348614  0.748342  1
  Pt  Pt15  1  0.651386  0.825572  0.748342  1
