# generated using pymatgen
data_Ba2CaMnAl2F14
_symmetry_space_group_name_H-M   'P 1'
_cell_length_a   7.45333577
_cell_length_b   7.45333683
_cell_length_c   14.97286827
_cell_angle_alpha   88.22206331
_cell_angle_beta   88.22206184
_cell_angle_gamma   42.02879091
_symmetry_Int_Tables_number   1
_chemical_formula_structural   Ba2CaMnAl2F14
_chemical_formula_sum   'Ba4 Ca2 Mn2 Al4 F28'
_cell_volume   556.56971997
_cell_formula_units_Z   2
loop_
 _symmetry_equiv_pos_site_id
 _symmetry_equiv_pos_as_xyz
  1  'x, y, z'
loop_
 _atom_site_type_symbol
 _atom_site_label
 _atom_site_symmetry_multiplicity
 _atom_site_fract_x
 _atom_site_fract_y
 _atom_site_fract_z
 _atom_site_occupancy
  Ba  Ba0  1  0.646942  0.732785  0.879570  1
  Ba  Ba1  1  0.353058  0.267215  0.120430  1
  Ba  Ba2  1  0.267215  0.353058  0.620430  1
  Ba  Ba3  1  0.732785  0.646942  0.379570  1
  Ca  Ca4  1  0.941731  0.058269  0.750000  1
  Ca  Ca5  1  0.058269  0.941731  0.250000  1
  Mn  Mn6  1  0.000000  0.000000  0.500000  1
  Mn  Mn7  1  0.000000  0.000000  0.000000  1
  Al  Al8  1  0.618317  0.621325  0.623733  1
  Al  Al9  1  0.381683  0.378675  0.376267  1
  Al  Al10  1  0.378675  0.381683  0.876267  1
  Al  Al11  1  0.621325  0.618317  0.123733  1
  F  F12  1  0.348384  0.892254  0.696947  1
  F  F13  1  0.651616  0.107746  0.303053  1
  F  F14  1  0.107746  0.651616  0.803053  1
  F  F15  1  0.892254  0.348384  0.196947  1
  F  F16  1  0.657117  0.089413  0.949420  1
  F  F17  1  0.342883  0.910587  0.050580  1
  F  F18  1  0.910587  0.342883  0.550580  1
  F  F19  1  0.089413  0.657117  0.449420  1
  F  F20  1  0.409300  0.758527  0.524958  1
  F  F21  1  0.590700  0.241473  0.475042  1
  F  F22  1  0.241473  0.590700  0.975042  1
  F  F23  1  0.758527  0.409300  0.024958  1
  F  F24  1  0.541653  0.138998  0.782988  1
  F  F25  1  0.458347  0.861002  0.217012  1
  F  F26  1  0.861002  0.458347  0.717012  1
  F  F27  1  0.138998  0.541653  0.282988  1
  F  F28  1  0.580252  0.414244  0.654456  1
  F  F29  1  0.419748  0.585756  0.345544  1
  F  F30  1  0.585756  0.419748  0.845544  1
  F  F31  1  0.414244  0.580252  0.154456  1
  F  F32  1  0.864081  0.002253  0.123425  1
  F  F33  1  0.135919  0.997747  0.876575  1
  F  F34  1  0.997747  0.135919  0.376575  1
  F  F35  1  0.002253  0.864081  0.623425  1
  F  F36  1  0.685138  0.801987  0.589317  1
  F  F37  1  0.314862  0.198013  0.410683  1
  F  F38  1  0.198013  0.314862  0.910683  1
  F  F39  1  0.801987  0.685138  0.089317  1
