# generated using pymatgen
data_Nd12Pt(RhBr4)3
_symmetry_space_group_name_H-M   'P 1'
_cell_length_a   10.51707327
_cell_length_b   10.51707343
_cell_length_c   10.51707421
_cell_angle_alpha   109.66279660
_cell_angle_beta   109.66280054
_cell_angle_gamma   109.66279301
_symmetry_Int_Tables_number   1
_chemical_formula_structural   Nd12Pt(RhBr4)3
_chemical_formula_sum   'Nd12 Pt1 Rh3 Br12'
_cell_volume   889.08597951
_cell_formula_units_Z   1
loop_
 _symmetry_equiv_pos_site_id
 _symmetry_equiv_pos_as_xyz
  1  'x, y, z'
loop_
 _atom_site_type_symbol
 _atom_site_label
 _atom_site_symmetry_multiplicity
 _atom_site_fract_x
 _atom_site_fract_y
 _atom_site_fract_z
 _atom_site_occupancy
  Nd  Nd0  1  0.469829  0.487628  0.233015  1
  Nd  Nd1  1  0.750000  0.234486  0.265514  1
  Nd  Nd2  1  0.750000  0.015229  0.484771  1
  Nd  Nd3  1  0.233015  0.469829  0.487628  1
  Nd  Nd4  1  0.265514  0.750000  0.234486  1
  Nd  Nd5  1  0.030171  0.266985  0.012372  1
  Nd  Nd6  1  0.012372  0.030171  0.266985  1
  Nd  Nd7  1  0.484771  0.750000  0.015229  1
  Nd  Nd8  1  0.487628  0.233015  0.469829  1
  Nd  Nd9  1  0.015229  0.484771  0.750000  1
  Nd  Nd10  1  0.266985  0.012372  0.030171  1
  Nd  Nd11  1  0.234486  0.265514  0.750000  1
  Pt  Pt12  1  0.250000  0.250000  0.250000  1
  Rh  Rh13  1  0.500682  0.999318  0.250000  1
  Rh  Rh14  1  0.999318  0.250000  0.500682  1
  Rh  Rh15  1  0.250000  0.500682  0.999318  1
  Br  Br16  1  0.250000  0.755061  0.744939  1
  Br  Br17  1  0.509596  0.504412  0.754495  1
  Br  Br18  1  0.990404  0.745505  0.995588  1
  Br  Br19  1  0.744939  0.250000  0.755061  1
  Br  Br20  1  0.995588  0.990404  0.745505  1
  Br  Br21  1  0.250000  0.995486  0.504514  1
  Br  Br22  1  0.754495  0.509596  0.504412  1
  Br  Br23  1  0.504514  0.250000  0.995486  1
  Br  Br24  1  0.755061  0.744939  0.250000  1
  Br  Br25  1  0.745505  0.995588  0.990404  1
  Br  Br26  1  0.995486  0.504514  0.250000  1
  Br  Br27  1  0.504412  0.754495  0.509596  1
