# generated using pymatgen
data_LuTa3(NbN2)6
_symmetry_space_group_name_H-M   'P 1'
_cell_length_a   5.28950400
_cell_length_b   5.28950414
_cell_length_c   10.49449300
_cell_angle_alpha   90.00000000
_cell_angle_beta   90.00000000
_cell_angle_gamma   119.99999912
_symmetry_Int_Tables_number   1
_chemical_formula_structural   LuTa3(NbN2)6
_chemical_formula_sum   'Lu1 Ta3 Nb6 N12'
_cell_volume   254.28574168
_cell_formula_units_Z   1
loop_
 _symmetry_equiv_pos_site_id
 _symmetry_equiv_pos_as_xyz
  1  'x, y, z'
loop_
 _atom_site_type_symbol
 _atom_site_label
 _atom_site_symmetry_multiplicity
 _atom_site_fract_x
 _atom_site_fract_y
 _atom_site_fract_z
 _atom_site_occupancy
  Lu  Lu0  1  0.666667  0.333333  0.000000  1
  Ta  Ta1  1  0.333333  0.666667  0.000000  1
  Ta  Ta2  1  0.333333  0.666667  0.500000  1
  Ta  Ta3  1  0.666667  0.333333  0.500000  1
  Nb  Nb4  1  0.676711  0.675409  0.746492  1
  Nb  Nb5  1  0.324591  0.001302  0.746492  1
  Nb  Nb6  1  0.998698  0.323289  0.746492  1
  Nb  Nb7  1  0.324591  0.323289  0.253508  1
  Nb  Nb8  1  0.676711  0.001302  0.253508  1
  Nb  Nb9  1  0.998698  0.675409  0.253508  1
  N  N10  1  0.657769  0.657780  0.383011  1
  N  N11  1  0.342220  0.999990  0.383011  1
  N  N12  1  0.000010  0.342231  0.383011  1
  N  N13  1  0.342220  0.342231  0.616989  1
  N  N14  1  0.657769  0.999990  0.616989  1
  N  N15  1  0.000010  0.657780  0.616989  1
  N  N16  1  0.336946  0.351636  0.872853  1
  N  N17  1  0.648364  0.985310  0.872853  1
  N  N18  1  0.014690  0.663054  0.872853  1
  N  N19  1  0.648364  0.663054  0.127147  1
  N  N20  1  0.336946  0.985310  0.127147  1
  N  N21  1  0.014690  0.351636  0.127147  1
