# generated using pymatgen
data_Hf12Zn4Pt7RhN4
_symmetry_space_group_name_H-M   'P 1'
_cell_length_a   8.53986653
_cell_length_b   8.53983809
_cell_length_c   8.53408395
_cell_angle_alpha   59.97790207
_cell_angle_beta   59.97792808
_cell_angle_gamma   59.99950102
_symmetry_Int_Tables_number   1
_chemical_formula_structural   Hf12Zn4Pt7RhN4
_chemical_formula_sum   'Hf12 Zn4 Pt7 Rh1 N4'
_cell_volume   439.94252399
_cell_formula_units_Z   1
loop_
 _symmetry_equiv_pos_site_id
 _symmetry_equiv_pos_as_xyz
  1  'x, y, z'
loop_
 _atom_site_type_symbol
 _atom_site_label
 _atom_site_symmetry_multiplicity
 _atom_site_fract_x
 _atom_site_fract_y
 _atom_site_fract_z
 _atom_site_occupancy
  Hf  Hf0  1  0.809740  0.190257  0.190271  1
  Hf  Hf1  1  0.190255  0.809737  0.190271  1
  Hf  Hf2  1  0.809741  0.809739  0.190268  1
  Hf  Hf3  1  0.190236  0.809306  0.810225  1
  Hf  Hf4  1  0.809311  0.190235  0.810218  1
  Hf  Hf5  1  0.190235  0.190234  0.810222  1
  Hf  Hf6  1  0.439324  0.063700  0.057648  1
  Hf  Hf7  1  0.063703  0.439327  0.057643  1
  Hf  Hf8  1  0.439324  0.439323  0.057652  1
  Hf  Hf9  1  0.060233  0.439402  0.440128  1
  Hf  Hf10  1  0.439398  0.060234  0.440134  1
  Hf  Hf11  1  0.060238  0.060235  0.440130  1
  Zn  Zn12  1  0.625063  0.625062  0.124814  1
  Zn  Zn13  1  0.624535  0.624536  0.625481  1
  Zn  Zn14  1  0.125449  0.624536  0.625480  1
  Zn  Zn15  1  0.624536  0.125447  0.625482  1
  Pt  Pt16  1  0.409994  0.409992  0.410921  1
  Pt  Pt17  1  0.769095  0.409994  0.410919  1
  Pt  Pt18  1  0.409996  0.769098  0.410915  1
  Pt  Pt19  1  0.839729  0.839735  0.480805  1
  Pt  Pt20  1  0.839924  0.839925  0.840051  1
  Pt  Pt21  1  0.480095  0.839925  0.840053  1
  Pt  Pt22  1  0.839925  0.480096  0.840054  1
  Rh  Rh23  1  0.410430  0.410429  0.768707  1
  N  N24  1  0.125307  0.125310  0.624072  1
  N  N25  1  0.124652  0.124655  0.125813  1
  N  N26  1  0.624875  0.124659  0.125810  1
  N  N27  1  0.124656  0.624874  0.125814  1
