# generated using pymatgen
data_Er8Si16Tc11Ru
_symmetry_space_group_name_H-M   'P 1'
_cell_length_a   6.77810399
_cell_length_b   6.77047303
_cell_length_c   12.63671733
_cell_angle_alpha   89.99293629
_cell_angle_beta   89.93500353
_cell_angle_gamma   90.28190097
_symmetry_Int_Tables_number   1
_chemical_formula_structural   Er8Si16Tc11Ru
_chemical_formula_sum   'Er8 Si16 Tc11 Ru1'
_cell_volume   579.90382225
_cell_formula_units_Z   1
loop_
 _symmetry_equiv_pos_site_id
 _symmetry_equiv_pos_as_xyz
  1  'x, y, z'
loop_
 _atom_site_type_symbol
 _atom_site_label
 _atom_site_symmetry_multiplicity
 _atom_site_fract_x
 _atom_site_fract_y
 _atom_site_fract_z
 _atom_site_occupancy
  Er  Er0  1  0.341268  0.997684  0.469073  1
  Er  Er1  1  0.504862  0.837190  0.719687  1
  Er  Er2  1  0.494417  0.163414  0.218838  1
  Er  Er3  1  0.838688  0.506804  0.281290  1
  Er  Er4  1  0.160706  0.492502  0.780560  1
  Er  Er5  1  0.660883  0.002550  0.969975  1
  Er  Er6  1  0.998624  0.338740  0.529035  1
  Er  Er7  1  0.003859  0.660808  0.030002  1
  Si  Si8  1  0.192254  0.111955  0.685600  1
  Si  Si9  1  0.385523  0.690219  0.936829  1
  Si  Si10  1  0.614583  0.309976  0.437903  1
  Si  Si11  1  0.691066  0.385658  0.062247  1
  Si  Si12  1  0.310289  0.615103  0.562407  1
  Si  Si13  1  0.805139  0.884215  0.185406  1
  Si  Si14  1  0.116411  0.195710  0.314562  1
  Si  Si15  1  0.884749  0.805962  0.813536  1
  Si  Si16  1  0.270985  0.979063  0.063088  1
  Si  Si17  1  0.522560  0.779054  0.312851  1
  Si  Si18  1  0.475124  0.220370  0.813949  1
  Si  Si19  1  0.775927  0.519147  0.685159  1
  Si  Si20  1  0.221654  0.478740  0.186937  1
  Si  Si21  1  0.733363  0.020008  0.563473  1
  Si  Si22  1  0.977979  0.271215  0.937529  1
  Si  Si23  1  0.018829  0.735288  0.438709  1
  Tc  Tc24  1  0.332951  0.333205  0.999868  1
  Tc  Tc25  1  0.164992  0.836466  0.250080  1
  Tc  Tc26  1  0.834895  0.163689  0.747784  1
  Tc  Tc27  1  0.668098  0.667353  0.502028  1
  Tc  Tc28  1  0.185080  0.974439  0.870669  1
  Tc  Tc29  1  0.516577  0.682187  0.122910  1
  Tc  Tc30  1  0.477356  0.317828  0.623820  1
  Tc  Tc31  1  0.681617  0.515611  0.875119  1
  Tc  Tc32  1  0.318578  0.485862  0.378106  1
  Tc  Tc33  1  0.813010  0.028181  0.369772  1
  Tc  Tc34  1  0.973434  0.186408  0.130457  1
  Ru  Ru35  1  0.033668  0.807396  0.630742  1
