# generated using pymatgen
data_Sr3CoP6Rh5
_symmetry_space_group_name_H-M   'P 1'
_cell_length_a   6.71013179
_cell_length_b   6.73585575
_cell_length_c   6.97686900
_cell_angle_alpha   89.97759496
_cell_angle_beta   90.89617275
_cell_angle_gamma   120.11345871
_symmetry_Int_Tables_number   1
_chemical_formula_structural   Sr3CoP6Rh5
_chemical_formula_sum   'Sr3 Co1 P6 Rh5'
_cell_volume   272.73954160
_cell_formula_units_Z   1
loop_
 _symmetry_equiv_pos_site_id
 _symmetry_equiv_pos_as_xyz
  1  'x, y, z'
loop_
 _atom_site_type_symbol
 _atom_site_label
 _atom_site_symmetry_multiplicity
 _atom_site_fract_x
 _atom_site_fract_y
 _atom_site_fract_z
 _atom_site_occupancy
  Sr  Sr0  1  0.402310  0.404180  0.499805  1
  Sr  Sr1  1  0.597749  0.001928  0.166832  1
  Sr  Sr2  1  0.000055  0.596758  0.833324  1
  Co  Co3  1  0.999962  0.125677  0.833325  1
  P  P4  1  0.891181  0.221401  0.550190  1
  P  P5  1  0.222670  0.882052  0.458383  1
  P  P6  1  0.108792  0.330154  0.116478  1
  P  P7  1  0.777302  0.659443  0.208300  1
  P  P8  1  0.324782  0.115133  0.867572  1
  P  P9  1  0.675204  0.790294  0.799131  1
  Rh  Rh10  1  0.876202  0.873943  0.504443  1
  Rh  Rh11  1  0.123751  0.997676  0.162220  1
  Rh  Rh12  1  0.476095  0.481652  0.996182  1
  Rh  Rh13  1  0.000056  0.514101  0.333324  1
  Rh  Rh14  1  0.523889  0.005610  0.670496  1
