# generated using pymatgen
data_Nd5GeBiPb2
_symmetry_space_group_name_H-M   'P 1'
_cell_length_a   9.70212814
_cell_length_b   9.70212974
_cell_length_c   6.71358000
_cell_angle_alpha   90.00000000
_cell_angle_beta   90.00000000
_cell_angle_gamma   120.01976800
_symmetry_Int_Tables_number   1
_chemical_formula_structural   Nd5GeBiPb2
_chemical_formula_sum   'Nd10 Ge2 Bi2 Pb4'
_cell_volume   547.18267761
_cell_formula_units_Z   2
loop_
 _symmetry_equiv_pos_site_id
 _symmetry_equiv_pos_as_xyz
  1  'x, y, z'
loop_
 _atom_site_type_symbol
 _atom_site_label
 _atom_site_symmetry_multiplicity
 _atom_site_fract_x
 _atom_site_fract_y
 _atom_site_fract_z
 _atom_site_occupancy
  Nd  Nd0  1  0.666548  0.334181  0.997483  1
  Nd  Nd1  1  0.334181  0.666548  0.997483  1
  Nd  Nd2  1  0.334181  0.666548  0.502517  1
  Nd  Nd3  1  0.666548  0.334181  0.502517  1
  Nd  Nd4  1  0.747515  0.747515  0.750000  1
  Nd  Nd5  1  0.252720  0.999414  0.750000  1
  Nd  Nd6  1  0.999414  0.252720  0.750000  1
  Nd  Nd7  1  0.251266  0.251266  0.250000  1
  Nd  Nd8  1  0.746869  0.999192  0.250000  1
  Nd  Nd9  1  0.999192  0.746869  0.250000  1
  Ge  Ge10  1  0.999747  0.999747  0.000161  1
  Ge  Ge11  1  0.999747  0.999747  0.499839  1
  Bi  Bi12  1  0.390658  0.000267  0.250000  1
  Bi  Bi13  1  0.000267  0.390658  0.250000  1
  Pb  Pb14  1  0.390355  0.390355  0.750000  1
  Pb  Pb15  1  0.610743  0.000721  0.750000  1
  Pb  Pb16  1  0.000721  0.610743  0.750000  1
  Pb  Pb17  1  0.609327  0.609327  0.250000  1
