# generated using pymatgen
data_KLu(PSe3)2
_symmetry_space_group_name_H-M   'P 1'
_cell_length_a   7.57230300
_cell_length_b   6.82096299
_cell_length_c   10.72268198
_cell_angle_alpha   86.99909924
_cell_angle_beta   90.00000000
_cell_angle_gamma   90.00000000
_symmetry_Int_Tables_number   1
_chemical_formula_structural   KLu(PSe3)2
_chemical_formula_sum   'K2 Lu2 P4 Se12'
_cell_volume   553.07133606
_cell_formula_units_Z   2
loop_
 _symmetry_equiv_pos_site_id
 _symmetry_equiv_pos_as_xyz
  1  'x, y, z'
loop_
 _atom_site_type_symbol
 _atom_site_label
 _atom_site_symmetry_multiplicity
 _atom_site_fract_x
 _atom_site_fract_y
 _atom_site_fract_z
 _atom_site_occupancy
  K  K0  1  0.046639  0.312412  0.494594  1
  K  K1  1  0.546639  0.687588  0.505406  1
  Lu  Lu2  1  0.267060  0.218752  0.997830  1
  Lu  Lu3  1  0.767060  0.781248  0.002170  1
  P  P4  1  0.751627  0.321818  0.831530  1
  P  P5  1  0.251627  0.678182  0.168470  1
  P  P6  1  0.031459  0.801467  0.283566  1
  P  P7  1  0.531459  0.198533  0.716434  1
  Se  Se8  1  0.623064  0.377639  0.015993  1
  Se  Se9  1  0.120920  0.831771  0.472486  1
  Se  Se10  1  0.953037  0.080867  0.840968  1
  Se  Se11  1  0.814623  0.594942  0.259413  1
  Se  Se12  1  0.348334  0.394887  0.246794  1
  Se  Se13  1  0.314623  0.405058  0.740587  1
  Se  Se14  1  0.456736  0.939261  0.843987  1
  Se  Se15  1  0.956736  0.060739  0.156013  1
  Se  Se16  1  0.620920  0.168229  0.527514  1
  Se  Se17  1  0.123064  0.622361  0.984007  1
  Se  Se18  1  0.453037  0.919133  0.159032  1
  Se  Se19  1  0.848334  0.605113  0.753206  1
