# generated using pymatgen
data_Hf4Ti2Ga5Sn
_symmetry_space_group_name_H-M   'P 1'
_cell_length_a   5.56278700
_cell_length_b   8.59148732
_cell_length_c   9.16099559
_cell_angle_alpha   89.63664771
_cell_angle_beta   90.00000000
_cell_angle_gamma   90.00000000
_symmetry_Int_Tables_number   1
_chemical_formula_structural   Hf4Ti2Ga5Sn
_chemical_formula_sum   'Hf8 Ti4 Ga10 Sn2'
_cell_volume   437.81912172
_cell_formula_units_Z   2
loop_
 _symmetry_equiv_pos_site_id
 _symmetry_equiv_pos_as_xyz
  1  'x, y, z'
loop_
 _atom_site_type_symbol
 _atom_site_label
 _atom_site_symmetry_multiplicity
 _atom_site_fract_x
 _atom_site_fract_y
 _atom_site_fract_z
 _atom_site_occupancy
  Hf  Hf0  1  0.750000  0.474168  0.620829  1
  Hf  Hf1  1  0.250000  0.525832  0.379171  1
  Hf  Hf2  1  0.750000  0.972557  0.393307  1
  Hf  Hf3  1  0.250000  0.027443  0.606693  1
  Hf  Hf4  1  0.750000  0.374124  0.187884  1
  Hf  Hf5  1  0.250000  0.625876  0.812116  1
  Hf  Hf6  1  0.750000  0.858371  0.802867  1
  Hf  Hf7  1  0.250000  0.141629  0.197133  1
  Ti  Ti8  1  0.000064  0.734851  0.111443  1
  Ti  Ti9  1  0.500064  0.265149  0.888557  1
  Ti  Ti10  1  0.999936  0.265149  0.888557  1
  Ti  Ti11  1  0.499936  0.734851  0.111443  1
  Ga  Ga12  1  0.006085  0.746300  0.566397  1
  Ga  Ga13  1  0.506085  0.253700  0.433603  1
  Ga  Ga14  1  0.993915  0.253700  0.433603  1
  Ga  Ga15  1  0.493915  0.746300  0.566397  1
  Ga  Ga16  1  0.750000  0.548007  0.918130  1
  Ga  Ga17  1  0.250000  0.451993  0.081870  1
  Ga  Ga18  1  0.750000  0.139319  0.663038  1
  Ga  Ga19  1  0.250000  0.860681  0.336962  1
  Ga  Ga20  1  0.750000  0.639022  0.345810  1
  Ga  Ga21  1  0.250000  0.360978  0.654190  1
  Sn  Sn22  1  0.750000  0.045298  0.080930  1
  Sn  Sn23  1  0.250000  0.954702  0.919070  1
