# generated using pymatgen
data_Zr10Sb6S
_symmetry_space_group_name_H-M   'P 1'
_cell_length_a   5.85388300
_cell_length_b   8.52068822
_cell_length_c   8.52068600
_cell_angle_alpha   120.00005995
_cell_angle_beta   89.99994046
_cell_angle_gamma   90.00022648
_symmetry_Int_Tables_number   1
_chemical_formula_structural   Zr10Sb6S
_chemical_formula_sum   'Zr10 Sb6 S1'
_cell_volume   368.06425565
_cell_formula_units_Z   1
loop_
 _symmetry_equiv_pos_site_id
 _symmetry_equiv_pos_as_xyz
  1  'x, y, z'
loop_
 _atom_site_type_symbol
 _atom_site_label
 _atom_site_symmetry_multiplicity
 _atom_site_fract_x
 _atom_site_fract_y
 _atom_site_fract_z
 _atom_site_occupancy
  Zr  Zr0  1  0.500000  0.333334  0.666667  1
  Zr  Zr1  1  0.500001  0.666667  0.333334  1
  Zr  Zr2  1  0.999999  0.666667  0.333334  1
  Zr  Zr3  1  0.000000  0.333334  0.666666  1
  Zr  Zr4  1  0.759390  0.250568  0.999999  1
  Zr  Zr5  1  0.759393  0.749433  0.749433  1
  Zr  Zr6  1  0.759394  0.000000  0.250568  1
  Zr  Zr7  1  0.240610  0.749432  0.000000  1
  Zr  Zr8  1  0.240607  0.250568  0.250568  1
  Zr  Zr9  1  0.240606  0.000000  0.749433  1
  Sb  Sb10  1  0.752455  0.605492  0.000001  1
  Sb  Sb11  1  0.752453  0.394505  0.394505  1
  Sb  Sb12  1  0.752452  0.000000  0.605493  1
  Sb  Sb13  1  0.247544  0.394508  0.000001  1
  Sb  Sb14  1  0.247548  0.605493  0.605493  1
  Sb  Sb15  1  0.247545  0.000000  0.394507  1
  S  S16  1  0.499999  0.999999  0.999998  1
