# generated using pymatgen
data_Dy4SiI6
_symmetry_space_group_name_H-M   'P 1'
_cell_length_a   4.20570500
_cell_length_b   14.00399900
_cell_length_c   14.77891300
_cell_angle_alpha   90.00000000
_cell_angle_beta   90.00000000
_cell_angle_gamma   90.00000000
_symmetry_Int_Tables_number   1
_chemical_formula_structural   Dy4SiI6
_chemical_formula_sum   'Dy8 Si2 I12'
_cell_volume   870.42903702
_cell_formula_units_Z   2
loop_
 _symmetry_equiv_pos_site_id
 _symmetry_equiv_pos_as_xyz
  1  'x, y, z'
loop_
 _atom_site_type_symbol
 _atom_site_label
 _atom_site_symmetry_multiplicity
 _atom_site_fract_x
 _atom_site_fract_y
 _atom_site_fract_z
 _atom_site_occupancy
  Dy  Dy0  1  0.500000  0.113931  0.347707  1
  Dy  Dy1  1  0.500000  0.886069  0.652293  1
  Dy  Dy2  1  0.500000  0.613931  0.152293  1
  Dy  Dy3  1  0.500000  0.386069  0.847707  1
  Dy  Dy4  1  0.000000  0.111306  0.574344  1
  Dy  Dy5  1  0.000000  0.888694  0.425656  1
  Dy  Dy6  1  0.000000  0.611306  0.925656  1
  Dy  Dy7  1  0.000000  0.388694  0.074344  1
  Si  Si8  1  0.500000  0.000000  0.500000  1
  Si  Si9  1  0.500000  0.500000  0.000000  1
  I  I10  1  0.500000  0.244888  0.161292  1
  I  I11  1  0.500000  0.755112  0.838708  1
  I  I12  1  0.500000  0.744888  0.338708  1
  I  I13  1  0.500000  0.255112  0.661292  1
  I  I14  1  0.000000  0.258481  0.413624  1
  I  I15  1  0.000000  0.741519  0.586376  1
  I  I16  1  0.000000  0.758481  0.086376  1
  I  I17  1  0.000000  0.241519  0.913624  1
  I  I18  1  0.000000  0.999321  0.240594  1
  I  I19  1  0.000000  0.000679  0.759406  1
  I  I20  1  0.000000  0.499321  0.259406  1
  I  I21  1  0.000000  0.500679  0.740594  1
