# generated using pymatgen
data_Nd10C4I15
_symmetry_space_group_name_H-M   'P 1'
_cell_length_a   9.77307496
_cell_length_b   10.65613911
_cell_length_c   11.79056995
_cell_angle_alpha   93.97958068
_cell_angle_beta   114.27891285
_cell_angle_gamma   109.35046485
_symmetry_Int_Tables_number   1
_chemical_formula_structural   Nd10C4I15
_chemical_formula_sum   'Nd10 C4 I15'
_cell_volume   1025.44296364
_cell_formula_units_Z   1
loop_
 _symmetry_equiv_pos_site_id
 _symmetry_equiv_pos_as_xyz
  1  'x, y, z'
loop_
 _atom_site_type_symbol
 _atom_site_label
 _atom_site_symmetry_multiplicity
 _atom_site_fract_x
 _atom_site_fract_y
 _atom_site_fract_z
 _atom_site_occupancy
  Nd  Nd0  1  0.596746  0.541749  0.341267  1
  Nd  Nd1  1  0.344779  0.744958  0.164144  1
  Nd  Nd2  1  0.776241  0.882881  0.257224  1
  Nd  Nd3  1  0.528311  0.185488  0.101869  1
  Nd  Nd4  1  0.223759  0.117119  0.742776  1
  Nd  Nd5  1  0.403254  0.458251  0.658733  1
  Nd  Nd6  1  0.471689  0.814512  0.898131  1
  Nd  Nd7  1  0.703991  0.567393  0.044292  1
  Nd  Nd8  1  0.296009  0.432607  0.955708  1
  Nd  Nd9  1  0.655221  0.255042  0.835856  1
  C  C10  1  0.482325  0.301077  0.938774  1
  C  C11  1  0.517675  0.698923  0.061226  1
  C  C12  1  0.453378  0.363659  0.835238  1
  C  C13  1  0.546622  0.636341  0.164762  1
  I  I14  1  0.206932  0.906219  0.937460  1
  I  I15  1  0.104893  0.188391  0.468147  1
  I  I16  1  0.151613  0.555169  0.703740  1
  I  I17  1  0.406311  0.970145  0.648179  1
  I  I18  1  0.713546  0.733860  0.821847  1
  I  I19  1  0.286454  0.266140  0.178153  1
  I  I20  1  0.848387  0.444831  0.296260  1
  I  I21  1  0.895107  0.811609  0.531853  1
  I  I22  1  0.358974  0.630525  0.412304  1
  I  I23  1  0.052010  0.832931  0.220195  1
  I  I24  1  0.793068  0.093781  0.062540  1
  I  I25  1  0.641026  0.369475  0.587696  1
  I  I26  1  0.947990  0.167069  0.779805  1
  I  I27  1  0.593689  0.029855  0.351821  1
  I  I28  1  0.000000  0.500000  0.000000  1
