# generated using pymatgen
data_Tm4Pd3RuO14
_symmetry_space_group_name_H-M   'P 1'
_cell_length_a   7.15566553
_cell_length_b   7.20797161
_cell_length_c   7.15566500
_cell_angle_alpha   60.23975859
_cell_angle_beta   59.99999785
_cell_angle_gamma   60.23975666
_symmetry_Int_Tables_number   1
_chemical_formula_structural   Tm4Pd3RuO14
_chemical_formula_sum   'Tm4 Pd3 Ru1 O14'
_cell_volume   261.91627257
_cell_formula_units_Z   1
loop_
 _symmetry_equiv_pos_site_id
 _symmetry_equiv_pos_as_xyz
  1  'x, y, z'
loop_
 _atom_site_type_symbol
 _atom_site_label
 _atom_site_symmetry_multiplicity
 _atom_site_fract_x
 _atom_site_fract_y
 _atom_site_fract_z
 _atom_site_occupancy
  Tm  Tm0  1  0.125000  0.125000  0.625000  1
  Tm  Tm1  1  0.125000  0.125000  0.125000  1
  Tm  Tm2  1  0.625000  0.125000  0.125000  1
  Tm  Tm3  1  0.125000  0.625000  0.125000  1
  Pd  Pd4  1  0.625000  0.625000  0.625000  1
  Pd  Pd5  1  0.125000  0.625000  0.625000  1
  Pd  Pd6  1  0.625000  0.625000  0.125000  1
  Ru  Ru7  1  0.625000  0.125000  0.625000  1
  O  O8  1  0.532590  0.529319  0.969045  1
  O  O9  1  0.969045  0.529319  0.969045  1
  O  O10  1  0.288625  0.283363  0.714006  1
  O  O11  1  0.999726  0.000821  0.999726  1
  O  O12  1  0.280955  0.720681  0.717410  1
  O  O13  1  0.717410  0.720681  0.280955  1
  O  O14  1  0.714006  0.283363  0.288625  1
  O  O15  1  0.535994  0.966637  0.535994  1
  O  O16  1  0.714006  0.283363  0.714006  1
  O  O17  1  0.535994  0.966637  0.961375  1
  O  O18  1  0.961375  0.966637  0.535994  1
  O  O19  1  0.250274  0.249179  0.250274  1
  O  O20  1  0.280955  0.720681  0.280955  1
  O  O21  1  0.969045  0.529319  0.532590  1
