# generated using pymatgen
data_Y3AlIn2PdAu2
_symmetry_space_group_name_H-M   'P 1'
_cell_length_a   7.82313557
_cell_length_b   7.82313454
_cell_length_c   3.80568900
_cell_angle_alpha   90.00000000
_cell_angle_beta   90.00000000
_cell_angle_gamma   120.69906498
_symmetry_Int_Tables_number   1
_chemical_formula_structural   Y3AlIn2PdAu2
_chemical_formula_sum   'Y3 Al1 In2 Pd1 Au2'
_cell_volume   200.27327598
_cell_formula_units_Z   1
loop_
 _symmetry_equiv_pos_site_id
 _symmetry_equiv_pos_as_xyz
  1  'x, y, z'
loop_
 _atom_site_type_symbol
 _atom_site_label
 _atom_site_symmetry_multiplicity
 _atom_site_fract_x
 _atom_site_fract_y
 _atom_site_fract_z
 _atom_site_occupancy
  Y  Y0  1  0.411378  0.411378  0.500000  1
  Y  Y1  1  0.598296  0.997267  0.500000  1
  Y  Y2  1  0.997267  0.598296  0.500000  1
  Al  Al3  1  0.748174  0.748174  0.000000  1
  In  In4  1  0.255336  0.000646  0.000000  1
  In  In5  1  0.000646  0.255336  0.000000  1
  Pd  Pd6  1  0.974450  0.974450  0.500000  1
  Au  Au7  1  0.669765  0.344688  0.000000  1
  Au  Au8  1  0.344688  0.669765  0.000000  1
