# generated using pymatgen
data_Ho8TiNb11Si15As
_symmetry_space_group_name_H-M   'P 1'
_cell_length_a   7.06962442
_cell_length_b   7.06140094
_cell_length_c   13.02848200
_cell_angle_alpha   89.97771761
_cell_angle_beta   89.89780467
_cell_angle_gamma   89.95363778
_symmetry_Int_Tables_number   1
_chemical_formula_structural   Ho8TiNb11Si15As
_chemical_formula_sum   'Ho8 Ti1 Nb11 Si15 As1'
_cell_volume   650.39944956
_cell_formula_units_Z   1
loop_
 _symmetry_equiv_pos_site_id
 _symmetry_equiv_pos_as_xyz
  1  'x, y, z'
loop_
 _atom_site_type_symbol
 _atom_site_label
 _atom_site_symmetry_multiplicity
 _atom_site_fract_x
 _atom_site_fract_y
 _atom_site_fract_z
 _atom_site_occupancy
  Ho  Ho0  1  0.343006  0.001514  0.466634  1
  Ho  Ho1  1  0.497992  0.844257  0.718458  1
  Ho  Ho2  1  0.501449  0.157650  0.217669  1
  Ho  Ho3  1  0.841982  0.497552  0.282140  1
  Ho  Ho4  1  0.157534  0.500445  0.782434  1
  Ho  Ho5  1  0.659077  0.996150  0.968434  1
  Ho  Ho6  1  0.999414  0.344479  0.531178  1
  Ho  Ho7  1  0.997919  0.658663  0.032243  1
  Ti  Ti8  1  0.991097  0.843288  0.625177  1
  Nb  Nb9  1  0.328240  0.328496  0.999735  1
  Nb  Nb10  1  0.171643  0.828205  0.250009  1
  Nb  Nb11  1  0.825074  0.172828  0.749726  1
  Nb  Nb12  1  0.671486  0.671476  0.500208  1
  Nb  Nb13  1  0.154235  0.006849  0.874430  1
  Nb  Nb14  1  0.493273  0.652132  0.124788  1
  Nb  Nb15  1  0.507831  0.348233  0.625113  1
  Nb  Nb16  1  0.653852  0.495177  0.876406  1
  Nb  Nb17  1  0.348034  0.506027  0.375777  1
  Nb  Nb18  1  0.846521  0.993115  0.374615  1
  Nb  Nb19  1  0.006825  0.152034  0.125569  1
  Si  Si20  1  0.366161  0.704638  0.932235  1
  Si  Si21  1  0.633044  0.296113  0.432607  1
  Si  Si22  1  0.703698  0.365981  0.067892  1
  Si  Si23  1  0.295336  0.634734  0.567636  1
  Si  Si24  1  0.796266  0.865803  0.182482  1
  Si  Si25  1  0.134016  0.203855  0.317994  1
  Si  Si26  1  0.867121  0.797277  0.816793  1
  Si  Si27  1  0.294076  0.953246  0.063685  1
  Si  Si28  1  0.546573  0.793497  0.313688  1
  Si  Si29  1  0.460483  0.207482  0.817921  1
  Si  Si30  1  0.794852  0.548733  0.685468  1
  Si  Si31  1  0.206047  0.453204  0.186218  1
  Si  Si32  1  0.707974  0.045618  0.564250  1
  Si  Si33  1  0.953187  0.293954  0.936266  1
  Si  Si34  1  0.046562  0.707757  0.436629  1
  As  As35  1  0.198123  0.129537  0.677496  1
