# generated using pymatgen
data_Tb4DyZr3(Co4As3)4
_symmetry_space_group_name_H-M   'P 1'
_cell_length_a   12.74013301
_cell_length_b   12.74013172
_cell_length_c   3.83619500
_cell_angle_alpha   90.00000000
_cell_angle_beta   90.00000000
_cell_angle_gamma   119.99558107
_symmetry_Int_Tables_number   1
_chemical_formula_structural   Tb4DyZr3(Co4As3)4
_chemical_formula_sum   'Tb4 Dy1 Zr3 Co16 As12'
_cell_volume   539.26039261
_cell_formula_units_Z   1
loop_
 _symmetry_equiv_pos_site_id
 _symmetry_equiv_pos_as_xyz
  1  'x, y, z'
loop_
 _atom_site_type_symbol
 _atom_site_label
 _atom_site_symmetry_multiplicity
 _atom_site_fract_x
 _atom_site_fract_y
 _atom_site_fract_z
 _atom_site_occupancy
  Tb  Tb0  1  0.816975  0.999814  0.500000  1
  Tb  Tb1  1  0.999814  0.816975  0.500000  1
  Tb  Tb2  1  0.333346  0.666565  0.000000  1
  Tb  Tb3  1  0.666565  0.333346  0.000000  1
  Dy  Dy4  1  0.183165  0.183165  0.500000  1
  Zr  Zr5  1  0.561219  0.561219  0.000000  1
  Zr  Zr6  1  0.438483  0.000065  0.000000  1
  Zr  Zr7  1  0.000065  0.438483  0.000000  1
  Co  Co8  1  0.719858  0.719858  0.500000  1
  Co  Co9  1  0.280075  0.000307  0.500000  1
  Co  Co10  1  0.000307  0.280075  0.500000  1
  Co  Co11  1  0.177917  0.373576  0.000000  1
  Co  Co12  1  0.626210  0.803981  0.000000  1
  Co  Co13  1  0.195988  0.822256  0.000000  1
  Co  Co14  1  0.803981  0.626210  0.000000  1
  Co  Co15  1  0.822256  0.195988  0.000000  1
  Co  Co16  1  0.373576  0.177917  0.000000  1
  Co  Co17  1  0.357291  0.479484  0.500000  1
  Co  Co18  1  0.520339  0.877660  0.500000  1
  Co  Co19  1  0.122264  0.642613  0.500000  1
  Co  Co20  1  0.877660  0.520339  0.500000  1
  Co  Co21  1  0.642613  0.122264  0.500000  1
  Co  Co22  1  0.479484  0.357291  0.500000  1
  Co  Co23  1  0.000145  0.000145  0.000000  1
  As  As24  1  0.822577  0.822577  0.000000  1
  As  As25  1  0.177673  0.000423  0.000000  1
  As  As26  1  0.000423  0.177673  0.000000  1
  As  As27  1  0.173380  0.481293  0.500000  1
  As  As28  1  0.518692  0.692020  0.500000  1
  As  As29  1  0.307926  0.826699  0.500000  1
  As  As30  1  0.692020  0.518692  0.500000  1
  As  As31  1  0.826699  0.307926  0.500000  1
  As  As32  1  0.481293  0.173380  0.500000  1
  As  As33  1  0.352213  0.352213  0.000000  1
  As  As34  1  0.647469  0.000036  0.000000  1
  As  As35  1  0.000036  0.647469  0.000000  1
