# generated using pymatgen
data_Ho7Er(Si4W3)4
_symmetry_space_group_name_H-M   'P 1'
_cell_length_a   6.76006205
_cell_length_b   6.92776348
_cell_length_c   12.88167934
_cell_angle_alpha   89.99493746
_cell_angle_beta   89.99930319
_cell_angle_gamma   89.99402930
_symmetry_Int_Tables_number   1
_chemical_formula_structural   Ho7Er(Si4W3)4
_chemical_formula_sum   'Ho7 Er1 Si16 W12'
_cell_volume   603.27623126
_cell_formula_units_Z   1
loop_
 _symmetry_equiv_pos_site_id
 _symmetry_equiv_pos_as_xyz
  1  'x, y, z'
loop_
 _atom_site_type_symbol
 _atom_site_label
 _atom_site_symmetry_multiplicity
 _atom_site_fract_x
 _atom_site_fract_y
 _atom_site_fract_z
 _atom_site_occupancy
  Ho  Ho0  1  0.496154  0.332186  0.093387  1
  Ho  Ho1  1  0.996156  0.167792  0.406615  1
  Ho  Ho2  1  0.503877  0.667727  0.593395  1
  Ho  Ho3  1  0.003778  0.832243  0.906770  1
  Ho  Ho4  1  0.503810  0.667841  0.906692  1
  Ho  Ho5  1  0.003823  0.832138  0.593403  1
  Ho  Ho6  1  0.496156  0.332249  0.406510  1
  Er  Er7  1  0.995971  0.168068  0.093503  1
  Si  Si8  1  0.661426  0.041828  0.546849  1
  Si  Si9  1  0.161388  0.458004  0.953287  1
  Si  Si10  1  0.338016  0.958553  0.046949  1
  Si  Si11  1  0.838594  0.541828  0.453080  1
  Si  Si12  1  0.338627  0.958164  0.453051  1
  Si  Si13  1  0.838714  0.541442  0.046915  1
  Si  Si14  1  0.661598  0.041856  0.953277  1
  Si  Si15  1  0.161469  0.458150  0.546859  1
  Si  Si16  1  0.535301  0.370670  0.750063  1
  Si  Si17  1  0.035231  0.129107  0.750007  1
  Si  Si18  1  0.464806  0.629372  0.249926  1
  Si  Si19  1  0.964896  0.871104  0.249832  1
  Si  Si20  1  0.801978  0.633346  0.750097  1
  Si  Si21  1  0.301884  0.866417  0.750042  1
  Si  Si22  1  0.197787  0.366355  0.249794  1
  Si  Si23  1  0.698336  0.133586  0.249825  1
  W  W24  1  0.831438  0.336231  0.625440  1
  W  W25  1  0.331273  0.163649  0.874632  1
  W  W26  1  0.168600  0.663737  0.125421  1
  W  W27  1  0.668732  0.836330  0.374497  1
  W  W28  1  0.168588  0.663748  0.374494  1
  W  W29  1  0.668773  0.836520  0.125368  1
  W  W30  1  0.831518  0.336094  0.874681  1
  W  W31  1  0.331430  0.163614  0.625431  1
  W  W32  1  0.665304  0.999919  0.750055  1
  W  W33  1  0.165385  0.499931  0.750063  1
  W  W34  1  0.334552  0.000279  0.249903  1
  W  W35  1  0.834631  0.499925  0.249893  1
