# generated using pymatgen
data_Nd3Ni5Sb5Rh
_symmetry_space_group_name_H-M   'P 1'
_cell_length_a   4.29588100
_cell_length_b   10.01437200
_cell_length_c   12.95888300
_cell_angle_alpha   90.00000000
_cell_angle_beta   90.00000000
_cell_angle_gamma   90.00000000
_symmetry_Int_Tables_number   1
_chemical_formula_structural   Nd3Ni5Sb5Rh
_chemical_formula_sum   'Nd6 Ni10 Sb10 Rh2'
_cell_volume   557.49827925
_cell_formula_units_Z   2
loop_
 _symmetry_equiv_pos_site_id
 _symmetry_equiv_pos_as_xyz
  1  'x, y, z'
loop_
 _atom_site_type_symbol
 _atom_site_label
 _atom_site_symmetry_multiplicity
 _atom_site_fract_x
 _atom_site_fract_y
 _atom_site_fract_z
 _atom_site_occupancy
  Nd  Nd0  1  0.000000  0.244783  0.000000  1
  Nd  Nd1  1  0.500000  0.755217  0.500000  1
  Nd  Nd2  1  0.000000  0.247754  0.326451  1
  Nd  Nd3  1  0.500000  0.752246  0.173549  1
  Nd  Nd4  1  0.000000  0.247754  0.673549  1
  Nd  Nd5  1  0.500000  0.752246  0.826451  1
  Ni  Ni6  1  0.000000  0.995147  0.160722  1
  Ni  Ni7  1  0.500000  0.004853  0.339278  1
  Ni  Ni8  1  0.000000  0.995147  0.839278  1
  Ni  Ni9  1  0.500000  0.004853  0.660722  1
  Ni  Ni10  1  0.500000  0.989515  0.000000  1
  Ni  Ni11  1  0.000000  0.010485  0.500000  1
  Ni  Ni12  1  0.000000  0.617752  0.319325  1
  Ni  Ni13  1  0.500000  0.382248  0.180675  1
  Ni  Ni14  1  0.000000  0.617752  0.680675  1
  Ni  Ni15  1  0.500000  0.382248  0.819325  1
  Sb  Sb16  1  0.000000  0.513941  0.134776  1
  Sb  Sb17  1  0.500000  0.486059  0.365224  1
  Sb  Sb18  1  0.000000  0.513941  0.865224  1
  Sb  Sb19  1  0.500000  0.486059  0.634776  1
  Sb  Sb20  1  0.000000  0.871121  0.334271  1
  Sb  Sb21  1  0.500000  0.128879  0.165729  1
  Sb  Sb22  1  0.000000  0.871121  0.665729  1
  Sb  Sb23  1  0.500000  0.128879  0.834271  1
  Sb  Sb24  1  0.000000  0.849655  0.000000  1
  Sb  Sb25  1  0.500000  0.150345  0.500000  1
  Rh  Rh26  1  0.500000  0.504946  0.000000  1
  Rh  Rh27  1  0.000000  0.495054  0.500000  1
