# generated using pymatgen
data_Y2Er7ScCd3Ir
_symmetry_space_group_name_H-M   'P 1'
_cell_length_a   9.52100902
_cell_length_b   9.51882364
_cell_length_c   9.67919800
_cell_angle_alpha   90.00000000
_cell_angle_beta   90.00000000
_cell_angle_gamma   119.99240799
_symmetry_Int_Tables_number   1
_chemical_formula_structural   Y2Er7ScCd3Ir
_chemical_formula_sum   'Y4 Er14 Sc2 Cd6 Ir2'
_cell_volume   759.74785404
_cell_formula_units_Z   2
loop_
 _symmetry_equiv_pos_site_id
 _symmetry_equiv_pos_as_xyz
  1  'x, y, z'
loop_
 _atom_site_type_symbol
 _atom_site_label
 _atom_site_symmetry_multiplicity
 _atom_site_fract_x
 _atom_site_fract_y
 _atom_site_fract_z
 _atom_site_occupancy
  Y  Y0  1  0.918169  0.459084  0.250000  1
  Y  Y1  1  0.459348  0.540621  0.750000  1
  Y  Y2  1  0.459348  0.918727  0.750000  1
  Y  Y3  1  0.080984  0.540492  0.750000  1
  Er  Er4  1  0.208509  0.792399  0.440898  1
  Er  Er5  1  0.208509  0.416110  0.440898  1
  Er  Er6  1  0.584014  0.792007  0.440754  1
  Er  Er7  1  0.791484  0.207788  0.558423  1
  Er  Er8  1  0.791484  0.583695  0.558423  1
  Er  Er9  1  0.416443  0.208221  0.558078  1
  Er  Er10  1  0.791484  0.207788  0.941577  1
  Er  Er11  1  0.791484  0.583695  0.941577  1
  Er  Er12  1  0.416443  0.208221  0.941922  1
  Er  Er13  1  0.208509  0.792399  0.059102  1
  Er  Er14  1  0.208509  0.416110  0.059102  1
  Er  Er15  1  0.584014  0.792007  0.059246  1
  Er  Er16  1  0.540443  0.458975  0.250000  1
  Er  Er17  1  0.540443  0.081468  0.250000  1
  Sc  Sc18  1  0.999984  0.999992  0.500148  1
  Sc  Sc19  1  0.999984  0.999992  0.999852  1
  Cd  Cd20  1  0.889039  0.109860  0.250000  1
  Cd  Cd21  1  0.889039  0.779181  0.250000  1
  Cd  Cd22  1  0.221611  0.110807  0.250000  1
  Cd  Cd23  1  0.110266  0.889947  0.750000  1
  Cd  Cd24  1  0.110266  0.220317  0.750000  1
  Cd  Cd25  1  0.779556  0.889777  0.750000  1
  Ir  Ir26  1  0.333844  0.666922  0.250000  1
  Ir  Ir27  1  0.666795  0.333397  0.750000  1
