# generated using pymatgen
data_Dy10Sn6Br
_symmetry_space_group_name_H-M   'P 1'
_cell_length_a   9.04973200
_cell_length_b   9.04973217
_cell_length_c   6.57792800
_cell_angle_alpha   90.00000000
_cell_angle_beta   90.00000000
_cell_angle_gamma   119.99999940
_symmetry_Int_Tables_number   1
_chemical_formula_structural   Dy10Sn6Br
_chemical_formula_sum   'Dy10 Sn6 Br1'
_cell_volume   466.54248047
_cell_formula_units_Z   1
loop_
 _symmetry_equiv_pos_site_id
 _symmetry_equiv_pos_as_xyz
  1  'x, y, z'
loop_
 _atom_site_type_symbol
 _atom_site_label
 _atom_site_symmetry_multiplicity
 _atom_site_fract_x
 _atom_site_fract_y
 _atom_site_fract_z
 _atom_site_occupancy
  Dy  Dy0  1  0.333333  0.666667  0.500000  1
  Dy  Dy1  1  0.666667  0.333333  0.500000  1
  Dy  Dy2  1  0.666667  0.333333  0.000000  1
  Dy  Dy3  1  0.333333  0.666667  0.000000  1
  Dy  Dy4  1  0.000000  0.746217  0.234521  1
  Dy  Dy5  1  0.253783  0.253783  0.234521  1
  Dy  Dy6  1  0.746217  0.000000  0.234521  1
  Dy  Dy7  1  0.000000  0.253783  0.765479  1
  Dy  Dy8  1  0.746217  0.746217  0.765479  1
  Dy  Dy9  1  0.253783  0.000000  0.765479  1
  Sn  Sn10  1  0.000000  0.392320  0.248317  1
  Sn  Sn11  1  0.607680  0.607680  0.248317  1
  Sn  Sn12  1  0.392320  0.000000  0.248317  1
  Sn  Sn13  1  0.000000  0.607680  0.751683  1
  Sn  Sn14  1  0.392320  0.392320  0.751683  1
  Sn  Sn15  1  0.607680  0.000000  0.751683  1
  Br  Br16  1  0.000000  0.000000  0.500000  1
