# generated using pymatgen
data_PrNd4Te2Cl3O10
_symmetry_space_group_name_H-M   'P 1'
_cell_length_a   5.72479100
_cell_length_b   7.01447058
_cell_length_c   10.28370369
_cell_angle_alpha   90.26666885
_cell_angle_beta   90.00000000
_cell_angle_gamma   114.08366161
_symmetry_Int_Tables_number   1
_chemical_formula_structural   PrNd4Te2Cl3O10
_chemical_formula_sum   'Pr1 Nd4 Te2 Cl3 O10'
_cell_volume   377.00378796
_cell_formula_units_Z   1
loop_
 _symmetry_equiv_pos_site_id
 _symmetry_equiv_pos_as_xyz
  1  'x, y, z'
loop_
 _atom_site_type_symbol
 _atom_site_label
 _atom_site_symmetry_multiplicity
 _atom_site_fract_x
 _atom_site_fract_y
 _atom_site_fract_z
 _atom_site_occupancy
  Pr  Pr0  1  0.290955  0.581911  0.105913  1
  Nd  Nd1  1  0.000027  0.000054  0.999570  1
  Nd  Nd2  1  0.601951  0.203902  0.231097  1
  Nd  Nd3  1  0.397965  0.795929  0.768908  1
  Nd  Nd4  1  0.709241  0.418483  0.895518  1
  Te  Te5  1  0.916183  0.832365  0.327869  1
  Te  Te6  1  0.084040  0.168082  0.672395  1
  Cl  Cl7  1  0.159515  0.319030  0.349802  1
  Cl  Cl8  1  0.499586  0.999173  0.499858  1
  Cl  Cl9  1  0.839622  0.679245  0.651491  1
  O  O10  1  0.399761  0.290459  0.058032  1
  O  O11  1  0.890699  0.290459  0.058032  1
  O  O12  1  0.190060  0.896902  0.203935  1
  O  O13  1  0.706842  0.896902  0.203935  1
  O  O14  1  0.774685  0.549371  0.285635  1
  O  O15  1  0.225749  0.451499  0.712543  1
  O  O16  1  0.294586  0.104865  0.796474  1
  O  O17  1  0.810280  0.104865  0.796474  1
  O  O18  1  0.107200  0.708254  0.941260  1
  O  O19  1  0.601053  0.708254  0.941260  1
