# generated using pymatgen
data_YEr4Zr(SnIr)6
_symmetry_space_group_name_H-M   'P 1'
_cell_length_a   7.46411920
_cell_length_b   7.52857932
_cell_length_c   7.76163700
_cell_angle_alpha   90.00000000
_cell_angle_beta   90.00000000
_cell_angle_gamma   120.38117368
_symmetry_Int_Tables_number   1
_chemical_formula_structural   YEr4Zr(SnIr)6
_chemical_formula_sum   'Y1 Er4 Zr1 Sn6 Ir6'
_cell_volume   376.26567523
_cell_formula_units_Z   1
loop_
 _symmetry_equiv_pos_site_id
 _symmetry_equiv_pos_as_xyz
  1  'x, y, z'
loop_
 _atom_site_type_symbol
 _atom_site_label
 _atom_site_symmetry_multiplicity
 _atom_site_fract_x
 _atom_site_fract_y
 _atom_site_fract_z
 _atom_site_occupancy
  Y  Y0  1  0.596647  0.593346  0.750000  1
  Er  Er1  1  0.405832  0.004906  0.250000  1
  Er  Er2  1  0.596088  0.596794  0.250000  1
  Er  Er3  1  0.001526  0.408781  0.750000  1
  Er  Er4  1  0.402476  0.995677  0.750000  1
  Zr  Zr5  1  0.998816  0.398407  0.250000  1
  Sn  Sn6  1  0.264068  0.262096  0.500957  1
  Sn  Sn7  1  0.264068  0.262096  0.999043  1
  Sn  Sn8  1  0.735292  0.997376  0.998921  1
  Sn  Sn9  1  0.000652  0.742155  0.491856  1
  Sn  Sn10  1  0.735292  0.997376  0.501079  1
  Sn  Sn11  1  0.000652  0.742155  0.008144  1
  Ir  Ir12  1  0.677754  0.334680  0.491093  1
  Ir  Ir13  1  0.677754  0.334680  0.008907  1
  Ir  Ir14  1  0.320998  0.658007  0.014966  1
  Ir  Ir15  1  0.320998  0.658007  0.485034  1
  Ir  Ir16  1  0.001242  0.000214  0.750000  1
  Ir  Ir17  1  0.999845  0.013246  0.250000  1
