# generated using pymatgen
data_Li4YbHo3(Si2Ge)2
_symmetry_space_group_name_H-M   'P 1'
_cell_length_a   9.35192571
_cell_length_b   9.35192631
_cell_length_c   6.69587600
_cell_angle_alpha   90.00000000
_cell_angle_beta   90.00000000
_cell_angle_gamma   153.63865510
_symmetry_Int_Tables_number   1
_chemical_formula_structural   Li4YbHo3(Si2Ge)2
_chemical_formula_sum   'Li4 Yb1 Ho3 Si4 Ge2'
_cell_volume   260.02948811
_cell_formula_units_Z   1
loop_
 _symmetry_equiv_pos_site_id
 _symmetry_equiv_pos_as_xyz
  1  'x, y, z'
loop_
 _atom_site_type_symbol
 _atom_site_label
 _atom_site_symmetry_multiplicity
 _atom_site_fract_x
 _atom_site_fract_y
 _atom_site_fract_z
 _atom_site_occupancy
  Li  Li0  1  0.811735  0.188265  0.440447  1
  Li  Li1  1  0.188814  0.811186  0.557012  1
  Li  Li2  1  0.811735  0.188265  0.059553  1
  Li  Li3  1  0.188814  0.811186  0.942988  1
  Yb  Yb4  1  0.658128  0.341872  0.250000  1
  Ho  Ho5  1  0.549998  0.450002  0.750000  1
  Ho  Ho6  1  0.448986  0.551014  0.250000  1
  Ho  Ho7  1  0.343477  0.656523  0.750000  1
  Si  Si8  1  0.939761  0.060239  0.926867  1
  Si  Si9  1  0.056902  0.943098  0.072419  1
  Si  Si10  1  0.939761  0.060239  0.573133  1
  Si  Si11  1  0.056902  0.943098  0.427581  1
  Ge  Ge12  1  0.721724  0.278276  0.750000  1
  Ge  Ge13  1  0.283263  0.716737  0.250000  1
