# generated using pymatgen
data_Hf4ZnSi5Ir7
_symmetry_space_group_name_H-M   'P 1'
_cell_length_a   7.01552304
_cell_length_b   7.01552355
_cell_length_c   7.01552306
_cell_angle_alpha   108.03884254
_cell_angle_beta   110.19211233
_cell_angle_gamma   110.19212224
_symmetry_Int_Tables_number   1
_chemical_formula_structural   Hf4ZnSi5Ir7
_chemical_formula_sum   'Hf4 Zn1 Si5 Ir7'
_cell_volume   265.67786209
_cell_formula_units_Z   1
loop_
 _symmetry_equiv_pos_site_id
 _symmetry_equiv_pos_as_xyz
  1  'x, y, z'
loop_
 _atom_site_type_symbol
 _atom_site_label
 _atom_site_symmetry_multiplicity
 _atom_site_fract_x
 _atom_site_fract_y
 _atom_site_fract_z
 _atom_site_occupancy
  Hf  Hf0  1  0.525558  0.528863  0.528863  1
  Hf  Hf1  1  0.000000  0.003305  0.528863  1
  Hf  Hf2  1  0.000000  0.528863  0.003305  1
  Hf  Hf3  1  0.474442  0.003305  0.003305  1
  Zn  Zn4  1  0.000000  0.286708  0.286708  1
  Si  Si5  1  0.315508  0.008051  0.323559  1
  Si  Si6  1  0.315508  0.323559  0.008051  1
  Si  Si7  1  0.000000  0.659149  0.659149  1
  Si  Si8  1  0.684492  0.008051  0.692543  1
  Si  Si9  1  0.684492  0.692543  0.008051  1
  Ir  Ir10  1  0.500000  0.750640  0.250640  1
  Ir  Ir11  1  0.253495  0.499489  0.752985  1
  Ir  Ir12  1  0.746505  0.245994  0.499489  1
  Ir  Ir13  1  0.746505  0.499489  0.245994  1
  Ir  Ir14  1  0.500000  0.250640  0.750640  1
  Ir  Ir15  1  0.253495  0.752985  0.499489  1
  Ir  Ir16  1  0.000000  0.958365  0.958365  1
