# generated using pymatgen
data_Y19TmSi15Pt
_symmetry_space_group_name_H-M   'P 1'
_cell_length_a   7.41315600
_cell_length_b   7.73843658
_cell_length_c   14.66733400
_cell_angle_alpha   90.00000000
_cell_angle_beta   90.00000000
_cell_angle_gamma   90.09911068
_symmetry_Int_Tables_number   1
_chemical_formula_structural   Y19TmSi15Pt
_chemical_formula_sum   'Y19 Tm1 Si15 Pt1'
_cell_volume   841.40850756
_cell_formula_units_Z   1
loop_
 _symmetry_equiv_pos_site_id
 _symmetry_equiv_pos_as_xyz
  1  'x, y, z'
loop_
 _atom_site_type_symbol
 _atom_site_label
 _atom_site_symmetry_multiplicity
 _atom_site_fract_x
 _atom_site_fract_y
 _atom_site_fract_z
 _atom_site_occupancy
  Y  Y0  1  0.680512  0.178772  0.623012  1
  Y  Y1  1  0.186263  0.323691  0.876421  1
  Y  Y2  1  0.317621  0.820206  0.123036  1
  Y  Y3  1  0.817671  0.678010  0.376623  1
  Y  Y4  1  0.317621  0.820206  0.376964  1
  Y  Y5  1  0.817671  0.678010  0.123377  1
  Y  Y6  1  0.680512  0.178772  0.876988  1
  Y  Y7  1  0.186263  0.323691  0.623579  1
  Y  Y8  1  0.525748  0.681979  0.594560  1
  Y  Y9  1  0.026870  0.817578  0.903950  1
  Y  Y10  1  0.473391  0.315891  0.097249  1
  Y  Y11  1  0.972869  0.182538  0.402772  1
  Y  Y12  1  0.473391  0.315891  0.402751  1
  Y  Y13  1  0.972869  0.182538  0.097228  1
  Y  Y14  1  0.525748  0.681979  0.905440  1
  Y  Y15  1  0.026870  0.817578  0.596050  1
  Y  Y16  1  0.355783  0.983898  0.750000  1
  Y  Y17  1  0.148257  0.485922  0.250000  1
  Y  Y18  1  0.648795  0.013350  0.250000  1
  Tm  Tm19  1  0.842755  0.510084  0.750000  1
  Si  Si20  1  0.646289  0.971939  0.459145  1
  Si  Si21  1  0.145884  0.527636  0.040173  1
  Si  Si22  1  0.352040  0.026266  0.960258  1
  Si  Si23  1  0.852475  0.472810  0.540273  1
  Si  Si24  1  0.352040  0.026266  0.539742  1
  Si  Si25  1  0.852475  0.472810  0.959727  1
  Si  Si26  1  0.646289  0.971939  0.040855  1
  Si  Si27  1  0.145884  0.527636  0.459827  1
  Si  Si28  1  0.980067  0.101766  0.750000  1
  Si  Si29  1  0.521638  0.603055  0.250000  1
  Si  Si30  1  0.021507  0.895498  0.250000  1
  Si  Si31  1  0.742135  0.874500  0.750000  1
  Si  Si32  1  0.227482  0.630274  0.750000  1
  Si  Si33  1  0.266578  0.126848  0.250000  1
  Si  Si34  1  0.766093  0.373030  0.250000  1
  Pt  Pt35  1  0.483643  0.407143  0.750000  1
