# generated using pymatgen
data_Zr10HgBi2Pb5
_symmetry_space_group_name_H-M   'P 1'
_cell_length_a   8.94784170
_cell_length_b   8.96360086
_cell_length_c   6.00531900
_cell_angle_alpha   89.98238990
_cell_angle_beta   90.03528223
_cell_angle_gamma   119.94185861
_symmetry_Int_Tables_number   1
_chemical_formula_structural   Zr10HgBi2Pb5
_chemical_formula_sum   'Zr10 Hg1 Bi2 Pb5'
_cell_volume   417.37033253
_cell_formula_units_Z   1
loop_
 _symmetry_equiv_pos_site_id
 _symmetry_equiv_pos_as_xyz
  1  'x, y, z'
loop_
 _atom_site_type_symbol
 _atom_site_label
 _atom_site_symmetry_multiplicity
 _atom_site_fract_x
 _atom_site_fract_y
 _atom_site_fract_z
 _atom_site_occupancy
  Zr  Zr0  1  0.282580  0.282784  0.745247  1
  Zr  Zr1  1  0.999796  0.717216  0.745247  1
  Zr  Zr2  1  0.998930  0.280285  0.254685  1
  Zr  Zr3  1  0.716974  0.000000  0.745167  1
  Zr  Zr4  1  0.333346  0.666909  0.501311  1
  Zr  Zr5  1  0.718645  0.719715  0.254685  1
  Zr  Zr6  1  0.281409  0.000000  0.254520  1
  Zr  Zr7  1  0.666438  0.333091  0.501311  1
  Zr  Zr8  1  0.666731  0.332976  0.998420  1
  Zr  Zr9  1  0.333753  0.667024  0.998420  1
  Hg  Hg10  1  0.000027  0.000000  0.501643  1
  Bi  Bi11  1  0.999702  0.615357  0.249452  1
  Bi  Bi12  1  0.384343  0.384643  0.249452  1
  Pb  Pb13  1  0.616923  0.000000  0.248586  1
  Pb  Pb14  1  0.999914  0.000000  0.998477  1
  Pb  Pb15  1  0.382111  0.000000  0.751058  1
  Pb  Pb16  1  0.618646  0.618915  0.751160  1
  Pb  Pb17  1  0.999732  0.381085  0.751160  1
