# generated using pymatgen
data_Cs2ZnPt3O8
_symmetry_space_group_name_H-M   'P 1'
_cell_length_a   7.63557357
_cell_length_b   7.63557327
_cell_length_c   7.63557200
_cell_angle_alpha   48.32150476
_cell_angle_beta   48.32150679
_cell_angle_gamma   48.32151121
_symmetry_Int_Tables_number   1
_chemical_formula_structural   Cs2ZnPt3O8
_chemical_formula_sum   'Cs2 Zn1 Pt3 O8'
_cell_volume   227.66858810
_cell_formula_units_Z   1
loop_
 _symmetry_equiv_pos_site_id
 _symmetry_equiv_pos_as_xyz
  1  'x, y, z'
loop_
 _atom_site_type_symbol
 _atom_site_label
 _atom_site_symmetry_multiplicity
 _atom_site_fract_x
 _atom_site_fract_y
 _atom_site_fract_z
 _atom_site_occupancy
  Cs  Cs0  1  0.615076  0.615076  0.615076  1
  Cs  Cs1  1  0.268335  0.268335  0.268335  1
  Zn  Zn2  1  0.102151  0.102151  0.102151  1
  Pt  Pt3  1  0.616085  0.114570  0.616085  1
  Pt  Pt4  1  0.114570  0.616085  0.616085  1
  Pt  Pt5  1  0.616085  0.616085  0.114570  1
  O  O6  1  0.830467  0.830467  0.830467  1
  O  O7  1  0.889818  0.411467  0.889818  1
  O  O8  1  0.411467  0.889818  0.889818  1
  O  O9  1  0.889818  0.889818  0.411467  1
  O  O10  1  0.402564  0.402564  0.402564  1
  O  O11  1  0.335109  0.823348  0.335109  1
  O  O12  1  0.823348  0.335109  0.335109  1
  O  O13  1  0.335109  0.335109  0.823348  1
