# generated using pymatgen
data_Y10AlBiPb4
_symmetry_space_group_name_H-M   'P 1'
_cell_length_a   9.04178290
_cell_length_b   9.02998299
_cell_length_c   6.64578900
_cell_angle_alpha   90.00000000
_cell_angle_beta   90.00000000
_cell_angle_gamma   120.02051553
_symmetry_Int_Tables_number   1
_chemical_formula_structural   Y10AlBiPb4
_chemical_formula_sum   'Y10 Al1 Bi1 Pb4'
_cell_volume   469.81661255
_cell_formula_units_Z   1
loop_
 _symmetry_equiv_pos_site_id
 _symmetry_equiv_pos_as_xyz
  1  'x, y, z'
loop_
 _atom_site_type_symbol
 _atom_site_label
 _atom_site_symmetry_multiplicity
 _atom_site_fract_x
 _atom_site_fract_y
 _atom_site_fract_z
 _atom_site_occupancy
  Y  Y0  1  0.660672  0.336462  0.997914  1
  Y  Y1  1  0.331936  0.657848  0.997848  1
  Y  Y2  1  0.331936  0.657848  0.502152  1
  Y  Y3  1  0.660672  0.336462  0.502086  1
  Y  Y4  1  0.757991  0.753809  0.750000  1
  Y  Y5  1  0.240397  0.009961  0.750000  1
  Y  Y6  1  0.013861  0.243826  0.750000  1
  Y  Y7  1  0.238845  0.239666  0.250000  1
  Y  Y8  1  0.761065  0.000019  0.250000  1
  Y  Y9  1  0.999093  0.761005  0.250000  1
  Al  Al10  1  0.399269  0.398592  0.750000  1
  Bi  Bi11  1  0.609400  0.001214  0.750000  1
  Pb  Pb12  1  0.001940  0.607534  0.750000  1
  Pb  Pb13  1  0.603830  0.605572  0.250000  1
  Pb  Pb14  1  0.393393  0.997482  0.250000  1
  Pb  Pb15  1  0.995700  0.392698  0.250000  1
