# generated using pymatgen
data_Gd3DyCI5
_symmetry_space_group_name_H-M   'P 1'
_cell_length_a   9.77168466
_cell_length_b   9.77168517
_cell_length_c   8.60810700
_cell_angle_alpha   102.26400804
_cell_angle_beta   102.26400870
_cell_angle_gamma   23.61982755
_symmetry_Int_Tables_number   1
_chemical_formula_structural   Gd3DyCI5
_chemical_formula_sum   'Gd3 Dy1 C1 I5'
_cell_volume   321.48028386
_cell_formula_units_Z   1
loop_
 _symmetry_equiv_pos_site_id
 _symmetry_equiv_pos_as_xyz
  1  'x, y, z'
loop_
 _atom_site_type_symbol
 _atom_site_label
 _atom_site_symmetry_multiplicity
 _atom_site_fract_x
 _atom_site_fract_y
 _atom_site_fract_z
 _atom_site_occupancy
  Gd  Gd0  1  0.999009  0.999009  0.193663  1
  Gd  Gd1  1  0.001148  0.001148  0.806278  1
  Gd  Gd2  1  0.369353  0.369353  0.937239  1
  Dy  Dy3  1  0.629281  0.629281  0.065712  1
  C  C4  1  0.501454  0.501454  0.994729  1
  I  I5  1  0.830645  0.830645  0.181630  1
  I  I6  1  0.164299  0.164299  0.339303  1
  I  I7  1  0.500320  0.500320  0.499819  1
  I  I8  1  0.835888  0.835888  0.657100  1
  I  I9  1  0.168603  0.168603  0.824529  1
