# generated using pymatgen
data_Th8Sc12Sn11Sb5
_symmetry_space_group_name_H-M   'P 1'
_cell_length_a   7.91544406
_cell_length_b   7.91654517
_cell_length_c   14.95898974
_cell_angle_alpha   89.99454994
_cell_angle_beta   90.05491002
_cell_angle_gamma   90.02283711
_symmetry_Int_Tables_number   1
_chemical_formula_structural   Th8Sc12Sn11Sb5
_chemical_formula_sum   'Th8 Sc12 Sn11 Sb5'
_cell_volume   937.37422266
_cell_formula_units_Z   1
loop_
 _symmetry_equiv_pos_site_id
 _symmetry_equiv_pos_as_xyz
  1  'x, y, z'
loop_
 _atom_site_type_symbol
 _atom_site_label
 _atom_site_symmetry_multiplicity
 _atom_site_fract_x
 _atom_site_fract_y
 _atom_site_fract_z
 _atom_site_occupancy
  Th  Th0  1  0.516062  0.323272  0.907196  1
  Th  Th1  1  0.015557  0.176028  0.593317  1
  Th  Th2  1  0.484262  0.675795  0.406541  1
  Th  Th3  1  0.983836  0.823413  0.093425  1
  Th  Th4  1  0.485155  0.676756  0.092485  1
  Th  Th5  1  0.985110  0.824063  0.406921  1
  Th  Th6  1  0.515000  0.323898  0.593133  1
  Th  Th7  1  0.016057  0.176895  0.906756  1
  Sc  Sc8  1  0.352768  0.841951  0.875707  1
  Sc  Sc9  1  0.852446  0.658087  0.625262  1
  Sc  Sc10  1  0.647335  0.158303  0.374717  1
  Sc  Sc11  1  0.146396  0.342627  0.125350  1
  Sc  Sc12  1  0.647284  0.157794  0.124257  1
  Sc  Sc13  1  0.147467  0.341320  0.375104  1
  Sc  Sc14  1  0.352321  0.841697  0.625153  1
  Sc  Sc15  1  0.853493  0.658185  0.875094  1
  Sc  Sc16  1  0.181927  0.496846  0.749235  1
  Sc  Sc17  1  0.682103  0.002881  0.750303  1
  Sc  Sc18  1  0.817845  0.502745  0.249087  1
  Sc  Sc19  1  0.317928  0.997558  0.250753  1
  Sn  Sn20  1  0.191539  0.546835  0.545112  1
  Sn  Sn21  1  0.308763  0.046785  0.454913  1
  Sn  Sn22  1  0.808410  0.453215  0.044946  1
  Sn  Sn23  1  0.545750  0.630843  0.750498  1
  Sn  Sn24  1  0.045918  0.868821  0.750304  1
  Sn  Sn25  1  0.454298  0.369027  0.249557  1
  Sn  Sn26  1  0.954022  0.130895  0.249801  1
  Sn  Sn27  1  0.320928  0.142476  0.750133  1
  Sn  Sn28  1  0.820882  0.357591  0.750063  1
  Sn  Sn29  1  0.679072  0.857704  0.249913  1
  Sn  Sn30  1  0.179373  0.642560  0.249922  1
  Sb  Sb31  1  0.306474  0.047771  0.045137  1
  Sb  Sb32  1  0.809195  0.452550  0.455706  1
  Sb  Sb33  1  0.690713  0.952640  0.544365  1
  Sb  Sb34  1  0.190709  0.547146  0.955437  1
  Sb  Sb35  1  0.693602  0.953027  0.954401  1
