# generated using pymatgen
data_Y4Zn2CdRh
_symmetry_space_group_name_H-M   'P 1'
_cell_length_a   7.22594657
_cell_length_b   7.08078100
_cell_length_c   7.22581655
_cell_angle_alpha   90.00000000
_cell_angle_beta   90.11379260
_cell_angle_gamma   90.00000000
_symmetry_Int_Tables_number   1
_chemical_formula_structural   Y4Zn2CdRh
_chemical_formula_sum   'Y8 Zn4 Cd2 Rh2'
_cell_volume   369.71066912
_cell_formula_units_Z   2
loop_
 _symmetry_equiv_pos_site_id
 _symmetry_equiv_pos_as_xyz
  1  'x, y, z'
loop_
 _atom_site_type_symbol
 _atom_site_label
 _atom_site_symmetry_multiplicity
 _atom_site_fract_x
 _atom_site_fract_y
 _atom_site_fract_z
 _atom_site_occupancy
  Y  Y0  1  0.764321  0.500089  0.264326  1
  Y  Y1  1  0.764321  0.999911  0.264326  1
  Y  Y2  1  0.234495  0.000095  0.265513  1
  Y  Y3  1  0.234495  0.499904  0.265513  1
  Y  Y4  1  0.765508  0.500088  0.734485  1
  Y  Y5  1  0.765508  0.999912  0.734485  1
  Y  Y6  1  0.235677  0.000092  0.735674  1
  Y  Y7  1  0.235677  0.499908  0.735674  1
  Zn  Zn8  1  0.999771  0.250000  0.999996  1
  Zn  Zn9  1  0.000229  0.750001  0.000000  1
  Zn  Zn10  1  0.500226  0.250000  0.499990  1
  Zn  Zn11  1  0.499772  0.750001  0.500007  1
  Cd  Cd12  1  0.500177  0.250000  0.999992  1
  Cd  Cd13  1  0.499824  0.750001  0.000003  1
  Rh  Rh14  1  0.000131  0.750001  0.499968  1
  Rh  Rh15  1  0.999867  0.250000  0.500041  1
