# generated using pymatgen
data_Ta12Cr11GaN4
_symmetry_space_group_name_H-M   'P 1'
_cell_length_a   8.12399408
_cell_length_b   8.09799170
_cell_length_c   8.09799200
_cell_angle_alpha   60.00000694
_cell_angle_beta   60.10582852
_cell_angle_gamma   60.10582661
_symmetry_Int_Tables_number   1
_chemical_formula_structural   Ta12Cr11GaN4
_chemical_formula_sum   'Ta12 Cr11 Ga1 N4'
_cell_volume   377.31331855
_cell_formula_units_Z   1
loop_
 _symmetry_equiv_pos_site_id
 _symmetry_equiv_pos_as_xyz
  1  'x, y, z'
loop_
 _atom_site_type_symbol
 _atom_site_label
 _atom_site_symmetry_multiplicity
 _atom_site_fract_x
 _atom_site_fract_y
 _atom_site_fract_z
 _atom_site_occupancy
  Ta  Ta0  1  0.806842  0.809048  0.192055  1
  Ta  Ta1  1  0.192040  0.192956  0.807502  1
  Ta  Ta2  1  0.806842  0.192055  0.809048  1
  Ta  Ta3  1  0.192040  0.807502  0.192956  1
  Ta  Ta4  1  0.192040  0.807502  0.807502  1
  Ta  Ta5  1  0.806842  0.192055  0.192055  1
  Ta  Ta6  1  0.442168  0.443546  0.057143  1
  Ta  Ta7  1  0.056738  0.051470  0.445896  1
  Ta  Ta8  1  0.442168  0.057143  0.443546  1
  Ta  Ta9  1  0.056738  0.445896  0.051470  1
  Ta  Ta10  1  0.056738  0.445896  0.445896  1
  Ta  Ta11  1  0.442168  0.057143  0.057143  1
  Cr  Cr12  1  0.127739  0.624087  0.624087  1
  Cr  Cr13  1  0.625160  0.113317  0.630762  1
  Cr  Cr14  1  0.625160  0.630762  0.113317  1
  Cr  Cr15  1  0.625160  0.630762  0.630762  1
  Cr  Cr16  1  0.419650  0.732915  0.423717  1
  Cr  Cr17  1  0.419650  0.423717  0.732915  1
  Cr  Cr18  1  0.419650  0.423717  0.423717  1
  Cr  Cr19  1  0.508683  0.830439  0.830439  1
  Cr  Cr20  1  0.830434  0.511744  0.828911  1
  Cr  Cr21  1  0.830434  0.828911  0.511744  1
  Cr  Cr22  1  0.830434  0.828911  0.828911  1
  Ga  Ga23  1  0.747358  0.417547  0.417547  1
  N  N24  1  0.623811  0.125396  0.125396  1
  N  N25  1  0.124438  0.624702  0.125430  1
  N  N26  1  0.124438  0.125430  0.624702  1
  N  N27  1  0.124438  0.125430  0.125430  1
