# generated using pymatgen
data_TbNd4Dy5Si8
_symmetry_space_group_name_H-M   'P 1'
_cell_length_a   7.75313701
_cell_length_b   7.75318000
_cell_length_c   14.52967700
_cell_angle_alpha   90.00000000
_cell_angle_beta   90.00237958
_cell_angle_gamma   90.00000000
_symmetry_Int_Tables_number   1
_chemical_formula_structural   TbNd4Dy5Si8
_chemical_formula_sum   'Tb2 Nd8 Dy10 Si16'
_cell_volume   873.40019552
_cell_formula_units_Z   2
loop_
 _symmetry_equiv_pos_site_id
 _symmetry_equiv_pos_as_xyz
  1  'x, y, z'
loop_
 _atom_site_type_symbol
 _atom_site_label
 _atom_site_symmetry_multiplicity
 _atom_site_fract_x
 _atom_site_fract_y
 _atom_site_fract_z
 _atom_site_occupancy
  Tb  Tb0  1  0.814282  0.185763  0.249968  1
  Tb  Tb1  1  0.685718  0.685763  0.000032  1
  Nd  Nd2  1  0.634668  0.990003  0.454859  1
  Nd  Nd3  1  0.364887  0.010041  0.954919  1
  Nd  Nd4  1  0.990163  0.634815  0.545090  1
  Nd  Nd5  1  0.489843  0.865103  0.204871  1
  Nd  Nd6  1  0.509837  0.134815  0.704910  1
  Nd  Nd7  1  0.865332  0.490003  0.795141  1
  Nd  Nd8  1  0.135113  0.510041  0.295081  1
  Nd  Nd9  1  0.010157  0.365103  0.045129  1
  Dy  Dy10  1  0.488070  0.364847  0.124921  1
  Dy  Dy11  1  0.988437  0.135081  0.624973  1
  Dy  Dy12  1  0.865006  0.011792  0.875001  1
  Dy  Dy13  1  0.135222  0.988306  0.374932  1
  Dy  Dy14  1  0.511563  0.635081  0.625027  1
  Dy  Dy15  1  0.364778  0.488306  0.875068  1
  Dy  Dy16  1  0.634994  0.511792  0.374999  1
  Dy  Dy17  1  0.011930  0.864847  0.125079  1
  Dy  Dy18  1  0.314369  0.314375  0.499960  1
  Dy  Dy19  1  0.185631  0.814375  0.750040  1
  Si  Si20  1  0.287565  0.931144  0.561344  1
  Si  Si21  1  0.712402  0.068952  0.061082  1
  Si  Si22  1  0.931218  0.287628  0.438929  1
  Si  Si23  1  0.431005  0.212462  0.311349  1
  Si  Si24  1  0.568782  0.787628  0.811071  1
  Si  Si25  1  0.212435  0.431144  0.688656  1
  Si  Si26  1  0.787598  0.568952  0.188918  1
  Si  Si27  1  0.068995  0.712462  0.938651  1
  Si  Si28  1  0.800837  0.840476  0.693575  1
  Si  Si29  1  0.199392  0.159398  0.193618  1
  Si  Si30  1  0.840606  0.800631  0.306513  1
  Si  Si31  1  0.340477  0.699187  0.443710  1
  Si  Si32  1  0.659394  0.300631  0.943487  1
  Si  Si33  1  0.699163  0.340476  0.556425  1
  Si  Si34  1  0.300608  0.659398  0.056382  1
  Si  Si35  1  0.159523  0.199187  0.806290  1
