# generated using pymatgen
data_Ca6Dy2Zn3Si12Pd
_symmetry_space_group_name_H-M   'P 1'
_cell_length_a   8.18781700
_cell_length_b   8.18781716
_cell_length_c   8.39945600
_cell_angle_alpha   90.00000000
_cell_angle_beta   90.00000000
_cell_angle_gamma   119.99999530
_symmetry_Int_Tables_number   1
_chemical_formula_structural   Ca6Dy2Zn3Si12Pd
_chemical_formula_sum   'Ca6 Dy2 Zn3 Si12 Pd1'
_cell_volume   487.66105658
_cell_formula_units_Z   1
loop_
 _symmetry_equiv_pos_site_id
 _symmetry_equiv_pos_as_xyz
  1  'x, y, z'
loop_
 _atom_site_type_symbol
 _atom_site_label
 _atom_site_symmetry_multiplicity
 _atom_site_fract_x
 _atom_site_fract_y
 _atom_site_fract_z
 _atom_site_occupancy
  Ca  Ca0  1  0.498697  0.997397  0.253525  1
  Ca  Ca1  1  0.497901  0.995801  0.746416  1
  Ca  Ca2  1  0.002603  0.501303  0.253525  1
  Ca  Ca3  1  0.004199  0.502099  0.746416  1
  Ca  Ca4  1  0.498697  0.501303  0.253525  1
  Ca  Ca5  1  0.497901  0.502099  0.746416  1
  Dy  Dy6  1  0.000000  0.000000  0.252027  1
  Dy  Dy7  1  0.000000  0.000000  0.748136  1
  Zn  Zn8  1  0.333333  0.666667  0.003737  1
  Zn  Zn9  1  0.666667  0.333333  0.997579  1
  Zn  Zn10  1  0.666667  0.333333  0.500922  1
  Si  Si11  1  0.164641  0.329283  0.998314  1
  Si  Si12  1  0.835968  0.671937  0.001514  1
  Si  Si13  1  0.670717  0.835359  0.998314  1
  Si  Si14  1  0.838742  0.677484  0.501008  1
  Si  Si15  1  0.328063  0.164032  0.001514  1
  Si  Si16  1  0.166324  0.332647  0.498984  1
  Si  Si17  1  0.164641  0.835359  0.998314  1
  Si  Si18  1  0.322516  0.161258  0.501008  1
  Si  Si19  1  0.835968  0.164032  0.001514  1
  Si  Si20  1  0.667353  0.833676  0.498984  1
  Si  Si21  1  0.838742  0.161258  0.501008  1
  Si  Si22  1  0.166324  0.833676  0.498984  1
  Pd  Pd23  1  0.333333  0.666667  0.498316  1
