# generated using pymatgen
data_Er3Fe2Sb3O14
_symmetry_space_group_name_H-M   'P 1'
_cell_length_a   7.17178192
_cell_length_b   7.14132202
_cell_length_c   7.16342459
_cell_angle_alpha   117.45831435
_cell_angle_beta   62.68741991
_cell_angle_gamma   117.41924695
_symmetry_Int_Tables_number   1
_chemical_formula_structural   Er3Fe2Sb3O14
_chemical_formula_sum   'Er3 Fe2 Sb3 O14'
_cell_volume   274.46267669
_cell_formula_units_Z   1
loop_
 _symmetry_equiv_pos_site_id
 _symmetry_equiv_pos_as_xyz
  1  'x, y, z'
loop_
 _atom_site_type_symbol
 _atom_site_label
 _atom_site_symmetry_multiplicity
 _atom_site_fract_x
 _atom_site_fract_y
 _atom_site_fract_z
 _atom_site_occupancy
  Er  Er0  1  0.000003  0.500013  0.000001  1
  Er  Er1  1  0.500002  0.999998  0.999993  1
  Er  Er2  1  0.499989  0.500001  0.500011  1
  Fe  Fe3  1  0.500080  0.499982  0.000075  1
  Fe  Fe4  1  0.999924  0.999947  0.499980  1
  Sb  Sb5  1  0.500000  0.000008  0.499996  1
  Sb  Sb6  1  0.999999  0.499999  0.499996  1
  Sb  Sb7  1  0.000001  0.000011  0.999996  1
  O  O8  1  0.619262  0.383802  0.118448  1
  O  O9  1  0.380755  0.616191  0.881560  1
  O  O10  1  0.077681  0.324132  0.176844  1
  O  O11  1  0.675384  0.915646  0.174983  1
  O  O12  1  0.676692  0.324699  0.579685  1
  O  O13  1  0.922310  0.675882  0.823152  1
  O  O14  1  0.324617  0.084359  0.825009  1
  O  O15  1  0.323310  0.675311  0.420304  1
  O  O16  1  0.644021  0.902069  0.598972  1
  O  O17  1  0.097627  0.353712  0.597217  1
  O  O18  1  0.098843  0.902617  0.144760  1
  O  O19  1  0.355979  0.097942  0.401021  1
  O  O20  1  0.902366  0.646286  0.402769  1
  O  O21  1  0.901155  0.097395  0.855229  1
