# generated using pymatgen
data_LiNb9B20
_symmetry_space_group_name_H-M   'P 1'
_cell_length_a   6.21170902
_cell_length_b   7.05486574
_cell_length_c   7.35144514
_cell_angle_alpha   93.45522955
_cell_angle_beta   102.11237498
_cell_angle_gamma   116.19388928
_symmetry_Int_Tables_number   1
_chemical_formula_structural   LiNb9B20
_chemical_formula_sum   'Li1 Nb9 B20'
_cell_volume   278.31627478
_cell_formula_units_Z   1
loop_
 _symmetry_equiv_pos_site_id
 _symmetry_equiv_pos_as_xyz
  1  'x, y, z'
loop_
 _atom_site_type_symbol
 _atom_site_label
 _atom_site_symmetry_multiplicity
 _atom_site_fract_x
 _atom_site_fract_y
 _atom_site_fract_z
 _atom_site_occupancy
  Li  Li0  1  0.000000  0.000000  0.000000  1
  Nb  Nb1  1  0.500000  0.000000  0.000000  1
  Nb  Nb2  1  0.499276  0.799981  0.399809  1
  Nb  Nb3  1  0.999879  0.396999  0.200085  1
  Nb  Nb4  1  0.500724  0.200019  0.600191  1
  Nb  Nb5  1  0.999439  0.796110  0.399295  1
  Nb  Nb6  1  0.502192  0.600743  0.800698  1
  Nb  Nb7  1  0.497808  0.399257  0.199302  1
  Nb  Nb8  1  0.000561  0.203890  0.600705  1
  Nb  Nb9  1  0.000121  0.603001  0.799915  1
  B  B10  1  0.328997  0.229857  0.868609  1
  B  B11  1  0.333548  0.633379  0.066703  1
  B  B12  1  0.164896  0.362475  0.935677  1
  B  B13  1  0.328908  0.032553  0.262925  1
  B  B14  1  0.164846  0.769567  0.131128  1
  B  B15  1  0.835154  0.230433  0.868872  1
  B  B16  1  0.164859  0.164202  0.329206  1
  B  B17  1  0.835104  0.637525  0.064323  1
  B  B18  1  0.332831  0.432199  0.465364  1
  B  B19  1  0.666452  0.366621  0.933297  1
  B  B20  1  0.834717  0.032543  0.262724  1
  B  B21  1  0.671003  0.770143  0.131391  1
  B  B22  1  0.334570  0.834903  0.667689  1
  B  B23  1  0.167715  0.567578  0.533502  1
  B  B24  1  0.665430  0.165097  0.332311  1
  B  B25  1  0.832285  0.432422  0.466498  1
  B  B26  1  0.165283  0.967457  0.737276  1
  B  B27  1  0.835141  0.835798  0.670794  1
  B  B28  1  0.667169  0.567801  0.534636  1
  B  B29  1  0.671092  0.967447  0.737075  1
