# generated using pymatgen
data_RbTb10(C2Cl9)2
_symmetry_space_group_name_H-M   'P 1'
_cell_length_a   10.17030217
_cell_length_b   10.26581384
_cell_length_c   10.46908500
_cell_angle_alpha   112.94550856
_cell_angle_beta   88.19127994
_cell_angle_gamma   117.92965532
_symmetry_Int_Tables_number   1
_chemical_formula_structural   RbTb10(C2Cl9)2
_chemical_formula_sum   'Rb1 Tb10 C4 Cl18'
_cell_volume   873.85566899
_cell_formula_units_Z   1
loop_
 _symmetry_equiv_pos_site_id
 _symmetry_equiv_pos_as_xyz
  1  'x, y, z'
loop_
 _atom_site_type_symbol
 _atom_site_label
 _atom_site_symmetry_multiplicity
 _atom_site_fract_x
 _atom_site_fract_y
 _atom_site_fract_z
 _atom_site_occupancy
  Rb  Rb0  1  0.500000  0.000000  0.500000  1
  Tb  Tb1  1  0.649653  0.712013  0.695888  1
  Tb  Tb2  1  0.284064  0.376278  0.008580  1
  Tb  Tb3  1  0.093055  0.419840  0.307575  1
  Tb  Tb4  1  0.956086  0.034931  0.340362  1
  Tb  Tb5  1  0.906945  0.580160  0.692425  1
  Tb  Tb6  1  0.119270  0.939265  0.001362  1
  Tb  Tb7  1  0.043914  0.965069  0.659638  1
  Tb  Tb8  1  0.350347  0.287987  0.304112  1
  Tb  Tb9  1  0.715936  0.623722  0.991420  1
  Tb  Tb10  1  0.880730  0.060735  0.998638  1
  C  C11  1  0.159827  0.233912  0.124842  1
  C  C12  1  0.840173  0.766088  0.875158  1
  C  C13  1  0.919902  0.847641  0.791267  1
  C  C14  1  0.080098  0.152359  0.208733  1
  Cl  Cl15  1  0.453985  0.530713  0.833682  1
  Cl  Cl16  1  0.385097  0.038191  0.164486  1
  Cl  Cl17  1  0.774528  0.859617  0.502566  1
  Cl  Cl18  1  0.837571  0.315332  0.156572  1
  Cl  Cl19  1  0.546015  0.469287  0.166318  1
  Cl  Cl20  1  0.225472  0.140383  0.497434  1
  Cl  Cl21  1  0.312477  0.103618  0.830125  1
  Cl  Cl22  1  0.687523  0.896382  0.169875  1
  Cl  Cl23  1  0.976558  0.764800  0.176397  1
  Cl  Cl24  1  0.929223  0.301876  0.498919  1
  Cl  Cl25  1  0.023442  0.235200  0.823603  1
  Cl  Cl26  1  0.070777  0.698124  0.501081  1
  Cl  Cl27  1  0.263415  0.630026  0.193645  1
  Cl  Cl28  1  0.736585  0.369974  0.806355  1
  Cl  Cl29  1  0.635987  0.431243  0.499948  1
  Cl  Cl30  1  0.162429  0.684668  0.843428  1
  Cl  Cl31  1  0.614903  0.961809  0.835514  1
  Cl  Cl32  1  0.364013  0.568757  0.500052  1
