# generated using pymatgen
data_PrNd11Os2I17
_symmetry_space_group_name_H-M   'P 1'
_cell_length_a   10.07469355
_cell_length_b   12.08258843
_cell_length_c   12.11716724
_cell_angle_alpha   93.53992568
_cell_angle_beta   104.67548351
_cell_angle_gamma   114.43953600
_symmetry_Int_Tables_number   1
_chemical_formula_structural   PrNd11Os2I17
_chemical_formula_sum   'Pr1 Nd11 Os2 I17'
_cell_volume   1275.58867002
_cell_formula_units_Z   1
loop_
 _symmetry_equiv_pos_site_id
 _symmetry_equiv_pos_as_xyz
  1  'x, y, z'
loop_
 _atom_site_type_symbol
 _atom_site_label
 _atom_site_symmetry_multiplicity
 _atom_site_fract_x
 _atom_site_fract_y
 _atom_site_fract_z
 _atom_site_occupancy
  Pr  Pr0  1  0.847402  0.711792  0.848554  1
  Nd  Nd1  1  0.058926  0.511417  0.323156  1
  Nd  Nd2  1  0.989150  0.811914  0.580642  1
  Nd  Nd3  1  0.644518  0.239840  0.284214  1
  Nd  Nd4  1  0.010882  0.188484  0.418314  1
  Nd  Nd5  1  0.224807  0.669180  0.991451  1
  Nd  Nd6  1  0.261675  0.988376  0.892520  1
  Nd  Nd7  1  0.354297  0.760124  0.716068  1
  Nd  Nd8  1  0.940637  0.487481  0.676693  1
  Nd  Nd9  1  0.739201  0.012490  0.107702  1
  Nd  Nd10  1  0.152684  0.288505  0.151880  1
  Nd  Nd11  1  0.775722  0.330604  0.009351  1
  Os  Os12  1  0.104269  0.738258  0.785635  1
  Os  Os13  1  0.895796  0.261723  0.214350  1
  I  I14  1  0.785983  0.528289  0.418538  1
  I  I15  1  0.640230  0.417158  0.757313  1
  I  I16  1  0.843115  0.895033  0.324340  1
  I  I17  1  0.325101  0.212324  0.369103  1
  I  I18  1  0.156865  0.104895  0.675601  1
  I  I19  1  0.587296  0.052157  0.844017  1
  I  I20  1  0.754895  0.182530  0.536979  1
  I  I21  1  0.547092  0.706799  0.953276  1
  I  I22  1  0.359326  0.581153  0.241973  1
  I  I23  1  0.213878  0.471768  0.581722  1
  I  I24  1  0.055053  0.368151  0.897430  1
  I  I25  1  0.452177  0.293276  0.047077  1
  I  I26  1  0.001032  0.001113  0.000424  1
  I  I27  1  0.245092  0.817402  0.463053  1
  I  I28  1  0.412483  0.947637  0.155975  1
  I  I29  1  0.674446  0.788392  0.629093  1
  I  I30  1  0.945969  0.631738  0.103557  1
