# generated using pymatgen
data_Nd3Y13Cd4Ru3Au
_symmetry_space_group_name_H-M   'P 1'
_cell_length_a   9.77386006
_cell_length_b   9.73895411
_cell_length_c   9.74374323
_cell_angle_alpha   59.99588562
_cell_angle_beta   60.01896044
_cell_angle_gamma   59.90963623
_symmetry_Int_Tables_number   1
_chemical_formula_structural   Nd3Y13Cd4Ru3Au
_chemical_formula_sum   'Nd3 Y13 Cd4 Ru3 Au1'
_cell_volume   655.45128228
_cell_formula_units_Z   1
loop_
 _symmetry_equiv_pos_site_id
 _symmetry_equiv_pos_as_xyz
  1  'x, y, z'
loop_
 _atom_site_type_symbol
 _atom_site_label
 _atom_site_symmetry_multiplicity
 _atom_site_fract_x
 _atom_site_fract_y
 _atom_site_fract_z
 _atom_site_occupancy
  Nd  Nd0  1  0.437654  0.437323  0.062642  1
  Nd  Nd1  1  0.065742  0.057657  0.440325  1
  Nd  Nd2  1  0.439112  0.055999  0.066503  1
  Y  Y3  1  0.853201  0.842427  0.854096  1
  Y  Y4  1  0.689671  0.320095  0.298749  1
  Y  Y5  1  0.061003  0.437978  0.439816  1
  Y  Y6  1  0.311310  0.687692  0.687743  1
  Y  Y7  1  0.299064  0.319643  0.688516  1
  Y  Y8  1  0.855989  0.841964  0.449843  1
  Y  Y9  1  0.688969  0.687353  0.311805  1
  Y  Y10  1  0.451162  0.841271  0.855233  1
  Y  Y11  1  0.058635  0.439739  0.059887  1
  Y  Y12  1  0.845601  0.462216  0.844752  1
  Y  Y13  1  0.440414  0.055232  0.442214  1
  Y  Y14  1  0.312448  0.683563  0.313857  1
  Y  Y15  1  0.690298  0.320513  0.686839  1
  Cd  Cd16  1  0.079697  0.756340  0.081597  1
  Cd  Cd17  1  0.081020  0.082269  0.758043  1
  Cd  Cd18  1  0.761039  0.079021  0.080904  1
  Cd  Cd19  1  0.077925  0.082274  0.077758  1
  Ru  Ru20  1  0.639616  0.647788  0.636200  1
  Ru  Ru21  1  0.643423  0.644224  0.077149  1
  Ru  Ru22  1  0.076111  0.643283  0.643615  1
  Au  Au23  1  0.640896  0.074135  0.641911  1
