# generated using pymatgen
data_Tb5PrU4O20
_symmetry_space_group_name_H-M   'P 1'
_cell_length_a   6.68440117
_cell_length_b   7.56990066
_cell_length_c   8.49380329
_cell_angle_alpha   100.99591098
_cell_angle_beta   97.83752483
_cell_angle_gamma   107.30609668
_symmetry_Int_Tables_number   1
_chemical_formula_structural   Tb5PrU4O20
_chemical_formula_sum   'Tb5 Pr1 U4 O20'
_cell_volume   394.15537409
_cell_formula_units_Z   1
loop_
 _symmetry_equiv_pos_site_id
 _symmetry_equiv_pos_as_xyz
  1  'x, y, z'
loop_
 _atom_site_type_symbol
 _atom_site_label
 _atom_site_symmetry_multiplicity
 _atom_site_fract_x
 _atom_site_fract_y
 _atom_site_fract_z
 _atom_site_occupancy
  Tb  Tb0  1  0.614068  0.705472  0.700770  1
  Tb  Tb1  1  0.385932  0.294528  0.299230  1
  Tb  Tb2  1  0.198412  0.898170  0.894363  1
  Tb  Tb3  1  0.801588  0.101830  0.105637  1
  Tb  Tb4  1  0.000000  0.000000  0.500000  1
  Pr  Pr5  1  0.000000  0.500000  0.500000  1
  U  U6  1  0.403367  0.805581  0.301208  1
  U  U7  1  0.199577  0.400429  0.901730  1
  U  U8  1  0.800423  0.599571  0.098270  1
  U  U9  1  0.596633  0.194419  0.698792  1
  O  O10  1  0.438072  0.531840  0.135471  1
  O  O11  1  0.555338  0.987421  0.840791  1
  O  O12  1  0.271491  0.145246  0.745294  1
  O  O13  1  0.367276  0.596254  0.439443  1
  O  O14  1  0.054222  0.732731  0.328987  1
  O  O15  1  0.444662  0.012579  0.159209  1
  O  O16  1  0.150692  0.183778  0.031028  1
  O  O17  1  0.561928  0.468160  0.864529  1
  O  O18  1  0.855320  0.336819  0.950506  1
  O  O19  1  0.261669  0.608692  0.765886  1
  O  O20  1  0.952433  0.779968  0.657273  1
  O  O21  1  0.354878  0.061592  0.453276  1
  O  O22  1  0.645122  0.938408  0.546724  1
  O  O23  1  0.047567  0.220032  0.342727  1
  O  O24  1  0.738331  0.391308  0.234114  1
  O  O25  1  0.144680  0.663181  0.049494  1
  O  O26  1  0.849308  0.816222  0.968972  1
  O  O27  1  0.945778  0.267269  0.671013  1
  O  O28  1  0.632724  0.403746  0.560557  1
  O  O29  1  0.728509  0.854754  0.254706  1
