# generated using pymatgen
data_La7Y(CdOs)2
_symmetry_space_group_name_H-M   'P 1'
_cell_length_a   10.01815503
_cell_length_b   10.10738858
_cell_length_c   10.01815600
_cell_angle_alpha   59.70490454
_cell_angle_beta   60.59017709
_cell_angle_gamma   59.70490610
_symmetry_Int_Tables_number   1
_chemical_formula_structural   La7Y(CdOs)2
_chemical_formula_sum   'La14 Y2 Cd4 Os4'
_cell_volume   717.18289493
_cell_formula_units_Z   2
loop_
 _symmetry_equiv_pos_site_id
 _symmetry_equiv_pos_as_xyz
  1  'x, y, z'
loop_
 _atom_site_type_symbol
 _atom_site_label
 _atom_site_symmetry_multiplicity
 _atom_site_fract_x
 _atom_site_fract_y
 _atom_site_fract_z
 _atom_site_occupancy
  La  La0  1  0.441387  0.441387  0.058613  1
  La  La1  1  0.058613  0.058613  0.441387  1
  La  La2  1  0.441387  0.058613  0.058613  1
  La  La3  1  0.844062  0.850799  0.844062  1
  La  La4  1  0.686502  0.313498  0.313498  1
  La  La5  1  0.058613  0.441387  0.441387  1
  La  La6  1  0.313498  0.686502  0.686502  1
  La  La7  1  0.313498  0.313498  0.686502  1
  La  La8  1  0.850799  0.844062  0.461078  1
  La  La9  1  0.686502  0.686502  0.313498  1
  La  La10  1  0.461078  0.844062  0.850799  1
  La  La11  1  0.055490  0.444510  0.055490  1
  La  La12  1  0.844062  0.461078  0.844062  1
  La  La13  1  0.444510  0.055490  0.444510  1
  Y  Y14  1  0.308653  0.691347  0.308653  1
  Y  Y15  1  0.691347  0.308653  0.691347  1
  Cd  Cd16  1  0.080524  0.762984  0.080524  1
  Cd  Cd17  1  0.075966  0.080524  0.762984  1
  Cd  Cd18  1  0.762984  0.080524  0.075966  1
  Cd  Cd19  1  0.080524  0.075966  0.080524  1
  Os  Os20  1  0.635442  0.087308  0.635442  1
  Os  Os21  1  0.635442  0.641807  0.635442  1
  Os  Os22  1  0.641807  0.635442  0.087308  1
  Os  Os23  1  0.087308  0.635442  0.641807  1
