# generated using pymatgen
data_Ba3PdAu
_symmetry_space_group_name_H-M   'P 1'
_cell_length_a   8.67873614
_cell_length_b   8.67873647
_cell_length_c   8.67873683
_cell_angle_alpha   71.72857894
_cell_angle_beta   71.72857582
_cell_angle_gamma   71.72857806
_symmetry_Int_Tables_number   1
_chemical_formula_structural   Ba3PdAu
_chemical_formula_sum   'Ba9 Pd3 Au3'
_cell_volume   572.39643886
_cell_formula_units_Z   3
loop_
 _symmetry_equiv_pos_site_id
 _symmetry_equiv_pos_as_xyz
  1  'x, y, z'
loop_
 _atom_site_type_symbol
 _atom_site_label
 _atom_site_symmetry_multiplicity
 _atom_site_fract_x
 _atom_site_fract_y
 _atom_site_fract_z
 _atom_site_occupancy
  Ba  Ba0  1  0.996446  0.996446  0.996446  1
  Ba  Ba1  1  0.799805  0.799805  0.799805  1
  Ba  Ba2  1  0.206693  0.206693  0.206693  1
  Ba  Ba3  1  0.324593  0.612940  0.839904  1
  Ba  Ba4  1  0.839904  0.324593  0.612940  1
  Ba  Ba5  1  0.612940  0.839904  0.324593  1
  Ba  Ba6  1  0.672701  0.389922  0.156990  1
  Ba  Ba7  1  0.156990  0.672701  0.389922  1
  Ba  Ba8  1  0.389922  0.156990  0.672701  1
  Pd  Pd9  1  0.144140  0.960497  0.592704  1
  Pd  Pd10  1  0.592704  0.144140  0.960497  1
  Pd  Pd11  1  0.960497  0.592704  0.144140  1
  Au  Au12  1  0.855982  0.039311  0.407372  1
  Au  Au13  1  0.407372  0.855982  0.039311  1
  Au  Au14  1  0.039311  0.407372  0.855982  1
