# generated using pymatgen
data_LuPa(ZnCo)2
_symmetry_space_group_name_H-M   'P 1'
_cell_length_a   3.58106400
_cell_length_b   6.88487187
_cell_length_c   8.25857128
_cell_angle_alpha   93.07562078
_cell_angle_beta   90.00000000
_cell_angle_gamma   90.00000000
_symmetry_Int_Tables_number   1
_chemical_formula_structural   LuPa(ZnCo)2
_chemical_formula_sum   'Lu2 Pa2 Zn4 Co4'
_cell_volume   203.32316140
_cell_formula_units_Z   2
loop_
 _symmetry_equiv_pos_site_id
 _symmetry_equiv_pos_as_xyz
  1  'x, y, z'
loop_
 _atom_site_type_symbol
 _atom_site_label
 _atom_site_symmetry_multiplicity
 _atom_site_fract_x
 _atom_site_fract_y
 _atom_site_fract_z
 _atom_site_occupancy
  Lu  Lu0  1  0.750000  0.950556  0.682269  1
  Lu  Lu1  1  0.250000  0.049444  0.317731  1
  Pa  Pa2  1  0.250000  0.540974  0.190901  1
  Pa  Pa3  1  0.750000  0.459026  0.809099  1
  Zn  Zn4  1  0.250000  0.638318  0.552737  1
  Zn  Zn5  1  0.750000  0.361682  0.447263  1
  Zn  Zn6  1  0.750000  0.875645  0.056479  1
  Zn  Zn7  1  0.250000  0.124355  0.943521  1
  Co  Co8  1  0.250000  0.716017  0.866651  1
  Co  Co9  1  0.750000  0.283983  0.133349  1
  Co  Co10  1  0.750000  0.738591  0.343499  1
  Co  Co11  1  0.250000  0.261409  0.656501  1
