# generated using pymatgen
data_Sc2CdSnRh4
_symmetry_space_group_name_H-M   'P 1'
_cell_length_a   6.26307300
_cell_length_b   6.26033400
_cell_length_c   6.70773500
_cell_angle_alpha   90.00000000
_cell_angle_beta   89.99978044
_cell_angle_gamma   90.00000000
_symmetry_Int_Tables_number   1
_chemical_formula_structural   Sc2CdSnRh4
_chemical_formula_sum   'Sc4 Cd2 Sn2 Rh8'
_cell_volume   263.00310434
_cell_formula_units_Z   2
loop_
 _symmetry_equiv_pos_site_id
 _symmetry_equiv_pos_as_xyz
  1  'x, y, z'
loop_
 _atom_site_type_symbol
 _atom_site_label
 _atom_site_symmetry_multiplicity
 _atom_site_fract_x
 _atom_site_fract_y
 _atom_site_fract_z
 _atom_site_occupancy
  Sc  Sc0  1  0.249919  0.250120  0.999997  1
  Sc  Sc1  1  0.750081  0.749881  0.000003  1
  Sc  Sc2  1  0.249980  0.250048  0.500000  1
  Sc  Sc3  1  0.750020  0.749953  0.500001  1
  Cd  Cd4  1  0.749997  0.250033  0.500022  1
  Cd  Cd5  1  0.250002  0.749968  0.499978  1
  Sn  Sn6  1  0.749849  0.250372  0.999859  1
  Sn  Sn7  1  0.250151  0.749629  0.000141  1
  Rh  Rh8  1  0.000023  0.999982  0.243599  1
  Rh  Rh9  1  0.000017  0.500018  0.243461  1
  Rh  Rh10  1  0.499977  0.999971  0.243645  1
  Rh  Rh11  1  0.499991  0.500027  0.243477  1
  Rh  Rh12  1  0.500025  0.000029  0.756355  1
  Rh  Rh13  1  0.500011  0.499973  0.756523  1
  Rh  Rh14  1  0.999977  0.000018  0.756402  1
  Rh  Rh15  1  0.999983  0.499982  0.756540  1
