# generated using pymatgen
data_YFe(BrO3)6
_symmetry_space_group_name_H-M   'P 1'
_cell_length_a   9.41753900
_cell_length_b   9.41753824
_cell_length_c   5.79487800
_cell_angle_alpha   90.00000000
_cell_angle_beta   90.00000000
_cell_angle_gamma   119.99999214
_symmetry_Int_Tables_number   1
_chemical_formula_structural   YFe(BrO3)6
_chemical_formula_sum   'Y1 Fe1 Br6 O18'
_cell_volume   445.09199425
_cell_formula_units_Z   1
loop_
 _symmetry_equiv_pos_site_id
 _symmetry_equiv_pos_as_xyz
  1  'x, y, z'
loop_
 _atom_site_type_symbol
 _atom_site_label
 _atom_site_symmetry_multiplicity
 _atom_site_fract_x
 _atom_site_fract_y
 _atom_site_fract_z
 _atom_site_occupancy
  Y  Y0  1  0.333333  0.666667  0.187763  1
  Fe  Fe1  1  0.666667  0.333333  0.700423  1
  Br  Br2  1  0.688668  0.036843  0.374971  1
  Br  Br3  1  0.329132  0.994235  0.853356  1
  Br  Br4  1  0.005765  0.334895  0.853356  1
  Br  Br5  1  0.348174  0.311332  0.374971  1
  Br  Br6  1  0.963157  0.651826  0.374971  1
  Br  Br7  1  0.665105  0.670868  0.853356  1
  O  O8  1  0.777412  0.817722  0.034900  1
  O  O9  1  0.929900  0.770179  0.546815  1
  O  O10  1  0.840279  0.070100  0.546815  1
  O  O11  1  0.182278  0.959690  0.034900  1
  O  O12  1  0.040310  0.222588  0.034900  1
  O  O13  1  0.229821  0.159721  0.546815  1
  O  O14  1  0.718998  0.523648  0.914106  1
  O  O15  1  0.163546  0.707674  0.423946  1
  O  O16  1  0.543935  0.412071  0.493288  1
  O  O17  1  0.109080  0.531198  0.961690  1
  O  O18  1  0.422119  0.890920  0.961690  1
  O  O19  1  0.587929  0.131863  0.493288  1
  O  O20  1  0.868137  0.456065  0.493288  1
  O  O21  1  0.468802  0.577881  0.961690  1
  O  O22  1  0.292326  0.455873  0.423946  1
  O  O23  1  0.804649  0.281002  0.914106  1
  O  O24  1  0.476352  0.195351  0.914106  1
  O  O25  1  0.544127  0.836454  0.423946  1
