# generated using pymatgen
data_Cs(HfSe2)3
_symmetry_space_group_name_H-M   'P 1'
_cell_length_a   6.51587698
_cell_length_b   6.51587626
_cell_length_c   9.33429321
_cell_angle_alpha   96.62221531
_cell_angle_beta   96.62221521
_cell_angle_gamma   119.98517165
_symmetry_Int_Tables_number   1
_chemical_formula_structural   Cs(HfSe2)3
_chemical_formula_sum   'Cs1 Hf3 Se6'
_cell_volume   334.00882622
_cell_formula_units_Z   1
loop_
 _symmetry_equiv_pos_site_id
 _symmetry_equiv_pos_as_xyz
  1  'x, y, z'
loop_
 _atom_site_type_symbol
 _atom_site_label
 _atom_site_symmetry_multiplicity
 _atom_site_fract_x
 _atom_site_fract_y
 _atom_site_fract_z
 _atom_site_occupancy
  Cs  Cs0  1  0.000000  0.000000  0.500000  1
  Hf  Hf1  1  0.833433  0.166567  0.000000  1
  Hf  Hf2  1  0.500000  0.500000  0.000000  1
  Hf  Hf3  1  0.166567  0.833433  0.000000  1
  Se  Se4  1  0.226638  0.226638  0.175450  1
  Se  Se5  1  0.892086  0.557208  0.175925  1
  Se  Se6  1  0.557208  0.892086  0.175925  1
  Se  Se7  1  0.442792  0.107914  0.824076  1
  Se  Se8  1  0.107914  0.442792  0.824076  1
  Se  Se9  1  0.773364  0.773364  0.824551  1
