# generated using pymatgen
data_YbHoTaIr3
_symmetry_space_group_name_H-M   'P 1'
_cell_length_a   5.23189154
_cell_length_b   5.64899735
_cell_length_c   5.64899600
_cell_angle_alpha   59.99999618
_cell_angle_beta   57.32576050
_cell_angle_gamma   57.32576343
_symmetry_Int_Tables_number   1
_chemical_formula_structural   YbHoTaIr3
_chemical_formula_sum   'Yb1 Ho1 Ta1 Ir3'
_cell_volume   113.05617731
_cell_formula_units_Z   1
loop_
 _symmetry_equiv_pos_site_id
 _symmetry_equiv_pos_as_xyz
  1  'x, y, z'
loop_
 _atom_site_type_symbol
 _atom_site_label
 _atom_site_symmetry_multiplicity
 _atom_site_fract_x
 _atom_site_fract_y
 _atom_site_fract_z
 _atom_site_occupancy
  Yb  Yb0  1  0.749282  0.750239  0.750239  1
  Ho  Ho1  1  0.500038  0.499987  0.499987  1
  Ta  Ta2  1  0.622906  0.125698  0.125698  1
  Ir  Ir3  1  0.125925  0.123941  0.123941  1
  Ir  Ir4  1  0.125925  0.123941  0.626194  1
  Ir  Ir5  1  0.125925  0.626194  0.123941  1
