# generated using pymatgen
data_SrYb4Al7Ga2
_symmetry_space_group_name_H-M   'P 1'
_cell_length_a   11.78866195
_cell_length_b   11.78866200
_cell_length_c   11.78866413
_cell_angle_alpha   27.66006091
_cell_angle_beta   27.66006001
_cell_angle_gamma   27.66005791
_symmetry_Int_Tables_number   1
_chemical_formula_structural   SrYb4Al7Ga2
_chemical_formula_sum   'Sr1 Yb4 Al7 Ga2'
_cell_volume   311.69217150
_cell_formula_units_Z   1
loop_
 _symmetry_equiv_pos_site_id
 _symmetry_equiv_pos_as_xyz
  1  'x, y, z'
loop_
 _atom_site_type_symbol
 _atom_site_label
 _atom_site_symmetry_multiplicity
 _atom_site_fract_x
 _atom_site_fract_y
 _atom_site_fract_z
 _atom_site_occupancy
  Sr  Sr0  1  0.500000  0.500000  0.500000  1
  Yb  Yb1  1  0.217559  0.217559  0.217559  1
  Yb  Yb2  1  0.782441  0.782441  0.782441  1
  Yb  Yb3  1  0.317704  0.317704  0.317704  1
  Yb  Yb4  1  0.682296  0.682296  0.682296  1
  Al  Al5  1  0.000000  0.000000  0.000000  1
  Al  Al6  1  0.722748  0.238712  0.238712  1
  Al  Al7  1  0.238712  0.238712  0.722748  1
  Al  Al8  1  0.238712  0.722748  0.238712  1
  Al  Al9  1  0.761288  0.277252  0.761288  1
  Al  Al10  1  0.277252  0.761288  0.761288  1
  Al  Al11  1  0.761288  0.761288  0.277252  1
  Ga  Ga12  1  0.127973  0.127973  0.127973  1
  Ga  Ga13  1  0.872027  0.872027  0.872027  1
