# generated using pymatgen
data_Rb4Si12As11P
_symmetry_space_group_name_H-M   'P 1'
_cell_length_a   3.71778000
_cell_length_b   10.12767809
_cell_length_c   20.23237319
_cell_angle_alpha   90.01556667
_cell_angle_beta   90.00000000
_cell_angle_gamma   90.00000000
_symmetry_Int_Tables_number   1
_chemical_formula_structural   Rb4Si12As11P
_chemical_formula_sum   'Rb4 Si12 As11 P1'
_cell_volume   761.79897968
_cell_formula_units_Z   1
loop_
 _symmetry_equiv_pos_site_id
 _symmetry_equiv_pos_as_xyz
  1  'x, y, z'
loop_
 _atom_site_type_symbol
 _atom_site_label
 _atom_site_symmetry_multiplicity
 _atom_site_fract_x
 _atom_site_fract_y
 _atom_site_fract_z
 _atom_site_occupancy
  Rb  Rb0  1  0.000000  0.300536  0.306040  1
  Rb  Rb1  1  0.000000  0.700186  0.694449  1
  Rb  Rb2  1  0.000000  0.200025  0.806004  1
  Rb  Rb3  1  0.000000  0.797424  0.188469  1
  Si  Si4  1  0.500000  0.408558  0.035431  1
  Si  Si5  1  0.500000  0.596537  0.967187  1
  Si  Si6  1  0.500000  0.092419  0.534747  1
  Si  Si7  1  0.500000  0.907475  0.465348  1
  Si  Si8  1  0.000000  0.110046  0.016569  1
  Si  Si9  1  0.000000  0.884764  0.985640  1
  Si  Si10  1  0.000000  0.388618  0.515501  1
  Si  Si11  1  0.000000  0.611804  0.484242  1
  Si  Si12  1  0.000000  0.176221  0.128277  1
  Si  Si13  1  0.000000  0.823463  0.873224  1
  Si  Si14  1  0.000000  0.323795  0.627459  1
  Si  Si15  1  0.000000  0.676849  0.372135  1
  As  As16  1  0.500000  0.104363  0.190524  1
  As  As17  1  0.500000  0.895441  0.811200  1
  As  As18  1  0.500000  0.394941  0.689976  1
  As  As19  1  0.500000  0.606261  0.309493  1
  As  As20  1  0.500000  0.282210  0.461815  1
  As  As21  1  0.500000  0.717670  0.538268  1
  As  As22  1  0.500000  0.216708  0.962486  1
  As  As23  1  0.000000  0.414559  0.110711  1
  As  As24  1  0.000000  0.585456  0.891838  1
  As  As25  1  0.000000  0.085404  0.610053  1
  As  As26  1  0.000000  0.914989  0.390067  1
  P  P27  1  0.500000  0.783278  0.032848  1
