# generated using pymatgen
data_Tb3Lu(IrO4)4
_symmetry_space_group_name_H-M   'P 1'
_cell_length_a   5.34928230
_cell_length_b   7.62763156
_cell_length_c   7.39360058
_cell_angle_alpha   80.82853524
_cell_angle_beta   89.30299301
_cell_angle_gamma   87.05293368
_symmetry_Int_Tables_number   1
_chemical_formula_structural   Tb3Lu(IrO4)4
_chemical_formula_sum   'Tb3 Lu1 Ir4 O16'
_cell_volume   297.42332263
_cell_formula_units_Z   1
loop_
 _symmetry_equiv_pos_site_id
 _symmetry_equiv_pos_as_xyz
  1  'x, y, z'
loop_
 _atom_site_type_symbol
 _atom_site_label
 _atom_site_symmetry_multiplicity
 _atom_site_fract_x
 _atom_site_fract_y
 _atom_site_fract_z
 _atom_site_occupancy
  Tb  Tb0  1  0.236900  0.630178  0.111784  1
  Tb  Tb1  1  0.764163  0.371770  0.887742  1
  Tb  Tb2  1  0.701494  0.335803  0.395207  1
  Lu  Lu3  1  0.298678  0.665280  0.607736  1
  Ir  Ir4  1  0.782101  0.837500  0.799294  1
  Ir  Ir5  1  0.739134  0.839375  0.298275  1
  Ir  Ir6  1  0.262289  0.159474  0.703500  1
  Ir  Ir7  1  0.218819  0.162137  0.199407  1
  O  O8  1  0.103385  0.934671  0.693628  1
  O  O9  1  0.422970  0.946806  0.187491  1
  O  O10  1  0.631694  0.832652  0.555713  1
  O  O11  1  0.889048  0.826547  0.053500  1
  O  O12  1  0.514708  0.670288  0.877332  1
  O  O13  1  0.003440  0.609888  0.816199  1
  O  O14  1  0.042233  0.699072  0.381669  1
  O  O15  1  0.541648  0.615383  0.331458  1
  O  O16  1  0.449257  0.390736  0.671699  1
  O  O17  1  0.958699  0.297042  0.626276  1
  O  O18  1  0.998103  0.391970  0.175072  1
  O  O19  1  0.481974  0.331401  0.117600  1
  O  O20  1  0.110023  0.168995  0.947197  1
  O  O21  1  0.361696  0.166514  0.445043  1
  O  O22  1  0.583629  0.055630  0.809901  1
  O  O23  1  0.903913  0.060888  0.307278  1
