# generated using pymatgen
data_LaPmAg4
_symmetry_space_group_name_H-M   'P 1'
_cell_length_a   4.82610400
_cell_length_b   4.82610342
_cell_length_c   7.30413200
_cell_angle_alpha   90.00000000
_cell_angle_beta   90.00000000
_cell_angle_gamma   120.00000395
_symmetry_Int_Tables_number   1
_chemical_formula_structural   LaPmAg4
_chemical_formula_sum   'La1 Pm1 Ag4'
_cell_volume   147.33045453
_cell_formula_units_Z   1
loop_
 _symmetry_equiv_pos_site_id
 _symmetry_equiv_pos_as_xyz
  1  'x, y, z'
loop_
 _atom_site_type_symbol
 _atom_site_label
 _atom_site_symmetry_multiplicity
 _atom_site_fract_x
 _atom_site_fract_y
 _atom_site_fract_z
 _atom_site_occupancy
  La  La0  1  0.000000  0.000000  0.000000  1
  Pm  Pm1  1  0.000000  0.000000  0.500000  1
  Ag  Ag2  1  0.666667  0.333333  0.265604  1
  Ag  Ag3  1  0.333333  0.666666  0.265604  1
  Ag  Ag4  1  0.666667  0.333333  0.734396  1
  Ag  Ag5  1  0.333333  0.666666  0.734396  1
