# generated using pymatgen
data_NbS4
_symmetry_space_group_name_H-M   'P 1'
_cell_length_a   9.02437138
_cell_length_b   9.02437265
_cell_length_c   7.75577360
_cell_angle_alpha   71.19040055
_cell_angle_beta   71.19040400
_cell_angle_gamma   82.28082951
_symmetry_Int_Tables_number   1
_chemical_formula_structural   NbS4
_chemical_formula_sum   'Nb4 S16'
_cell_volume   565.63766507
_cell_formula_units_Z   4
loop_
 _symmetry_equiv_pos_site_id
 _symmetry_equiv_pos_as_xyz
  1  'x, y, z'
loop_
 _atom_site_type_symbol
 _atom_site_label
 _atom_site_symmetry_multiplicity
 _atom_site_fract_x
 _atom_site_fract_y
 _atom_site_fract_z
 _atom_site_occupancy
  Nb  Nb0  1  0.117487  0.618097  0.882121  1
  Nb  Nb1  1  0.882513  0.381903  0.117879  1
  Nb  Nb2  1  0.381903  0.882513  0.617879  1
  Nb  Nb3  1  0.618097  0.117487  0.382121  1
  S  S4  1  0.326134  0.165324  0.455784  1
  S  S5  1  0.582304  0.966826  0.728939  1
  S  S6  1  0.673866  0.834676  0.544216  1
  S  S7  1  0.033174  0.417696  0.771061  1
  S  S8  1  0.651625  0.323171  0.040597  1
  S  S9  1  0.132820  0.806049  0.558343  1
  S  S10  1  0.806049  0.132820  0.058343  1
  S  S11  1  0.966826  0.582304  0.228939  1
  S  S12  1  0.417696  0.033174  0.271061  1
  S  S13  1  0.323171  0.651625  0.540597  1
  S  S14  1  0.867180  0.193951  0.441657  1
  S  S15  1  0.193951  0.867180  0.941657  1
  S  S16  1  0.348375  0.676829  0.959403  1
  S  S17  1  0.165324  0.326134  0.955784  1
  S  S18  1  0.676829  0.348375  0.459403  1
  S  S19  1  0.834676  0.673866  0.044216  1
