# generated using pymatgen
data_Tb3Ho(HgO4)2
_symmetry_space_group_name_H-M   'P 1'
_cell_length_a   7.09934828
_cell_length_b   7.09934796
_cell_length_c   10.16083912
_cell_angle_alpha   58.73079868
_cell_angle_beta   58.73080137
_cell_angle_gamma   29.80354435
_symmetry_Int_Tables_number   1
_chemical_formula_structural   Tb3Ho(HgO4)2
_chemical_formula_sum   'Tb3 Ho1 Hg2 O8'
_cell_volume   214.70085666
_cell_formula_units_Z   1
loop_
 _symmetry_equiv_pos_site_id
 _symmetry_equiv_pos_as_xyz
  1  'x, y, z'
loop_
 _atom_site_type_symbol
 _atom_site_label
 _atom_site_symmetry_multiplicity
 _atom_site_fract_x
 _atom_site_fract_y
 _atom_site_fract_z
 _atom_site_occupancy
  Tb  Tb0  1  0.880579  0.880579  0.462840  1
  Tb  Tb1  1  0.118860  0.118860  0.538454  1
  Tb  Tb2  1  0.659598  0.659598  0.199022  1
  Ho  Ho3  1  0.341407  0.341407  0.799788  1
  Hg  Hg4  1  0.613897  0.613897  0.837904  1
  Hg  Hg5  1  0.386213  0.386213  0.161396  1
  O  O6  1  0.081838  0.081838  0.347505  1
  O  O7  1  0.916909  0.916909  0.655119  1
  O  O8  1  0.267981  0.267981  0.613057  1
  O  O9  1  0.732093  0.732093  0.387614  1
  O  O10  1  0.704220  0.704220  0.943596  1
  O  O11  1  0.297560  0.297560  0.053050  1
  O  O12  1  0.533691  0.533691  0.718533  1
  O  O13  1  0.465153  0.465153  0.282121  1
