# generated using pymatgen
data_YEr2TaO7
_symmetry_space_group_name_H-M   'P 1'
_cell_length_a   6.42450529
_cell_length_b   6.42450587
_cell_length_c   7.49958100
_cell_angle_alpha   90.00000000
_cell_angle_beta   90.00000000
_cell_angle_gamma   109.39679976
_symmetry_Int_Tables_number   1
_chemical_formula_structural   YEr2TaO7
_chemical_formula_sum   'Y2 Er4 Ta2 O14'
_cell_volume   291.97064406
_cell_formula_units_Z   2
loop_
 _symmetry_equiv_pos_site_id
 _symmetry_equiv_pos_as_xyz
  1  'x, y, z'
loop_
 _atom_site_type_symbol
 _atom_site_label
 _atom_site_symmetry_multiplicity
 _atom_site_fract_x
 _atom_site_fract_y
 _atom_site_fract_z
 _atom_site_occupancy
  Y  Y0  1  0.500000  0.500000  0.500000  1
  Y  Y1  1  0.500000  0.500000  0.000000  1
  Er  Er2  1  0.534150  0.000790  0.750000  1
  Er  Er3  1  0.000790  0.534150  0.250000  1
  Er  Er4  1  0.465850  0.999210  0.250000  1
  Er  Er5  1  0.999210  0.465850  0.750000  1
  Ta  Ta6  1  0.000000  0.000000  0.500000  1
  Ta  Ta7  1  0.000000  0.000000  0.000000  1
  O  O8  1  0.676623  0.928367  0.467676  1
  O  O9  1  0.928367  0.676623  0.532324  1
  O  O10  1  0.676623  0.928367  0.032324  1
  O  O11  1  0.928367  0.676623  0.967676  1
  O  O12  1  0.323377  0.071633  0.532324  1
  O  O13  1  0.071633  0.323377  0.467676  1
  O  O14  1  0.323377  0.071633  0.967676  1
  O  O15  1  0.071633  0.323377  0.032324  1
  O  O16  1  0.932817  0.067183  0.750000  1
  O  O17  1  0.067183  0.932817  0.250000  1
  O  O18  1  0.368902  0.631098  0.750000  1
  O  O19  1  0.631098  0.368902  0.250000  1
  O  O20  1  0.639933  0.360067  0.750000  1
  O  O21  1  0.360067  0.639933  0.250000  1
