# generated using pymatgen
data_Zr2Pa2NbGe4
_symmetry_space_group_name_H-M   'P 1'
_cell_length_a   7.18031800
_cell_length_b   7.30562700
_cell_length_c   13.98798500
_cell_angle_alpha   90.00000000
_cell_angle_beta   90.00000000
_cell_angle_gamma   90.00000000
_symmetry_Int_Tables_number   1
_chemical_formula_structural   Zr2Pa2NbGe4
_chemical_formula_sum   'Zr8 Pa8 Nb4 Ge16'
_cell_volume   733.76388314
_cell_formula_units_Z   4
loop_
 _symmetry_equiv_pos_site_id
 _symmetry_equiv_pos_as_xyz
  1  'x, y, z'
loop_
 _atom_site_type_symbol
 _atom_site_label
 _atom_site_symmetry_multiplicity
 _atom_site_fract_x
 _atom_site_fract_y
 _atom_site_fract_z
 _atom_site_occupancy
  Zr  Zr0  1  0.847369  0.667130  0.124591  1
  Zr  Zr1  1  0.347369  0.832870  0.375409  1
  Zr  Zr2  1  0.652631  0.167130  0.875409  1
  Zr  Zr3  1  0.152631  0.332870  0.624591  1
  Zr  Zr4  1  0.152631  0.332870  0.875409  1
  Zr  Zr5  1  0.652631  0.167130  0.624591  1
  Zr  Zr6  1  0.347369  0.832870  0.124591  1
  Zr  Zr7  1  0.847369  0.667130  0.375409  1
  Pa  Pa8  1  0.008154  0.176101  0.095526  1
  Pa  Pa9  1  0.508154  0.323899  0.404474  1
  Pa  Pa10  1  0.491846  0.676101  0.904474  1
  Pa  Pa11  1  0.991846  0.823899  0.595526  1
  Pa  Pa12  1  0.991846  0.823899  0.904474  1
  Pa  Pa13  1  0.491846  0.676101  0.595526  1
  Pa  Pa14  1  0.508154  0.323899  0.095526  1
  Pa  Pa15  1  0.008154  0.176101  0.404474  1
  Nb  Nb16  1  0.675158  0.003191  0.250000  1
  Nb  Nb17  1  0.175158  0.496809  0.250000  1
  Nb  Nb18  1  0.824842  0.503191  0.750000  1
  Nb  Nb19  1  0.324842  0.996809  0.750000  1
  Ge  Ge20  1  0.810971  0.359840  0.250000  1
  Ge  Ge21  1  0.310971  0.140160  0.250000  1
  Ge  Ge22  1  0.689029  0.859840  0.750000  1
  Ge  Ge23  1  0.189029  0.640160  0.750000  1
  Ge  Ge24  1  0.044469  0.880226  0.250000  1
  Ge  Ge25  1  0.544469  0.619774  0.250000  1
  Ge  Ge26  1  0.455531  0.380226  0.750000  1
  Ge  Ge27  1  0.955531  0.119774  0.750000  1
  Ge  Ge28  1  0.814533  0.459704  0.956943  1
  Ge  Ge29  1  0.314533  0.040296  0.543057  1
  Ge  Ge30  1  0.685467  0.959704  0.043057  1
  Ge  Ge31  1  0.185467  0.540296  0.456943  1
  Ge  Ge32  1  0.185467  0.540296  0.043057  1
  Ge  Ge33  1  0.685467  0.959704  0.456943  1
  Ge  Ge34  1  0.314533  0.040296  0.956943  1
  Ge  Ge35  1  0.814533  0.459704  0.543057  1
