# generated using pymatgen
data_Mg2CdSn11Ir6
_symmetry_space_group_name_H-M   'P 1'
_cell_length_a   8.17631854
_cell_length_b   8.21239632
_cell_length_c   8.21239598
_cell_angle_alpha   108.64728545
_cell_angle_beta   109.97323787
_cell_angle_gamma   109.97324158
_symmetry_Int_Tables_number   1
_chemical_formula_structural   Mg2CdSn11Ir6
_chemical_formula_sum   'Mg2 Cd1 Sn11 Ir6'
_cell_volume   423.49541675
_cell_formula_units_Z   1
loop_
 _symmetry_equiv_pos_site_id
 _symmetry_equiv_pos_as_xyz
  1  'x, y, z'
loop_
 _atom_site_type_symbol
 _atom_site_label
 _atom_site_symmetry_multiplicity
 _atom_site_fract_x
 _atom_site_fract_y
 _atom_site_fract_z
 _atom_site_occupancy
  Mg  Mg0  1  0.686418  0.997821  0.999044  1
  Mg  Mg1  1  0.313582  0.000956  0.002179  1
  Cd  Cd2  1  0.500000  0.757332  0.242668  1
  Sn  Sn3  1  0.500000  0.243124  0.756876  1
  Sn  Sn4  1  0.260600  0.517699  0.763558  1
  Sn  Sn5  1  0.741627  0.490362  0.244566  1
  Sn  Sn6  1  0.739400  0.236442  0.482301  1
  Sn  Sn7  1  0.258373  0.755434  0.509638  1
  Sn  Sn8  1  0.330040  0.323474  0.321009  1
  Sn  Sn9  1  0.669960  0.678991  0.676526  1
  Sn  Sn10  1  0.003031  0.998526  0.675846  1
  Sn  Sn11  1  0.009679  0.679283  0.001970  1
  Sn  Sn12  1  0.990321  0.998030  0.320717  1
  Sn  Sn13  1  0.996969  0.324154  0.001474  1
  Ir  Ir14  1  0.009016  0.349426  0.349863  1
  Ir  Ir15  1  0.990984  0.650137  0.650574  1
  Ir  Ir16  1  0.337981  0.006455  0.354004  1
  Ir  Ir17  1  0.661950  0.006451  0.660092  1
  Ir  Ir18  1  0.338050  0.339908  0.993549  1
  Ir  Ir19  1  0.662019  0.645996  0.993545  1
