# generated using pymatgen
data_YbDy2(MnC3)2
_symmetry_space_group_name_H-M   'P 1'
_cell_length_a   8.08858521
_cell_length_b   8.05449753
_cell_length_c   4.97349700
_cell_angle_alpha   90.00000000
_cell_angle_beta   90.00000000
_cell_angle_gamma   120.08496289
_symmetry_Int_Tables_number   1
_chemical_formula_structural   YbDy2(MnC3)2
_chemical_formula_sum   'Yb2 Dy4 Mn4 C12'
_cell_volume   280.36968570
_cell_formula_units_Z   2
loop_
 _symmetry_equiv_pos_site_id
 _symmetry_equiv_pos_as_xyz
  1  'x, y, z'
loop_
 _atom_site_type_symbol
 _atom_site_label
 _atom_site_symmetry_multiplicity
 _atom_site_fract_x
 _atom_site_fract_y
 _atom_site_fract_z
 _atom_site_occupancy
  Yb  Yb0  1  0.612910  0.682483  0.750000  1
  Yb  Yb1  1  0.928569  0.614266  0.250000  1
  Dy  Dy2  1  0.685745  0.067634  0.250000  1
  Dy  Dy3  1  0.309631  0.932148  0.750000  1
  Dy  Dy4  1  0.066191  0.382208  0.750000  1
  Dy  Dy5  1  0.379826  0.314750  0.250000  1
  Mn  Mn6  1  0.997011  0.996533  0.500114  1
  Mn  Mn7  1  0.997011  0.996533  0.999886  1
  Mn  Mn8  1  0.666683  0.328964  0.750000  1
  Mn  Mn9  1  0.337602  0.668752  0.250000  1
  C  C10  1  0.957813  0.771329  0.750000  1
  C  C11  1  0.190272  0.962458  0.250000  1
  C  C12  1  0.777430  0.820106  0.250000  1
  C  C13  1  0.229931  0.195518  0.750000  1
  C  C14  1  0.818451  0.039300  0.750000  1
  C  C15  1  0.035062  0.229361  0.250000  1
  C  C16  1  0.858119  0.576735  0.750000  1
  C  C17  1  0.283022  0.860818  0.250000  1
  C  C18  1  0.583624  0.719425  0.250000  1
  C  C19  1  0.424540  0.282853  0.750000  1
  C  C20  1  0.142741  0.424826  0.250000  1
  C  C21  1  0.717818  0.133000  0.750000  1
