# generated using pymatgen
data_TbCoNi4P3
_symmetry_space_group_name_H-M   'P 1'
_cell_length_a   3.71307000
_cell_length_b   10.35258200
_cell_length_c   11.84954700
_cell_angle_alpha   90.00000000
_cell_angle_beta   90.00000000
_cell_angle_gamma   90.00000000
_symmetry_Int_Tables_number   1
_chemical_formula_structural   TbCoNi4P3
_chemical_formula_sum   'Tb4 Co4 Ni16 P12'
_cell_volume   455.49494726
_cell_formula_units_Z   4
loop_
 _symmetry_equiv_pos_site_id
 _symmetry_equiv_pos_as_xyz
  1  'x, y, z'
loop_
 _atom_site_type_symbol
 _atom_site_label
 _atom_site_symmetry_multiplicity
 _atom_site_fract_x
 _atom_site_fract_y
 _atom_site_fract_z
 _atom_site_occupancy
  Tb  Tb0  1  0.250000  0.582039  0.703057  1
  Tb  Tb1  1  0.250000  0.917961  0.203057  1
  Tb  Tb2  1  0.750000  0.417961  0.296943  1
  Tb  Tb3  1  0.750000  0.082039  0.796943  1
  Co  Co4  1  0.250000  0.468888  0.932276  1
  Co  Co5  1  0.250000  0.031112  0.432276  1
  Co  Co6  1  0.750000  0.531112  0.067724  1
  Co  Co7  1  0.750000  0.968888  0.567724  1
  Ni  Ni8  1  0.250000  0.712740  0.991327  1
  Ni  Ni9  1  0.250000  0.787260  0.491327  1
  Ni  Ni10  1  0.750000  0.287260  0.008673  1
  Ni  Ni11  1  0.750000  0.212740  0.508673  1
  Ni  Ni12  1  0.250000  0.404313  0.488343  1
  Ni  Ni13  1  0.250000  0.095687  0.988343  1
  Ni  Ni14  1  0.750000  0.595687  0.511657  1
  Ni  Ni15  1  0.750000  0.904313  0.011657  1
  Ni  Ni16  1  0.250000  0.222749  0.178351  1
  Ni  Ni17  1  0.250000  0.277251  0.678351  1
  Ni  Ni18  1  0.750000  0.777251  0.821649  1
  Ni  Ni19  1  0.750000  0.722749  0.321649  1
  Ni  Ni20  1  0.250000  0.881985  0.699062  1
  Ni  Ni21  1  0.250000  0.618015  0.199062  1
  Ni  Ni22  1  0.750000  0.118015  0.300938  1
  Ni  Ni23  1  0.750000  0.381985  0.800938  1
  P  P24  1  0.250000  0.420531  0.111603  1
  P  P25  1  0.250000  0.079469  0.611603  1
  P  P26  1  0.750000  0.579469  0.888397  1
  P  P27  1  0.750000  0.920531  0.388397  1
  P  P28  1  0.250000  0.271800  0.870330  1
  P  P29  1  0.250000  0.228200  0.370330  1
  P  P30  1  0.750000  0.728200  0.129670  1
  P  P31  1  0.750000  0.771800  0.629670  1
  P  P32  1  0.250000  0.602077  0.393090  1
  P  P33  1  0.250000  0.897923  0.893090  1
  P  P34  1  0.750000  0.397923  0.606910  1
  P  P35  1  0.750000  0.102077  0.106910  1
