# generated using pymatgen
data_V2BrCl7
_symmetry_space_group_name_H-M   'P 1'
_cell_length_a   6.98040900
_cell_length_b   10.18293186
_cell_length_c   10.45351016
_cell_angle_alpha   77.86992366
_cell_angle_beta   90.00000000
_cell_angle_gamma   90.00000000
_symmetry_Int_Tables_number   1
_chemical_formula_structural   V2BrCl7
_chemical_formula_sum   'V4 Br2 Cl14'
_cell_volume   726.45631644
_cell_formula_units_Z   2
loop_
 _symmetry_equiv_pos_site_id
 _symmetry_equiv_pos_as_xyz
  1  'x, y, z'
loop_
 _atom_site_type_symbol
 _atom_site_label
 _atom_site_symmetry_multiplicity
 _atom_site_fract_x
 _atom_site_fract_y
 _atom_site_fract_z
 _atom_site_occupancy
  V  V0  1  0.070247  0.247916  0.636912  1
  V  V1  1  0.570247  0.752084  0.863088  1
  V  V2  1  0.924465  0.751041  0.364443  1
  V  V3  1  0.424465  0.248959  0.135557  1
  Br  Br4  1  0.379830  0.308765  0.580111  1
  Br  Br5  1  0.879830  0.691235  0.919889  1
  Cl  Cl6  1  0.634294  0.694090  0.417374  1
  Cl  Cl7  1  0.134294  0.305910  0.082626  1
  Cl  Cl8  1  0.928206  0.195411  0.472770  1
  Cl  Cl9  1  0.428206  0.804589  0.027230  1
  Cl  Cl10  1  0.069559  0.803798  0.527208  1
  Cl  Cl11  1  0.569559  0.196202  0.972792  1
  Cl  Cl12  1  0.924643  0.412763  0.693102  1
  Cl  Cl13  1  0.424643  0.587237  0.806898  1
  Cl  Cl14  1  0.071981  0.587540  0.307065  1
  Cl  Cl15  1  0.571981  0.412460  0.192935  1
  Cl  Cl16  1  0.071550  0.078516  0.798350  1
  Cl  Cl17  1  0.571550  0.921484  0.701650  1
  Cl  Cl18  1  0.925224  0.920382  0.202733  1
  Cl  Cl19  1  0.425224  0.079618  0.297267  1
