# generated using pymatgen
data_Dy4CuSi8Pt7
_symmetry_space_group_name_H-M   'P 1'
_cell_length_a   4.15149958
_cell_length_b   8.42561406
_cell_length_c   9.85102296
_cell_angle_alpha   89.94218856
_cell_angle_beta   89.93093145
_cell_angle_gamma   90.15094506
_symmetry_Int_Tables_number   1
_chemical_formula_structural   Dy4CuSi8Pt7
_chemical_formula_sum   'Dy4 Cu1 Si8 Pt7'
_cell_volume   344.57665134
_cell_formula_units_Z   1
loop_
 _symmetry_equiv_pos_site_id
 _symmetry_equiv_pos_as_xyz
  1  'x, y, z'
loop_
 _atom_site_type_symbol
 _atom_site_label
 _atom_site_symmetry_multiplicity
 _atom_site_fract_x
 _atom_site_fract_y
 _atom_site_fract_z
 _atom_site_occupancy
  Dy  Dy0  1  0.750854  0.625015  0.750646  1
  Dy  Dy1  1  0.750219  0.124985  0.749639  1
  Dy  Dy2  1  0.251184  0.878063  0.249577  1
  Dy  Dy3  1  0.248849  0.371815  0.249595  1
  Cu  Cu4  1  0.244170  0.125315  0.499795  1
  Si  Si5  1  0.748458  0.375509  0.002696  1
  Si  Si6  1  0.746092  0.125402  0.368754  1
  Si  Si7  1  0.254682  0.879733  0.633047  1
  Si  Si8  1  0.251467  0.623828  0.997280  1
  Si  Si9  1  0.753688  0.875334  0.003128  1
  Si  Si10  1  0.245098  0.370380  0.632820  1
  Si  Si11  1  0.250762  0.124203  0.996506  1
  Si  Si12  1  0.750242  0.625486  0.365911  1
  Pt  Pt13  1  0.249297  0.374631  0.875222  1
  Pt  Pt14  1  0.750759  0.625117  0.125513  1
  Pt  Pt15  1  0.756328  0.874918  0.499725  1
  Pt  Pt16  1  0.743835  0.375653  0.499370  1
  Pt  Pt17  1  0.750227  0.125403  0.124524  1
  Pt  Pt18  1  0.249944  0.625488  0.500738  1
  Pt  Pt19  1  0.253843  0.873721  0.875514  1
