# generated using pymatgen
data_Er8Ga12PdAu3
_symmetry_space_group_name_H-M   'P 1'
_cell_length_a   7.06849600
_cell_length_b   8.89465236
_cell_length_c   8.89465300
_cell_angle_alpha   119.99999868
_cell_angle_beta   90.00000000
_cell_angle_gamma   90.00000000
_symmetry_Int_Tables_number   1
_chemical_formula_structural   Er8Ga12PdAu3
_chemical_formula_sum   'Er8 Ga12 Pd1 Au3'
_cell_volume   484.30130857
_cell_formula_units_Z   1
loop_
 _symmetry_equiv_pos_site_id
 _symmetry_equiv_pos_as_xyz
  1  'x, y, z'
loop_
 _atom_site_type_symbol
 _atom_site_label
 _atom_site_symmetry_multiplicity
 _atom_site_fract_x
 _atom_site_fract_y
 _atom_site_fract_z
 _atom_site_occupancy
  Er  Er0  1  0.746585  0.000000  0.000000  1
  Er  Er1  1  0.250680  0.000000  0.000000  1
  Er  Er2  1  0.749227  0.487392  0.512608  1
  Er  Er3  1  0.252261  0.515081  0.484919  1
  Er  Er4  1  0.749227  0.025216  0.512608  1
  Er  Er5  1  0.252261  0.969839  0.484919  1
  Er  Er6  1  0.749227  0.487392  0.974784  1
  Er  Er7  1  0.252261  0.515081  0.030161  1
  Ga  Ga8  1  0.958551  0.836239  0.163761  1
  Ga  Ga9  1  0.040654  0.164235  0.835765  1
  Ga  Ga10  1  0.958551  0.327523  0.163761  1
  Ga  Ga11  1  0.464534  0.164082  0.835918  1
  Ga  Ga12  1  0.040654  0.671530  0.835765  1
  Ga  Ga13  1  0.537148  0.832396  0.167604  1
  Ga  Ga14  1  0.958551  0.836239  0.672477  1
  Ga  Ga15  1  0.464534  0.671835  0.835918  1
  Ga  Ga16  1  0.040654  0.164235  0.328470  1
  Ga  Ga17  1  0.537148  0.335209  0.167604  1
  Ga  Ga18  1  0.464534  0.164082  0.328165  1
  Ga  Ga19  1  0.537148  0.832396  0.664791  1
  Pd  Pd20  1  0.527206  0.666667  0.333333  1
  Au  Au21  1  0.968502  0.666667  0.333333  1
  Au  Au22  1  0.027997  0.333333  0.666667  1
  Au  Au23  1  0.471912  0.333333  0.666667  1
