# generated using pymatgen
data_CsCoMoF6
_symmetry_space_group_name_H-M   'P 1'
_cell_length_a   7.73258956
_cell_length_b   7.73258950
_cell_length_c   7.73258977
_cell_angle_alpha   121.10782989
_cell_angle_beta   119.91662109
_cell_angle_gamma   89.11820742
_symmetry_Int_Tables_number   1
_chemical_formula_structural   CsCoMoF6
_chemical_formula_sum   'Cs2 Co2 Mo2 F12'
_cell_volume   324.31632777
_cell_formula_units_Z   2
loop_
 _symmetry_equiv_pos_site_id
 _symmetry_equiv_pos_as_xyz
  1  'x, y, z'
loop_
 _atom_site_type_symbol
 _atom_site_label
 _atom_site_symmetry_multiplicity
 _atom_site_fract_x
 _atom_site_fract_y
 _atom_site_fract_z
 _atom_site_occupancy
  Cs  Cs0  1  0.649813  0.899813  0.750000  1
  Cs  Cs1  1  0.350187  0.100187  0.250000  1
  Co  Co2  1  0.000000  0.500000  0.000000  1
  Co  Co3  1  0.000000  0.000000  0.500000  1
  Mo  Mo4  1  0.500000  0.500000  0.000000  1
  Mo  Mo5  1  0.000000  0.500000  0.500000  1
  F  F6  1  0.058308  0.808308  0.250000  1
  F  F7  1  0.670075  0.420075  0.250000  1
  F  F8  1  0.060627  0.824114  0.645364  1
  F  F9  1  0.678749  0.415262  0.854636  1
  F  F10  1  0.678749  0.824114  0.263488  1
  F  F11  1  0.060627  0.415262  0.236512  1
  F  F12  1  0.941692  0.191692  0.750000  1
  F  F13  1  0.329925  0.579925  0.750000  1
  F  F14  1  0.939373  0.175886  0.354636  1
  F  F15  1  0.321251  0.584738  0.145364  1
  F  F16  1  0.321251  0.175886  0.736512  1
  F  F17  1  0.939373  0.584738  0.763488  1
