# generated using pymatgen
data_ZnCl35
_symmetry_space_group_name_H-M   'P 1'
_cell_length_a   14.38377941
_cell_length_b   10.26025305
_cell_length_c   9.71269500
_cell_angle_alpha   88.81408388
_cell_angle_beta   66.02770759
_cell_angle_gamma   92.31545463
_symmetry_Int_Tables_number   1
_chemical_formula_structural   ZnCl35
_chemical_formula_sum   'Zn1 Cl35'
_cell_volume   1307.61722576
_cell_formula_units_Z   1
loop_
 _symmetry_equiv_pos_site_id
 _symmetry_equiv_pos_as_xyz
  1  'x, y, z'
loop_
 _atom_site_type_symbol
 _atom_site_label
 _atom_site_symmetry_multiplicity
 _atom_site_fract_x
 _atom_site_fract_y
 _atom_site_fract_z
 _atom_site_occupancy
  Zn  Zn0  1  0.148793  0.364393  0.504623  1
  Cl  Cl1  1  0.488447  0.303471  0.567859  1
  Cl  Cl2  1  0.781957  0.573453  0.526681  1
  Cl  Cl3  1  0.485785  0.680810  0.763008  1
  Cl  Cl4  1  0.079146  0.911479  0.776653  1
  Cl  Cl5  1  0.885519  0.147651  0.005041  1
  Cl  Cl6  1  0.654044  0.337186  0.284045  1
  Cl  Cl7  1  0.601923  0.322318  0.849224  1
  Cl  Cl8  1  0.368801  0.811447  0.640529  1
  Cl  Cl9  1  0.395525  0.697922  0.147872  1
  Cl  Cl10  1  0.634258  0.133346  0.812409  1
  Cl  Cl11  1  0.929022  0.525763  0.434469  1
  Cl  Cl12  1  0.100430  0.940769  0.560285  1
  Cl  Cl13  1  0.871447  0.081206  0.301097  1
  Cl  Cl14  1  0.871021  0.195241  0.812826  1
  Cl  Cl15  1  0.642122  0.048875  0.266574  1
  Cl  Cl16  1  0.039295  0.823699  0.098845  1
  Cl  Cl17  1  0.369305  0.992753  0.719379  1
  Cl  Cl18  1  0.895374  0.263375  0.362724  1
  Cl  Cl19  1  0.871508  0.907605  0.629926  1
  Cl  Cl20  1  0.938811  0.654369  0.822709  1
  Cl  Cl21  1  0.318018  0.053119  0.220404  1
  Cl  Cl22  1  0.343388  0.248390  0.177339  1
  Cl  Cl23  1  0.558536  0.602684  0.884587  1
  Cl  Cl24  1  0.138345  0.457629  0.315934  1
  Cl  Cl25  1  0.720542  0.871550  0.729116  1
  Cl  Cl26  1  0.890582  0.464910  0.827279  1
  Cl  Cl27  1  0.505624  0.030055  0.256305  1
  Cl  Cl28  1  0.154076  0.243224  0.676335  1
  Cl  Cl29  1  0.672672  0.766557  0.280552  1
  Cl  Cl30  1  0.884421  0.800509  0.181579  1
  Cl  Cl31  1  0.377905  0.266295  0.777778  1
  Cl  Cl32  1  0.299510  0.545531  0.567894  1
  Cl  Cl33  1  0.656376  0.550745  0.241774  1
  Cl  Cl34  1  0.152920  0.598246  0.675706  1
  Cl  Cl35  1  0.274551  0.783423  0.300644  1
