# generated using pymatgen
data_Tb10DyTmRu4
_symmetry_space_group_name_H-M   'P 1'
_cell_length_a   6.33111342
_cell_length_b   7.30592776
_cell_length_c   9.23439005
_cell_angle_alpha   89.95468909
_cell_angle_beta   90.32113198
_cell_angle_gamma   89.92759485
_symmetry_Int_Tables_number   1
_chemical_formula_structural   Tb10DyTmRu4
_chemical_formula_sum   'Tb10 Dy1 Tm1 Ru4'
_cell_volume   427.12636122
_cell_formula_units_Z   1
loop_
 _symmetry_equiv_pos_site_id
 _symmetry_equiv_pos_as_xyz
  1  'x, y, z'
loop_
 _atom_site_type_symbol
 _atom_site_label
 _atom_site_symmetry_multiplicity
 _atom_site_fract_x
 _atom_site_fract_y
 _atom_site_fract_z
 _atom_site_occupancy
  Tb  Tb0  1  0.634922  0.040596  0.251100  1
  Tb  Tb1  1  0.365628  0.959881  0.748914  1
  Tb  Tb2  1  0.133592  0.459080  0.748453  1
  Tb  Tb3  1  0.865694  0.540233  0.251492  1
  Tb  Tb4  1  0.170581  0.177311  0.065111  1
  Tb  Tb5  1  0.829368  0.822907  0.934760  1
  Tb  Tb6  1  0.669861  0.322543  0.933525  1
  Tb  Tb7  1  0.829408  0.822651  0.564642  1
  Tb  Tb8  1  0.330205  0.677331  0.065820  1
  Tb  Tb9  1  0.170290  0.177477  0.435667  1
  Dy  Dy10  1  0.331230  0.675971  0.435856  1
  Tm  Tm11  1  0.669017  0.324072  0.564979  1
  Ru  Ru12  1  0.461300  0.385877  0.253131  1
  Ru  Ru13  1  0.539453  0.613432  0.747122  1
  Ru  Ru14  1  0.958273  0.114624  0.749185  1
  Ru  Ru15  1  0.041178  0.886013  0.250242  1
