# generated using pymatgen
data_Tm2Zr3Si7Pt9
_symmetry_space_group_name_H-M   'P 1'
_cell_length_a   10.03869700
_cell_length_b   10.03869621
_cell_length_c   4.01509400
_cell_angle_alpha   90.00000000
_cell_angle_beta   90.00000000
_cell_angle_gamma   119.99999931
_symmetry_Int_Tables_number   1
_chemical_formula_structural   Tm2Zr3Si7Pt9
_chemical_formula_sum   'Tm2 Zr3 Si7 Pt9'
_cell_volume   350.41364566
_cell_formula_units_Z   1
loop_
 _symmetry_equiv_pos_site_id
 _symmetry_equiv_pos_as_xyz
  1  'x, y, z'
loop_
 _atom_site_type_symbol
 _atom_site_label
 _atom_site_symmetry_multiplicity
 _atom_site_fract_x
 _atom_site_fract_y
 _atom_site_fract_z
 _atom_site_occupancy
  Tm  Tm0  1  0.000000  0.000000  0.000000  1
  Tm  Tm1  1  0.333333  0.666667  0.500000  1
  Zr  Zr2  1  0.892846  0.457387  0.500000  1
  Zr  Zr3  1  0.564541  0.107154  0.500000  1
  Zr  Zr4  1  0.542613  0.435459  0.500000  1
  Si  Si5  1  0.245854  0.195599  0.500000  1
  Si  Si6  1  0.804401  0.050257  0.500000  1
  Si  Si7  1  0.949743  0.754146  0.500000  1
  Si  Si8  1  0.557089  0.646635  0.000000  1
  Si  Si9  1  0.353365  0.910453  0.000000  1
  Si  Si10  1  0.089547  0.442911  0.000000  1
  Si  Si11  1  0.666667  0.333333  0.000000  1
  Pt  Pt12  1  0.217177  0.936955  0.500000  1
  Pt  Pt13  1  0.063045  0.280222  0.500000  1
  Pt  Pt14  1  0.719778  0.782823  0.500000  1
  Pt  Pt15  1  0.312534  0.414737  0.000000  1
  Pt  Pt16  1  0.585263  0.897796  0.000000  1
  Pt  Pt17  1  0.102204  0.687466  0.000000  1
  Pt  Pt18  1  0.382785  0.172333  0.000000  1
  Pt  Pt19  1  0.827667  0.210450  0.000000  1
  Pt  Pt20  1  0.789550  0.617215  0.000000  1
