# generated using pymatgen
data_Th10Si16Sn
_symmetry_space_group_name_H-M   'P 1'
_cell_length_a   11.48944680
_cell_length_b   11.36227871
_cell_length_c   11.48944510
_cell_angle_alpha   144.35153272
_cell_angle_beta   136.19799879
_cell_angle_gamma   57.91141801
_symmetry_Int_Tables_number   1
_chemical_formula_structural   Th10Si16Sn
_chemical_formula_sum   'Th10 Si16 Sn1'
_cell_volume   599.36246508
_cell_formula_units_Z   1
loop_
 _symmetry_equiv_pos_site_id
 _symmetry_equiv_pos_as_xyz
  1  'x, y, z'
loop_
 _atom_site_type_symbol
 _atom_site_label
 _atom_site_symmetry_multiplicity
 _atom_site_fract_x
 _atom_site_fract_y
 _atom_site_fract_z
 _atom_site_occupancy
  Th  Th0  1  0.757046  0.759299  0.517620  1
  Th  Th1  1  0.435909  0.973209  0.014793  1
  Th  Th2  1  0.851965  0.369143  0.023802  1
  Th  Th3  1  0.958416  0.973209  0.537301  1
  Th  Th4  1  0.147594  0.164581  0.513654  1
  Th  Th5  1  0.345342  0.369143  0.517179  1
  Th  Th6  1  0.241679  0.759299  0.002254  1
  Th  Th7  1  0.542075  0.558606  0.492343  1
  Th  Th8  1  0.066262  0.558606  0.016531  1
  Th  Th9  1  0.650926  0.164581  0.016987  1
  Si  Si10  1  0.199609  0.600755  0.401146  1
  Si  Si11  1  0.998389  0.086322  0.087932  1
  Si  Si12  1  0.698126  0.286969  0.588845  1
  Si  Si13  1  0.797727  0.192149  0.394422  1
  Si  Si14  1  0.895297  0.499089  0.603793  1
  Si  Si15  1  0.414044  0.864970  0.450925  1
  Si  Si16  1  0.102061  0.703635  0.601575  1
  Si  Si17  1  0.301270  0.891213  0.589943  1
  Si  Si18  1  0.584098  0.041652  0.457554  1
  Si  Si19  1  0.997982  0.429593  0.431611  1
  Si  Si20  1  0.885912  0.834572  0.948659  1
  Si  Si21  1  0.404015  0.502289  0.098275  1
  Si  Si22  1  0.106538  0.057180  0.950642  1
  Si  Si23  1  0.297076  0.232339  0.935264  1
  Si  Si24  1  0.501100  0.387835  0.886733  1
  Si  Si25  1  0.595827  0.705739  0.109912  1
  Sn  Sn26  1  0.723716  0.695520  0.971803  1
