# generated using pymatgen
data_Hf2Zr2SiAs3Rh4
_symmetry_space_group_name_H-M   'P 1'
_cell_length_a   3.93679300
_cell_length_b   6.62419151
_cell_length_c   7.63574178
_cell_angle_alpha   89.58899997
_cell_angle_beta   90.00000000
_cell_angle_gamma   90.00000000
_symmetry_Int_Tables_number   1
_chemical_formula_structural   Hf2Zr2SiAs3Rh4
_chemical_formula_sum   'Hf2 Zr2 Si1 As3 Rh4'
_cell_volume   199.12029137
_cell_formula_units_Z   1
loop_
 _symmetry_equiv_pos_site_id
 _symmetry_equiv_pos_as_xyz
  1  'x, y, z'
loop_
 _atom_site_type_symbol
 _atom_site_label
 _atom_site_symmetry_multiplicity
 _atom_site_fract_x
 _atom_site_fract_y
 _atom_site_fract_z
 _atom_site_occupancy
  Hf  Hf0  1  0.250000  0.532157  0.184304  1
  Hf  Hf1  1  0.250000  0.024044  0.318427  1
  Zr  Zr2  1  0.750000  0.472175  0.816056  1
  Zr  Zr3  1  0.750000  0.970620  0.682498  1
  Si  Si4  1  0.750000  0.735705  0.382356  1
  As  As5  1  0.250000  0.757905  0.874192  1
  As  As6  1  0.750000  0.242525  0.122110  1
  As  As7  1  0.250000  0.260988  0.620916  1
  Rh  Rh8  1  0.750000  0.849311  0.077649  1
  Rh  Rh9  1  0.250000  0.142917  0.941205  1
  Rh  Rh10  1  0.750000  0.361230  0.432533  1
  Rh  Rh11  1  0.250000  0.650422  0.547753  1
