# generated using pymatgen
data_KTa3TlBr9
_symmetry_space_group_name_H-M   'P 1'
_cell_length_a   10.36534329
_cell_length_b   10.51725646
_cell_length_c   10.62545800
_cell_angle_alpha   118.03954570
_cell_angle_beta   100.51814320
_cell_angle_gamma   105.02562123
_symmetry_Int_Tables_number   1
_chemical_formula_structural   KTa3TlBr9
_chemical_formula_sum   'K2 Ta6 Tl2 Br18'
_cell_volume   922.31031676
_cell_formula_units_Z   2
loop_
 _symmetry_equiv_pos_site_id
 _symmetry_equiv_pos_as_xyz
  1  'x, y, z'
loop_
 _atom_site_type_symbol
 _atom_site_label
 _atom_site_symmetry_multiplicity
 _atom_site_fract_x
 _atom_site_fract_y
 _atom_site_fract_z
 _atom_site_occupancy
  K  K0  1  0.320628  0.774340  0.939210  1
  K  K1  1  0.679383  0.225683  0.060800  1
  Ta  Ta2  1  0.115329  0.887897  0.378773  1
  Ta  Ta3  1  0.884669  0.112102  0.621230  1
  Ta  Ta4  1  0.134645  0.043392  0.698681  1
  Ta  Ta5  1  0.865356  0.956606  0.301320  1
  Ta  Ta6  1  0.133976  0.211311  0.543315  1
  Ta  Ta7  1  0.866025  0.788687  0.456686  1
  Tl  Tl8  1  0.659080  0.537259  0.729373  1
  Tl  Tl9  1  0.340927  0.462738  0.270629  1
  Br  Br10  1  0.324844  0.109023  0.978319  1
  Br  Br11  1  0.675157  0.890968  0.021677  1
  Br  Br12  1  0.326240  0.506131  0.604372  1
  Br  Br13  1  0.673759  0.493865  0.395626  1
  Br  Br14  1  0.975753  0.597769  0.296513  1
  Br  Br15  1  0.024234  0.402229  0.703483  1
  Br  Br16  1  0.998159  0.211090  0.308486  1
  Br  Br17  1  0.001848  0.788909  0.691515  1
  Br  Br18  1  0.667309  0.681011  0.197236  1
  Br  Br19  1  0.332692  0.318991  0.802768  1
  Br  Br20  1  0.271514  0.732223  0.214572  1
  Br  Br21  1  0.728479  0.267778  0.785422  1
  Br  Br22  1  0.309653  0.917861  0.597486  1
  Br  Br23  1  0.690347  0.082138  0.402514  1
  Br  Br24  1  0.022589  0.188677  0.896278  1
  Br  Br25  1  0.977411  0.811325  0.103726  1
  Br  Br26  1  0.308300  0.124633  0.403985  1
  Br  Br27  1  0.691693  0.875361  0.596009  1
