# generated using pymatgen
data_TbHo2AlC3
_symmetry_space_group_name_H-M   'P 1'
_cell_length_a   3.56943100
_cell_length_b   7.04264600
_cell_length_c   9.97349200
_cell_angle_alpha   90.00000000
_cell_angle_beta   90.00000000
_cell_angle_gamma   90.00000000
_symmetry_Int_Tables_number   1
_chemical_formula_structural   TbHo2AlC3
_chemical_formula_sum   'Tb2 Ho4 Al2 C6'
_cell_volume   250.71602511
_cell_formula_units_Z   2
loop_
 _symmetry_equiv_pos_site_id
 _symmetry_equiv_pos_as_xyz
  1  'x, y, z'
loop_
 _atom_site_type_symbol
 _atom_site_label
 _atom_site_symmetry_multiplicity
 _atom_site_fract_x
 _atom_site_fract_y
 _atom_site_fract_z
 _atom_site_occupancy
  Tb  Tb0  1  0.000000  0.750000  0.458970  1
  Tb  Tb1  1  0.000000  0.250000  0.541030  1
  Ho  Ho2  1  0.500000  0.510652  0.200323  1
  Ho  Ho3  1  0.500000  0.489348  0.799677  1
  Ho  Ho4  1  0.500000  0.989348  0.200323  1
  Ho  Ho5  1  0.500000  0.010652  0.799677  1
  Al  Al6  1  0.000000  0.750000  0.005370  1
  Al  Al7  1  0.000000  0.250000  0.994630  1
  C  C8  1  0.500000  0.509593  0.566236  1
  C  C9  1  0.500000  0.490407  0.433764  1
  C  C10  1  0.500000  0.990407  0.566236  1
  C  C11  1  0.500000  0.009593  0.433764  1
  C  C12  1  0.000000  0.750000  0.208099  1
  C  C13  1  0.000000  0.250000  0.791901  1
