# generated using pymatgen
data_Dy2Si4Ni17Ir
_symmetry_space_group_name_H-M   'P 1'
_cell_length_a   7.59627423
_cell_length_b   7.59627331
_cell_length_c   7.59627362
_cell_angle_alpha   99.49557639
_cell_angle_beta   99.49557942
_cell_angle_gamma   132.07145702
_symmetry_Int_Tables_number   1
_chemical_formula_structural   Dy2Si4Ni17Ir
_chemical_formula_sum   'Dy2 Si4 Ni17 Ir1'
_cell_volume   297.32925502
_cell_formula_units_Z   1
loop_
 _symmetry_equiv_pos_site_id
 _symmetry_equiv_pos_as_xyz
  1  'x, y, z'
loop_
 _atom_site_type_symbol
 _atom_site_label
 _atom_site_symmetry_multiplicity
 _atom_site_fract_x
 _atom_site_fract_y
 _atom_site_fract_z
 _atom_site_occupancy
  Dy  Dy0  1  0.500000  0.500000  0.000000  1
  Dy  Dy1  1  0.750000  0.250000  0.500000  1
  Si  Si2  1  0.627300  0.875754  0.751546  1
  Si  Si3  1  0.124246  0.372700  0.248454  1
  Si  Si4  1  0.124246  0.875791  0.751546  1
  Si  Si5  1  0.124209  0.875754  0.248454  1
  Ni  Ni6  1  0.000000  0.000000  0.000000  1
  Ni  Ni7  1  0.686777  0.012681  0.078677  1
  Ni  Ni8  1  0.686777  0.608101  0.674095  1
  Ni  Ni9  1  0.263735  0.433495  0.580615  1
  Ni  Ni10  1  0.263735  0.683120  0.830240  1
  Ni  Ni11  1  0.934005  0.012681  0.325905  1
  Ni  Ni12  1  0.934005  0.608101  0.921323  1
  Ni  Ni13  1  0.852881  0.433495  0.169760  1
  Ni  Ni14  1  0.852881  0.683120  0.419385  1
  Ni  Ni15  1  0.566505  0.736265  0.419385  1
  Ni  Ni16  1  0.566505  0.147119  0.830240  1
  Ni  Ni17  1  0.987319  0.313223  0.921323  1
  Ni  Ni18  1  0.987319  0.065995  0.674095  1
  Ni  Ni19  1  0.316880  0.736265  0.169760  1
  Ni  Ni20  1  0.316880  0.147119  0.580615  1
  Ni  Ni21  1  0.391899  0.313223  0.325905  1
  Ni  Ni22  1  0.391899  0.065995  0.078677  1
  Ir  Ir23  1  0.250000  0.750000  0.500000  1
