# generated using pymatgen
data_Dy6Ni17P12W
_symmetry_space_group_name_H-M   'P 1'
_cell_length_a   3.76824600
_cell_length_b   10.55305900
_cell_length_c   12.33638600
_cell_angle_alpha   90.00000000
_cell_angle_beta   90.00000000
_cell_angle_gamma   90.00000000
_symmetry_Int_Tables_number   1
_chemical_formula_structural   Dy6Ni17P12W
_chemical_formula_sum   'Dy6 Ni17 P12 W1'
_cell_volume   490.57516977
_cell_formula_units_Z   1
loop_
 _symmetry_equiv_pos_site_id
 _symmetry_equiv_pos_as_xyz
  1  'x, y, z'
loop_
 _atom_site_type_symbol
 _atom_site_label
 _atom_site_symmetry_multiplicity
 _atom_site_fract_x
 _atom_site_fract_y
 _atom_site_fract_z
 _atom_site_occupancy
  Dy  Dy0  1  0.000000  0.500000  0.524246  1
  Dy  Dy1  1  0.500000  0.000000  0.480228  1
  Dy  Dy2  1  0.500000  0.817793  0.206733  1
  Dy  Dy3  1  0.500000  0.182207  0.206733  1
  Dy  Dy4  1  0.000000  0.684175  0.793944  1
  Dy  Dy5  1  0.000000  0.315825  0.793944  1
  Ni  Ni6  1  0.000000  0.000000  0.839892  1
  Ni  Ni7  1  0.500000  0.500000  0.700929  1
  Ni  Ni8  1  0.000000  0.000000  0.301045  1
  Ni  Ni9  1  0.000000  0.500000  0.984614  1
  Ni  Ni10  1  0.500000  0.000000  0.017733  1
  Ni  Ni11  1  0.500000  0.328784  0.989377  1
  Ni  Ni12  1  0.500000  0.671216  0.989377  1
  Ni  Ni13  1  0.000000  0.162573  0.005086  1
  Ni  Ni14  1  0.000000  0.837427  0.005086  1
  Ni  Ni15  1  0.500000  0.301494  0.428735  1
  Ni  Ni16  1  0.500000  0.698506  0.428735  1
  Ni  Ni17  1  0.000000  0.198377  0.572236  1
  Ni  Ni18  1  0.000000  0.801623  0.572236  1
  Ni  Ni19  1  0.500000  0.879237  0.710902  1
  Ni  Ni20  1  0.500000  0.120763  0.710902  1
  Ni  Ni21  1  0.000000  0.619897  0.289394  1
  Ni  Ni22  1  0.000000  0.380103  0.289394  1
  P  P23  1  0.500000  0.500000  0.878611  1
  P  P24  1  0.000000  0.000000  0.124740  1
  P  P25  1  0.500000  0.500000  0.348623  1
  P  P26  1  0.000000  0.000000  0.655026  1
  P  P27  1  0.500000  0.313065  0.615028  1
  P  P28  1  0.500000  0.686935  0.615028  1
  P  P29  1  0.000000  0.185951  0.387028  1
  P  P30  1  0.000000  0.814049  0.387028  1
  P  P31  1  0.500000  0.851016  0.891729  1
  P  P32  1  0.500000  0.148984  0.891729  1
  P  P33  1  0.000000  0.657356  0.105503  1
  P  P34  1  0.000000  0.342644  0.105503  1
  W  W35  1  0.500000  0.500000  0.152924  1
