# generated using pymatgen
data_Dy9Lu3Co4SnRh
_symmetry_space_group_name_H-M   'P 1'
_cell_length_a   8.23952429
_cell_length_b   8.24495965
_cell_length_c   8.23952338
_cell_angle_alpha   111.04899715
_cell_angle_beta   110.56063011
_cell_angle_gamma   106.81053421
_symmetry_Int_Tables_number   1
_chemical_formula_structural   Dy9Lu3Co4SnRh
_chemical_formula_sum   'Dy9 Lu3 Co4 Sn1 Rh1'
_cell_volume   430.33601994
_cell_formula_units_Z   1
loop_
 _symmetry_equiv_pos_site_id
 _symmetry_equiv_pos_as_xyz
  1  'x, y, z'
loop_
 _atom_site_type_symbol
 _atom_site_label
 _atom_site_symmetry_multiplicity
 _atom_site_fract_x
 _atom_site_fract_y
 _atom_site_fract_z
 _atom_site_occupancy
  Dy  Dy0  1  0.410374  0.213156  0.195650  1
  Dy  Dy1  1  0.591441  0.786885  0.805785  1
  Dy  Dy2  1  0.017507  0.213156  0.802784  1
  Dy  Dy3  1  0.981100  0.786885  0.195443  1
  Dy  Dy4  1  0.186163  0.289258  0.477456  1
  Dy  Dy5  1  0.815097  0.710098  0.523437  1
  Dy  Dy6  1  0.186659  0.710098  0.895000  1
  Dy  Dy7  1  0.811802  0.289258  0.103095  1
  Dy  Dy8  1  0.313959  0.620536  0.306577  1
  Lu  Lu9  1  0.684869  0.376588  0.691719  1
  Lu  Lu10  1  0.315505  0.007229  0.691725  1
  Lu  Lu11  1  0.685133  0.993595  0.308462  1
  Co  Co12  1  0.379050  0.002387  0.379296  1
  Co  Co13  1  0.623091  0.002387  0.623337  1
  Co  Co14  1  0.111130  0.611807  0.500677  1
  Co  Co15  1  0.886340  0.385800  0.499460  1
  Sn  Sn16  1  0.500397  0.499036  0.998638  1
  Rh  Rh17  1  0.000384  0.001842  0.001459  1
