# generated using pymatgen
data_Lu6Co2Si5Ge
_symmetry_space_group_name_H-M   'P 1'
_cell_length_a   5.51722083
_cell_length_b   5.51722055
_cell_length_c   13.23987412
_cell_angle_alpha   70.80064644
_cell_angle_beta   70.80064671
_cell_angle_gamma   43.65034981
_symmetry_Int_Tables_number   1
_chemical_formula_structural   Lu6Co2Si5Ge
_chemical_formula_sum   'Lu6 Co2 Si5 Ge1'
_cell_volume   260.14567214
_cell_formula_units_Z   1
loop_
 _symmetry_equiv_pos_site_id
 _symmetry_equiv_pos_as_xyz
  1  'x, y, z'
loop_
 _atom_site_type_symbol
 _atom_site_label
 _atom_site_symmetry_multiplicity
 _atom_site_fract_x
 _atom_site_fract_y
 _atom_site_fract_z
 _atom_site_occupancy
  Lu  Lu0  1  0.744196  0.744196  0.772126  1
  Lu  Lu1  1  0.398277  0.398277  0.922283  1
  Lu  Lu2  1  0.600521  0.600521  0.081818  1
  Lu  Lu3  1  0.475714  0.475714  0.379126  1
  Lu  Lu4  1  0.253553  0.253553  0.228018  1
  Lu  Lu5  1  0.525958  0.525958  0.617198  1
  Co  Co6  1  0.753377  0.753377  0.416575  1
  Co  Co7  1  0.251730  0.251730  0.579151  1
  Si  Si8  1  0.137961  0.137961  0.454164  1
  Si  Si9  1  0.864446  0.864446  0.544170  1
  Si  Si10  1  0.948150  0.948150  0.242297  1
  Si  Si11  1  0.883180  0.883180  0.077250  1
  Si  Si12  1  0.118610  0.118610  0.926979  1
  Ge  Ge13  1  0.044330  0.044330  0.758847  1
