# generated using pymatgen
data_Lu12InCuTc3
_symmetry_space_group_name_H-M   'P 1'
_cell_length_a   8.18665738
_cell_length_b   8.18665630
_cell_length_c   8.18665726
_cell_angle_alpha   106.75758842
_cell_angle_beta   112.82299573
_cell_angle_gamma   108.89236424
_symmetry_Int_Tables_number   1
_chemical_formula_structural   Lu12InCuTc3
_chemical_formula_sum   'Lu12 In1 Cu1 Tc3'
_cell_volume   421.14621487
_cell_formula_units_Z   1
loop_
 _symmetry_equiv_pos_site_id
 _symmetry_equiv_pos_as_xyz
  1  'x, y, z'
loop_
 _atom_site_type_symbol
 _atom_site_label
 _atom_site_symmetry_multiplicity
 _atom_site_fract_x
 _atom_site_fract_y
 _atom_site_fract_z
 _atom_site_occupancy
  Lu  Lu0  1  0.316740  0.318948  0.635689  1
  Lu  Lu1  1  0.683260  0.681052  0.364311  1
  Lu  Lu2  1  0.683260  0.318948  0.002207  1
  Lu  Lu3  1  0.316740  0.681052  0.997793  1
  Lu  Lu4  1  0.183883  0.418843  0.234960  1
  Lu  Lu5  1  0.816117  0.581157  0.765040  1
  Lu  Lu6  1  0.183883  0.948922  0.765040  1
  Lu  Lu7  1  0.924130  0.186355  0.737776  1
  Lu  Lu8  1  0.816117  0.051078  0.234960  1
  Lu  Lu9  1  0.075870  0.813645  0.262224  1
  Lu  Lu10  1  0.448579  0.186355  0.262224  1
  Lu  Lu11  1  0.551421  0.813645  0.737776  1
  In  In12  1  0.000000  0.500000  0.500000  1
  Cu  Cu13  1  0.500000  0.000000  0.500000  1
  Tc  Tc14  1  0.339475  0.339475  0.000000  1
  Tc  Tc15  1  0.660525  0.660525  0.000000  1
  Tc  Tc16  1  0.000000  0.000000  0.000000  1
