# generated using pymatgen
data_Tb2Dy6Re13B12
_symmetry_space_group_name_H-M   'P 1'
_cell_length_a   7.79961267
_cell_length_b   7.79961412
_cell_length_c   7.79961289
_cell_angle_alpha   86.27224180
_cell_angle_beta   86.27224310
_cell_angle_gamma   86.27223862
_symmetry_Int_Tables_number   1
_chemical_formula_structural   Tb2Dy6Re13B12
_chemical_formula_sum   'Tb2 Dy6 Re13 B12'
_cell_volume   471.59454139
_cell_formula_units_Z   1
loop_
 _symmetry_equiv_pos_site_id
 _symmetry_equiv_pos_as_xyz
  1  'x, y, z'
loop_
 _atom_site_type_symbol
 _atom_site_label
 _atom_site_symmetry_multiplicity
 _atom_site_fract_x
 _atom_site_fract_y
 _atom_site_fract_z
 _atom_site_occupancy
  Tb  Tb0  1  0.641259  0.641259  0.641259  1
  Tb  Tb1  1  0.358741  0.358741  0.358741  1
  Dy  Dy2  1  0.188691  0.188691  0.687520  1
  Dy  Dy3  1  0.687520  0.188691  0.188691  1
  Dy  Dy4  1  0.188691  0.687520  0.188691  1
  Dy  Dy5  1  0.811309  0.811309  0.312480  1
  Dy  Dy6  1  0.312480  0.811309  0.811309  1
  Dy  Dy7  1  0.811309  0.312480  0.811309  1
  Re  Re8  1  0.000000  0.000000  0.000000  1
  Re  Re9  1  0.596624  0.063461  0.596624  1
  Re  Re10  1  0.596624  0.596624  0.063461  1
  Re  Re11  1  0.063461  0.596624  0.596624  1
  Re  Re12  1  0.403376  0.936539  0.403376  1
  Re  Re13  1  0.403376  0.403376  0.936539  1
  Re  Re14  1  0.936539  0.403376  0.403376  1
  Re  Re15  1  0.923059  0.923059  0.670881  1
  Re  Re16  1  0.670881  0.923059  0.923059  1
  Re  Re17  1  0.923059  0.670881  0.923059  1
  Re  Re18  1  0.076941  0.076941  0.329119  1
  Re  Re19  1  0.329119  0.076941  0.076941  1
  Re  Re20  1  0.076941  0.329119  0.076941  1
  B  B21  1  0.152084  0.847916  0.500000  1
  B  B22  1  0.500000  0.152084  0.847916  1
  B  B23  1  0.847916  0.500000  0.152084  1
  B  B24  1  0.500000  0.847916  0.152084  1
  B  B25  1  0.152084  0.500000  0.847916  1
  B  B26  1  0.847916  0.152084  0.500000  1
  B  B27  1  0.671773  0.500000  0.328227  1
  B  B28  1  0.328227  0.671773  0.500000  1
  B  B29  1  0.500000  0.328227  0.671773  1
  B  B30  1  0.328227  0.500000  0.671773  1
  B  B31  1  0.671773  0.328227  0.500000  1
  B  B32  1  0.500000  0.671773  0.328227  1
