# generated using pymatgen
data_Hf4Al7Re
_symmetry_space_group_name_H-M   'P 1'
_cell_length_a   5.27743000
_cell_length_b   5.27742998
_cell_length_c   8.62557300
_cell_angle_alpha   90.00000000
_cell_angle_beta   90.00000000
_cell_angle_gamma   119.99998759
_symmetry_Int_Tables_number   1
_chemical_formula_structural   Hf4Al7Re
_chemical_formula_sum   'Hf4 Al7 Re1'
_cell_volume   208.04802738
_cell_formula_units_Z   1
loop_
 _symmetry_equiv_pos_site_id
 _symmetry_equiv_pos_as_xyz
  1  'x, y, z'
loop_
 _atom_site_type_symbol
 _atom_site_label
 _atom_site_symmetry_multiplicity
 _atom_site_fract_x
 _atom_site_fract_y
 _atom_site_fract_z
 _atom_site_occupancy
  Hf  Hf0  1  0.333333  0.666667  0.053589  1
  Hf  Hf1  1  0.666667  0.333333  0.565244  1
  Hf  Hf2  1  0.666667  0.333333  0.946411  1
  Hf  Hf3  1  0.333333  0.666667  0.434756  1
  Al  Al4  1  0.000000  0.000000  0.000000  1
  Al  Al5  1  0.830195  0.660390  0.255795  1
  Al  Al6  1  0.169805  0.830195  0.744205  1
  Al  Al7  1  0.660390  0.830195  0.744205  1
  Al  Al8  1  0.339610  0.169805  0.255795  1
  Al  Al9  1  0.830195  0.169805  0.255795  1
  Al  Al10  1  0.169805  0.339610  0.744205  1
  Re  Re11  1  0.000000  0.000000  0.500000  1
