# generated using pymatgen
data_MnVNiIr
_symmetry_space_group_name_H-M   'P 1'
_cell_length_a   3.64453300
_cell_length_b   3.72655600
_cell_length_c   3.72656000
_cell_angle_alpha   90.00000000
_cell_angle_beta   90.00000000
_cell_angle_gamma   90.00000000
_symmetry_Int_Tables_number   1
_chemical_formula_structural   MnVNiIr
_chemical_formula_sum   'Mn1 V1 Ni1 Ir1'
_cell_volume   50.61248451
_cell_formula_units_Z   1
loop_
 _symmetry_equiv_pos_site_id
 _symmetry_equiv_pos_as_xyz
  1  'x, y, z'
loop_
 _atom_site_type_symbol
 _atom_site_label
 _atom_site_symmetry_multiplicity
 _atom_site_fract_x
 _atom_site_fract_y
 _atom_site_fract_z
 _atom_site_occupancy
  Mn  Mn0  1  0.000000  0.000000  0.000000  1
  V  V1  1  0.499999  0.499999  0.000000  1
  Ni  Ni2  1  0.499999  0.000000  0.500001  1
  Ir  Ir3  1  0.000000  0.499999  0.500001  1
