# generated using pymatgen
data_Be8Ni4Mo11WC2
_symmetry_space_group_name_H-M   'P 1'
_cell_length_a   7.55367350
_cell_length_b   7.55244046
_cell_length_c   7.55243932
_cell_angle_alpha   60.02605950
_cell_angle_beta   59.99459755
_cell_angle_gamma   59.99460079
_symmetry_Int_Tables_number   1
_chemical_formula_structural   Be8Ni4Mo11WC2
_chemical_formula_sum   'Be8 Ni4 Mo11 W1 C2'
_cell_volume   304.69670168
_cell_formula_units_Z   1
loop_
 _symmetry_equiv_pos_site_id
 _symmetry_equiv_pos_as_xyz
  1  'x, y, z'
loop_
 _atom_site_type_symbol
 _atom_site_label
 _atom_site_symmetry_multiplicity
 _atom_site_fract_x
 _atom_site_fract_y
 _atom_site_fract_z
 _atom_site_occupancy
  Be  Be0  1  0.328282  0.328132  0.015303  1
  Be  Be1  1  0.328118  0.328395  0.328395  1
  Be  Be2  1  0.235234  0.921631  0.921631  1
  Be  Be3  1  0.921505  0.921631  0.921631  1
  Be  Be4  1  0.015092  0.328395  0.328395  1
  Be  Be5  1  0.328282  0.015303  0.328132  1
  Be  Be6  1  0.921862  0.921803  0.234474  1
  Be  Be7  1  0.921862  0.234474  0.921803  1
  Ni  Ni8  1  0.125214  0.625295  0.124278  1
  Ni  Ni9  1  0.125214  0.124278  0.625295  1
  Ni  Ni10  1  0.625247  0.124949  0.124949  1
  Ni  Ni11  1  0.124855  0.124949  0.124949  1
  Mo  Mo12  1  0.700461  0.700571  0.299651  1
  Mo  Mo13  1  0.700461  0.299651  0.700571  1
  Mo  Mo14  1  0.299317  0.700571  0.299651  1
  Mo  Mo15  1  0.549799  0.950067  0.549641  1
  Mo  Mo16  1  0.549576  0.950424  0.950424  1
  Mo  Mo17  1  0.950526  0.549474  0.549474  1
  Mo  Mo18  1  0.950493  0.549641  0.950067  1
  Mo  Mo19  1  0.299317  0.299651  0.700571  1
  Mo  Mo20  1  0.549799  0.549641  0.950067  1
  Mo  Mo21  1  0.950493  0.950067  0.549641  1
  Mo  Mo22  1  0.699779  0.300221  0.300221  1
  W  W23  1  0.299386  0.700614  0.700614  1
  C  C24  1  0.499882  0.500118  0.500118  1
  C  C25  1  0.749943  0.750057  0.750057  1
