# generated using pymatgen
data_Dy16Ho3ThSn16
_symmetry_space_group_name_H-M   'P 1'
_cell_length_a   8.06052266
_cell_length_b   8.18026487
_cell_length_c   15.47449800
_cell_angle_alpha   90.03112643
_cell_angle_beta   89.67752785
_cell_angle_gamma   89.85388172
_symmetry_Int_Tables_number   1
_chemical_formula_structural   Dy16Ho3ThSn16
_chemical_formula_sum   'Dy16 Ho3 Th1 Sn16'
_cell_volume   1020.32559353
_cell_formula_units_Z   1
loop_
 _symmetry_equiv_pos_site_id
 _symmetry_equiv_pos_as_xyz
  1  'x, y, z'
loop_
 _atom_site_type_symbol
 _atom_site_label
 _atom_site_symmetry_multiplicity
 _atom_site_fract_x
 _atom_site_fract_y
 _atom_site_fract_z
 _atom_site_occupancy
  Dy  Dy0  1  0.366586  0.836322  0.876892  1
  Dy  Dy1  1  0.868984  0.663615  0.621234  1
  Dy  Dy2  1  0.629970  0.161946  0.377423  1
  Dy  Dy3  1  0.133044  0.337305  0.123376  1
  Dy  Dy4  1  0.633523  0.162351  0.123423  1
  Dy  Dy5  1  0.131298  0.338584  0.378014  1
  Dy  Dy6  1  0.370311  0.838317  0.622349  1
  Dy  Dy7  1  0.867144  0.661488  0.877433  1
  Dy  Dy8  1  0.523308  0.322237  0.903110  1
  Dy  Dy9  1  0.025908  0.178659  0.598775  1
  Dy  Dy10  1  0.477023  0.678232  0.401947  1
  Dy  Dy11  1  0.979223  0.821288  0.097938  1
  Dy  Dy12  1  0.479066  0.677886  0.097502  1
  Dy  Dy13  1  0.976610  0.821698  0.401992  1
  Dy  Dy14  1  0.522263  0.323363  0.596119  1
  Dy  Dy15  1  0.198433  0.501573  0.749015  1
  Ho  Ho16  1  0.698630  0.996496  0.748701  1
  Ho  Ho17  1  0.800980  0.497220  0.250898  1
  Ho  Ho18  1  0.301154  0.002616  0.250232  1
  Th  Th19  1  0.017023  0.179460  0.903838  1
  Sn  Sn20  1  0.294901  0.035393  0.042585  1
  Sn  Sn21  1  0.790622  0.463455  0.457758  1
  Sn  Sn22  1  0.710268  0.966948  0.542122  1
  Sn  Sn23  1  0.208254  0.536175  0.958182  1
  Sn  Sn24  1  0.702486  0.959040  0.959322  1
  Sn  Sn25  1  0.208959  0.538325  0.541583  1
  Sn  Sn26  1  0.290908  0.036034  0.458035  1
  Sn  Sn27  1  0.793734  0.461601  0.041737  1
  Sn  Sn28  1  0.565581  0.619396  0.749593  1
  Sn  Sn29  1  0.065344  0.879760  0.750621  1
  Sn  Sn30  1  0.434447  0.381983  0.250178  1
  Sn  Sn31  1  0.934626  0.118427  0.250914  1
  Sn  Sn32  1  0.334013  0.149066  0.750056  1
  Sn  Sn33  1  0.828086  0.354072  0.747654  1
  Sn  Sn34  1  0.668875  0.850652  0.249579  1
  Sn  Sn35  1  0.168419  0.649020  0.249876  1
