# generated using pymatgen
data_Np4Al11GaPd
_symmetry_space_group_name_H-M   'P 1'
_cell_length_a   7.46932259
_cell_length_b   7.46932259
_cell_length_c   7.46932294
_cell_angle_alpha   109.74190668
_cell_angle_beta   109.74190731
_cell_angle_gamma   108.93119388
_symmetry_Int_Tables_number   1
_chemical_formula_structural   Np4Al11GaPd
_chemical_formula_sum   'Np4 Al11 Ga1 Pd1'
_cell_volume   320.76935796
_cell_formula_units_Z   1
loop_
 _symmetry_equiv_pos_site_id
 _symmetry_equiv_pos_as_xyz
  1  'x, y, z'
loop_
 _atom_site_type_symbol
 _atom_site_label
 _atom_site_symmetry_multiplicity
 _atom_site_fract_x
 _atom_site_fract_y
 _atom_site_fract_z
 _atom_site_occupancy
  Np  Np0  1  0.501792  0.501792  0.502676  1
  Np  Np1  1  0.999116  0.999116  0.497324  1
  Np  Np2  1  0.999116  0.501792  0.000000  1
  Np  Np3  1  0.501792  0.999116  0.000000  1
  Al  Al4  1  0.498776  0.748647  0.249871  1
  Al  Al5  1  0.498776  0.248905  0.750129  1
  Al  Al6  1  0.248905  0.498776  0.750129  1
  Al  Al7  1  0.748647  0.498776  0.249871  1
  Al  Al8  1  0.750061  0.250061  0.500000  1
  Al  Al9  1  0.250061  0.750061  0.500000  1
  Al  Al10  1  0.001560  0.292941  0.291381  1
  Al  Al11  1  0.001560  0.710179  0.708619  1
  Al  Al12  1  0.292941  0.001560  0.291381  1
  Al  Al13  1  0.710179  0.001560  0.708619  1
  Al  Al14  1  0.289849  0.289849  0.000000  1
  Ga  Ga15  1  0.705366  0.705366  0.000000  1
  Pd  Pd16  1  0.001503  0.001503  0.000000  1
