# generated using pymatgen
data_Ta6NbB8OsRu5
_symmetry_space_group_name_H-M   'P 1'
_cell_length_a   9.60608316
_cell_length_b   9.61163141
_cell_length_c   3.12344300
_cell_angle_alpha   90.00000000
_cell_angle_beta   90.00000000
_cell_angle_gamma   120.04663838
_symmetry_Int_Tables_number   1
_chemical_formula_structural   Ta6NbB8OsRu5
_chemical_formula_sum   'Ta6 Nb1 B8 Os1 Ru5'
_cell_volume   249.63379207
_cell_formula_units_Z   1
loop_
 _symmetry_equiv_pos_site_id
 _symmetry_equiv_pos_as_xyz
  1  'x, y, z'
loop_
 _atom_site_type_symbol
 _atom_site_label
 _atom_site_symmetry_multiplicity
 _atom_site_fract_x
 _atom_site_fract_y
 _atom_site_fract_z
 _atom_site_occupancy
  Ta  Ta0  1  0.724239  0.637599  0.000000  1
  Ta  Ta1  1  0.362369  0.087490  0.000000  1
  Ta  Ta2  1  0.913406  0.275149  0.000000  1
  Ta  Ta3  1  0.275443  0.362439  0.000000  1
  Ta  Ta4  1  0.638263  0.913464  0.000000  1
  Ta  Ta5  1  0.085183  0.724185  0.000000  1
  Nb  Nb6  1  0.000438  0.999932  0.000000  1
  B  B7  1  0.666459  0.333148  0.000000  1
  B  B8  1  0.333458  0.667400  0.000000  1
  B  B9  1  0.154092  0.934110  0.500000  1
  B  B10  1  0.064742  0.217651  0.500000  1
  B  B11  1  0.781872  0.846433  0.500000  1
  B  B12  1  0.847149  0.065659  0.500000  1
  B  B13  1  0.934758  0.781942  0.500000  1
  B  B14  1  0.219328  0.154688  0.500000  1
  Os  Os15  1  0.360211  0.846248  0.500000  1
  Ru  Ru16  1  0.153138  0.512777  0.500000  1
  Ru  Ru17  1  0.486332  0.639606  0.500000  1
  Ru  Ru18  1  0.638808  0.153462  0.500000  1
  Ru  Ru19  1  0.846455  0.485585  0.500000  1
  Ru  Ru20  1  0.513859  0.361029  0.500000  1
