# generated using pymatgen
data_Li2TbY7(SiB4)4
_symmetry_space_group_name_H-M   'P 1'
_cell_length_a   7.16120901
_cell_length_b   7.16120901
_cell_length_c   7.87035001
_cell_angle_alpha   90.00439074
_cell_angle_beta   89.99560926
_cell_angle_gamma   89.99795187
_symmetry_Int_Tables_number   1
_chemical_formula_structural   Li2TbY7(SiB4)4
_chemical_formula_sum   'Li2 Tb1 Y7 Si4 B16'
_cell_volume   403.61448357
_cell_formula_units_Z   1
loop_
 _symmetry_equiv_pos_site_id
 _symmetry_equiv_pos_as_xyz
  1  'x, y, z'
loop_
 _atom_site_type_symbol
 _atom_site_label
 _atom_site_symmetry_multiplicity
 _atom_site_fract_x
 _atom_site_fract_y
 _atom_site_fract_z
 _atom_site_occupancy
  Li  Li0  1  0.999959  0.999932  0.500065  1
  Li  Li1  1  0.500068  0.500041  0.500065  1
  Tb  Tb2  1  0.183434  0.316566  0.236102  1
  Y  Y3  1  0.683348  0.183364  0.235962  1
  Y  Y4  1  0.316626  0.816586  0.764025  1
  Y  Y5  1  0.316636  0.816652  0.235962  1
  Y  Y6  1  0.816596  0.683404  0.235976  1
  Y  Y7  1  0.816596  0.683404  0.764008  1
  Y  Y8  1  0.683414  0.183374  0.764025  1
  Y  Y9  1  0.183396  0.316604  0.763990  1
  Si  Si10  1  0.114680  0.614948  0.500177  1
  Si  Si11  1  0.885052  0.385320  0.500177  1
  Si  Si12  1  0.385380  0.114620  0.500222  1
  Si  Si13  1  0.614872  0.885128  0.500087  1
  B  B14  1  0.173958  0.039842  0.999924  1
  B  B15  1  0.825949  0.960087  0.999926  1
  B  B16  1  0.960101  0.173985  0.999933  1
  B  B17  1  0.326015  0.539899  0.999933  1
  B  B18  1  0.039847  0.825944  0.999907  1
  B  B19  1  0.674056  0.460153  0.999907  1
  B  B20  1  0.539913  0.674051  0.999926  1
  B  B21  1  0.460158  0.326042  0.999924  1
  B  B22  1  0.088960  0.588999  0.000002  1
  B  B23  1  0.911001  0.411040  0.000002  1
  B  B24  1  0.410967  0.089033  0.000110  1
  B  B25  1  0.588979  0.911021  0.999996  1
  B  B26  1  0.999962  0.999915  0.160255  1
  B  B27  1  0.999950  0.999961  0.839579  1
  B  B28  1  0.500039  0.500050  0.839579  1
  B  B29  1  0.500085  0.500038  0.160255  1
