# generated using pymatgen
data_Tb2B2MoRu5
_symmetry_space_group_name_H-M   'P 1'
_cell_length_a   9.62858000
_cell_length_b   9.62858000
_cell_length_c   3.12985900
_cell_angle_alpha   90.00000000
_cell_angle_beta   90.00000000
_cell_angle_gamma   90.00000000
_symmetry_Int_Tables_number   1
_chemical_formula_structural   Tb2B2MoRu5
_chemical_formula_sum   'Tb4 B4 Mo2 Ru10'
_cell_volume   290.16782827
_cell_formula_units_Z   2
loop_
 _symmetry_equiv_pos_site_id
 _symmetry_equiv_pos_as_xyz
  1  'x, y, z'
loop_
 _atom_site_type_symbol
 _atom_site_label
 _atom_site_symmetry_multiplicity
 _atom_site_fract_x
 _atom_site_fract_y
 _atom_site_fract_z
 _atom_site_occupancy
  Tb  Tb0  1  0.675440  0.175440  0.000000  1
  Tb  Tb1  1  0.324560  0.824560  0.000000  1
  Tb  Tb2  1  0.175440  0.324560  0.000000  1
  Tb  Tb3  1  0.824560  0.675440  0.000000  1
  B  B4  1  0.120376  0.620376  0.000000  1
  B  B5  1  0.879624  0.379624  0.000000  1
  B  B6  1  0.620376  0.879624  0.000000  1
  B  B7  1  0.379624  0.120376  0.000000  1
  Mo  Mo8  1  0.000000  0.000000  0.000000  1
  Mo  Mo9  1  0.500000  0.500000  0.000000  1
  Ru  Ru10  1  0.216352  0.069661  0.500000  1
  Ru  Ru11  1  0.783648  0.930339  0.500000  1
  Ru  Ru12  1  0.069661  0.783648  0.500000  1
  Ru  Ru13  1  0.716352  0.430339  0.500000  1
  Ru  Ru14  1  0.930339  0.216352  0.500000  1
  Ru  Ru15  1  0.283648  0.569661  0.500000  1
  Ru  Ru16  1  0.569661  0.716352  0.500000  1
  Ru  Ru17  1  0.430339  0.283648  0.500000  1
  Ru  Ru18  1  0.500000  0.000000  0.500000  1
  Ru  Ru19  1  0.000000  0.500000  0.500000  1
