# generated using pymatgen
data_YEr2Tm2(In2Pt)2
_symmetry_space_group_name_H-M   'P 1'
_cell_length_a   3.64022000
_cell_length_b   8.07376700
_cell_length_c   18.12692000
_cell_angle_alpha   90.00000000
_cell_angle_beta   90.00000000
_cell_angle_gamma   90.00000000
_symmetry_Int_Tables_number   1
_chemical_formula_structural   YEr2Tm2(In2Pt)2
_chemical_formula_sum   'Y2 Er4 Tm4 In8 Pt4'
_cell_volume   532.75540132
_cell_formula_units_Z   2
loop_
 _symmetry_equiv_pos_site_id
 _symmetry_equiv_pos_as_xyz
  1  'x, y, z'
loop_
 _atom_site_type_symbol
 _atom_site_label
 _atom_site_symmetry_multiplicity
 _atom_site_fract_x
 _atom_site_fract_y
 _atom_site_fract_z
 _atom_site_occupancy
  Y  Y0  1  0.000000  0.000000  0.000000  1
  Y  Y1  1  0.000000  0.500000  0.500000  1
  Er  Er2  1  0.000000  0.243403  0.220676  1
  Er  Er3  1  0.000000  0.756597  0.779324  1
  Er  Er4  1  0.000000  0.256597  0.720676  1
  Er  Er5  1  0.000000  0.743403  0.279324  1
  Tm  Tm6  1  0.000000  0.116507  0.413938  1
  Tm  Tm7  1  0.000000  0.883493  0.586062  1
  Tm  Tm8  1  0.000000  0.383493  0.913938  1
  Tm  Tm9  1  0.000000  0.616507  0.086062  1
  In  In10  1  0.500000  0.422669  0.351152  1
  In  In11  1  0.500000  0.577331  0.648848  1
  In  In12  1  0.500000  0.077331  0.851152  1
  In  In13  1  0.500000  0.922669  0.148848  1
  In  In14  1  0.500000  0.293687  0.066541  1
  In  In15  1  0.500000  0.706313  0.933459  1
  In  In16  1  0.500000  0.206313  0.566541  1
  In  In17  1  0.500000  0.793687  0.433459  1
  Pt  Pt18  1  0.500000  0.025059  0.304177  1
  Pt  Pt19  1  0.500000  0.974941  0.695823  1
  Pt  Pt20  1  0.500000  0.474941  0.804177  1
  Pt  Pt21  1  0.500000  0.525059  0.195823  1
