# generated using pymatgen
data_Dy5In5Ir
_symmetry_space_group_name_H-M   'P 1'
_cell_length_a   3.61913700
_cell_length_b   8.33474456
_cell_length_c   18.47643500
_cell_angle_alpha   88.93250612
_cell_angle_beta   90.00000000
_cell_angle_gamma   90.00000000
_symmetry_Int_Tables_number   1
_chemical_formula_structural   Dy5In5Ir
_chemical_formula_sum   'Dy10 In10 Ir2'
_cell_volume   557.23721678
_cell_formula_units_Z   2
loop_
 _symmetry_equiv_pos_site_id
 _symmetry_equiv_pos_as_xyz
  1  'x, y, z'
loop_
 _atom_site_type_symbol
 _atom_site_label
 _atom_site_symmetry_multiplicity
 _atom_site_fract_x
 _atom_site_fract_y
 _atom_site_fract_z
 _atom_site_occupancy
  Dy  Dy0  1  0.000000  0.500000  0.500000  1
  Dy  Dy1  1  0.000000  0.000000  0.000000  1
  Dy  Dy2  1  0.000000  0.700993  0.276152  1
  Dy  Dy3  1  0.000000  0.299007  0.723848  1
  Dy  Dy4  1  0.000000  0.732787  0.787243  1
  Dy  Dy5  1  0.000000  0.267213  0.212757  1
  Dy  Dy6  1  0.000000  0.614190  0.083686  1
  Dy  Dy7  1  0.000000  0.385810  0.916314  1
  Dy  Dy8  1  0.000000  0.874205  0.574117  1
  Dy  Dy9  1  0.000000  0.125795  0.425883  1
  In  In10  1  0.500000  0.707973  0.934494  1
  In  In11  1  0.500000  0.292027  0.065506  1
  In  In12  1  0.500000  0.788658  0.429967  1
  In  In13  1  0.500000  0.211342  0.570033  1
  In  In14  1  0.500000  0.582882  0.647452  1
  In  In15  1  0.500000  0.417118  0.352548  1
  In  In16  1  0.500000  0.913048  0.145594  1
  In  In17  1  0.500000  0.086952  0.854406  1
  In  In18  1  0.500000  0.982124  0.699506  1
  In  In19  1  0.500000  0.017876  0.300494  1
  Ir  Ir20  1  0.500000  0.520866  0.193683  1
  Ir  Ir21  1  0.500000  0.479134  0.806317  1
