# generated using pymatgen
data_Nd3BeAu5
_symmetry_space_group_name_H-M   'P 1'
_cell_length_a   8.47227382
_cell_length_b   8.47227409
_cell_length_c   8.47227500
_cell_angle_alpha   126.12982710
_cell_angle_beta   125.15445783
_cell_angle_gamma   80.47955094
_symmetry_Int_Tables_number   1
_chemical_formula_structural   Nd3BeAu5
_chemical_formula_sum   'Nd6 Be2 Au10'
_cell_volume   387.38376771
_cell_formula_units_Z   2
loop_
 _symmetry_equiv_pos_site_id
 _symmetry_equiv_pos_as_xyz
  1  'x, y, z'
loop_
 _atom_site_type_symbol
 _atom_site_label
 _atom_site_symmetry_multiplicity
 _atom_site_fract_x
 _atom_site_fract_y
 _atom_site_fract_z
 _atom_site_occupancy
  Nd  Nd0  1  0.228701  0.450207  0.778493  1
  Nd  Nd1  1  0.771299  0.549793  0.221507  1
  Nd  Nd2  1  0.828287  0.049793  0.778493  1
  Nd  Nd3  1  0.171713  0.950207  0.221507  1
  Nd  Nd4  1  0.401706  0.250001  0.151707  1
  Nd  Nd5  1  0.598294  0.749999  0.848293  1
  Be  Be6  1  0.798521  0.250001  0.548522  1
  Be  Be7  1  0.201479  0.749999  0.451478  1
  Au  Au8  1  0.170224  0.413661  0.364452  1
  Au  Au9  1  0.829776  0.194227  0.243436  1
  Au  Au10  1  0.450791  0.086340  0.756564  1
  Au  Au11  1  0.549208  0.305772  0.635548  1
  Au  Au12  1  0.000000  0.500000  0.000000  1
  Au  Au13  1  0.000000  0.000000  0.500000  1
  Au  Au14  1  0.450792  0.694228  0.364452  1
  Au  Au15  1  0.549209  0.913660  0.243436  1
  Au  Au16  1  0.170224  0.805773  0.756564  1
  Au  Au17  1  0.829776  0.586339  0.635548  1
