# generated using pymatgen
data_Th6Mg3Cd20P
_symmetry_space_group_name_H-M   'P 1'
_cell_length_a   9.97687893
_cell_length_b   10.01974035
_cell_length_c   10.01974122
_cell_angle_alpha   60.32079948
_cell_angle_beta   60.47723451
_cell_angle_gamma   60.47723264
_symmetry_Int_Tables_number   1
_chemical_formula_structural   Th6Mg3Cd20P
_chemical_formula_sum   'Th6 Mg3 Cd20 P1'
_cell_volume   715.06398039
_cell_formula_units_Z   1
loop_
 _symmetry_equiv_pos_site_id
 _symmetry_equiv_pos_as_xyz
  1  'x, y, z'
loop_
 _atom_site_type_symbol
 _atom_site_label
 _atom_site_symmetry_multiplicity
 _atom_site_fract_x
 _atom_site_fract_y
 _atom_site_fract_z
 _atom_site_occupancy
  Th  Th0  1  0.796970  0.797606  0.205221  1
  Th  Th1  1  0.203030  0.794779  0.202394  1
  Th  Th2  1  0.796585  0.201077  0.201077  1
  Th  Th3  1  0.203030  0.202394  0.794779  1
  Th  Th4  1  0.796970  0.205221  0.797606  1
  Th  Th5  1  0.203415  0.798923  0.798923  1
  Mg  Mg6  1  0.000000  0.000000  0.500000  1
  Mg  Mg7  1  0.000000  0.500000  0.000000  1
  Mg  Mg8  1  0.500000  0.500000  0.500000  1
  Cd  Cd9  1  0.835483  0.834253  0.499336  1
  Cd  Cd10  1  0.835483  0.499336  0.834253  1
  Cd  Cd11  1  0.501476  0.832997  0.832997  1
  Cd  Cd12  1  0.837069  0.833263  0.833263  1
  Cd  Cd13  1  0.164517  0.165747  0.500664  1
  Cd  Cd14  1  0.164517  0.500664  0.165747  1
  Cd  Cd15  1  0.498524  0.167003  0.167003  1
  Cd  Cd16  1  0.162931  0.166737  0.166737  1
  Cd  Cd17  1  0.625944  0.619715  0.138889  1
  Cd  Cd18  1  0.625944  0.138889  0.619715  1
  Cd  Cd19  1  0.139324  0.623122  0.623122  1
  Cd  Cd20  1  0.620898  0.619490  0.619490  1
  Cd  Cd21  1  0.374056  0.380285  0.861111  1
  Cd  Cd22  1  0.374056  0.861111  0.380285  1
  Cd  Cd23  1  0.860676  0.376878  0.376878  1
  Cd  Cd24  1  0.379102  0.380510  0.380510  1
  Cd  Cd25  1  0.500000  0.000000  0.500000  1
  Cd  Cd26  1  0.000000  0.500000  0.500000  1
  Cd  Cd27  1  0.500000  0.500000  0.000000  1
  Cd  Cd28  1  0.500000  0.000000  0.000000  1
  P  P29  1  0.000000  0.000000  0.000000  1
