# generated using pymatgen
data_Sr2ZnSn4Au3
_symmetry_space_group_name_H-M   'P 1'
_cell_length_a   4.70630300
_cell_length_b   4.70630300
_cell_length_c   11.64621900
_cell_angle_alpha   90.00000000
_cell_angle_beta   90.00000000
_cell_angle_gamma   90.00000000
_symmetry_Int_Tables_number   1
_chemical_formula_structural   Sr2ZnSn4Au3
_chemical_formula_sum   'Sr2 Zn1 Sn4 Au3'
_cell_volume   257.95545790
_cell_formula_units_Z   1
loop_
 _symmetry_equiv_pos_site_id
 _symmetry_equiv_pos_as_xyz
  1  'x, y, z'
loop_
 _atom_site_type_symbol
 _atom_site_label
 _atom_site_symmetry_multiplicity
 _atom_site_fract_x
 _atom_site_fract_y
 _atom_site_fract_z
 _atom_site_occupancy
  Sr  Sr0  1  0.000000  0.500000  0.259917  1
  Sr  Sr1  1  0.500000  0.000000  0.740083  1
  Zn  Zn2  1  0.000000  0.000000  0.500000  1
  Sn  Sn3  1  0.000000  0.000000  0.000000  1
  Sn  Sn4  1  0.500000  0.500000  0.000000  1
  Sn  Sn5  1  0.000000  0.500000  0.629656  1
  Sn  Sn6  1  0.500000  0.000000  0.370344  1
  Au  Au7  1  0.500000  0.500000  0.500000  1
  Au  Au8  1  0.000000  0.500000  0.861347  1
  Au  Au9  1  0.500000  0.000000  0.138653  1
