# generated using pymatgen
data_Nd2AlPtI
_symmetry_space_group_name_H-M   'P 1'
_cell_length_a   4.41629300
_cell_length_b   4.41629381
_cell_length_c   16.96721000
_cell_angle_alpha   90.00000000
_cell_angle_beta   90.00000000
_cell_angle_gamma   120.00001639
_symmetry_Int_Tables_number   1
_chemical_formula_structural   Nd2AlPtI
_chemical_formula_sum   'Nd4 Al2 Pt2 I2'
_cell_volume   286.58722877
_cell_formula_units_Z   2
loop_
 _symmetry_equiv_pos_site_id
 _symmetry_equiv_pos_as_xyz
  1  'x, y, z'
loop_
 _atom_site_type_symbol
 _atom_site_label
 _atom_site_symmetry_multiplicity
 _atom_site_fract_x
 _atom_site_fract_y
 _atom_site_fract_z
 _atom_site_occupancy
  Nd  Nd0  1  0.000000  0.000000  0.394782  1
  Nd  Nd1  1  0.000000  0.000000  0.894782  1
  Nd  Nd2  1  0.000000  0.000000  0.607441  1
  Nd  Nd3  1  0.000000  0.000000  0.107441  1
  Al  Al4  1  0.333333  0.666667  0.503803  1
  Al  Al5  1  0.666667  0.333333  0.003803  1
  Pt  Pt6  1  0.666667  0.333333  0.495538  1
  Pt  Pt7  1  0.333333  0.666667  0.995538  1
  I  I8  1  0.333333  0.666667  0.248436  1
  I  I9  1  0.666667  0.333333  0.748436  1
