# generated using pymatgen
data_Tb2Y6Zn3Si12Pd
_symmetry_space_group_name_H-M   'P 1'
_cell_length_a   8.11744500
_cell_length_b   8.11744338
_cell_length_c   8.11540300
_cell_angle_alpha   90.00000000
_cell_angle_beta   90.00000000
_cell_angle_gamma   120.00000253
_symmetry_Int_Tables_number   1
_chemical_formula_structural   Tb2Y6Zn3Si12Pd
_chemical_formula_sum   'Tb2 Y6 Zn3 Si12 Pd1'
_cell_volume   463.10485554
_cell_formula_units_Z   1
loop_
 _symmetry_equiv_pos_site_id
 _symmetry_equiv_pos_as_xyz
  1  'x, y, z'
loop_
 _atom_site_type_symbol
 _atom_site_label
 _atom_site_symmetry_multiplicity
 _atom_site_fract_x
 _atom_site_fract_y
 _atom_site_fract_z
 _atom_site_occupancy
  Tb  Tb0  1  0.000000  0.000000  0.250345  1
  Tb  Tb1  1  0.000000  0.000000  0.750141  1
  Y  Y2  1  0.501108  0.002215  0.249048  1
  Y  Y3  1  0.499723  0.999448  0.750758  1
  Y  Y4  1  0.997785  0.498892  0.249048  1
  Y  Y5  1  0.000552  0.500277  0.750758  1
  Y  Y6  1  0.501108  0.498892  0.249048  1
  Y  Y7  1  0.499723  0.500277  0.750758  1
  Zn  Zn8  1  0.333333  0.666667  0.005991  1
  Zn  Zn9  1  0.666667  0.333333  0.994579  1
  Zn  Zn10  1  0.666667  0.333333  0.500313  1
  Si  Si11  1  0.166457  0.332915  0.997397  1
  Si  Si12  1  0.833041  0.666081  0.002567  1
  Si  Si13  1  0.667085  0.833543  0.997397  1
  Si  Si14  1  0.835302  0.670603  0.502276  1
  Si  Si15  1  0.333919  0.166959  0.002567  1
  Si  Si16  1  0.167714  0.335427  0.497769  1
  Si  Si17  1  0.166457  0.833543  0.997397  1
  Si  Si18  1  0.329397  0.164698  0.502276  1
  Si  Si19  1  0.833041  0.166959  0.002567  1
  Si  Si20  1  0.664573  0.832286  0.497769  1
  Si  Si21  1  0.835302  0.164698  0.502276  1
  Si  Si22  1  0.167714  0.832286  0.497769  1
  Pd  Pd23  1  0.333333  0.666667  0.499188  1
