# generated using pymatgen
data_DyHoNb2(Fe4P3)2
_symmetry_space_group_name_H-M   'P 1'
_cell_length_a   3.68241900
_cell_length_b   10.46757900
_cell_length_c   12.35012700
_cell_angle_alpha   90.00000000
_cell_angle_beta   90.00000000
_cell_angle_gamma   90.00000000
_symmetry_Int_Tables_number   1
_chemical_formula_structural   DyHoNb2(Fe4P3)2
_chemical_formula_sum   'Dy2 Ho2 Nb4 Fe16 P12'
_cell_volume   476.04814099
_cell_formula_units_Z   2
loop_
 _symmetry_equiv_pos_site_id
 _symmetry_equiv_pos_as_xyz
  1  'x, y, z'
loop_
 _atom_site_type_symbol
 _atom_site_label
 _atom_site_symmetry_multiplicity
 _atom_site_fract_x
 _atom_site_fract_y
 _atom_site_fract_z
 _atom_site_occupancy
  Dy  Dy0  1  0.750000  0.416252  0.286804  1
  Dy  Dy1  1  0.750000  0.083748  0.786804  1
  Ho  Ho2  1  0.250000  0.585505  0.713526  1
  Ho  Ho3  1  0.250000  0.914495  0.213526  1
  Nb  Nb4  1  0.250000  0.705208  0.992761  1
  Nb  Nb5  1  0.250000  0.794792  0.492761  1
  Nb  Nb6  1  0.750000  0.294986  0.008137  1
  Nb  Nb7  1  0.750000  0.205014  0.508137  1
  Fe  Fe8  1  0.250000  0.418307  0.492621  1
  Fe  Fe9  1  0.250000  0.081693  0.992621  1
  Fe  Fe10  1  0.750000  0.582395  0.507860  1
  Fe  Fe11  1  0.750000  0.917605  0.007860  1
  Fe  Fe12  1  0.250000  0.214567  0.171988  1
  Fe  Fe13  1  0.250000  0.285433  0.671988  1
  Fe  Fe14  1  0.750000  0.783994  0.828691  1
  Fe  Fe15  1  0.750000  0.716006  0.328691  1
  Fe  Fe16  1  0.250000  0.880421  0.698249  1
  Fe  Fe17  1  0.250000  0.619579  0.198249  1
  Fe  Fe18  1  0.750000  0.119752  0.300960  1
  Fe  Fe19  1  0.750000  0.380248  0.800960  1
  Fe  Fe20  1  0.250000  0.464371  0.933030  1
  Fe  Fe21  1  0.250000  0.035629  0.433030  1
  Fe  Fe22  1  0.750000  0.535595  0.065596  1
  Fe  Fe23  1  0.750000  0.964405  0.565596  1
  P  P24  1  0.250000  0.426527  0.112160  1
  P  P25  1  0.250000  0.073473  0.612160  1
  P  P26  1  0.750000  0.575376  0.887093  1
  P  P27  1  0.750000  0.924624  0.387093  1
  P  P28  1  0.250000  0.273752  0.855545  1
  P  P29  1  0.250000  0.226248  0.355545  1
  P  P30  1  0.750000  0.725474  0.145872  1
  P  P31  1  0.750000  0.774526  0.645872  1
  P  P32  1  0.250000  0.596729  0.376392  1
  P  P33  1  0.250000  0.903271  0.876392  1
  P  P34  1  0.750000  0.405858  0.622714  1
  P  P35  1  0.750000  0.094142  0.122714  1
