# generated using pymatgen
data_Sr4Bi3SbO14
_symmetry_space_group_name_H-M   'P 1'
_cell_length_a   7.79098582
_cell_length_b   7.79098585
_cell_length_c   7.80771937
_cell_angle_alpha   119.67032654
_cell_angle_beta   118.75373686
_cell_angle_gamma   91.25195658
_symmetry_Int_Tables_number   1
_chemical_formula_structural   Sr4Bi3SbO14
_chemical_formula_sum   'Sr4 Bi3 Sb1 O14'
_cell_volume   339.33721616
_cell_formula_units_Z   1
loop_
 _symmetry_equiv_pos_site_id
 _symmetry_equiv_pos_as_xyz
  1  'x, y, z'
loop_
 _atom_site_type_symbol
 _atom_site_label
 _atom_site_symmetry_multiplicity
 _atom_site_fract_x
 _atom_site_fract_y
 _atom_site_fract_z
 _atom_site_occupancy
  Sr  Sr0  1  0.500000  0.500000  0.500000  1
  Sr  Sr1  1  0.500000  0.000000  0.000000  1
  Sr  Sr2  1  0.500000  0.500000  0.000000  1
  Sr  Sr3  1  0.000000  0.000000  0.000000  1
  Bi  Bi4  1  0.000000  0.500000  0.000000  1
  Bi  Bi5  1  0.000000  0.500000  0.500000  1
  Bi  Bi6  1  0.500000  0.000000  0.500000  1
  Sb  Sb7  1  0.000000  0.000000  0.500000  1
  O  O8  1  0.938479  0.600545  0.774040  1
  O  O9  1  0.053572  0.833828  0.641992  1
  O  O10  1  0.691836  0.911580  0.358008  1
  O  O11  1  0.326505  0.664439  0.225960  1
  O  O12  1  0.061521  0.399455  0.225960  1
  O  O13  1  0.946428  0.166172  0.358008  1
  O  O14  1  0.308164  0.088420  0.641992  1
  O  O15  1  0.673495  0.335561  0.774040  1
  O  O16  1  0.095818  0.240415  0.836232  1
  O  O17  1  0.904182  0.759585  0.163768  1
  O  O18  1  0.675671  0.400662  0.271021  1
  O  O19  1  0.324329  0.599338  0.728979  1
  O  O20  1  0.370359  0.095351  0.271021  1
  O  O21  1  0.629641  0.904649  0.728979  1
