# generated using pymatgen
data_Ba4Re(HN2)2
_symmetry_space_group_name_H-M   'P 1'
_cell_length_a   5.97398900
_cell_length_b   8.53702344
_cell_length_c   9.96090632
_cell_angle_alpha   84.79892296
_cell_angle_beta   90.00000000
_cell_angle_gamma   90.00000000
_symmetry_Int_Tables_number   1
_chemical_formula_structural   Ba4Re(HN2)2
_chemical_formula_sum   'Ba8 Re2 H4 N8'
_cell_volume   505.91543984
_cell_formula_units_Z   2
loop_
 _symmetry_equiv_pos_site_id
 _symmetry_equiv_pos_as_xyz
  1  'x, y, z'
loop_
 _atom_site_type_symbol
 _atom_site_label
 _atom_site_symmetry_multiplicity
 _atom_site_fract_x
 _atom_site_fract_y
 _atom_site_fract_z
 _atom_site_occupancy
  Ba  Ba0  1  0.750000  0.279584  0.262141  1
  Ba  Ba1  1  0.750000  0.016631  0.637277  1
  Ba  Ba2  1  0.750000  0.461951  0.654601  1
  Ba  Ba3  1  0.750000  0.803856  0.052381  1
  Ba  Ba4  1  0.250000  0.983369  0.362723  1
  Ba  Ba5  1  0.250000  0.538049  0.345399  1
  Ba  Ba6  1  0.250000  0.196144  0.947619  1
  Ba  Ba7  1  0.250000  0.720416  0.737859  1
  Re  Re8  1  0.750000  0.757023  0.393625  1
  Re  Re9  1  0.250000  0.242977  0.606375  1
  H  H10  1  0.250000  0.262402  0.209314  1
  H  H11  1  0.750000  0.737598  0.790686  1
  H  H12  1  0.250000  0.878465  0.088637  1
  H  H13  1  0.750000  0.121535  0.911363  1
  N  N14  1  0.250000  0.049950  0.707398  1
  N  N15  1  0.001177  0.261621  0.497244  1
  N  N16  1  0.501177  0.738379  0.502756  1
  N  N17  1  0.998823  0.738379  0.502756  1
  N  N18  1  0.750000  0.602507  0.276420  1
  N  N19  1  0.750000  0.950050  0.292602  1
  N  N20  1  0.498823  0.261621  0.497244  1
  N  N21  1  0.250000  0.397493  0.723580  1
