# generated using pymatgen
data_Ho3Sc5Ti11Si16Pt
_symmetry_space_group_name_H-M   'P 1'
_cell_length_a   6.92862504
_cell_length_b   6.93574231
_cell_length_c   12.65662045
_cell_angle_alpha   90.17388171
_cell_angle_beta   89.85836551
_cell_angle_gamma   89.62114944
_symmetry_Int_Tables_number   1
_chemical_formula_structural   Ho3Sc5Ti11Si16Pt
_chemical_formula_sum   'Ho3 Sc5 Ti11 Si16 Pt1'
_cell_volume   608.19790826
_cell_formula_units_Z   1
loop_
 _symmetry_equiv_pos_site_id
 _symmetry_equiv_pos_as_xyz
  1  'x, y, z'
loop_
 _atom_site_type_symbol
 _atom_site_label
 _atom_site_symmetry_multiplicity
 _atom_site_fract_x
 _atom_site_fract_y
 _atom_site_fract_z
 _atom_site_occupancy
  Ho  Ho0  1  0.656455  0.997681  0.968661  1
  Ho  Ho1  1  0.006075  0.339949  0.531840  1
  Ho  Ho2  1  0.997775  0.655892  0.031747  1
  Sc  Sc3  1  0.343554  0.001154  0.466075  1
  Sc  Sc4  1  0.498778  0.843442  0.717527  1
  Sc  Sc5  1  0.500165  0.155768  0.216088  1
  Sc  Sc6  1  0.842963  0.498734  0.283184  1
  Sc  Sc7  1  0.156019  0.499580  0.783897  1
  Ti  Ti8  1  0.175669  0.827112  0.249266  1
  Ti  Ti9  1  0.826057  0.174915  0.750550  1
  Ti  Ti10  1  0.672040  0.674262  0.499859  1
  Ti  Ti11  1  0.149663  0.001221  0.874519  1
  Ti  Ti12  1  0.494041  0.652758  0.124734  1
  Ti  Ti13  1  0.504521  0.353451  0.626178  1
  Ti  Ti14  1  0.652752  0.494056  0.876148  1
  Ti  Ti15  1  0.353414  0.507722  0.373042  1
  Ti  Ti16  1  0.850623  0.995698  0.374443  1
  Ti  Ti17  1  0.001519  0.149030  0.126327  1
  Ti  Ti18  1  0.994530  0.851983  0.624556  1
  Si  Si19  1  0.206482  0.134306  0.683517  1
  Si  Si20  1  0.368785  0.708729  0.926249  1
  Si  Si21  1  0.632018  0.292439  0.428548  1
  Si  Si22  1  0.708572  0.368583  0.073973  1
  Si  Si23  1  0.296877  0.640986  0.569854  1
  Si  Si24  1  0.793299  0.865178  0.184573  1
  Si  Si25  1  0.140089  0.201145  0.317589  1
  Si  Si26  1  0.865615  0.793979  0.815635  1
  Si  Si27  1  0.287997  0.948523  0.065361  1
  Si  Si28  1  0.546231  0.797584  0.315965  1
  Si  Si29  1  0.448797  0.207573  0.813706  1
  Si  Si30  1  0.793939  0.548295  0.685369  1
  Si  Si31  1  0.207335  0.447709  0.186947  1
  Si  Si32  1  0.700078  0.046050  0.565358  1
  Si  Si33  1  0.949268  0.287742  0.934627  1
  Si  Si34  1  0.049126  0.708216  0.433540  1
  Pt  Pt35  1  0.328881  0.328553  0.000549  1
