# generated using pymatgen
data_Tb2YErMg2Rh3
_symmetry_space_group_name_H-M   'P 1'
_cell_length_a   7.47789611
_cell_length_b   7.52816224
_cell_length_c   4.06794800
_cell_angle_alpha   90.00000000
_cell_angle_beta   90.00000000
_cell_angle_gamma   120.09084398
_symmetry_Int_Tables_number   1
_chemical_formula_structural   Tb2YErMg2Rh3
_chemical_formula_sum   'Tb2 Y1 Er1 Mg2 Rh3'
_cell_volume   198.14181577
_cell_formula_units_Z   1
loop_
 _symmetry_equiv_pos_site_id
 _symmetry_equiv_pos_as_xyz
  1  'x, y, z'
loop_
 _atom_site_type_symbol
 _atom_site_label
 _atom_site_symmetry_multiplicity
 _atom_site_fract_x
 _atom_site_fract_y
 _atom_site_fract_z
 _atom_site_occupancy
  Tb  Tb0  1  0.999907  0.611030  0.500000  1
  Tb  Tb1  1  0.434608  0.412911  0.500000  1
  Y  Y2  1  0.565874  0.978537  0.500000  1
  Er  Er3  1  0.999699  0.247554  0.000000  1
  Mg  Mg4  1  0.250637  0.004142  0.000000  1
  Mg  Mg5  1  0.749567  0.753998  0.000000  1
  Rh  Rh6  1  0.324295  0.657514  0.000000  1
  Rh  Rh7  1  0.000292  0.000694  0.500000  1
  Rh  Rh8  1  0.675121  0.333617  0.000000  1
