# generated using pymatgen
data_BaSr3Cr4F20
_symmetry_space_group_name_H-M   'P 1'
_cell_length_a   5.19038341
_cell_length_b   5.76289806
_cell_length_c   13.70070397
_cell_angle_alpha   90.47641686
_cell_angle_beta   90.08630286
_cell_angle_gamma   90.12252427
_symmetry_Int_Tables_number   1
_chemical_formula_structural   BaSr3Cr4F20
_chemical_formula_sum   'Ba1 Sr3 Cr4 F20'
_cell_volume   409.79508829
_cell_formula_units_Z   1
loop_
 _symmetry_equiv_pos_site_id
 _symmetry_equiv_pos_as_xyz
  1  'x, y, z'
loop_
 _atom_site_type_symbol
 _atom_site_label
 _atom_site_symmetry_multiplicity
 _atom_site_fract_x
 _atom_site_fract_y
 _atom_site_fract_z
 _atom_site_occupancy
  Ba  Ba0  1  0.750860  0.331543  0.155911  1
  Sr  Sr1  1  0.761332  0.666814  0.655167  1
  Sr  Sr2  1  0.258966  0.840916  0.349326  1
  Sr  Sr3  1  0.231716  0.153303  0.845153  1
  Cr  Cr4  1  0.312246  0.151551  0.591437  1
  Cr  Cr5  1  0.817301  0.364702  0.415013  1
  Cr  Cr6  1  0.688411  0.643554  0.905093  1
  Cr  Cr7  1  0.185803  0.837615  0.088021  1
  F  F8  1  0.964635  0.639456  0.474340  1
  F  F9  1  0.465323  0.877305  0.533335  1
  F  F10  1  0.051358  0.110603  0.024922  1
  F  F11  1  0.530261  0.370398  0.959481  1
  F  F12  1  0.590191  0.552864  0.338557  1
  F  F13  1  0.078795  0.971162  0.668015  1
  F  F14  1  0.387611  0.019218  0.178256  1
  F  F15  1  0.903217  0.455486  0.822414  1
  F  F16  1  0.158414  0.425175  0.645636  1
  F  F17  1  0.667458  0.095989  0.351932  1
  F  F18  1  0.846682  0.911506  0.848741  1
  F  F19  1  0.317535  0.562568  0.147064  1
  F  F20  1  0.538950  0.135692  0.701631  1
  F  F21  1  0.062260  0.392269  0.311425  1
  F  F22  1  0.444721  0.653837  0.800096  1
  F  F23  1  0.931750  0.848317  0.190312  1
  F  F24  1  0.578350  0.355093  0.528357  1
  F  F25  1  0.077452  0.152615  0.475932  1
  F  F26  1  0.450998  0.847718  0.982401  1
  F  F27  1  0.947405  0.632732  0.012031  1
