# generated using pymatgen
data_TaCo4Si2Tc3P2
_symmetry_space_group_name_H-M   'P 1'
_cell_length_a   5.83650100
_cell_length_b   3.69998700
_cell_length_c   6.84020832
_cell_angle_alpha   90.00000000
_cell_angle_beta   90.06772962
_cell_angle_gamma   90.00000000
_symmetry_Int_Tables_number   1
_chemical_formula_structural   TaCo4Si2Tc3P2
_chemical_formula_sum   'Ta1 Co4 Si2 Tc3 P2'
_cell_volume   147.71404388
_cell_formula_units_Z   1
loop_
 _symmetry_equiv_pos_site_id
 _symmetry_equiv_pos_as_xyz
  1  'x, y, z'
loop_
 _atom_site_type_symbol
 _atom_site_label
 _atom_site_symmetry_multiplicity
 _atom_site_fract_x
 _atom_site_fract_y
 _atom_site_fract_z
 _atom_site_occupancy
  Ta  Ta0  1  0.474454  0.750000  0.322686  1
  Co  Co1  1  0.148908  0.250000  0.432295  1
  Co  Co2  1  0.638076  0.250000  0.073420  1
  Co  Co3  1  0.852869  0.750000  0.555922  1
  Co  Co4  1  0.355226  0.750000  0.946461  1
  Si  Si5  1  0.228721  0.750000  0.637042  1
  Si  Si6  1  0.735807  0.750000  0.878638  1
  Tc  Tc7  1  0.023043  0.250000  0.822754  1
  Tc  Tc8  1  0.534014  0.250000  0.667518  1
  Tc  Tc9  1  0.976620  0.750000  0.173885  1
  P  P10  1  0.781199  0.250000  0.379917  1
  P  P11  1  0.251066  0.250000  0.109463  1
