# generated using pymatgen
data_Zr16Co4HgIr3N4
_symmetry_space_group_name_H-M   'P 1'
_cell_length_a   8.76816938
_cell_length_b   8.76816971
_cell_length_c   8.76816996
_cell_angle_alpha   60.17226787
_cell_angle_beta   60.17226704
_cell_angle_gamma   60.17227146
_symmetry_Int_Tables_number   1
_chemical_formula_structural   Zr16Co4HgIr3N4
_chemical_formula_sum   'Zr16 Co4 Hg1 Ir3 N4'
_cell_volume   478.52313916
_cell_formula_units_Z   1
loop_
 _symmetry_equiv_pos_site_id
 _symmetry_equiv_pos_as_xyz
  1  'x, y, z'
loop_
 _atom_site_type_symbol
 _atom_site_label
 _atom_site_symmetry_multiplicity
 _atom_site_fract_x
 _atom_site_fract_y
 _atom_site_fract_z
 _atom_site_occupancy
  Zr  Zr0  1  0.073013  0.644557  0.644557  1
  Zr  Zr1  1  0.644557  0.073013  0.644557  1
  Zr  Zr2  1  0.644557  0.644557  0.073013  1
  Zr  Zr3  1  0.642880  0.642880  0.642880  1
  Zr  Zr4  1  0.813340  0.813340  0.186371  1
  Zr  Zr5  1  0.183225  0.183225  0.816793  1
  Zr  Zr6  1  0.813340  0.186371  0.813340  1
  Zr  Zr7  1  0.183225  0.816793  0.183225  1
  Zr  Zr8  1  0.186371  0.813340  0.813340  1
  Zr  Zr9  1  0.816793  0.183225  0.183225  1
  Zr  Zr10  1  0.433734  0.433734  0.054037  1
  Zr  Zr11  1  0.064983  0.064983  0.433985  1
  Zr  Zr12  1  0.433734  0.054037  0.433734  1
  Zr  Zr13  1  0.064983  0.433985  0.064983  1
  Zr  Zr14  1  0.054037  0.433734  0.433734  1
  Zr  Zr15  1  0.433985  0.064983  0.064983  1
  Co  Co16  1  0.440623  0.855196  0.855196  1
  Co  Co17  1  0.855196  0.440623  0.855196  1
  Co  Co18  1  0.855196  0.855196  0.440623  1
  Co  Co19  1  0.852660  0.852660  0.852660  1
  Hg  Hg20  1  0.417928  0.417928  0.417928  1
  Ir  Ir21  1  0.752300  0.419874  0.419874  1
  Ir  Ir22  1  0.419874  0.752300  0.419874  1
  Ir  Ir23  1  0.419874  0.419874  0.752300  1
  N  N24  1  0.622626  0.125848  0.125848  1
  N  N25  1  0.125848  0.622626  0.125848  1
  N  N26  1  0.125848  0.125848  0.622626  1
  N  N27  1  0.125273  0.125273  0.125273  1
