# generated using pymatgen
data_Sc4Ti2B4Ir9Rh
_symmetry_space_group_name_H-M   'P 1'
_cell_length_a   3.14532100
_cell_length_b   9.38150542
_cell_length_c   9.38150542
_cell_angle_alpha   89.88874919
_cell_angle_beta   90.00000000
_cell_angle_gamma   90.00000000
_symmetry_Int_Tables_number   1
_chemical_formula_structural   Sc4Ti2B4Ir9Rh
_chemical_formula_sum   'Sc4 Ti2 B4 Ir9 Rh1'
_cell_volume   276.82749550
_cell_formula_units_Z   1
loop_
 _symmetry_equiv_pos_site_id
 _symmetry_equiv_pos_as_xyz
  1  'x, y, z'
loop_
 _atom_site_type_symbol
 _atom_site_label
 _atom_site_symmetry_multiplicity
 _atom_site_fract_x
 _atom_site_fract_y
 _atom_site_fract_z
 _atom_site_occupancy
  Sc  Sc0  1  0.000000  0.175842  0.175842  1
  Sc  Sc1  1  0.000000  0.674811  0.325189  1
  Sc  Sc2  1  0.000000  0.325189  0.674811  1
  Sc  Sc3  1  0.000000  0.824158  0.824158  1
  Ti  Ti4  1  0.000000  0.500000  0.000000  1
  Ti  Ti5  1  0.000000  0.000000  0.500000  1
  B  B6  1  0.000000  0.877841  0.122157  1
  B  B7  1  0.000000  0.377803  0.377803  1
  B  B8  1  0.000000  0.622198  0.622198  1
  B  B9  1  0.000000  0.122157  0.877841  1
  Ir  Ir10  1  0.500000  0.000000  0.000000  1
  Ir  Ir11  1  0.500000  0.716954  0.071107  1
  Ir  Ir12  1  0.500000  0.429699  0.217851  1
  Ir  Ir13  1  0.500000  0.928893  0.283045  1
  Ir  Ir14  1  0.500000  0.217851  0.429699  1
  Ir  Ir15  1  0.500000  0.782149  0.570300  1
  Ir  Ir16  1  0.500000  0.071107  0.716954  1
  Ir  Ir17  1  0.500000  0.570300  0.782149  1
  Ir  Ir18  1  0.500000  0.283045  0.928893  1
  Rh  Rh19  1  0.500000  0.500000  0.500000  1
