# generated using pymatgen
data_Tm3CoSi3Rh
_symmetry_space_group_name_H-M   'P 1'
_cell_length_a   5.59756727
_cell_length_b   5.59756757
_cell_length_c   13.53051156
_cell_angle_alpha   89.52827740
_cell_angle_beta   90.47172093
_cell_angle_gamma   136.92963110
_symmetry_Int_Tables_number   1
_chemical_formula_structural   Tm3CoSi3Rh
_chemical_formula_sum   'Tm6 Co2 Si6 Rh2'
_cell_volume   289.50127840
_cell_formula_units_Z   2
loop_
 _symmetry_equiv_pos_site_id
 _symmetry_equiv_pos_as_xyz
  1  'x, y, z'
loop_
 _atom_site_type_symbol
 _atom_site_label
 _atom_site_symmetry_multiplicity
 _atom_site_fract_x
 _atom_site_fract_y
 _atom_site_fract_z
 _atom_site_occupancy
  Tm  Tm0  1  0.640973  0.359027  0.249027  1
  Tm  Tm1  1  0.359027  0.640973  0.750973  1
  Tm  Tm2  1  0.919981  0.080019  0.110025  1
  Tm  Tm3  1  0.080019  0.919981  0.889975  1
  Tm  Tm4  1  0.081072  0.918928  0.615763  1
  Tm  Tm5  1  0.918928  0.081072  0.384237  1
  Co  Co6  1  0.214580  0.785420  0.079263  1
  Co  Co7  1  0.785420  0.214580  0.920737  1
  Si  Si8  1  0.334468  0.665532  0.243643  1
  Si  Si9  1  0.665532  0.334468  0.756357  1
  Si  Si10  1  0.619374  0.380626  0.039682  1
  Si  Si11  1  0.380626  0.619374  0.960318  1
  Si  Si12  1  0.392469  0.607531  0.538205  1
  Si  Si13  1  0.607531  0.392469  0.461795  1
  Rh  Rh14  1  0.788460  0.211540  0.588273  1
  Rh  Rh15  1  0.211540  0.788460  0.411727  1
