# generated using pymatgen
data_YbEu4Sn3
_symmetry_space_group_name_H-M   'P 1'
_cell_length_a   9.86038002
_cell_length_b   9.86038005
_cell_length_c   9.86038001
_cell_angle_alpha   130.23276504
_cell_angle_beta   130.23276668
_cell_angle_gamma   73.03492247
_symmetry_Int_Tables_number   1
_chemical_formula_structural   YbEu4Sn3
_chemical_formula_sum   'Yb2 Eu8 Sn6'
_cell_volume   545.66303531
_cell_formula_units_Z   2
loop_
 _symmetry_equiv_pos_site_id
 _symmetry_equiv_pos_as_xyz
  1  'x, y, z'
loop_
 _atom_site_type_symbol
 _atom_site_label
 _atom_site_symmetry_multiplicity
 _atom_site_fract_x
 _atom_site_fract_y
 _atom_site_fract_z
 _atom_site_occupancy
  Yb  Yb0  1  0.500000  0.500000  0.000000  1
  Yb  Yb1  1  0.000000  0.000000  0.000000  1
  Eu  Eu2  1  0.526303  0.026303  0.845030  1
  Eu  Eu3  1  0.181273  0.681273  0.154970  1
  Eu  Eu4  1  0.026303  0.181273  0.500000  1
  Eu  Eu5  1  0.681273  0.526303  0.500000  1
  Eu  Eu6  1  0.473697  0.973697  0.154970  1
  Eu  Eu7  1  0.818727  0.318727  0.845030  1
  Eu  Eu8  1  0.973697  0.818727  0.500000  1
  Eu  Eu9  1  0.318727  0.473697  0.500000  1
  Sn  Sn10  1  0.250000  0.250000  0.000000  1
  Sn  Sn11  1  0.750000  0.750000  0.000000  1
  Sn  Sn12  1  0.874671  0.374671  0.249341  1
  Sn  Sn13  1  0.125329  0.625329  0.750659  1
  Sn  Sn14  1  0.374671  0.125329  0.500000  1
  Sn  Sn15  1  0.625329  0.874671  0.500000  1
