# generated using pymatgen
data_YHoTm2(B6Os)2
_symmetry_space_group_name_H-M   'P 1'
_cell_length_a   3.63378200
_cell_length_b   9.10739809
_cell_length_c   11.49317101
_cell_angle_alpha   90.00611827
_cell_angle_beta   90.00000000
_cell_angle_gamma   90.00000000
_symmetry_Int_Tables_number   1
_chemical_formula_structural   YHoTm2(B6Os)2
_chemical_formula_sum   'Y2 Ho2 Tm4 B24 Os4'
_cell_volume   380.35843855
_cell_formula_units_Z   2
loop_
 _symmetry_equiv_pos_site_id
 _symmetry_equiv_pos_as_xyz
  1  'x, y, z'
loop_
 _atom_site_type_symbol
 _atom_site_label
 _atom_site_symmetry_multiplicity
 _atom_site_fract_x
 _atom_site_fract_y
 _atom_site_fract_z
 _atom_site_occupancy
  Y  Y0  1  0.000000  0.821409  0.086067  1
  Y  Y1  1  0.000000  0.178591  0.913933  1
  Ho  Ho2  1  0.000000  0.321357  0.414027  1
  Ho  Ho3  1  0.000000  0.678643  0.585973  1
  Tm  Tm4  1  0.000000  0.944027  0.373160  1
  Tm  Tm5  1  0.000000  0.055973  0.626841  1
  Tm  Tm6  1  0.000000  0.444060  0.127077  1
  Tm  Tm7  1  0.000000  0.555940  0.872922  1
  B  B8  1  0.500000  0.554003  0.433131  1
  B  B9  1  0.500000  0.445997  0.566869  1
  B  B10  1  0.500000  0.054237  0.067238  1
  B  B11  1  0.500000  0.945763  0.932762  1
  B  B12  1  0.500000  0.748993  0.419809  1
  B  B13  1  0.500000  0.251007  0.580191  1
  B  B14  1  0.500000  0.249138  0.080583  1
  B  B15  1  0.500000  0.750862  0.919417  1
  B  B16  1  0.500000  0.791403  0.266476  1
  B  B17  1  0.500000  0.208597  0.733524  1
  B  B18  1  0.500000  0.291623  0.233933  1
  B  B19  1  0.500000  0.708376  0.766067  1
  B  B20  1  0.500000  0.630823  0.184862  1
  B  B21  1  0.500000  0.369177  0.815138  1
  B  B22  1  0.500000  0.131107  0.315446  1
  B  B23  1  0.500000  0.868893  0.684554  1
  B  B24  1  0.500000  0.982887  0.213627  1
  B  B25  1  0.500000  0.017113  0.786373  1
  B  B26  1  0.500000  0.482516  0.286671  1
  B  B27  1  0.500000  0.517484  0.713329  1
  B  B28  1  0.500000  0.605398  0.029030  1
  B  B29  1  0.500000  0.394602  0.970970  1
  B  B30  1  0.500000  0.105811  0.470858  1
  B  B31  1  0.500000  0.894189  0.529142  1
  Os  Os32  1  0.000000  0.637563  0.321042  1
  Os  Os33  1  0.000000  0.362437  0.678958  1
  Os  Os34  1  0.000000  0.138120  0.179643  1
  Os  Os35  1  0.000000  0.861880  0.820357  1
