# generated using pymatgen
data_Dy4Er8CuNi4Sn
_symmetry_space_group_name_H-M   'P 1'
_cell_length_a   8.27972545
_cell_length_b   8.27972488
_cell_length_c   8.27972547
_cell_angle_alpha   112.31302597
_cell_angle_beta   109.53795252
_cell_angle_gamma   106.61280069
_symmetry_Int_Tables_number   1
_chemical_formula_structural   Dy4Er8CuNi4Sn
_chemical_formula_sum   'Dy4 Er8 Cu1 Ni4 Sn1'
_cell_volume   435.86364483
_cell_formula_units_Z   1
loop_
 _symmetry_equiv_pos_site_id
 _symmetry_equiv_pos_as_xyz
  1  'x, y, z'
loop_
 _atom_site_type_symbol
 _atom_site_label
 _atom_site_symmetry_multiplicity
 _atom_site_fract_x
 _atom_site_fract_y
 _atom_site_fract_z
 _atom_site_occupancy
  Dy  Dy0  1  0.180753  0.207814  0.388567  1
  Dy  Dy1  1  0.819247  0.207814  0.027060  1
  Dy  Dy2  1  0.180753  0.792186  0.972940  1
  Dy  Dy3  1  0.819247  0.792186  0.611433  1
  Er  Er4  1  0.026908  0.720387  0.306520  1
  Er  Er5  1  0.973092  0.279613  0.693480  1
  Er  Er6  1  0.586133  0.279613  0.306520  1
  Er  Er7  1  0.413867  0.720387  0.693480  1
  Er  Er8  1  0.675868  0.867115  0.191247  1
  Er  Er9  1  0.324132  0.515378  0.191247  1
  Er  Er10  1  0.324132  0.132885  0.808753  1
  Er  Er11  1  0.675868  0.484622  0.808753  1
  Cu  Cu12  1  0.000000  0.500000  0.500000  1
  Ni  Ni13  1  0.643219  0.500000  0.143219  1
  Ni  Ni14  1  0.356781  0.500000  0.856781  1
  Ni  Ni15  1  0.874132  0.874132  0.000000  1
  Ni  Ni16  1  0.125868  0.125868  0.000000  1
  Sn  Sn17  1  0.500000  0.000000  0.500000  1
