# generated using pymatgen
data_Er2PdPtF14
_symmetry_space_group_name_H-M   'P 1'
_cell_length_a   5.50462600
_cell_length_b   8.79888048
_cell_length_c   11.90158404
_cell_angle_alpha   62.58667341
_cell_angle_beta   90.00000000
_cell_angle_gamma   90.00000000
_symmetry_Int_Tables_number   1
_chemical_formula_structural   Er2PdPtF14
_chemical_formula_sum   'Er4 Pd2 Pt2 F28'
_cell_volume   511.71752972
_cell_formula_units_Z   2
loop_
 _symmetry_equiv_pos_site_id
 _symmetry_equiv_pos_as_xyz
  1  'x, y, z'
loop_
 _atom_site_type_symbol
 _atom_site_label
 _atom_site_symmetry_multiplicity
 _atom_site_fract_x
 _atom_site_fract_y
 _atom_site_fract_z
 _atom_site_occupancy
  Er  Er0  1  0.760935  0.813493  0.763876  1
  Er  Er1  1  0.260935  0.186507  0.736124  1
  Er  Er2  1  0.238237  0.185490  0.235235  1
  Er  Er3  1  0.738237  0.814510  0.264765  1
  Pd  Pd4  1  0.759402  0.272121  0.956976  1
  Pd  Pd5  1  0.259402  0.727879  0.543024  1
  Pt  Pt6  1  0.240661  0.727871  0.042929  1
  Pt  Pt7  1  0.740661  0.272129  0.457071  1
  F  F8  1  0.436978  0.702063  0.914960  1
  F  F9  1  0.936978  0.297937  0.585040  1
  F  F10  1  0.565030  0.297782  0.083494  1
  F  F11  1  0.065030  0.702218  0.416506  1
  F  F12  1  0.436792  0.276796  0.543194  1
  F  F13  1  0.936792  0.723204  0.956806  1
  F  F14  1  0.560335  0.723063  0.457789  1
  F  F15  1  0.060335  0.276937  0.042211  1
  F  F16  1  0.777290  0.520668  0.858848  1
  F  F17  1  0.277290  0.479332  0.641152  1
  F  F18  1  0.223288  0.476634  0.141855  1
  F  F19  1  0.723288  0.523366  0.358145  1
  F  F20  1  0.753267  0.023996  0.049478  1
  F  F21  1  0.253267  0.976004  0.450522  1
  F  F22  1  0.246672  0.978623  0.949453  1
  F  F23  1  0.746672  0.021377  0.550547  1
  F  F24  1  0.967480  0.723640  0.636458  1
  F  F25  1  0.467480  0.276360  0.863542  1
  F  F26  1  0.035844  0.275693  0.362785  1
  F  F27  1  0.535844  0.724307  0.137215  1
  F  F28  1  0.050178  0.746261  0.176547  1
  F  F29  1  0.550178  0.253739  0.323453  1
  F  F30  1  0.947722  0.254284  0.824601  1
  F  F31  1  0.447722  0.745716  0.675399  1
  F  F32  1  0.416000  0.970296  0.232520  1
  F  F33  1  0.916000  0.029704  0.267480  1
  F  F34  1  0.583890  0.029586  0.767331  1
  F  F35  1  0.083890  0.970414  0.732669  1
