# generated using pymatgen
data_Ti3Si2Tc3Ge
_symmetry_space_group_name_H-M   'P 1'
_cell_length_a   6.84912800
_cell_length_b   6.84912814
_cell_length_c   3.24287900
_cell_angle_alpha   90.00000000
_cell_angle_beta   90.00000000
_cell_angle_gamma   119.99999934
_symmetry_Int_Tables_number   1
_chemical_formula_structural   Ti3Si2Tc3Ge
_chemical_formula_sum   'Ti3 Si2 Tc3 Ge1'
_cell_volume   131.74433597
_cell_formula_units_Z   1
loop_
 _symmetry_equiv_pos_site_id
 _symmetry_equiv_pos_as_xyz
  1  'x, y, z'
loop_
 _atom_site_type_symbol
 _atom_site_label
 _atom_site_symmetry_multiplicity
 _atom_site_fract_x
 _atom_site_fract_y
 _atom_site_fract_z
 _atom_site_occupancy
  Ti  Ti0  1  0.396808  0.405615  0.500000  1
  Ti  Ti1  1  0.594385  0.991193  0.500000  1
  Ti  Ti2  1  0.008807  0.603192  0.500000  1
  Si  Si3  1  0.333333  0.666667  0.000000  1
  Si  Si4  1  0.000000  0.000000  0.500000  1
  Tc  Tc5  1  0.736912  0.742488  0.000000  1
  Tc  Tc6  1  0.257512  0.994424  0.000000  1
  Tc  Tc7  1  0.005576  0.263088  0.000000  1
  Ge  Ge8  1  0.666667  0.333333  0.000000  1
