# generated using pymatgen
data_KIn7(GaRh)2
_symmetry_space_group_name_H-M   'P 1'
_cell_length_a   8.76651295
_cell_length_b   8.63976751
_cell_length_c   4.32486600
_cell_angle_alpha   90.00000000
_cell_angle_beta   90.00000000
_cell_angle_gamma   119.52287974
_symmetry_Int_Tables_number   1
_chemical_formula_structural   KIn7(GaRh)2
_chemical_formula_sum   'K1 In7 Ga2 Rh2'
_cell_volume   285.03631944
_cell_formula_units_Z   1
loop_
 _symmetry_equiv_pos_site_id
 _symmetry_equiv_pos_as_xyz
  1  'x, y, z'
loop_
 _atom_site_type_symbol
 _atom_site_label
 _atom_site_symmetry_multiplicity
 _atom_site_fract_x
 _atom_site_fract_y
 _atom_site_fract_z
 _atom_site_occupancy
  K  K0  1  0.000000  0.000000  0.000000  1
  In  In1  1  0.000000  0.499999  0.000000  1
  In  In2  1  0.409429  0.204714  0.499999  1
  In  In3  1  0.788293  0.198769  0.499999  1
  In  In4  1  0.211707  0.410475  0.499999  1
  In  In5  1  0.788293  0.589525  0.499999  1
  In  In6  1  0.211707  0.801231  0.499999  1
  In  In7  1  0.590571  0.795286  0.499999  1
  Ga  Ga8  1  0.500000  0.000000  0.000000  1
  Ga  Ga9  1  0.500000  0.499999  0.000000  1
  Rh  Rh10  1  0.653998  0.326999  0.000000  1
  Rh  Rh11  1  0.346001  0.673001  0.000000  1
