# generated using pymatgen
data_TbHo4Sc3(Co4P3)4
_symmetry_space_group_name_H-M   'P 1'
_cell_length_a   12.22946800
_cell_length_b   12.22946767
_cell_length_c   3.71796000
_cell_angle_alpha   90.00000000
_cell_angle_beta   90.00000000
_cell_angle_gamma   120.00000631
_symmetry_Int_Tables_number   1
_chemical_formula_structural   TbHo4Sc3(Co4P3)4
_chemical_formula_sum   'Tb1 Ho4 Sc3 Co16 P12'
_cell_volume   481.56003270
_cell_formula_units_Z   1
loop_
 _symmetry_equiv_pos_site_id
 _symmetry_equiv_pos_as_xyz
  1  'x, y, z'
loop_
 _atom_site_type_symbol
 _atom_site_label
 _atom_site_symmetry_multiplicity
 _atom_site_fract_x
 _atom_site_fract_y
 _atom_site_fract_z
 _atom_site_occupancy
  Tb  Tb0  1  0.666667  0.333333  0.000000  1
  Ho  Ho1  1  0.333333  0.666667  0.000000  1
  Ho  Ho2  1  0.815813  0.815803  0.500000  1
  Ho  Ho3  1  0.184197  0.000010  0.500000  1
  Ho  Ho4  1  0.999990  0.184187  0.500000  1
  Sc  Sc5  1  0.439854  0.439944  0.000000  1
  Sc  Sc6  1  0.560056  0.999909  0.000000  1
  Sc  Sc7  1  0.000091  0.560146  0.000000  1
  Co  Co8  1  0.875814  0.355184  0.500000  1
  Co  Co9  1  0.644816  0.520630  0.500000  1
  Co  Co10  1  0.479370  0.124186  0.500000  1
  Co  Co11  1  0.355179  0.875427  0.500000  1
  Co  Co12  1  0.520248  0.644821  0.500000  1
  Co  Co13  1  0.124573  0.479752  0.500000  1
  Co  Co14  1  0.805030  0.178930  0.000000  1
  Co  Co15  1  0.821070  0.626101  0.000000  1
  Co  Co16  1  0.373899  0.194970  0.000000  1
  Co  Co17  1  0.179064  0.804945  0.000000  1
  Co  Co18  1  0.625881  0.820936  0.000000  1
  Co  Co19  1  0.195055  0.374119  0.000000  1
  Co  Co20  1  0.278243  0.278302  0.500000  1
  Co  Co21  1  0.721698  0.999941  0.500000  1
  Co  Co22  1  0.000059  0.721757  0.500000  1
  Co  Co23  1  0.000000  0.000000  0.000000  1
  P  P24  1  0.692489  0.170655  0.500000  1
  P  P25  1  0.829345  0.521834  0.500000  1
  P  P26  1  0.478166  0.307511  0.500000  1
  P  P27  1  0.171125  0.692348  0.500000  1
  P  P28  1  0.521223  0.828875  0.500000  1
  P  P29  1  0.307652  0.478777  0.500000  1
  P  P30  1  0.179181  0.179195  0.000000  1
  P  P31  1  0.820805  0.999986  0.000000  1
  P  P32  1  0.000014  0.820819  0.000000  1
  P  P33  1  0.645363  0.645321  0.000000  1
  P  P34  1  0.354679  0.000042  0.000000  1
  P  P35  1  0.999958  0.354637  0.000000  1
