# generated using pymatgen
data_Li2HoTm3As4
_symmetry_space_group_name_H-M   'P 1'
_cell_length_a   4.13813500
_cell_length_b   4.13813559
_cell_length_c   13.91179400
_cell_angle_alpha   90.00000000
_cell_angle_beta   90.00000000
_cell_angle_gamma   119.99998732
_symmetry_Int_Tables_number   1
_chemical_formula_structural   Li2HoTm3As4
_chemical_formula_sum   'Li2 Ho1 Tm3 As4'
_cell_volume   206.31138586
_cell_formula_units_Z   1
loop_
 _symmetry_equiv_pos_site_id
 _symmetry_equiv_pos_as_xyz
  1  'x, y, z'
loop_
 _atom_site_type_symbol
 _atom_site_label
 _atom_site_symmetry_multiplicity
 _atom_site_fract_x
 _atom_site_fract_y
 _atom_site_fract_z
 _atom_site_occupancy
  Li  Li0  1  0.000000  0.000000  0.749571  1
  Li  Li1  1  0.000000  0.000000  0.249872  1
  Ho  Ho2  1  0.333333  0.666667  0.889551  1
  Tm  Tm3  1  0.666667  0.333333  0.389559  1
  Tm  Tm4  1  0.666667  0.333333  0.110501  1
  Tm  Tm5  1  0.333333  0.666667  0.610166  1
  As  As6  1  0.000000  0.000000  0.001659  1
  As  As7  1  0.333333  0.666667  0.250291  1
  As  As8  1  0.666667  0.333333  0.748871  1
  As  As9  1  0.000000  0.000000  0.499960  1
