# generated using pymatgen
data_Y6ScAl15Os7
_symmetry_space_group_name_H-M   'P 1'
_cell_length_a   9.01663306
_cell_length_b   9.01663438
_cell_length_c   9.00656400
_cell_angle_alpha   59.96301355
_cell_angle_beta   59.96300870
_cell_angle_gamma   60.00000628
_symmetry_Int_Tables_number   1
_chemical_formula_structural   Y6ScAl15Os7
_chemical_formula_sum   'Y6 Sc1 Al15 Os7'
_cell_volume   517.47572679
_cell_formula_units_Z   1
loop_
 _symmetry_equiv_pos_site_id
 _symmetry_equiv_pos_as_xyz
  1  'x, y, z'
loop_
 _atom_site_type_symbol
 _atom_site_label
 _atom_site_symmetry_multiplicity
 _atom_site_fract_x
 _atom_site_fract_y
 _atom_site_fract_z
 _atom_site_occupancy
  Y  Y0  1  0.708206  0.708206  0.287497  1
  Y  Y1  1  0.296090  0.708206  0.287497  1
  Y  Y2  1  0.708206  0.296090  0.287497  1
  Y  Y3  1  0.287493  0.287493  0.715228  1
  Y  Y4  1  0.709786  0.287493  0.715228  1
  Y  Y5  1  0.287493  0.709786  0.715228  1
  Sc  Sc6  1  0.881677  0.881677  0.354968  1
  Al  Al7  1  0.878093  0.365176  0.878638  1
  Al  Al8  1  0.365176  0.878093  0.878638  1
  Al  Al9  1  0.878093  0.878093  0.878638  1
  Al  Al10  1  0.123532  0.123532  0.629404  1
  Al  Al11  1  0.119794  0.637013  0.123402  1
  Al  Al12  1  0.637013  0.119794  0.123402  1
  Al  Al13  1  0.119794  0.119794  0.123402  1
  Al  Al14  1  0.669038  0.669038  0.992887  1
  Al  Al15  1  0.667045  0.996426  0.669485  1
  Al  Al16  1  0.996426  0.667045  0.669485  1
  Al  Al17  1  0.667045  0.667045  0.669485  1
  Al  Al18  1  0.331254  0.331254  0.006237  1
  Al  Al19  1  0.332795  0.002826  0.331583  1
  Al  Al20  1  0.002826  0.332795  0.331583  1
  Al  Al21  1  0.332795  0.332795  0.331583  1
  Os  Os22  1  0.004362  0.004362  0.986913  1
  Os  Os23  1  0.001450  0.001450  0.503517  1
  Os  Os24  1  0.493583  0.001450  0.503517  1
  Os  Os25  1  0.001450  0.493583  0.503517  1
  Os  Os26  1  0.499531  0.499531  0.000514  1
  Os  Os27  1  0.000425  0.499531  0.000514  1
  Os  Os28  1  0.499531  0.000425  0.000514  1
