# generated using pymatgen
data_La3Pr2Al2IrRu2
_symmetry_space_group_name_H-M   'P 1'
_cell_length_a   8.66310806
_cell_length_b   8.66310753
_cell_length_c   8.66310696
_cell_angle_alpha   109.52415487
_cell_angle_beta   109.76515471
_cell_angle_gamma   109.12499111
_symmetry_Int_Tables_number   1
_chemical_formula_structural   La3Pr2Al2IrRu2
_chemical_formula_sum   'La6 Pr4 Al4 Ir2 Ru4'
_cell_volume   500.47850886
_cell_formula_units_Z   2
loop_
 _symmetry_equiv_pos_site_id
 _symmetry_equiv_pos_as_xyz
  1  'x, y, z'
loop_
 _atom_site_type_symbol
 _atom_site_label
 _atom_site_symmetry_multiplicity
 _atom_site_fract_x
 _atom_site_fract_y
 _atom_site_fract_z
 _atom_site_occupancy
  La  La0  1  0.250000  0.687112  0.437112  1
  La  La1  1  0.750000  0.812888  0.062888  1
  La  La2  1  0.435930  0.250000  0.685930  1
  La  La3  1  0.686214  0.436214  0.250000  1
  La  La4  1  0.064070  0.750000  0.814070  1
  La  La5  1  0.813786  0.063786  0.750000  1
  Pr  Pr6  1  0.212811  0.215278  0.215537  1
  Pr  Pr7  1  0.499741  0.997274  0.284463  1
  Pr  Pr8  1  0.287189  0.502726  0.002466  1
  Pr  Pr9  1  0.000259  0.284722  0.497534  1
  Al  Al10  1  0.591109  0.591344  0.592118  1
  Al  Al11  1  0.499226  0.998992  0.907882  1
  Al  Al12  1  0.908891  0.501008  0.000234  1
  Al  Al13  1  0.000774  0.908656  0.499766  1
  Ir  Ir14  1  0.250000  0.115422  0.865422  1
  Ir  Ir15  1  0.750000  0.384578  0.634578  1
  Ru  Ru16  1  0.863508  0.250000  0.113509  1
  Ru  Ru17  1  0.118334  0.868333  0.250000  1
  Ru  Ru18  1  0.636491  0.750000  0.386491  1
  Ru  Ru19  1  0.381666  0.631666  0.750000  1
