# generated using pymatgen
data_Y19Er(SnPb)8
_symmetry_space_group_name_H-M   'P 1'
_cell_length_a   8.13502800
_cell_length_b   8.20971513
_cell_length_c   15.57735000
_cell_angle_alpha   90.00000000
_cell_angle_beta   90.00000000
_cell_angle_gamma   90.01030802
_symmetry_Int_Tables_number   1
_chemical_formula_structural   Y19Er(SnPb)8
_chemical_formula_sum   'Y19 Er1 Sn8 Pb8'
_cell_volume   1040.35296897
_cell_formula_units_Z   1
loop_
 _symmetry_equiv_pos_site_id
 _symmetry_equiv_pos_as_xyz
  1  'x, y, z'
loop_
 _atom_site_type_symbol
 _atom_site_label
 _atom_site_symmetry_multiplicity
 _atom_site_fract_x
 _atom_site_fract_y
 _atom_site_fract_z
 _atom_site_occupancy
  Y  Y0  1  0.378414  0.839265  0.876995  1
  Y  Y1  1  0.878134  0.660482  0.622889  1
  Y  Y2  1  0.621582  0.160640  0.377016  1
  Y  Y3  1  0.121885  0.339512  0.122843  1
  Y  Y4  1  0.621582  0.160640  0.122984  1
  Y  Y5  1  0.121885  0.339512  0.377157  1
  Y  Y6  1  0.378414  0.839265  0.623005  1
  Y  Y7  1  0.878134  0.660482  0.877111  1
  Y  Y8  1  0.534926  0.323369  0.897197  1
  Y  Y9  1  0.034765  0.176645  0.602726  1
  Y  Y10  1  0.465029  0.676719  0.397223  1
  Y  Y11  1  0.965305  0.823408  0.102751  1
  Y  Y12  1  0.465029  0.676719  0.102777  1
  Y  Y13  1  0.965305  0.823408  0.397249  1
  Y  Y14  1  0.534926  0.323369  0.602803  1
  Y  Y15  1  0.034765  0.176645  0.897274  1
  Y  Y16  1  0.209128  0.503733  0.750000  1
  Y  Y17  1  0.709276  0.996348  0.750000  1
  Y  Y18  1  0.790858  0.496423  0.250000  1
  Er  Er19  1  0.290395  0.003637  0.250000  1
  Sn  Sn20  1  0.575152  0.621736  0.750000  1
  Sn  Sn21  1  0.075169  0.878156  0.750000  1
  Sn  Sn22  1  0.424609  0.377455  0.250000  1
  Sn  Sn23  1  0.925803  0.121452  0.250000  1
  Sn  Sn24  1  0.342622  0.148331  0.750000  1
  Sn  Sn25  1  0.842724  0.351641  0.750000  1
  Sn  Sn26  1  0.656499  0.851887  0.250000  1
  Sn  Sn27  1  0.157728  0.649356  0.250000  1
  Pb  Pb28  1  0.281971  0.033215  0.042021  1
  Pb  Pb29  1  0.781940  0.466685  0.458308  1
  Pb  Pb30  1  0.718034  0.966621  0.541421  1
  Pb  Pb31  1  0.218037  0.533362  0.958546  1
  Pb  Pb32  1  0.718034  0.966621  0.958579  1
  Pb  Pb33  1  0.218037  0.533362  0.541454  1
  Pb  Pb34  1  0.281971  0.033215  0.457979  1
  Pb  Pb35  1  0.781940  0.466685  0.041692  1
