# generated using pymatgen
data_NaCr(PtO3)2
_symmetry_space_group_name_H-M   'P 1'
_cell_length_a   5.27882550
_cell_length_b   5.28205326
_cell_length_c   5.91996400
_cell_angle_alpha   72.89317529
_cell_angle_beta   98.48126613
_cell_angle_gamma   119.99905210
_symmetry_Int_Tables_number   1
_chemical_formula_structural   NaCr(PtO3)2
_chemical_formula_sum   'Na1 Cr1 Pt2 O6'
_cell_volume   136.62865979
_cell_formula_units_Z   1
loop_
 _symmetry_equiv_pos_site_id
 _symmetry_equiv_pos_as_xyz
  1  'x, y, z'
loop_
 _atom_site_type_symbol
 _atom_site_label
 _atom_site_symmetry_multiplicity
 _atom_site_fract_x
 _atom_site_fract_y
 _atom_site_fract_z
 _atom_site_occupancy
  Na  Na0  1  0.332834  0.166431  0.500014  1
  Cr  Cr1  1  0.996423  0.998222  0.999975  1
  Pt  Pt2  1  0.668888  0.334423  0.000005  1
  Pt  Pt3  1  0.333921  0.666976  0.999998  1
  O  O4  1  0.332004  0.943363  0.180987  1
  O  O5  1  0.003667  0.270531  0.182830  1
  O  O6  1  0.665443  0.603872  0.185021  1
  O  O7  1  0.665126  0.061395  0.814989  1
  O  O8  1  0.331705  0.388494  0.819011  1
  O  O9  1  0.003325  0.732961  0.817169  1
