# generated using pymatgen
data_HoTm3(WO6)2
_symmetry_space_group_name_H-M   'P 1'
_cell_length_a   5.34680600
_cell_length_b   7.63734725
_cell_length_c   11.37975318
_cell_angle_alpha   75.24310979
_cell_angle_beta   90.00000000
_cell_angle_gamma   90.00000000
_symmetry_Int_Tables_number   1
_chemical_formula_structural   HoTm3(WO6)2
_chemical_formula_sum   'Ho2 Tm6 W4 O24'
_cell_volume   449.36905113
_cell_formula_units_Z   2
loop_
 _symmetry_equiv_pos_site_id
 _symmetry_equiv_pos_as_xyz
  1  'x, y, z'
loop_
 _atom_site_type_symbol
 _atom_site_label
 _atom_site_symmetry_multiplicity
 _atom_site_fract_x
 _atom_site_fract_y
 _atom_site_fract_z
 _atom_site_occupancy
  Ho  Ho0  1  0.684583  0.500000  0.750000  1
  Ho  Ho1  1  0.315417  0.500000  0.250000  1
  Tm  Tm2  1  0.739026  0.000000  0.750000  1
  Tm  Tm3  1  0.260974  0.000000  0.250000  1
  Tm  Tm4  1  0.185976  0.796639  0.578306  1
  Tm  Tm5  1  0.814024  0.796639  0.078306  1
  Tm  Tm6  1  0.185976  0.203361  0.921694  1
  Tm  Tm7  1  0.814024  0.203361  0.421694  1
  W  W8  1  0.254833  0.723022  0.885929  1
  W  W9  1  0.745167  0.723022  0.385929  1
  W  W10  1  0.254833  0.276978  0.614071  1
  W  W11  1  0.745167  0.276978  0.114071  1
  O  O12  1  0.039180  0.940804  0.895523  1
  O  O13  1  0.533331  0.849885  0.930912  1
  O  O14  1  0.960820  0.940804  0.395523  1
  O  O15  1  0.461594  0.790807  0.726524  1
  O  O16  1  0.466669  0.849885  0.430912  1
  O  O17  1  0.982366  0.711574  0.769960  1
  O  O18  1  0.538406  0.790807  0.226524  1
  O  O19  1  0.853879  0.634470  0.549587  1
  O  O20  1  0.361324  0.487269  0.887299  1
  O  O21  1  0.017634  0.711574  0.269960  1
  O  O22  1  0.361324  0.512731  0.612701  1
  O  O23  1  0.853879  0.365530  0.950413  1
  O  O24  1  0.146121  0.634470  0.049587  1
  O  O25  1  0.638676  0.487269  0.387299  1
  O  O26  1  0.982366  0.288426  0.730040  1
  O  O27  1  0.638676  0.512731  0.112701  1
  O  O28  1  0.146121  0.365530  0.450413  1
  O  O29  1  0.461594  0.209193  0.773476  1
  O  O30  1  0.017634  0.288426  0.230040  1
  O  O31  1  0.533331  0.150115  0.569088  1
  O  O32  1  0.538406  0.209193  0.273476  1
  O  O33  1  0.039180  0.059196  0.604477  1
  O  O34  1  0.466669  0.150115  0.069088  1
  O  O35  1  0.960820  0.059196  0.104477  1
