# generated using pymatgen
data_YScSi14RuRh5
_symmetry_space_group_name_H-M   'P 1'
_cell_length_a   7.94175797
_cell_length_b   7.94134501
_cell_length_c   7.96222066
_cell_angle_alpha   57.13073871
_cell_angle_beta   57.13418786
_cell_angle_gamma   57.17076241
_symmetry_Int_Tables_number   1
_chemical_formula_structural   YScSi14RuRh5
_chemical_formula_sum   'Y1 Sc1 Si14 Ru1 Rh5'
_cell_volume   331.72667867
_cell_formula_units_Z   1
loop_
 _symmetry_equiv_pos_site_id
 _symmetry_equiv_pos_as_xyz
  1  'x, y, z'
loop_
 _atom_site_type_symbol
 _atom_site_label
 _atom_site_symmetry_multiplicity
 _atom_site_fract_x
 _atom_site_fract_y
 _atom_site_fract_z
 _atom_site_occupancy
  Y  Y0  1  0.000485  0.001485  0.998527  1
  Sc  Sc1  1  0.497477  0.499330  0.501991  1
  Si  Si2  1  0.752966  0.747598  0.750213  1
  Si  Si3  1  0.249462  0.250084  0.249766  1
  Si  Si4  1  0.849699  0.067461  0.671333  1
  Si  Si5  1  0.670864  0.850961  0.066900  1
  Si  Si6  1  0.067996  0.668985  0.849797  1
  Si  Si7  1  0.646889  0.827104  0.435562  1
  Si  Si8  1  0.435206  0.648022  0.826601  1
  Si  Si9  1  0.829125  0.434699  0.648039  1
  Si  Si10  1  0.172044  0.564556  0.355521  1
  Si  Si11  1  0.564729  0.352588  0.173136  1
  Si  Si12  1  0.351160  0.174627  0.564844  1
  Si  Si13  1  0.933102  0.330141  0.146359  1
  Si  Si14  1  0.327512  0.151291  0.932450  1
  Si  Si15  1  0.149487  0.932614  0.328998  1
  Ru  Ru16  1  0.076109  0.427489  0.747921  1
  Rh  Rh17  1  0.252463  0.926142  0.569686  1
  Rh  Rh18  1  0.570422  0.251715  0.926881  1
  Rh  Rh19  1  0.925637  0.570870  0.252177  1
  Rh  Rh20  1  0.429705  0.748512  0.073241  1
  Rh  Rh21  1  0.747458  0.073725  0.430057  1
