# generated using pymatgen
data_HoErAs4O9
_symmetry_space_group_name_H-M   'P 1'
_cell_length_a   6.70328616
_cell_length_b   7.51087657
_cell_length_c   9.77006887
_cell_angle_alpha   94.90637651
_cell_angle_beta   104.11020625
_cell_angle_gamma   104.72876704
_symmetry_Int_Tables_number   1
_chemical_formula_structural   HoErAs4O9
_chemical_formula_sum   'Ho2 Er2 As8 O18'
_cell_volume   455.64047733
_cell_formula_units_Z   2
loop_
 _symmetry_equiv_pos_site_id
 _symmetry_equiv_pos_as_xyz
  1  'x, y, z'
loop_
 _atom_site_type_symbol
 _atom_site_label
 _atom_site_symmetry_multiplicity
 _atom_site_fract_x
 _atom_site_fract_y
 _atom_site_fract_z
 _atom_site_occupancy
  Ho  Ho0  1  0.243472  0.939080  0.614805  1
  Ho  Ho1  1  0.756528  0.060920  0.385195  1
  Er  Er2  1  0.721293  0.529552  0.409846  1
  Er  Er3  1  0.278707  0.470448  0.590154  1
  As  As4  1  0.683090  0.773715  0.078110  1
  As  As5  1  0.316910  0.226285  0.921890  1
  As  As6  1  0.169834  0.752337  0.912971  1
  As  As7  1  0.830166  0.247663  0.087029  1
  As  As8  1  0.744089  0.914987  0.710117  1
  As  As9  1  0.255911  0.085013  0.289883  1
  As  As10  1  0.810031  0.351691  0.702239  1
  As  As11  1  0.189969  0.648309  0.297761  1
  O  O12  1  0.723821  0.748446  0.259646  1
  O  O13  1  0.276179  0.251554  0.740354  1
  O  O14  1  0.315484  0.978580  0.869215  1
  O  O15  1  0.684516  0.021420  0.130785  1
  O  O16  1  0.608570  0.325817  0.985213  1
  O  O17  1  0.391430  0.674183  0.014787  1
  O  O18  1  0.126180  0.644901  0.737275  1
  O  O19  1  0.873820  0.355099  0.262725  1
  O  O20  1  0.847827  0.875337  0.559074  1
  O  O21  1  0.152173  0.124663  0.440926  1
  O  O22  1  0.481954  0.767415  0.666220  1
  O  O23  1  0.518046  0.232585  0.333780  1
  O  O24  1  0.372977  0.532526  0.379946  1
  O  O25  1  0.627023  0.467474  0.620054  1
  O  O26  1  0.088883  0.669467  0.454055  1
  O  O27  1  0.911117  0.330533  0.545945  1
  O  O28  1  0.377735  0.899313  0.358875  1
  O  O29  1  0.622265  0.100687  0.641125  1
