# generated using pymatgen
data_Ho3Er7(TmRh2)2
_symmetry_space_group_name_H-M   'P 1'
_cell_length_a   6.27559121
_cell_length_b   7.13921906
_cell_length_c   9.31635007
_cell_angle_alpha   89.98603937
_cell_angle_beta   89.99835241
_cell_angle_gamma   89.98214888
_symmetry_Int_Tables_number   1
_chemical_formula_structural   Ho3Er7(TmRh2)2
_chemical_formula_sum   'Ho3 Er7 Tm2 Rh4'
_cell_volume   417.39872597
_cell_formula_units_Z   1
loop_
 _symmetry_equiv_pos_site_id
 _symmetry_equiv_pos_as_xyz
  1  'x, y, z'
loop_
 _atom_site_type_symbol
 _atom_site_label
 _atom_site_symmetry_multiplicity
 _atom_site_fract_x
 _atom_site_fract_y
 _atom_site_fract_z
 _atom_site_occupancy
  Ho  Ho0  1  0.867542  0.966647  0.750235  1
  Ho  Ho1  1  0.367289  0.533529  0.249769  1
  Ho  Ho2  1  0.632371  0.466228  0.750263  1
  Er  Er3  1  0.827786  0.678580  0.437012  1
  Er  Er4  1  0.327513  0.821637  0.562765  1
  Er  Er5  1  0.327445  0.821815  0.937295  1
  Er  Er6  1  0.827751  0.678445  0.062855  1
  Er  Er7  1  0.172347  0.321192  0.563005  1
  Er  Er8  1  0.672710  0.178513  0.436786  1
  Er  Er9  1  0.132900  0.034045  0.249699  1
  Tm  Tm10  1  0.672790  0.178389  0.063242  1
  Tm  Tm11  1  0.172361  0.321345  0.937016  1
  Rh  Rh12  1  0.053826  0.615571  0.750302  1
  Rh  Rh13  1  0.553006  0.884681  0.249744  1
  Rh  Rh14  1  0.445964  0.116138  0.750412  1
  Rh  Rh15  1  0.946396  0.383249  0.249602  1
