# generated using pymatgen
data_Yb2ZnCo7C2
_symmetry_space_group_name_H-M   'P 1'
_cell_length_a   5.07436000
_cell_length_b   5.07436079
_cell_length_c   6.38626000
_cell_angle_alpha   90.00000000
_cell_angle_beta   90.00000000
_cell_angle_gamma   120.00000790
_symmetry_Int_Tables_number   1
_chemical_formula_structural   Yb2ZnCo7C2
_chemical_formula_sum   'Yb2 Zn1 Co7 C2'
_cell_volume   142.40977824
_cell_formula_units_Z   1
loop_
 _symmetry_equiv_pos_site_id
 _symmetry_equiv_pos_as_xyz
  1  'x, y, z'
loop_
 _atom_site_type_symbol
 _atom_site_label
 _atom_site_symmetry_multiplicity
 _atom_site_fract_x
 _atom_site_fract_y
 _atom_site_fract_z
 _atom_site_occupancy
  Yb  Yb0  1  0.000000  0.000000  0.000000  1
  Yb  Yb1  1  0.000000  0.000000  0.500000  1
  Zn  Zn2  1  0.666667  0.333333  0.500000  1
  Co  Co3  1  0.333333  0.666667  0.500000  1
  Co  Co4  1  0.498737  0.501263  0.804081  1
  Co  Co5  1  0.498737  0.997475  0.804081  1
  Co  Co6  1  0.002525  0.501263  0.804081  1
  Co  Co7  1  0.498737  0.501263  0.195919  1
  Co  Co8  1  0.498737  0.997475  0.195919  1
  Co  Co9  1  0.002525  0.501263  0.195919  1
  C  C10  1  0.666667  0.333333  0.000000  1
  C  C11  1  0.333333  0.666667  0.000000  1
