# generated using pymatgen
data_La2PrCd3AgGe2
_symmetry_space_group_name_H-M   'P 1'
_cell_length_a   7.61501565
_cell_length_b   7.61501700
_cell_length_c   4.50278300
_cell_angle_alpha   90.00000000
_cell_angle_beta   90.00000000
_cell_angle_gamma   119.87831120
_symmetry_Int_Tables_number   1
_chemical_formula_structural   La2PrCd3AgGe2
_chemical_formula_sum   'La2 Pr1 Cd3 Ag1 Ge2'
_cell_volume   226.40424271
_cell_formula_units_Z   1
loop_
 _symmetry_equiv_pos_site_id
 _symmetry_equiv_pos_as_xyz
  1  'x, y, z'
loop_
 _atom_site_type_symbol
 _atom_site_label
 _atom_site_symmetry_multiplicity
 _atom_site_fract_x
 _atom_site_fract_y
 _atom_site_fract_z
 _atom_site_occupancy
  La  La0  1  0.580746  0.998360  0.000000  1
  La  La1  1  0.998360  0.580746  0.000000  1
  Pr  Pr2  1  0.417654  0.417654  0.000000  1
  Cd  Cd3  1  0.245604  0.002227  0.500000  1
  Cd  Cd4  1  0.002227  0.245604  0.500000  1
  Cd  Cd5  1  0.753290  0.753290  0.500000  1
  Ag  Ag6  1  0.001477  0.001477  0.000000  1
  Ge  Ge7  1  0.334551  0.666089  0.500000  1
  Ge  Ge8  1  0.666089  0.334551  0.500000  1
