# generated using pymatgen
data_Pr19TmSi15Ir
_symmetry_space_group_name_H-M   'P 1'
_cell_length_a   7.87955623
_cell_length_b   7.88464493
_cell_length_c   15.35521600
_cell_angle_alpha   89.93383619
_cell_angle_beta   89.81919516
_cell_angle_gamma   90.05510548
_symmetry_Int_Tables_number   1
_chemical_formula_structural   Pr19TmSi15Ir
_chemical_formula_sum   'Pr19 Tm1 Si15 Ir1'
_cell_volume   953.97539928
_cell_formula_units_Z   1
loop_
 _symmetry_equiv_pos_site_id
 _symmetry_equiv_pos_as_xyz
  1  'x, y, z'
loop_
 _atom_site_type_symbol
 _atom_site_label
 _atom_site_symmetry_multiplicity
 _atom_site_fract_x
 _atom_site_fract_y
 _atom_site_fract_z
 _atom_site_occupancy
  Pr  Pr0  1  0.191609  0.804857  0.249153  1
  Pr  Pr1  1  0.821346  0.189817  0.750709  1
  Pr  Pr2  1  0.694968  0.688948  0.500339  1
  Pr  Pr3  1  0.374921  0.010607  0.446940  1
  Pr  Pr4  1  0.485989  0.879678  0.697729  1
  Pr  Pr5  1  0.510667  0.122087  0.194902  1
  Pr  Pr6  1  0.878426  0.487279  0.301404  1
  Pr  Pr7  1  0.125538  0.508469  0.802632  1
  Pr  Pr8  1  0.624762  0.987288  0.947551  1
  Pr  Pr9  1  0.006663  0.377053  0.554086  1
  Pr  Pr10  1  0.987508  0.623433  0.052351  1
  Pr  Pr11  1  0.132631  0.984218  0.875320  1
  Pr  Pr12  1  0.519442  0.629833  0.125378  1
  Pr  Pr13  1  0.471881  0.363149  0.630028  1
  Pr  Pr14  1  0.627159  0.518025  0.873796  1
  Pr  Pr15  1  0.373477  0.479855  0.372195  1
  Pr  Pr16  1  0.873654  0.022183  0.376538  1
  Pr  Pr17  1  0.981057  0.125834  0.122652  1
  Pr  Pr18  1  0.026655  0.880646  0.624721  1
  Tm  Tm19  1  0.310012  0.308877  0.999607  1
  Si  Si20  1  0.329734  0.690326  0.954032  1
  Si  Si21  1  0.664635  0.305198  0.454413  1
  Si  Si22  1  0.690993  0.330738  0.046349  1
  Si  Si23  1  0.306946  0.668783  0.546157  1
  Si  Si24  1  0.806646  0.831334  0.204574  1
  Si  Si25  1  0.169595  0.194540  0.294248  1
  Si  Si26  1  0.831527  0.805088  0.797120  1
  Si  Si27  1  0.288840  0.925884  0.057968  1
  Si  Si28  1  0.580204  0.785455  0.310009  1
  Si  Si29  1  0.419730  0.213302  0.817693  1
  Si  Si30  1  0.780171  0.583047  0.690169  1
  Si  Si31  1  0.214492  0.417836  0.185231  1
  Si  Si32  1  0.704432  0.074457  0.559275  1
  Si  Si33  1  0.924319  0.289359  0.942208  1
  Si  Si34  1  0.080943  0.716034  0.440876  1
  Ir  Ir35  1  0.188432  0.176479  0.701644  1
