# generated using pymatgen
data_Pr8Cd2CoPd
_symmetry_space_group_name_H-M   'P 1'
_cell_length_a   9.99356134
_cell_length_b   9.99356175
_cell_length_c   10.00864700
_cell_angle_alpha   59.95005036
_cell_angle_beta   59.95004899
_cell_angle_gamma   60.10316692
_symmetry_Int_Tables_number   1
_chemical_formula_structural   Pr8Cd2CoPd
_chemical_formula_sum   'Pr16 Cd4 Co2 Pd2'
_cell_volume   706.82126573
_cell_formula_units_Z   2
loop_
 _symmetry_equiv_pos_site_id
 _symmetry_equiv_pos_as_xyz
  1  'x, y, z'
loop_
 _atom_site_type_symbol
 _atom_site_label
 _atom_site_symmetry_multiplicity
 _atom_site_fract_x
 _atom_site_fract_y
 _atom_site_fract_z
 _atom_site_occupancy
  Pr  Pr0  1  0.344726  0.344726  0.359906  1
  Pr  Pr1  1  0.344726  0.344726  0.950644  1
  Pr  Pr2  1  0.339667  0.957743  0.351295  1
  Pr  Pr3  1  0.957743  0.339667  0.351295  1
  Pr  Pr4  1  0.820433  0.189744  0.190378  1
  Pr  Pr5  1  0.189744  0.820433  0.799446  1
  Pr  Pr6  1  0.189744  0.820433  0.190378  1
  Pr  Pr7  1  0.820433  0.189744  0.799446  1
  Pr  Pr8  1  0.188605  0.188605  0.811395  1
  Pr  Pr9  1  0.807387  0.807387  0.192613  1
  Pr  Pr10  1  0.936064  0.561682  0.564744  1
  Pr  Pr11  1  0.561682  0.936064  0.937511  1
  Pr  Pr12  1  0.561682  0.936064  0.564744  1
  Pr  Pr13  1  0.936064  0.561682  0.937511  1
  Pr  Pr14  1  0.561232  0.561232  0.938768  1
  Pr  Pr15  1  0.935194  0.935194  0.564806  1
  Cd  Cd16  1  0.579594  0.579594  0.579028  1
  Cd  Cd17  1  0.579594  0.579594  0.261782  1
  Cd  Cd18  1  0.580999  0.259904  0.579548  1
  Cd  Cd19  1  0.259904  0.580999  0.579548  1
  Co  Co20  1  0.142933  0.142933  0.141214  1
  Co  Co21  1  0.142933  0.142933  0.572920  1
  Pd  Pd22  1  0.145704  0.573215  0.140540  1
  Pd  Pd23  1  0.573215  0.145704  0.140540  1
