# generated using pymatgen
data_Ce2Al16NiPd8
_symmetry_space_group_name_H-M   'P 1'
_cell_length_a   11.11377304
_cell_length_b   11.11377207
_cell_length_c   11.11377248
_cell_angle_alpha   158.34275058
_cell_angle_beta   115.44229519
_cell_angle_gamma   68.96058827
_symmetry_Int_Tables_number   1
_chemical_formula_structural   Ce2Al16NiPd8
_chemical_formula_sum   'Ce2 Al16 Ni1 Pd8'
_cell_volume   454.12670231
_cell_formula_units_Z   1
loop_
 _symmetry_equiv_pos_site_id
 _symmetry_equiv_pos_as_xyz
  1  'x, y, z'
loop_
 _atom_site_type_symbol
 _atom_site_label
 _atom_site_symmetry_multiplicity
 _atom_site_fract_x
 _atom_site_fract_y
 _atom_site_fract_z
 _atom_site_occupancy
  Ce  Ce0  1  0.227741  0.227741  0.000000  1
  Ce  Ce1  1  0.772259  0.772259  0.000000  1
  Al  Al2  1  0.273357  0.392740  0.880616  1
  Al  Al3  1  0.087348  0.921550  0.165798  1
  Al  Al4  1  0.509532  0.203504  0.306029  1
  Al  Al5  1  0.244248  0.078450  0.165798  1
  Al  Al6  1  0.920253  0.420253  0.500000  1
  Al  Al7  1  0.726643  0.607260  0.119384  1
  Al  Al8  1  0.897476  0.203504  0.693971  1
  Al  Al9  1  0.490468  0.796496  0.693971  1
  Al  Al10  1  0.383985  0.000000  0.383985  1
  Al  Al11  1  0.616015  0.000000  0.616015  1
  Al  Al12  1  0.487876  0.607260  0.880616  1
  Al  Al13  1  0.102524  0.796496  0.306029  1
  Al  Al14  1  0.912652  0.078450  0.834202  1
  Al  Al15  1  0.755752  0.921550  0.834202  1
  Al  Al16  1  0.512124  0.392740  0.119384  1
  Al  Al17  1  0.079747  0.579747  0.500000  1
  Ni  Ni18  1  0.000000  0.000000  0.000000  1
  Pd  Pd19  1  0.757700  0.500000  0.257700  1
  Pd  Pd20  1  0.025189  0.340902  0.684287  1
  Pd  Pd21  1  0.625280  0.125280  0.500000  1
  Pd  Pd22  1  0.242300  0.500000  0.742300  1
  Pd  Pd23  1  0.374720  0.874720  0.500000  1
  Pd  Pd24  1  0.656614  0.340902  0.315713  1
  Pd  Pd25  1  0.343386  0.659098  0.684287  1
  Pd  Pd26  1  0.974811  0.659098  0.315713  1
