# generated using pymatgen
data_LuSc(H3Rh)2
_symmetry_space_group_name_H-M   'P 1'
_cell_length_a   5.78428503
_cell_length_b   5.78428477
_cell_length_c   4.56128500
_cell_angle_alpha   90.00000000
_cell_angle_beta   90.00000000
_cell_angle_gamma   143.02735137
_symmetry_Int_Tables_number   1
_chemical_formula_structural   LuSc(H3Rh)2
_chemical_formula_sum   'Lu1 Sc1 H6 Rh2'
_cell_volume   91.78555234
_cell_formula_units_Z   1
loop_
 _symmetry_equiv_pos_site_id
 _symmetry_equiv_pos_as_xyz
  1  'x, y, z'
loop_
 _atom_site_type_symbol
 _atom_site_label
 _atom_site_symmetry_multiplicity
 _atom_site_fract_x
 _atom_site_fract_y
 _atom_site_fract_z
 _atom_site_occupancy
  Lu  Lu0  1  0.868746  0.131255  0.749999  1
  Sc  Sc1  1  0.129999  0.870002  0.249999  1
  H  H2  1  0.687919  0.312082  0.023728  1
  H  H3  1  0.923256  0.076744  0.249999  1
  H  H4  1  0.687919  0.312082  0.476272  1
  H  H5  1  0.307803  0.692198  0.506071  1
  H  H6  1  0.082925  0.917075  0.749999  1
  H  H7  1  0.307803  0.692198  0.993928  1
  Rh  Rh8  1  0.418601  0.581399  0.249999  1
  Rh  Rh9  1  0.585032  0.414968  0.749999  1
