# generated using pymatgen
data_YbZr(PaH4)6
_symmetry_space_group_name_H-M   'P 1'
_cell_length_a   6.52461800
_cell_length_b   6.52461800
_cell_length_c   6.52461800
_cell_angle_alpha   90.00000000
_cell_angle_beta   90.00000000
_cell_angle_gamma   90.00000000
_symmetry_Int_Tables_number   1
_chemical_formula_structural   YbZr(PaH4)6
_chemical_formula_sum   'Yb1 Zr1 Pa6 H24'
_cell_volume   277.75716432
_cell_formula_units_Z   1
loop_
 _symmetry_equiv_pos_site_id
 _symmetry_equiv_pos_as_xyz
  1  'x, y, z'
loop_
 _atom_site_type_symbol
 _atom_site_label
 _atom_site_symmetry_multiplicity
 _atom_site_fract_x
 _atom_site_fract_y
 _atom_site_fract_z
 _atom_site_occupancy
  Yb  Yb0  1  0.000000  0.000000  0.000000  1
  Zr  Zr1  1  0.500000  0.500000  0.500000  1
  Pa  Pa2  1  0.250078  0.000000  0.500000  1
  Pa  Pa3  1  0.749922  0.000000  0.500000  1
  Pa  Pa4  1  0.000000  0.500000  0.250078  1
  Pa  Pa5  1  0.000000  0.500000  0.749922  1
  Pa  Pa6  1  0.500000  0.749922  0.000000  1
  Pa  Pa7  1  0.500000  0.250078  0.000000  1
  H  H8  1  0.000000  0.157878  0.311675  1
  H  H9  1  0.500000  0.204978  0.650242  1
  H  H10  1  0.500000  0.795022  0.349758  1
  H  H11  1  0.795022  0.650242  0.500000  1
  H  H12  1  0.204978  0.650242  0.500000  1
  H  H13  1  0.349758  0.500000  0.795022  1
  H  H14  1  0.650242  0.500000  0.795022  1
  H  H15  1  0.311675  0.000000  0.157878  1
  H  H16  1  0.157878  0.311675  0.000000  1
  H  H17  1  0.842122  0.688325  0.000000  1
  H  H18  1  0.311675  0.000000  0.842122  1
  H  H19  1  0.842122  0.311675  0.000000  1
  H  H20  1  0.688325  0.000000  0.157878  1
  H  H21  1  0.688325  0.000000  0.842122  1
  H  H22  1  0.157878  0.688325  0.000000  1
  H  H23  1  0.000000  0.842122  0.688325  1
  H  H24  1  0.000000  0.157878  0.688325  1
  H  H25  1  0.000000  0.842122  0.311675  1
  H  H26  1  0.650242  0.500000  0.204978  1
  H  H27  1  0.349758  0.500000  0.204978  1
  H  H28  1  0.795022  0.349758  0.500000  1
  H  H29  1  0.204978  0.349758  0.500000  1
  H  H30  1  0.500000  0.795022  0.650242  1
  H  H31  1  0.500000  0.204978  0.349758  1
