# generated using pymatgen
data_La3In4IrPd
_symmetry_space_group_name_H-M   'P 1'
_cell_length_a   7.90089900
_cell_length_b   7.90089954
_cell_length_c   4.13062800
_cell_angle_alpha   90.00000000
_cell_angle_beta   90.00000000
_cell_angle_gamma   120.00001032
_symmetry_Int_Tables_number   1
_chemical_formula_structural   La3In4IrPd
_chemical_formula_sum   'La3 In4 Ir1 Pd1'
_cell_volume   223.30565477
_cell_formula_units_Z   1
loop_
 _symmetry_equiv_pos_site_id
 _symmetry_equiv_pos_as_xyz
  1  'x, y, z'
loop_
 _atom_site_type_symbol
 _atom_site_label
 _atom_site_symmetry_multiplicity
 _atom_site_fract_x
 _atom_site_fract_y
 _atom_site_fract_z
 _atom_site_occupancy
  La  La0  1  0.061894  0.302466  0.500000  1
  La  La1  1  0.697534  0.759426  0.500000  1
  La  La2  1  0.240574  0.938106  0.500000  1
  In  In3  1  0.667285  0.087724  0.000000  1
  In  In4  1  0.912276  0.579562  0.000000  1
  In  In5  1  0.420438  0.332715  0.000000  1
  In  In6  1  0.333333  0.666667  0.000000  1
  Ir  Ir7  1  0.000000  0.000000  0.000000  1
  Pd  Pd8  1  0.666667  0.333333  0.500000  1
