# generated using pymatgen
data_Pd2Au5
_symmetry_space_group_name_H-M   'P 1'
_cell_length_a   5.02891858
_cell_length_b   5.02891942
_cell_length_c   6.47386197
_cell_angle_alpha   82.86238256
_cell_angle_beta   82.86238206
_cell_angle_gamma   48.23678742
_symmetry_Int_Tables_number   1
_chemical_formula_structural   Pd2Au5
_chemical_formula_sum   'Pd2 Au5'
_cell_volume   120.98549466
_cell_formula_units_Z   1
loop_
 _symmetry_equiv_pos_site_id
 _symmetry_equiv_pos_as_xyz
  1  'x, y, z'
loop_
 _atom_site_type_symbol
 _atom_site_label
 _atom_site_symmetry_multiplicity
 _atom_site_fract_x
 _atom_site_fract_y
 _atom_site_fract_z
 _atom_site_occupancy
  Pd  Pd0  1  0.428106  0.428106  0.713233  1
  Pd  Pd1  1  0.571894  0.571894  0.286767  1
  Au  Au2  1  0.141161  0.141161  0.569840  1
  Au  Au3  1  0.286552  0.286552  0.142983  1
  Au  Au4  1  0.713448  0.713448  0.857017  1
  Au  Au5  1  0.858839  0.858839  0.430160  1
  Au  Au6  1  0.000000  0.000000  0.000000  1
