# generated using pymatgen
data_K2PaWO6
_symmetry_space_group_name_H-M   'P 1'
_cell_length_a   5.96718753
_cell_length_b   5.96718690
_cell_length_c   5.96718653
_cell_angle_alpha   120.10090782
_cell_angle_beta   120.10090147
_cell_angle_gamma   89.82531798
_symmetry_Int_Tables_number   1
_chemical_formula_structural   K2PaWO6
_chemical_formula_sum   'K2 Pa1 W1 O6'
_cell_volume   150.01299130
_cell_formula_units_Z   1
loop_
 _symmetry_equiv_pos_site_id
 _symmetry_equiv_pos_as_xyz
  1  'x, y, z'
loop_
 _atom_site_type_symbol
 _atom_site_label
 _atom_site_symmetry_multiplicity
 _atom_site_fract_x
 _atom_site_fract_y
 _atom_site_fract_z
 _atom_site_occupancy
  K  K0  1  0.750000  0.250000  0.500000  1
  K  K1  1  0.250000  0.750000  0.500000  1
  Pa  Pa2  1  0.000000  0.000000  0.000000  1
  W  W3  1  0.500000  0.500000  0.000000  1
  O  O4  1  0.744915  0.255086  0.000000  1
  O  O5  1  0.269626  0.269626  0.000000  1
  O  O6  1  0.730374  0.730374  0.000000  1
  O  O7  1  0.255086  0.744915  0.000000  1
  O  O8  1  0.255085  0.255085  0.510171  1
  O  O9  1  0.744915  0.744915  0.489830  1
