# generated using pymatgen
data_Er2Tm10GaCo5
_symmetry_space_group_name_H-M   'P 1'
_cell_length_a   8.11295453
_cell_length_b   8.11295539
_cell_length_c   8.10958134
_cell_angle_alpha   110.89151878
_cell_angle_beta   110.83863568
_cell_angle_gamma   106.73582519
_symmetry_Int_Tables_number   1
_chemical_formula_structural   Er2Tm10GaCo5
_chemical_formula_sum   'Er2 Tm10 Ga1 Co5'
_cell_volume   410.10593755
_cell_formula_units_Z   1
loop_
 _symmetry_equiv_pos_site_id
 _symmetry_equiv_pos_as_xyz
  1  'x, y, z'
loop_
 _atom_site_type_symbol
 _atom_site_label
 _atom_site_symmetry_multiplicity
 _atom_site_fract_x
 _atom_site_fract_y
 _atom_site_fract_z
 _atom_site_occupancy
  Er  Er0  1  0.287499  0.185660  0.473159  1
  Er  Er1  1  0.712501  0.814340  0.526841  1
  Tm  Tm2  1  0.287318  0.814249  0.101566  1
  Tm  Tm3  1  0.712682  0.185751  0.898434  1
  Tm  Tm4  1  0.618828  0.315975  0.302464  1
  Tm  Tm5  1  0.381172  0.684025  0.697536  1
  Tm  Tm6  1  0.013511  0.316364  0.697536  1
  Tm  Tm7  1  0.986489  0.683636  0.302464  1
  Tm  Tm8  1  0.217156  0.408718  0.191033  1
  Tm  Tm9  1  0.782844  0.591282  0.808967  1
  Tm  Tm10  1  0.217686  0.026123  0.808967  1
  Tm  Tm11  1  0.782314  0.973877  0.191033  1
  Ga  Ga12  1  0.500000  0.500000  0.000000  1
  Co  Co13  1  0.999849  0.374650  0.374498  1
  Co  Co14  1  0.000151  0.625350  0.625502  1
  Co  Co15  1  0.385685  0.885685  0.500000  1
  Co  Co16  1  0.614315  0.114315  0.500000  1
  Co  Co17  1  0.000000  0.000000  0.000000  1
