# generated using pymatgen
data_BaNaGa2F9
_symmetry_space_group_name_H-M   'P 1'
_cell_length_a   7.35306608
_cell_length_b   7.35306681
_cell_length_c   7.84470260
_cell_angle_alpha   89.21741901
_cell_angle_beta   89.21741611
_cell_angle_gamma   119.69099854
_symmetry_Int_Tables_number   1
_chemical_formula_structural   BaNaGa2F9
_chemical_formula_sum   'Ba2 Na2 Ga4 F18'
_cell_volume   368.32175076
_cell_formula_units_Z   2
loop_
 _symmetry_equiv_pos_site_id
 _symmetry_equiv_pos_as_xyz
  1  'x, y, z'
loop_
 _atom_site_type_symbol
 _atom_site_label
 _atom_site_symmetry_multiplicity
 _atom_site_fract_x
 _atom_site_fract_y
 _atom_site_fract_z
 _atom_site_occupancy
  Ba  Ba0  1  0.469944  0.530056  0.750000  1
  Ba  Ba1  1  0.530056  0.469944  0.250000  1
  Na  Na2  1  0.500000  0.000000  0.000000  1
  Na  Na3  1  0.000000  0.500000  0.500000  1
  Ga  Ga4  1  0.000000  0.000000  0.500000  1
  Ga  Ga5  1  0.000000  0.000000  0.000000  1
  Ga  Ga6  1  0.500000  0.000000  0.500000  1
  Ga  Ga7  1  0.000000  0.500000  0.000000  1
  F  F8  1  0.198347  0.904655  0.534317  1
  F  F9  1  0.801653  0.095345  0.465683  1
  F  F10  1  0.095345  0.801653  0.965683  1
  F  F11  1  0.904655  0.198347  0.034317  1
  F  F12  1  0.979342  0.020658  0.750000  1
  F  F13  1  0.020658  0.979342  0.250000  1
  F  F14  1  0.512590  0.919137  0.727270  1
  F  F15  1  0.487410  0.080863  0.272730  1
  F  F16  1  0.080863  0.487410  0.772730  1
  F  F17  1  0.919137  0.512590  0.227270  1
  F  F18  1  0.583556  0.282656  0.558168  1
  F  F19  1  0.416444  0.717344  0.441832  1
  F  F20  1  0.717344  0.416444  0.941832  1
  F  F21  1  0.282656  0.583556  0.058168  1
  F  F22  1  0.714842  0.793257  0.014117  1
  F  F23  1  0.285158  0.206743  0.985883  1
  F  F24  1  0.206743  0.285158  0.485883  1
  F  F25  1  0.793257  0.714842  0.514117  1
