# generated using pymatgen
data_TbPr9(Sn3Br)2
_symmetry_space_group_name_H-M   'P 1'
_cell_length_a   9.56630200
_cell_length_b   9.56630289
_cell_length_c   6.86005700
_cell_angle_alpha   90.00000000
_cell_angle_beta   90.00000000
_cell_angle_gamma   120.00000385
_symmetry_Int_Tables_number   1
_chemical_formula_structural   TbPr9(Sn3Br)2
_chemical_formula_sum   'Tb1 Pr9 Sn6 Br2'
_cell_volume   543.68400144
_cell_formula_units_Z   1
loop_
 _symmetry_equiv_pos_site_id
 _symmetry_equiv_pos_as_xyz
  1  'x, y, z'
loop_
 _atom_site_type_symbol
 _atom_site_label
 _atom_site_symmetry_multiplicity
 _atom_site_fract_x
 _atom_site_fract_y
 _atom_site_fract_z
 _atom_site_occupancy
  Tb  Tb0  1  0.666667  0.333333  0.000000  1
  Pr  Pr1  1  0.267262  0.267034  0.750796  1
  Pr  Pr2  1  0.999773  0.732738  0.750796  1
  Pr  Pr3  1  0.732966  0.000227  0.750796  1
  Pr  Pr4  1  0.999773  0.267034  0.249204  1
  Pr  Pr5  1  0.333333  0.666667  0.500000  1
  Pr  Pr6  1  0.732966  0.732738  0.249204  1
  Pr  Pr7  1  0.666667  0.333333  0.500000  1
  Pr  Pr8  1  0.267262  0.000227  0.249204  1
  Pr  Pr9  1  0.333333  0.666667  0.000000  1
  Sn  Sn10  1  0.613864  0.003106  0.247399  1
  Sn  Sn11  1  0.996894  0.386136  0.752601  1
  Sn  Sn12  1  0.389242  0.003106  0.752601  1
  Sn  Sn13  1  0.613864  0.610758  0.752601  1
  Sn  Sn14  1  0.996894  0.610758  0.247399  1
  Sn  Sn15  1  0.389242  0.386136  0.247399  1
  Br  Br16  1  0.000000  0.000000  0.000000  1
  Br  Br17  1  0.000000  0.000000  0.500000  1
