# generated using pymatgen
data_Y2Ta(NbSi2)2
_symmetry_space_group_name_H-M   'P 1'
_cell_length_a   7.06646800
_cell_length_b   7.06646800
_cell_length_c   13.07059600
_cell_angle_alpha   90.00000000
_cell_angle_beta   90.00000000
_cell_angle_gamma   90.00000000
_symmetry_Int_Tables_number   1
_chemical_formula_structural   Y2Ta(NbSi2)2
_chemical_formula_sum   'Y8 Ta4 Nb8 Si16'
_cell_volume   652.67981908
_cell_formula_units_Z   4
loop_
 _symmetry_equiv_pos_site_id
 _symmetry_equiv_pos_as_xyz
  1  'x, y, z'
loop_
 _atom_site_type_symbol
 _atom_site_label
 _atom_site_symmetry_multiplicity
 _atom_site_fract_x
 _atom_site_fract_y
 _atom_site_fract_z
 _atom_site_occupancy
  Y  Y0  1  0.998100  0.341243  0.217728  1
  Y  Y1  1  0.001900  0.658757  0.717728  1
  Y  Y2  1  0.158757  0.498100  0.467728  1
  Y  Y3  1  0.501900  0.841243  0.032272  1
  Y  Y4  1  0.841243  0.501900  0.967728  1
  Y  Y5  1  0.498100  0.158757  0.532272  1
  Y  Y6  1  0.341243  0.998100  0.782272  1
  Y  Y7  1  0.658757  0.001900  0.282272  1
  Ta  Ta8  1  0.171081  0.171081  0.000000  1
  Ta  Ta9  1  0.828919  0.828919  0.500000  1
  Ta  Ta10  1  0.328919  0.671081  0.250000  1
  Ta  Ta11  1  0.671081  0.328919  0.750000  1
  Nb  Nb12  1  0.154592  0.992098  0.376177  1
  Nb  Nb13  1  0.845408  0.007902  0.876177  1
  Nb  Nb14  1  0.507902  0.654592  0.626177  1
  Nb  Nb15  1  0.345408  0.492098  0.873823  1
  Nb  Nb16  1  0.492098  0.345408  0.126177  1
  Nb  Nb17  1  0.654592  0.507902  0.373823  1
  Nb  Nb18  1  0.992098  0.154592  0.623823  1
  Nb  Nb19  1  0.007902  0.845408  0.123823  1
  Si  Si20  1  0.293433  0.044508  0.186686  1
  Si  Si21  1  0.706567  0.955492  0.686686  1
  Si  Si22  1  0.455492  0.793433  0.436686  1
  Si  Si23  1  0.206567  0.544508  0.063314  1
  Si  Si24  1  0.544508  0.206567  0.936686  1
  Si  Si25  1  0.793433  0.455492  0.563314  1
  Si  Si26  1  0.044508  0.293433  0.813314  1
  Si  Si27  1  0.955492  0.706567  0.313314  1
  Si  Si28  1  0.367190  0.296781  0.317293  1
  Si  Si29  1  0.632810  0.703219  0.817293  1
  Si  Si30  1  0.203219  0.867190  0.567293  1
  Si  Si31  1  0.132810  0.796781  0.932707  1
  Si  Si32  1  0.796781  0.132810  0.067293  1
  Si  Si33  1  0.867190  0.203219  0.432707  1
  Si  Si34  1  0.296781  0.367190  0.682707  1
  Si  Si35  1  0.703219  0.632810  0.182707  1
