# generated using pymatgen
data_K2V3FeP6(O4F3)4
_symmetry_space_group_name_H-M   'P 1'
_cell_length_a   7.35114441
_cell_length_b   7.71793402
_cell_length_c   10.58885200
_cell_angle_alpha   101.26612856
_cell_angle_beta   110.28219974
_cell_angle_gamma   90.47303828
_symmetry_Int_Tables_number   1
_chemical_formula_structural   K2V3FeP6(O4F3)4
_chemical_formula_sum   'K2 V3 Fe1 P6 O16 F12'
_cell_volume   550.76894792
_cell_formula_units_Z   1
loop_
 _symmetry_equiv_pos_site_id
 _symmetry_equiv_pos_as_xyz
  1  'x, y, z'
loop_
 _atom_site_type_symbol
 _atom_site_label
 _atom_site_symmetry_multiplicity
 _atom_site_fract_x
 _atom_site_fract_y
 _atom_site_fract_z
 _atom_site_occupancy
  K  K0  1  0.789015  0.071389  0.802724  1
  K  K1  1  0.210985  0.928611  0.197276  1
  V  V2  1  0.658692  0.317404  0.329704  1
  V  V3  1  0.341308  0.682596  0.670296  1
  V  V4  1  0.000000  0.000000  0.500000  1
  Fe  Fe5  1  0.500000  0.500000  0.000000  1
  P  P6  1  0.657978  0.723689  0.505694  1
  P  P7  1  0.342022  0.276311  0.494306  1
  P  P8  1  0.315782  0.089866  0.822429  1
  P  P9  1  0.684218  0.910134  0.177571  1
  P  P10  1  0.056375  0.583369  0.834658  1
  P  P11  1  0.943625  0.416631  0.165342  1
  O  O12  1  0.735361  0.558926  0.445215  1
  O  O13  1  0.264639  0.441074  0.554785  1
  O  O14  1  0.801783  0.888144  0.555278  1
  O  O15  1  0.198217  0.111856  0.444722  1
  O  O16  1  0.575985  0.071112  0.210446  1
  O  O17  1  0.424015  0.928888  0.789554  1
  O  O18  1  0.462512  0.249888  0.896903  1
  O  O19  1  0.537488  0.750112  0.103097  1
  O  O20  1  0.862885  0.879399  0.294264  1
  O  O21  1  0.137115  0.120601  0.705736  1
  O  O22  1  0.894015  0.335737  0.266838  1
  O  O23  1  0.105985  0.664263  0.733162  1
  O  O24  1  0.792595  0.485669  0.054379  1
  O  O25  1  0.207405  0.514331  0.945621  1
  O  O26  1  0.421287  0.295142  0.382917  1
  O  O27  1  0.578713  0.704858  0.617083  1
  F  F28  1  0.833571  0.203702  0.476816  1
  F  F29  1  0.166429  0.796298  0.523184  1
  F  F30  1  0.501378  0.416279  0.165599  1
  F  F31  1  0.498622  0.583721  0.834401  1
  F  F32  1  0.772534  0.953071  0.066515  1
  F  F33  1  0.227466  0.046929  0.933485  1
  F  F34  1  0.884708  0.437171  0.759829  1
  F  F35  1  0.115292  0.562829  0.240171  1
  F  F36  1  0.520302  0.230813  0.618258  1
  F  F37  1  0.479698  0.769187  0.381742  1
  F  F38  1  0.048586  0.275244  0.091708  1
  F  F39  1  0.951414  0.724756  0.908292  1
