# generated using pymatgen
data_Tm4Ga2B4Ir9Rh
_symmetry_space_group_name_H-M   'P 1'
_cell_length_a   9.52807038
_cell_length_b   9.53609037
_cell_length_c   3.15808600
_cell_angle_alpha   90.00000000
_cell_angle_beta   90.00000000
_cell_angle_gamma   89.93852111
_symmetry_Int_Tables_number   1
_chemical_formula_structural   Tm4Ga2B4Ir9Rh
_chemical_formula_sum   'Tm4 Ga2 B4 Ir9 Rh1'
_cell_volume   286.94523457
_cell_formula_units_Z   1
loop_
 _symmetry_equiv_pos_site_id
 _symmetry_equiv_pos_as_xyz
  1  'x, y, z'
loop_
 _atom_site_type_symbol
 _atom_site_label
 _atom_site_symmetry_multiplicity
 _atom_site_fract_x
 _atom_site_fract_y
 _atom_site_fract_z
 _atom_site_occupancy
  Tm  Tm0  1  0.823237  0.323591  0.000000  1
  Tm  Tm1  1  0.323290  0.177706  0.000000  1
  Tm  Tm2  1  0.676110  0.823693  0.000000  1
  Tm  Tm3  1  0.176892  0.675760  0.000000  1
  Ga  Ga4  1  0.000256  0.999714  0.000000  1
  Ga  Ga5  1  0.499238  0.499806  0.000000  1
  B  B6  1  0.623109  0.123267  0.000000  1
  B  B7  1  0.120552  0.376429  0.000000  1
  B  B8  1  0.877118  0.623181  0.000000  1
  B  B9  1  0.377128  0.876869  0.000000  1
  Ir  Ir10  1  0.069486  0.219269  0.500000  1
  Ir  Ir11  1  0.218866  0.931032  0.500000  1
  Ir  Ir12  1  0.781498  0.068641  0.500000  1
  Ir  Ir13  1  0.931302  0.780887  0.500000  1
  Ir  Ir14  1  0.431102  0.719155  0.500000  1
  Ir  Ir15  1  0.569605  0.281417  0.500000  1
  Ir  Ir16  1  0.719036  0.568991  0.500000  1
  Ir  Ir17  1  0.499708  0.000790  0.500000  1
  Ir  Ir18  1  0.000540  0.499476  0.500000  1
  Rh  Rh19  1  0.281927  0.430325  0.500000  1
