# generated using pymatgen
data_Tb3(YbRu)2
_symmetry_space_group_name_H-M   'P 1'
_cell_length_a   6.44366637
_cell_length_b   7.27674026
_cell_length_c   8.55836466
_cell_angle_alpha   97.02993599
_cell_angle_beta   112.11421848
_cell_angle_gamma   89.99999678
_symmetry_Int_Tables_number   1
_chemical_formula_structural   Tb3(YbRu)2
_chemical_formula_sum   'Tb6 Yb4 Ru4'
_cell_volume   368.51285822
_cell_formula_units_Z   2
loop_
 _symmetry_equiv_pos_site_id
 _symmetry_equiv_pos_as_xyz
  1  'x, y, z'
loop_
 _atom_site_type_symbol
 _atom_site_label
 _atom_site_symmetry_multiplicity
 _atom_site_fract_x
 _atom_site_fract_y
 _atom_site_fract_z
 _atom_site_occupancy
  Tb  Tb0  1  0.636649  0.817558  0.434211  1
  Tb  Tb1  1  0.202439  0.682442  0.565789  1
  Tb  Tb2  1  0.363351  0.182442  0.565789  1
  Tb  Tb3  1  0.797561  0.317558  0.434211  1
  Tb  Tb4  1  0.429548  0.750000  0.000000  1
  Tb  Tb5  1  0.570452  0.250000  0.000000  1
  Yb  Yb6  1  0.977845  0.918894  0.182622  1
  Yb  Yb7  1  0.795223  0.581106  0.817378  1
  Yb  Yb8  1  0.022155  0.081106  0.817378  1
  Yb  Yb9  1  0.204777  0.418894  0.182622  1
  Ru  Ru10  1  0.816848  0.573922  0.229897  1
  Ru  Ru11  1  0.586951  0.926078  0.770103  1
  Ru  Ru12  1  0.183152  0.426078  0.770103  1
  Ru  Ru13  1  0.413049  0.073922  0.229897  1
