# generated using pymatgen
data_Tb8Er9Sc3Si15Os
_symmetry_space_group_name_H-M   'P 1'
_cell_length_a   7.27067508
_cell_length_b   7.68846971
_cell_length_c   14.40294000
_cell_angle_alpha   90.00000000
_cell_angle_beta   90.00000000
_cell_angle_gamma   90.13843677
_symmetry_Int_Tables_number   1
_chemical_formula_structural   Tb8Er9Sc3Si15Os
_chemical_formula_sum   'Tb8 Er9 Sc3 Si15 Os1'
_cell_volume   805.12725532
_cell_formula_units_Z   1
loop_
 _symmetry_equiv_pos_site_id
 _symmetry_equiv_pos_as_xyz
  1  'x, y, z'
loop_
 _atom_site_type_symbol
 _atom_site_label
 _atom_site_symmetry_multiplicity
 _atom_site_fract_x
 _atom_site_fract_y
 _atom_site_fract_z
 _atom_site_occupancy
  Tb  Tb0  1  0.018255  0.183954  0.098075  1
  Tb  Tb1  1  0.983130  0.828071  0.903809  1
  Tb  Tb2  1  0.482920  0.681252  0.904720  1
  Tb  Tb3  1  0.983130  0.828071  0.596191  1
  Tb  Tb4  1  0.517488  0.319130  0.097641  1
  Tb  Tb5  1  0.018255  0.183954  0.401925  1
  Tb  Tb6  1  0.517488  0.319130  0.402359  1
  Tb  Tb7  1  0.482920  0.681252  0.595280  1
  Er  Er8  1  0.151216  0.511790  0.750000  1
  Er  Er9  1  0.312532  0.172057  0.626749  1
  Er  Er10  1  0.678567  0.824912  0.373134  1
  Er  Er11  1  0.177411  0.679176  0.373221  1
  Er  Er12  1  0.678567  0.824912  0.126866  1
  Er  Er13  1  0.830892  0.313165  0.626460  1
  Er  Er14  1  0.312532  0.172057  0.873251  1
  Er  Er15  1  0.830892  0.313165  0.873540  1
  Er  Er16  1  0.177411  0.679176  0.126779  1
  Sc  Sc17  1  0.843175  0.485283  0.250000  1
  Sc  Sc18  1  0.343728  0.016132  0.250000  1
  Sc  Sc19  1  0.666573  0.988399  0.750000  1
  Si  Si20  1  0.980230  0.902391  0.250000  1
  Si  Si21  1  0.481135  0.598729  0.250000  1
  Si  Si22  1  0.524673  0.397710  0.750000  1
  Si  Si23  1  0.284189  0.867307  0.750000  1
  Si  Si24  1  0.718108  0.136450  0.250000  1
  Si  Si25  1  0.220095  0.365501  0.250000  1
  Si  Si26  1  0.766314  0.630471  0.750000  1
  Si  Si27  1  0.155093  0.472656  0.536725  1
  Si  Si28  1  0.847926  0.531226  0.459900  1
  Si  Si29  1  0.347846  0.970263  0.458341  1
  Si  Si30  1  0.847926  0.531226  0.040100  1
  Si  Si31  1  0.648582  0.029530  0.538337  1
  Si  Si32  1  0.155093  0.472656  0.963275  1
  Si  Si33  1  0.648582  0.029530  0.961663  1
  Si  Si34  1  0.347846  0.970263  0.041659  1
  Os  Os35  1  0.019278  0.089052  0.750000  1
