# generated using pymatgen
data_Pr(Si2Ir3)2
_symmetry_space_group_name_H-M   'P 1'
_cell_length_a   7.06315300
_cell_length_b   7.06315281
_cell_length_c   3.88219100
_cell_angle_alpha   90.00000000
_cell_angle_beta   90.00000000
_cell_angle_gamma   119.99999620
_symmetry_Int_Tables_number   1
_chemical_formula_structural   Pr(Si2Ir3)2
_chemical_formula_sum   'Pr1 Si4 Ir6'
_cell_volume   167.72768894
_cell_formula_units_Z   1
loop_
 _symmetry_equiv_pos_site_id
 _symmetry_equiv_pos_as_xyz
  1  'x, y, z'
loop_
 _atom_site_type_symbol
 _atom_site_label
 _atom_site_symmetry_multiplicity
 _atom_site_fract_x
 _atom_site_fract_y
 _atom_site_fract_z
 _atom_site_occupancy
  Pr  Pr0  1  0.000000  0.000000  0.000000  1
  Si  Si1  1  0.333333  0.666667  0.000000  1
  Si  Si2  1  0.801119  0.198881  0.500000  1
  Si  Si3  1  0.801119  0.602239  0.500000  1
  Si  Si4  1  0.397761  0.198881  0.500000  1
  Ir  Ir5  1  0.532818  0.467182  0.000000  1
  Ir  Ir6  1  0.532818  0.065635  0.000000  1
  Ir  Ir7  1  0.934365  0.467182  0.000000  1
  Ir  Ir8  1  0.199450  0.800550  0.500000  1
  Ir  Ir9  1  0.199450  0.398899  0.500000  1
  Ir  Ir10  1  0.601101  0.800550  0.500000  1
