# generated using pymatgen
data_Y5AlRuO12
_symmetry_space_group_name_H-M   'P 1'
_cell_length_a   6.82487303
_cell_length_b   6.82487380
_cell_length_c   7.28581205
_cell_angle_alpha   74.50945201
_cell_angle_beta   74.50944783
_cell_angle_gamma   50.56735222
_symmetry_Int_Tables_number   1
_chemical_formula_structural   Y5AlRuO12
_chemical_formula_sum   'Y5 Al1 Ru1 O12'
_cell_volume   250.42075544
_cell_formula_units_Z   1
loop_
 _symmetry_equiv_pos_site_id
 _symmetry_equiv_pos_as_xyz
  1  'x, y, z'
loop_
 _atom_site_type_symbol
 _atom_site_label
 _atom_site_symmetry_multiplicity
 _atom_site_fract_x
 _atom_site_fract_y
 _atom_site_fract_z
 _atom_site_occupancy
  Y  Y0  1  0.693314  0.691112  0.667699  1
  Y  Y1  1  0.686055  0.705772  0.141416  1
  Y  Y2  1  0.997941  0.002059  0.000000  1
  Y  Y3  1  0.294228  0.313945  0.858584  1
  Y  Y4  1  0.308888  0.306686  0.332301  1
  Al  Al5  1  0.253027  0.746973  0.500000  1
  Ru  Ru6  1  0.763675  0.236325  0.500000  1
  O  O7  1  0.400188  0.907711  0.922919  1
  O  O8  1  0.576406  0.099119  0.581881  1
  O  O9  1  0.900881  0.423594  0.418119  1
  O  O10  1  0.092289  0.599812  0.077081  1
  O  O11  1  0.005802  0.994404  0.322279  1
  O  O12  1  0.503443  0.497487  0.679667  1
  O  O13  1  0.899313  0.403914  0.926293  1
  O  O14  1  0.100716  0.580362  0.580226  1
  O  O15  1  0.419638  0.899284  0.419774  1
  O  O16  1  0.596086  0.100687  0.073707  1
  O  O17  1  0.502513  0.496557  0.320333  1
  O  O18  1  0.005596  0.994198  0.677721  1
