# generated using pymatgen
data_NaSm(CuPt)2
_symmetry_space_group_name_H-M   'P 1'
_cell_length_a   5.10495754
_cell_length_b   5.28257268
_cell_length_c   5.28257249
_cell_angle_alpha   63.68601294
_cell_angle_beta   61.10612909
_cell_angle_gamma   61.10613814
_symmetry_Int_Tables_number   1
_chemical_formula_structural   NaSm(CuPt)2
_chemical_formula_sum   'Na1 Sm1 Cu2 Pt2'
_cell_volume   105.02671510
_cell_formula_units_Z   1
loop_
 _symmetry_equiv_pos_site_id
 _symmetry_equiv_pos_as_xyz
  1  'x, y, z'
loop_
 _atom_site_type_symbol
 _atom_site_label
 _atom_site_symmetry_multiplicity
 _atom_site_fract_x
 _atom_site_fract_y
 _atom_site_fract_z
 _atom_site_occupancy
  Na  Na0  1  0.244022  0.255978  0.255978  1
  Sm  Sm1  1  0.995754  0.004246  0.004246  1
  Cu  Cu2  1  0.128593  0.621271  0.621271  1
  Cu  Cu3  1  0.628863  0.621271  0.621271  1
  Pt  Pt4  1  0.626384  0.622925  0.124308  1
  Pt  Pt5  1  0.626384  0.124308  0.622925  1
