# generated using pymatgen
data_Zr5(ReTc)12
_symmetry_space_group_name_H-M   'P 1'
_cell_length_a   8.48099733
_cell_length_b   8.48099727
_cell_length_c   8.48099700
_cell_angle_alpha   109.47121998
_cell_angle_beta   109.47121985
_cell_angle_gamma   109.47122492
_symmetry_Int_Tables_number   1
_chemical_formula_structural   Zr5(ReTc)12
_chemical_formula_sum   'Zr5 Re12 Tc12'
_cell_volume   469.59001463
_cell_formula_units_Z   1
loop_
 _symmetry_equiv_pos_site_id
 _symmetry_equiv_pos_as_xyz
  1  'x, y, z'
loop_
 _atom_site_type_symbol
 _atom_site_label
 _atom_site_symmetry_multiplicity
 _atom_site_fract_x
 _atom_site_fract_y
 _atom_site_fract_z
 _atom_site_occupancy
  Zr  Zr0  1  0.000000  0.000000  0.000000  1
  Zr  Zr1  1  0.625377  0.000000  0.000000  1
  Zr  Zr2  1  0.000000  0.625377  0.000000  1
  Zr  Zr3  1  0.000000  0.000000  0.625377  1
  Zr  Zr4  1  0.374623  0.374623  0.374623  1
  Re  Re5  1  0.376372  0.194119  0.000000  1
  Re  Re6  1  0.182254  0.805881  0.805881  1
  Re  Re7  1  0.376372  0.000000  0.194119  1
  Re  Re8  1  0.194119  0.376372  0.000000  1
  Re  Re9  1  0.000000  0.376372  0.194119  1
  Re  Re10  1  0.805881  0.182254  0.805881  1
  Re  Re11  1  0.805881  0.805881  0.182254  1
  Re  Re12  1  0.000000  0.194119  0.376372  1
  Re  Re13  1  0.194119  0.000000  0.376372  1
  Re  Re14  1  0.623628  0.623628  0.817746  1
  Re  Re15  1  0.817746  0.623628  0.623628  1
  Re  Re16  1  0.623628  0.817746  0.623628  1
  Tc  Tc17  1  0.396377  0.675922  0.000000  1
  Tc  Tc18  1  0.720454  0.324078  0.324078  1
  Tc  Tc19  1  0.396377  0.000000  0.675922  1
  Tc  Tc20  1  0.675922  0.396377  0.000000  1
  Tc  Tc21  1  0.000000  0.396377  0.675922  1
  Tc  Tc22  1  0.324078  0.720454  0.324078  1
  Tc  Tc23  1  0.324078  0.324078  0.720454  1
  Tc  Tc24  1  0.000000  0.675922  0.396377  1
  Tc  Tc25  1  0.675922  0.000000  0.396377  1
  Tc  Tc26  1  0.603623  0.603623  0.279546  1
  Tc  Tc27  1  0.279546  0.603623  0.603623  1
  Tc  Tc28  1  0.603623  0.279546  0.603623  1
