# generated using pymatgen
data_YErMo3P7Rh9
_symmetry_space_group_name_H-M   'P 1'
_cell_length_a   3.93337803
_cell_length_b   9.52916631
_cell_length_c   9.52890703
_cell_angle_alpha   120.00223147
_cell_angle_beta   90.00026805
_cell_angle_gamma   89.99968691
_symmetry_Int_Tables_number   1
_chemical_formula_structural   YErMo3P7Rh9
_chemical_formula_sum   'Y1 Er1 Mo3 P7 Rh9'
_cell_volume   309.30329717
_cell_formula_units_Z   1
loop_
 _symmetry_equiv_pos_site_id
 _symmetry_equiv_pos_as_xyz
  1  'x, y, z'
loop_
 _atom_site_type_symbol
 _atom_site_label
 _atom_site_symmetry_multiplicity
 _atom_site_fract_x
 _atom_site_fract_y
 _atom_site_fract_z
 _atom_site_occupancy
  Y  Y0  1  0.261454  0.666681  0.333315  1
  Er  Er1  1  0.762129  0.333222  0.666710  1
  Mo  Mo2  1  0.761970  0.091669  0.870710  1
  Mo  Mo3  1  0.761972  0.129324  0.221151  1
  Mo  Mo4  1  0.761956  0.778903  0.908167  1
  P  P5  1  0.262223  0.000021  0.999961  1
  P  P6  1  0.761728  0.881883  0.593956  1
  P  P7  1  0.761722  0.406063  0.287954  1
  P  P8  1  0.761693  0.712093  0.118077  1
  P  P9  1  0.261989  0.118335  0.412357  1
  P  P10  1  0.261998  0.587687  0.706011  1
  P  P11  1  0.261980  0.294046  0.881683  1
  Rh  Rh12  1  0.261879  0.884527  0.159988  1
  Rh  Rh13  1  0.261878  0.840013  0.724431  1
  Rh  Rh14  1  0.261866  0.275506  0.115559  1
  Rh  Rh15  1  0.761943  0.612167  0.558536  1
  Rh  Rh16  1  0.761916  0.441416  0.053533  1
  Rh  Rh17  1  0.761915  0.946362  0.387808  1
  Rh  Rh18  1  0.261946  0.370711  0.440103  1
  Rh  Rh19  1  0.261907  0.560035  0.930653  1
  Rh  Rh20  1  0.261934  0.069336  0.629335  1
