# generated using pymatgen
data_Tb2Ho6Re3B24Ru
_symmetry_space_group_name_H-M   'P 1'
_cell_length_a   3.67343900
_cell_length_b   9.15784728
_cell_length_c   11.54301200
_cell_angle_alpha   90.10033454
_cell_angle_beta   90.00000000
_cell_angle_gamma   90.00000000
_symmetry_Int_Tables_number   1
_chemical_formula_structural   Tb2Ho6Re3B24Ru
_chemical_formula_sum   'Tb2 Ho6 Re3 B24 Ru1'
_cell_volume   388.31548591
_cell_formula_units_Z   1
loop_
 _symmetry_equiv_pos_site_id
 _symmetry_equiv_pos_as_xyz
  1  'x, y, z'
loop_
 _atom_site_type_symbol
 _atom_site_label
 _atom_site_symmetry_multiplicity
 _atom_site_fract_x
 _atom_site_fract_y
 _atom_site_fract_z
 _atom_site_occupancy
  Tb  Tb0  1  0.000000  0.321917  0.414073  1
  Tb  Tb1  1  0.000000  0.677362  0.587638  1
  Ho  Ho2  1  0.000000  0.824866  0.084131  1
  Ho  Ho3  1  0.000000  0.176645  0.913858  1
  Ho  Ho4  1  0.000000  0.941788  0.369404  1
  Ho  Ho5  1  0.000000  0.056363  0.629593  1
  Ho  Ho6  1  0.000000  0.443115  0.130314  1
  Ho  Ho7  1  0.000000  0.556905  0.871205  1
  Re  Re8  1  0.000000  0.361417  0.678863  1
  Re  Re9  1  0.000000  0.138300  0.179372  1
  Re  Re10  1  0.000000  0.861535  0.821061  1
  B  B11  1  0.500000  0.554246  0.432269  1
  B  B12  1  0.500000  0.446796  0.567159  1
  B  B13  1  0.500000  0.053120  0.066663  1
  B  B14  1  0.500000  0.947089  0.933061  1
  B  B15  1  0.500000  0.748692  0.418010  1
  B  B16  1  0.500000  0.250433  0.581538  1
  B  B17  1  0.500000  0.249426  0.081182  1
  B  B18  1  0.500000  0.751310  0.918966  1
  B  B19  1  0.500000  0.791022  0.265220  1
  B  B20  1  0.500000  0.207801  0.734537  1
  B  B21  1  0.500000  0.291666  0.234572  1
  B  B22  1  0.500000  0.708043  0.766168  1
  B  B23  1  0.500000  0.631595  0.185541  1
  B  B24  1  0.500000  0.369301  0.814413  1
  B  B25  1  0.500000  0.130708  0.314622  1
  B  B26  1  0.500000  0.869091  0.685820  1
  B  B27  1  0.500000  0.982218  0.211636  1
  B  B28  1  0.500000  0.017779  0.787895  1
  B  B29  1  0.500000  0.483944  0.287900  1
  B  B30  1  0.500000  0.517861  0.712364  1
  B  B31  1  0.500000  0.602021  0.028922  1
  B  B32  1  0.500000  0.398529  0.972177  1
  B  B33  1  0.500000  0.099908  0.471591  1
  B  B34  1  0.500000  0.898258  0.527927  1
  Ru  Ru35  1  0.000000  0.638933  0.320338  1
