# generated using pymatgen
data_Ho3In3SnPt2
_symmetry_space_group_name_H-M   'P 1'
_cell_length_a   7.60017100
_cell_length_b   7.60017111
_cell_length_c   4.16279800
_cell_angle_alpha   90.00000000
_cell_angle_beta   90.00000000
_cell_angle_gamma   119.99999633
_symmetry_Int_Tables_number   1
_chemical_formula_structural   Ho3In3SnPt2
_chemical_formula_sum   'Ho3 In3 Sn1 Pt2'
_cell_volume   208.23931141
_cell_formula_units_Z   1
loop_
 _symmetry_equiv_pos_site_id
 _symmetry_equiv_pos_as_xyz
  1  'x, y, z'
loop_
 _atom_site_type_symbol
 _atom_site_label
 _atom_site_symmetry_multiplicity
 _atom_site_fract_x
 _atom_site_fract_y
 _atom_site_fract_z
 _atom_site_occupancy
  Ho  Ho0  1  0.608422  0.021234  0.500000  1
  Ho  Ho1  1  0.412812  0.391578  0.500000  1
  Ho  Ho2  1  0.978766  0.587188  0.500000  1
  In  In3  1  0.754997  0.744530  0.000000  1
  In  In4  1  0.989534  0.245003  0.000000  1
  In  In5  1  0.255470  0.010466  0.000000  1
  Sn  Sn6  1  0.333333  0.666667  0.000000  1
  Pt  Pt7  1  0.666667  0.333333  0.000000  1
  Pt  Pt8  1  0.000000  0.000000  0.500000  1
