# generated using pymatgen
data_Hf6Al13Si3Ir6Rh
_symmetry_space_group_name_H-M   'P 1'
_cell_length_a   8.67489796
_cell_length_b   8.64929965
_cell_length_c   8.67489900
_cell_angle_alpha   59.90204928
_cell_angle_beta   59.99999986
_cell_angle_gamma   59.90205154
_symmetry_Int_Tables_number   1
_chemical_formula_structural   Hf6Al13Si3Ir6Rh
_chemical_formula_sum   'Hf6 Al13 Si3 Ir6 Rh1'
_cell_volume   459.56842426
_cell_formula_units_Z   1
loop_
 _symmetry_equiv_pos_site_id
 _symmetry_equiv_pos_as_xyz
  1  'x, y, z'
loop_
 _atom_site_type_symbol
 _atom_site_label
 _atom_site_symmetry_multiplicity
 _atom_site_fract_x
 _atom_site_fract_y
 _atom_site_fract_z
 _atom_site_occupancy
  Hf  Hf0  1  0.685665  0.314765  0.313904  1
  Hf  Hf1  1  0.315244  0.684772  0.684737  1
  Hf  Hf2  1  0.315244  0.684772  0.315244  1
  Hf  Hf3  1  0.313904  0.314765  0.685665  1
  Hf  Hf4  1  0.685665  0.314765  0.685665  1
  Hf  Hf5  1  0.684737  0.684772  0.315244  1
  Al  Al6  1  0.338648  0.984057  0.338648  1
  Al  Al7  1  0.662684  0.662056  0.662684  1
  Al  Al8  1  0.662684  0.662056  0.012576  1
  Al  Al9  1  0.662980  0.011060  0.662980  1
  Al  Al10  1  0.012576  0.662056  0.662684  1
  Al  Al11  1  0.121097  0.118513  0.121097  1
  Al  Al12  1  0.121097  0.118513  0.639295  1
  Al  Al13  1  0.639295  0.118513  0.121097  1
  Al  Al14  1  0.121079  0.636763  0.121079  1
  Al  Al15  1  0.880641  0.880558  0.880641  1
  Al  Al16  1  0.880641  0.880558  0.358159  1
  Al  Al17  1  0.880744  0.357766  0.880744  1
  Al  Al18  1  0.358159  0.880558  0.880641  1
  Si  Si19  1  0.345656  0.343331  0.345656  1
  Si  Si20  1  0.345656  0.343331  0.965358  1
  Si  Si21  1  0.965358  0.343331  0.345656  1
  Ir  Ir22  1  0.496413  0.007555  0.999619  1
  Ir  Ir23  1  0.007915  0.491828  0.492343  1
  Ir  Ir24  1  0.007915  0.491828  0.007915  1
  Ir  Ir25  1  0.999619  0.007555  0.496413  1
  Ir  Ir26  1  0.496413  0.007555  0.496413  1
  Ir  Ir27  1  0.492343  0.491828  0.007915  1
  Rh  Rh28  1  0.999927  0.000218  0.999927  1
