# generated using pymatgen
data_Dy3Mg3Hg2Pt
_symmetry_space_group_name_H-M   'P 1'
_cell_length_a   7.90484900
_cell_length_b   7.90484884
_cell_length_c   3.92870100
_cell_angle_alpha   90.00000000
_cell_angle_beta   90.00000000
_cell_angle_gamma   120.00001321
_symmetry_Int_Tables_number   1
_chemical_formula_structural   Dy3Mg3Hg2Pt
_chemical_formula_sum   'Dy3 Mg3 Hg2 Pt1'
_cell_volume   212.60168361
_cell_formula_units_Z   1
loop_
 _symmetry_equiv_pos_site_id
 _symmetry_equiv_pos_as_xyz
  1  'x, y, z'
loop_
 _atom_site_type_symbol
 _atom_site_label
 _atom_site_symmetry_multiplicity
 _atom_site_fract_x
 _atom_site_fract_y
 _atom_site_fract_z
 _atom_site_occupancy
  Dy  Dy0  1  0.027499  0.427106  0.500000  1
  Dy  Dy1  1  0.572894  0.600393  0.500000  1
  Dy  Dy2  1  0.399607  0.972501  0.500000  1
  Mg  Mg3  1  0.998085  0.739497  0.000000  1
  Mg  Mg4  1  0.260503  0.258587  0.000000  1
  Mg  Mg5  1  0.741413  0.001915  0.000000  1
  Hg  Hg6  1  0.666667  0.333333  0.000000  1
  Hg  Hg7  1  0.000000  0.000000  0.500000  1
  Pt  Pt8  1  0.333333  0.666667  0.000000  1
