# generated using pymatgen
data_DyYGa5Ir3
_symmetry_space_group_name_H-M   'P 1'
_cell_length_a   8.59525524
_cell_length_b   8.60574180
_cell_length_c   8.60574334
_cell_angle_alpha   141.31795110
_cell_angle_beta   109.78652835
_cell_angle_gamma   83.17280424
_symmetry_Int_Tables_number   1
_chemical_formula_structural   DyYGa5Ir3
_chemical_formula_sum   'Dy2 Y2 Ga10 Ir6'
_cell_volume   362.73798139
_cell_formula_units_Z   2
loop_
 _symmetry_equiv_pos_site_id
 _symmetry_equiv_pos_as_xyz
  1  'x, y, z'
loop_
 _atom_site_type_symbol
 _atom_site_label
 _atom_site_symmetry_multiplicity
 _atom_site_fract_x
 _atom_site_fract_y
 _atom_site_fract_z
 _atom_site_occupancy
  Dy  Dy0  1  0.628313  0.355877  0.272435  1
  Dy  Dy1  1  0.371687  0.644123  0.727565  1
  Y  Y2  1  0.916245  0.143947  0.772299  1
  Y  Y3  1  0.083755  0.856053  0.227701  1
  Ga  Ga4  1  0.403574  0.084329  0.319244  1
  Ga  Ga5  1  0.596426  0.915671  0.680756  1
  Ga  Ga6  1  0.235017  0.415862  0.819154  1
  Ga  Ga7  1  0.764983  0.584138  0.180846  1
  Ga  Ga8  1  0.299390  0.549234  0.250062  1
  Ga  Ga9  1  0.700610  0.950672  0.249844  1
  Ga  Ga10  1  0.700610  0.450766  0.749938  1
  Ga  Ga11  1  0.299390  0.049328  0.750156  1
  Ga  Ga12  1  0.000000  0.250130  0.250130  1
  Ga  Ga13  1  0.000000  0.749870  0.749870  1
  Ir  Ir14  1  0.240631  0.152492  0.088140  1
  Ir  Ir15  1  0.759369  0.847508  0.911860  1
  Ir  Ir16  1  0.935044  0.347753  0.587292  1
  Ir  Ir17  1  0.064956  0.652247  0.412708  1
  Ir  Ir18  1  0.500000  0.249801  0.749801  1
  Ir  Ir19  1  0.500000  0.750199  0.250199  1
