# generated using pymatgen
data_PrNdBi6(SeO5)4
_symmetry_space_group_name_H-M   'P 1'
_cell_length_a   8.87558798
_cell_length_b   8.87558934
_cell_length_c   11.53999105
_cell_angle_alpha   89.99648077
_cell_angle_beta   89.99648255
_cell_angle_gamma   143.35776381
_symmetry_Int_Tables_number   1
_chemical_formula_structural   PrNdBi6(SeO5)4
_chemical_formula_sum   'Pr1 Nd1 Bi6 Se4 O20'
_cell_volume   542.55107913
_cell_formula_units_Z   1
loop_
 _symmetry_equiv_pos_site_id
 _symmetry_equiv_pos_as_xyz
  1  'x, y, z'
loop_
 _atom_site_type_symbol
 _atom_site_label
 _atom_site_symmetry_multiplicity
 _atom_site_fract_x
 _atom_site_fract_y
 _atom_site_fract_z
 _atom_site_occupancy
  Pr  Pr0  1  0.733884  0.233884  0.615197  1
  Nd  Nd1  1  0.234363  0.734363  0.385262  1
  Bi  Bi2  1  0.237396  0.737396  0.868672  1
  Bi  Bi3  1  0.736774  0.236774  0.132095  1
  Bi  Bi4  1  0.894099  0.064898  0.393750  1
  Bi  Bi5  1  0.064770  0.894092  0.605450  1
  Bi  Bi6  1  0.394092  0.564770  0.605450  1
  Bi  Bi7  1  0.564898  0.394099  0.393750  1
  Se  Se8  1  0.389549  0.577210  0.145957  1
  Se  Se9  1  0.577291  0.390459  0.854651  1
  Se  Se10  1  0.890459  0.077291  0.854651  1
  Se  Se11  1  0.077210  0.889549  0.145957  1
  O  O12  1  0.140795  0.470366  0.218798  1
  O  O13  1  0.468072  0.139773  0.782632  1
  O  O14  1  0.639773  0.968072  0.782632  1
  O  O15  1  0.970366  0.640795  0.218798  1
  O  O16  1  0.572101  0.896125  0.500134  1
  O  O17  1  0.897701  0.573465  0.498187  1
  O  O18  1  0.073465  0.397701  0.498187  1
  O  O19  1  0.396125  0.072101  0.500134  1
  O  O20  1  0.127023  0.627023  0.698571  1
  O  O21  1  0.622674  0.122674  0.301439  1
  O  O22  1  0.553039  0.855076  0.079905  1
  O  O23  1  0.854911  0.552771  0.920177  1
  O  O24  1  0.173306  0.069908  0.262895  1
  O  O25  1  0.069220  0.173120  0.736863  1
  O  O26  1  0.673120  0.569220  0.736863  1
  O  O27  1  0.569908  0.673306  0.262895  1
  O  O28  1  0.250485  0.250328  0.499983  1
  O  O29  1  0.750328  0.750485  0.499983  1
  O  O30  1  0.355076  0.053039  0.079905  1
  O  O31  1  0.052771  0.354911  0.920177  1
