# generated using pymatgen
data_HoEr2In3IrPd2
_symmetry_space_group_name_H-M   'P 1'
_cell_length_a   7.71331712
_cell_length_b   7.71716499
_cell_length_c   3.77216000
_cell_angle_alpha   90.00000000
_cell_angle_beta   90.00000000
_cell_angle_gamma   119.96345491
_symmetry_Int_Tables_number   1
_chemical_formula_structural   HoEr2In3IrPd2
_chemical_formula_sum   'Ho1 Er2 In3 Ir1 Pd2'
_cell_volume   194.52683540
_cell_formula_units_Z   1
loop_
 _symmetry_equiv_pos_site_id
 _symmetry_equiv_pos_as_xyz
  1  'x, y, z'
loop_
 _atom_site_type_symbol
 _atom_site_label
 _atom_site_symmetry_multiplicity
 _atom_site_fract_x
 _atom_site_fract_y
 _atom_site_fract_z
 _atom_site_occupancy
  Ho  Ho0  1  0.415177  0.017262  0.500000  1
  Er  Er1  1  0.602332  0.584733  0.500000  1
  Er  Er2  1  0.982325  0.397673  0.500000  1
  In  In3  1  0.261820  0.266019  0.000000  1
  In  In4  1  0.734518  0.996183  0.000000  1
  In  In5  1  0.003579  0.737892  0.000000  1
  Ir  Ir6  1  0.666917  0.333627  0.000000  1
  Pd  Pd7  1  0.999993  0.999986  0.500000  1
  Pd  Pd8  1  0.333340  0.666624  0.000000  1
