# generated using pymatgen
data_K3Mn(IO3)6
_symmetry_space_group_name_H-M   'P 1'
_cell_length_a   6.91428845
_cell_length_b   7.27748505
_cell_length_c   10.62572280
_cell_angle_alpha   99.37095549
_cell_angle_beta   109.08078676
_cell_angle_gamma   101.70375070
_symmetry_Int_Tables_number   1
_chemical_formula_structural   K3Mn(IO3)6
_chemical_formula_sum   'K3 Mn1 I6 O18'
_cell_volume   479.38333114
_cell_formula_units_Z   1
loop_
 _symmetry_equiv_pos_site_id
 _symmetry_equiv_pos_as_xyz
  1  'x, y, z'
loop_
 _atom_site_type_symbol
 _atom_site_label
 _atom_site_symmetry_multiplicity
 _atom_site_fract_x
 _atom_site_fract_y
 _atom_site_fract_z
 _atom_site_occupancy
  K  K0  1  0.374336  0.537492  0.292848  1
  K  K1  1  0.625664  0.462508  0.707152  1
  K  K2  1  0.000000  0.500000  0.500000  1
  Mn  Mn3  1  0.000000  0.000000  0.000000  1
  I  I4  1  0.552884  0.035961  0.194093  1
  I  I5  1  0.447116  0.964039  0.805907  1
  I  I6  1  0.785226  0.539259  0.100283  1
  I  I7  1  0.214774  0.460741  0.899717  1
  I  I8  1  0.136162  0.053299  0.371953  1
  I  I9  1  0.863838  0.946701  0.628047  1
  O  O10  1  0.583682  0.657018  0.124331  1
  O  O11  1  0.416318  0.342982  0.875669  1
  O  O12  1  0.999544  0.349802  0.731365  1
  O  O13  1  0.000456  0.650198  0.268635  1
  O  O14  1  0.610723  0.299238  0.239841  1
  O  O15  1  0.389277  0.700762  0.760159  1
  O  O16  1  0.046898  0.100006  0.196004  1
  O  O17  1  0.953102  0.899994  0.803996  1
  O  O18  1  0.292199  0.970173  0.038417  1
  O  O19  1  0.707801  0.029827  0.961583  1
  O  O20  1  0.291553  0.300161  0.463171  1
  O  O21  1  0.708447  0.699839  0.536829  1
  O  O22  1  0.882295  0.074178  0.392297  1
  O  O23  1  0.117705  0.925822  0.607703  1
  O  O24  1  0.561323  0.032637  0.681466  1
  O  O25  1  0.438677  0.967363  0.318534  1
  O  O26  1  0.114263  0.321351  0.006474  1
  O  O27  1  0.885737  0.678649  0.993526  1
