# generated using pymatgen
data_Li4YLu3Pt4
_symmetry_space_group_name_H-M   'P 1'
_cell_length_a   3.97826600
_cell_length_b   6.93503303
_cell_length_c   8.35042227
_cell_angle_alpha   89.56383659
_cell_angle_beta   90.00000000
_cell_angle_gamma   90.00000000
_symmetry_Int_Tables_number   1
_chemical_formula_structural   Li4YLu3Pt4
_chemical_formula_sum   'Li4 Y1 Lu3 Pt4'
_cell_volume   230.37651601
_cell_formula_units_Z   1
loop_
 _symmetry_equiv_pos_site_id
 _symmetry_equiv_pos_as_xyz
  1  'x, y, z'
loop_
 _atom_site_type_symbol
 _atom_site_label
 _atom_site_symmetry_multiplicity
 _atom_site_fract_x
 _atom_site_fract_y
 _atom_site_fract_z
 _atom_site_occupancy
  Li  Li0  1  0.250000  0.628145  0.558913  1
  Li  Li1  1  0.750000  0.372194  0.443189  1
  Li  Li2  1  0.750000  0.873474  0.057061  1
  Li  Li3  1  0.250000  0.124209  0.941036  1
  Y  Y4  1  0.250000  0.546520  0.178679  1
  Lu  Lu5  1  0.750000  0.452725  0.820594  1
  Lu  Lu6  1  0.750000  0.954696  0.678032  1
  Lu  Lu7  1  0.250000  0.048067  0.324659  1
  Pt  Pt8  1  0.250000  0.743341  0.867904  1
  Pt  Pt9  1  0.750000  0.249886  0.125656  1
  Pt  Pt10  1  0.750000  0.762384  0.376794  1
  Pt  Pt11  1  0.250000  0.244357  0.627483  1
