# generated using pymatgen
data_InHg4Se2Cl5
_symmetry_space_group_name_H-M   'P 1'
_cell_length_a   10.41595500
_cell_length_b   9.48539988
_cell_length_c   16.55235500
_cell_angle_alpha   59.35058556
_cell_angle_beta   90.00000000
_cell_angle_gamma   90.00000000
_symmetry_Int_Tables_number   1
_chemical_formula_structural   InHg4Se2Cl5
_chemical_formula_sum   'In4 Hg16 Se8 Cl20'
_cell_volume   1406.90836087
_cell_formula_units_Z   4
loop_
 _symmetry_equiv_pos_site_id
 _symmetry_equiv_pos_as_xyz
  1  'x, y, z'
loop_
 _atom_site_type_symbol
 _atom_site_label
 _atom_site_symmetry_multiplicity
 _atom_site_fract_x
 _atom_site_fract_y
 _atom_site_fract_z
 _atom_site_occupancy
  In  In0  1  0.002735  0.013234  0.741336  1
  In  In1  1  0.497265  0.013234  0.241336  1
  In  In2  1  0.997265  0.986766  0.258664  1
  In  In3  1  0.502735  0.986766  0.758664  1
  Hg  Hg4  1  0.751163  0.853865  0.049155  1
  Hg  Hg5  1  0.748837  0.853865  0.549155  1
  Hg  Hg6  1  0.248837  0.146135  0.950845  1
  Hg  Hg7  1  0.251163  0.146135  0.450845  1
  Hg  Hg8  1  0.751008  0.172278  0.947685  1
  Hg  Hg9  1  0.748992  0.172278  0.447685  1
  Hg  Hg10  1  0.248992  0.827722  0.052315  1
  Hg  Hg11  1  0.251008  0.827722  0.552315  1
  Hg  Hg12  1  0.734902  0.519216  0.991052  1
  Hg  Hg13  1  0.765098  0.519216  0.491052  1
  Hg  Hg14  1  0.265098  0.480784  0.008948  1
  Hg  Hg15  1  0.234902  0.480784  0.508948  1
  Hg  Hg16  1  0.505828  0.500228  0.648865  1
  Hg  Hg17  1  0.994172  0.500228  0.148865  1
  Hg  Hg18  1  0.494172  0.499772  0.351135  1
  Hg  Hg19  1  0.005828  0.499772  0.851135  1
  Se  Se20  1  0.750490  0.536875  0.136562  1
  Se  Se21  1  0.749510  0.536875  0.636562  1
  Se  Se22  1  0.249510  0.463125  0.863438  1
  Se  Se23  1  0.250490  0.463125  0.363438  1
  Se  Se24  1  0.739730  0.489721  0.349960  1
  Se  Se25  1  0.760270  0.489721  0.849960  1
  Se  Se26  1  0.260270  0.510279  0.650040  1
  Se  Se27  1  0.239730  0.510279  0.150040  1
  Cl  Cl28  1  0.499192  0.179193  0.824255  1
  Cl  Cl29  1  0.000808  0.179193  0.324255  1
  Cl  Cl30  1  0.500808  0.820807  0.175745  1
  Cl  Cl31  1  0.999192  0.820807  0.675745  1
  Cl  Cl32  1  0.499841  0.796335  0.696573  1
  Cl  Cl33  1  0.000159  0.796335  0.196573  1
  Cl  Cl34  1  0.500159  0.203665  0.303427  1
  Cl  Cl35  1  0.999841  0.203665  0.803427  1
  Cl  Cl36  1  0.536699  0.233785  0.594539  1
  Cl  Cl37  1  0.963301  0.233785  0.094539  1
  Cl  Cl38  1  0.463301  0.766215  0.405461  1
  Cl  Cl39  1  0.036699  0.766215  0.905461  1
  Cl  Cl40  1  0.972635  0.245409  0.573107  1
  Cl  Cl41  1  0.527365  0.245409  0.073107  1
  Cl  Cl42  1  0.027365  0.754591  0.426893  1
  Cl  Cl43  1  0.472635  0.754591  0.926893  1
  Cl  Cl44  1  0.752431  0.946639  0.788830  1
  Cl  Cl45  1  0.747569  0.946639  0.288830  1
  Cl  Cl46  1  0.247569  0.053361  0.211170  1
  Cl  Cl47  1  0.252431  0.053361  0.711170  1
