# generated using pymatgen
data_PrYTh3Si3C
_symmetry_space_group_name_H-M   'P 1'
_cell_length_a   8.82571800
_cell_length_b   8.82571850
_cell_length_c   6.44264900
_cell_angle_alpha   90.00000000
_cell_angle_beta   90.00000000
_cell_angle_gamma   120.00000560
_symmetry_Int_Tables_number   1
_chemical_formula_structural   PrYTh3Si3C
_chemical_formula_sum   'Pr2 Y2 Th6 Si6 C2'
_cell_volume   434.60547867
_cell_formula_units_Z   2
loop_
 _symmetry_equiv_pos_site_id
 _symmetry_equiv_pos_as_xyz
  1  'x, y, z'
loop_
 _atom_site_type_symbol
 _atom_site_label
 _atom_site_symmetry_multiplicity
 _atom_site_fract_x
 _atom_site_fract_y
 _atom_site_fract_z
 _atom_site_occupancy
  Pr  Pr0  1  0.666667  0.333333  0.000000  1
  Pr  Pr1  1  0.333333  0.666667  0.000000  1
  Y  Y2  1  0.333333  0.666667  0.500000  1
  Y  Y3  1  0.666667  0.333333  0.500000  1
  Th  Th4  1  0.768974  0.768974  0.748626  1
  Th  Th5  1  0.231026  0.000000  0.748626  1
  Th  Th6  1  0.000000  0.231026  0.748626  1
  Th  Th7  1  0.231026  0.231026  0.251374  1
  Th  Th8  1  0.768974  0.000000  0.251374  1
  Th  Th9  1  0.000000  0.768974  0.251374  1
  Si  Si10  1  0.399717  0.399717  0.734522  1
  Si  Si11  1  0.600283  0.000000  0.734522  1
  Si  Si12  1  0.000000  0.600283  0.734522  1
  Si  Si13  1  0.600283  0.600283  0.265478  1
  Si  Si14  1  0.399717  0.000000  0.265478  1
  Si  Si15  1  0.000000  0.399717  0.265478  1
  C  C16  1  0.000000  0.000000  0.000000  1
  C  C17  1  0.000000  0.000000  0.500000  1
