# generated using pymatgen
data_Er9Lu(GaCo5)2
_symmetry_space_group_name_H-M   'P 1'
_cell_length_a   5.41598517
_cell_length_b   5.41598461
_cell_length_c   20.40273700
_cell_angle_alpha   90.00000000
_cell_angle_beta   90.00000000
_cell_angle_gamma   136.64330389
_symmetry_Int_Tables_number   1
_chemical_formula_structural   Er9Lu(GaCo5)2
_chemical_formula_sum   'Er9 Lu1 Ga2 Co10'
_cell_volume   410.87338484
_cell_formula_units_Z   1
loop_
 _symmetry_equiv_pos_site_id
 _symmetry_equiv_pos_as_xyz
  1  'x, y, z'
loop_
 _atom_site_type_symbol
 _atom_site_label
 _atom_site_symmetry_multiplicity
 _atom_site_fract_x
 _atom_site_fract_y
 _atom_site_fract_z
 _atom_site_occupancy
  Er  Er0  1  0.291512  0.708488  0.066066  1
  Er  Er1  1  0.997984  0.002016  0.842720  1
  Er  Er2  1  0.711036  0.288964  0.750000  1
  Er  Er3  1  0.708504  0.291496  0.565909  1
  Er  Er4  1  0.001776  0.998224  0.342287  1
  Er  Er5  1  0.997984  0.002016  0.657280  1
  Er  Er6  1  0.708504  0.291496  0.934091  1
  Er  Er7  1  0.001776  0.998224  0.157713  1
  Er  Er8  1  0.291512  0.708488  0.433934  1
  Lu  Lu9  1  0.288019  0.711981  0.250000  1
  Ga  Ga10  1  0.000087  0.999913  0.499870  1
  Ga  Ga11  1  0.000087  0.999913  0.000130  1
  Co  Co12  1  0.293833  0.706167  0.654502  1
  Co  Co13  1  0.582660  0.417340  0.441316  1
  Co  Co14  1  0.414102  0.585898  0.750000  1
  Co  Co15  1  0.417418  0.582582  0.941433  1
  Co  Co16  1  0.586822  0.413178  0.250000  1
  Co  Co17  1  0.417418  0.582582  0.558567  1
  Co  Co18  1  0.706237  0.293763  0.345372  1
  Co  Co19  1  0.706237  0.293763  0.154628  1
  Co  Co20  1  0.582660  0.417340  0.058684  1
  Co  Co21  1  0.293833  0.706167  0.845498  1
