# generated using pymatgen
data_LiLa8CdOs2
_symmetry_space_group_name_H-M   'P 1'
_cell_length_a   10.13542312
_cell_length_b   10.10003799
_cell_length_c   10.13542236
_cell_angle_alpha   60.11541851
_cell_angle_beta   60.06477638
_cell_angle_gamma   60.11542338
_symmetry_Int_Tables_number   1
_chemical_formula_structural   LiLa8CdOs2
_chemical_formula_sum   'Li2 La16 Cd2 Os4'
_cell_volume   735.29244921
_cell_formula_units_Z   2
loop_
 _symmetry_equiv_pos_site_id
 _symmetry_equiv_pos_as_xyz
  1  'x, y, z'
loop_
 _atom_site_type_symbol
 _atom_site_label
 _atom_site_symmetry_multiplicity
 _atom_site_fract_x
 _atom_site_fract_y
 _atom_site_fract_z
 _atom_site_occupancy
  Li  Li0  1  0.673893  0.679127  0.967853  1
  Li  Li1  1  0.967853  0.679127  0.673893  1
  La  La2  1  0.905811  0.906296  0.905811  1
  La  La3  1  0.438746  0.437715  0.060854  1
  La  La4  1  0.060854  0.062685  0.438746  1
  La  La5  1  0.438746  0.062685  0.060854  1
  La  La6  1  0.307721  0.692279  0.307721  1
  La  La7  1  0.692460  0.693798  0.309613  1
  La  La8  1  0.692460  0.304129  0.309613  1
  La  La9  1  0.285009  0.904621  0.905750  1
  La  La10  1  0.905811  0.282085  0.905811  1
  La  La11  1  0.309613  0.693798  0.692460  1
  La  La12  1  0.905750  0.904621  0.285009  1
  La  La13  1  0.064635  0.435365  0.064635  1
  La  La14  1  0.309613  0.304129  0.692460  1
  La  La15  1  0.060854  0.437715  0.438746  1
  La  La16  1  0.440361  0.059639  0.440361  1
  La  La17  1  0.690613  0.309387  0.690613  1
  Cd  Cd18  1  0.671566  0.987235  0.671566  1
  Cd  Cd19  1  0.671566  0.669632  0.671566  1
  Os  Os20  1  0.113695  0.110082  0.666138  1
  Os  Os21  1  0.113117  0.111065  0.113117  1
  Os  Os22  1  0.113117  0.662700  0.113117  1
  Os  Os23  1  0.666138  0.110082  0.113695  1
