# generated using pymatgen
data_Pm2TmUO8
_symmetry_space_group_name_H-M   'P 1'
_cell_length_a   6.63545531
_cell_length_b   6.63545563
_cell_length_c   6.63545489
_cell_angle_alpha   131.61702791
_cell_angle_beta   131.61702627
_cell_angle_gamma   70.83456491
_symmetry_Int_Tables_number   1
_chemical_formula_structural   Pm2TmUO8
_chemical_formula_sum   'Pm2 Tm1 U1 O8'
_cell_volume   159.92713457
_cell_formula_units_Z   1
loop_
 _symmetry_equiv_pos_site_id
 _symmetry_equiv_pos_as_xyz
  1  'x, y, z'
loop_
 _atom_site_type_symbol
 _atom_site_label
 _atom_site_symmetry_multiplicity
 _atom_site_fract_x
 _atom_site_fract_y
 _atom_site_fract_z
 _atom_site_occupancy
  Pm  Pm0  1  0.000000  0.000000  0.000000  1
  Pm  Pm1  1  0.750000  0.250000  0.500000  1
  Tm  Tm2  1  0.500000  0.500000  0.000000  1
  U  U3  1  0.250000  0.750000  0.500000  1
  O  O4  1  0.369723  0.398970  0.509919  1
  O  O5  1  0.889051  0.859804  0.490081  1
  O  O6  1  0.140196  0.110949  0.509919  1
  O  O7  1  0.601030  0.110949  0.970753  1
  O  O8  1  0.889051  0.398970  0.029247  1
  O  O9  1  0.601030  0.630277  0.490081  1
  O  O10  1  0.140196  0.630277  0.029247  1
  O  O11  1  0.369723  0.859804  0.970753  1
