# generated using pymatgen
data_Nd18Pa2Ir7Rh9
_symmetry_space_group_name_H-M   'P 1'
_cell_length_a   7.58582947
_cell_length_b   7.66512073
_cell_length_c   15.00066140
_cell_angle_alpha   90.24922153
_cell_angle_beta   89.90483926
_cell_angle_gamma   90.07934417
_symmetry_Int_Tables_number   1
_chemical_formula_structural   Nd18Pa2Ir7Rh9
_chemical_formula_sum   'Nd18 Pa2 Ir7 Rh9'
_cell_volume   872.22265726
_cell_formula_units_Z   1
loop_
 _symmetry_equiv_pos_site_id
 _symmetry_equiv_pos_as_xyz
  1  'x, y, z'
loop_
 _atom_site_type_symbol
 _atom_site_label
 _atom_site_symmetry_multiplicity
 _atom_site_fract_x
 _atom_site_fract_y
 _atom_site_fract_z
 _atom_site_occupancy
  Nd  Nd0  1  0.338551  0.836599  0.121391  1
  Nd  Nd1  1  0.838273  0.663398  0.378851  1
  Nd  Nd2  1  0.338695  0.832710  0.378015  1
  Nd  Nd3  1  0.838733  0.665513  0.122259  1
  Nd  Nd4  1  0.658531  0.165336  0.878668  1
  Nd  Nd5  1  0.158293  0.335047  0.621001  1
  Nd  Nd6  1  0.514695  0.684120  0.591063  1
  Nd  Nd7  1  0.012092  0.818134  0.909770  1
  Nd  Nd8  1  0.490029  0.315827  0.092254  1
  Nd  Nd9  1  0.989491  0.182091  0.407274  1
  Nd  Nd10  1  0.487681  0.316744  0.410597  1
  Nd  Nd11  1  0.986958  0.182000  0.088209  1
  Nd  Nd12  1  0.508519  0.683298  0.912922  1
  Nd  Nd13  1  0.007019  0.820702  0.588310  1
  Nd  Nd14  1  0.817216  0.518542  0.749607  1
  Nd  Nd15  1  0.316069  0.982618  0.750516  1
  Nd  Nd16  1  0.178082  0.486549  0.248725  1
  Nd  Nd17  1  0.678766  0.011710  0.249797  1
  Pa  Pa18  1  0.655666  0.158925  0.623903  1
  Pa  Pa19  1  0.156587  0.343006  0.875478  1
  Ir  Ir20  1  0.691322  0.971572  0.472349  1
  Ir  Ir21  1  0.191538  0.528920  0.027991  1
  Ir  Ir22  1  0.298799  0.062391  0.957133  1
  Ir  Ir23  1  0.800524  0.439485  0.542867  1
  Ir  Ir24  1  0.334799  0.032138  0.547037  1
  Ir  Ir25  1  0.836080  0.468294  0.952463  1
  Ir  Ir26  1  0.672609  0.965978  0.042612  1
  Rh  Rh27  1  0.169262  0.532635  0.457566  1
  Rh  Rh28  1  0.466228  0.364459  0.742293  1
  Rh  Rh29  1  0.964312  0.134884  0.755969  1
  Rh  Rh30  1  0.541885  0.599890  0.251594  1
  Rh  Rh31  1  0.043364  0.897938  0.250231  1
  Rh  Rh32  1  0.705990  0.886471  0.737827  1
  Rh  Rh33  1  0.208622  0.612552  0.762399  1
  Rh  Rh34  1  0.302418  0.143315  0.251284  1
  Rh  Rh35  1  0.802303  0.356208  0.249776  1
