# generated using pymatgen
data_Li(Pr3Si2)3
_symmetry_space_group_name_H-M   'P 1'
_cell_length_a   7.75245472
_cell_length_b   7.75245414
_cell_length_c   8.97252091
_cell_angle_alpha   115.59525031
_cell_angle_beta   115.59524673
_cell_angle_gamma   90.00000087
_symmetry_Int_Tables_number   1
_chemical_formula_structural   Li(Pr3Si2)3
_chemical_formula_sum   'Li1 Pr9 Si6'
_cell_volume   426.90793222
_cell_formula_units_Z   1
loop_
 _symmetry_equiv_pos_site_id
 _symmetry_equiv_pos_as_xyz
  1  'x, y, z'
loop_
 _atom_site_type_symbol
 _atom_site_label
 _atom_site_symmetry_multiplicity
 _atom_site_fract_x
 _atom_site_fract_y
 _atom_site_fract_z
 _atom_site_occupancy
  Li  Li0  1  0.500000  0.500000  0.000000  1
  Pr  Pr1  1  0.000000  0.000000  0.000000  1
  Pr  Pr2  1  0.957370  0.816663  0.287303  1
  Pr  Pr3  1  0.329932  0.470640  0.287303  1
  Pr  Pr4  1  0.816663  0.329932  0.287303  1
  Pr  Pr5  1  0.470640  0.957370  0.287303  1
  Pr  Pr6  1  0.042630  0.183337  0.712697  1
  Pr  Pr7  1  0.670068  0.529360  0.712697  1
  Pr  Pr8  1  0.183337  0.670068  0.712697  1
  Pr  Pr9  1  0.529360  0.042630  0.712697  1
  Si  Si10  1  0.763685  0.763685  0.527371  1
  Si  Si11  1  0.236315  0.236315  0.472629  1
  Si  Si12  1  0.613431  0.887775  0.000000  1
  Si  Si13  1  0.386569  0.112225  0.000000  1
  Si  Si14  1  0.887775  0.386569  0.000000  1
  Si  Si15  1  0.112225  0.613431  0.000000  1
