# generated using pymatgen
data_Sc3TlOs2
_symmetry_space_group_name_H-M   'P 1'
_cell_length_a   3.25076700
_cell_length_b   3.25076700
_cell_length_c   10.72731700
_cell_angle_alpha   90.00000000
_cell_angle_beta   90.00000000
_cell_angle_gamma   90.00000000
_symmetry_Int_Tables_number   1
_chemical_formula_structural   Sc3TlOs2
_chemical_formula_sum   'Sc3 Tl1 Os2'
_cell_volume   113.36077316
_cell_formula_units_Z   1
loop_
 _symmetry_equiv_pos_site_id
 _symmetry_equiv_pos_as_xyz
  1  'x, y, z'
loop_
 _atom_site_type_symbol
 _atom_site_label
 _atom_site_symmetry_multiplicity
 _atom_site_fract_x
 _atom_site_fract_y
 _atom_site_fract_z
 _atom_site_occupancy
  Sc  Sc0  1  0.499999  0.499999  0.000000  1
  Sc  Sc1  1  0.499999  0.499999  0.290001  1
  Sc  Sc2  1  0.499999  0.499999  0.709999  1
  Tl  Tl3  1  0.000000  0.000000  0.500000  1
  Os  Os4  1  0.000000  0.000000  0.153283  1
  Os  Os5  1  0.000000  0.000000  0.846718  1
