# generated using pymatgen
data_Sr4AcSi3H
_symmetry_space_group_name_H-M   'P 1'
_cell_length_a   9.66376034
_cell_length_b   9.66376129
_cell_length_c   9.65095708
_cell_angle_alpha   129.94614582
_cell_angle_beta   129.94615422
_cell_angle_gamma   73.59450351
_symmetry_Int_Tables_number   1
_chemical_formula_structural   Sr4AcSi3H
_chemical_formula_sum   'Sr8 Ac2 Si6 H2'
_cell_volume   516.64776130
_cell_formula_units_Z   2
loop_
 _symmetry_equiv_pos_site_id
 _symmetry_equiv_pos_as_xyz
  1  'x, y, z'
loop_
 _atom_site_type_symbol
 _atom_site_label
 _atom_site_symmetry_multiplicity
 _atom_site_fract_x
 _atom_site_fract_y
 _atom_site_fract_z
 _atom_site_occupancy
  Sr  Sr0  1  0.508556  0.508556  0.000000  1
  Sr  Sr1  1  0.008556  0.008556  0.000000  1
  Sr  Sr2  1  0.024841  0.181180  0.500000  1
  Sr  Sr3  1  0.681180  0.524841  0.500000  1
  Sr  Sr4  1  0.479789  0.979789  0.170165  1
  Sr  Sr5  1  0.809623  0.309623  0.829835  1
  Sr  Sr6  1  0.979644  0.814051  0.500000  1
  Sr  Sr7  1  0.314051  0.479644  0.500000  1
  Ac  Ac8  1  0.534789  0.034789  0.858771  1
  Ac  Ac9  1  0.176019  0.676019  0.141229  1
  Si  Si10  1  0.249611  0.249611  0.000000  1
  Si  Si11  1  0.749611  0.749611  0.000000  1
  Si  Si12  1  0.888294  0.388294  0.282974  1
  Si  Si13  1  0.105318  0.605318  0.717026  1
  Si  Si14  1  0.385786  0.101232  0.500000  1
  Si  Si15  1  0.601232  0.885786  0.500000  1
  H  H16  1  0.252358  0.752358  0.500000  1
  H  H17  1  0.750742  0.250742  0.500000  1
