# generated using pymatgen
data_PrHo3Mn2(Co2B)6
_symmetry_space_group_name_H-M   'P 1'
_cell_length_a   5.10186697
_cell_length_b   5.10118131
_cell_length_c   12.66835200
_cell_angle_alpha   90.00020990
_cell_angle_beta   89.99855115
_cell_angle_gamma   120.08516504
_symmetry_Int_Tables_number   1
_chemical_formula_structural   PrHo3Mn2(Co2B)6
_chemical_formula_sum   'Pr1 Ho3 Mn2 Co12 B6'
_cell_volume   285.28392530
_cell_formula_units_Z   1
loop_
 _symmetry_equiv_pos_site_id
 _symmetry_equiv_pos_as_xyz
  1  'x, y, z'
loop_
 _atom_site_type_symbol
 _atom_site_label
 _atom_site_symmetry_multiplicity
 _atom_site_fract_x
 _atom_site_fract_y
 _atom_site_fract_z
 _atom_site_occupancy
  Pr  Pr0  1  0.999951  0.999987  0.000058  1
  Ho  Ho1  1  0.999974  0.000031  0.500032  1
  Ho  Ho2  1  0.000020  0.999989  0.262173  1
  Ho  Ho3  1  0.000006  0.999987  0.737788  1
  Mn  Mn4  1  0.331739  0.666107  0.000083  1
  Mn  Mn5  1  0.668031  0.334060  0.999768  1
  Co  Co6  1  0.499986  0.999970  0.386783  1
  Co  Co7  1  0.000043  0.500023  0.386794  1
  Co  Co8  1  0.499975  0.500024  0.386776  1
  Co  Co9  1  0.499989  0.999982  0.613295  1
  Co  Co10  1  0.499977  0.500016  0.613309  1
  Co  Co11  1  0.000024  0.500017  0.613285  1
  Co  Co12  1  0.500068  0.000036  0.161492  1
  Co  Co13  1  0.999973  0.499941  0.161486  1
  Co  Co14  1  0.500076  0.499943  0.161428  1
  Co  Co15  1  0.499988  0.999907  0.838463  1
  Co  Co16  1  0.499995  0.499992  0.838482  1
  Co  Co17  1  0.000084  0.500006  0.838460  1
  B  B18  1  0.333367  0.666750  0.271127  1
  B  B19  1  0.666657  0.333233  0.271115  1
  B  B20  1  0.666653  0.333223  0.728847  1
  B  B21  1  0.333351  0.666759  0.728842  1
  B  B22  1  0.333362  0.666746  0.500052  1
  B  B23  1  0.666607  0.333272  0.500063  1
