# generated using pymatgen
data_HfCuRhS4
_symmetry_space_group_name_H-M   'P 1'
_cell_length_a   7.13532422
_cell_length_b   7.13532410
_cell_length_c   7.13532378
_cell_angle_alpha   119.91278831
_cell_angle_beta   118.51542199
_cell_angle_gamma   91.37084087
_symmetry_Int_Tables_number   1
_chemical_formula_structural   HfCuRhS4
_chemical_formula_sum   'Hf2 Cu2 Rh2 S8'
_cell_volume   259.80152580
_cell_formula_units_Z   2
loop_
 _symmetry_equiv_pos_site_id
 _symmetry_equiv_pos_as_xyz
  1  'x, y, z'
loop_
 _atom_site_type_symbol
 _atom_site_label
 _atom_site_symmetry_multiplicity
 _atom_site_fract_x
 _atom_site_fract_y
 _atom_site_fract_z
 _atom_site_occupancy
  Hf  Hf0  1  0.022223  0.798270  0.276046  1
  Hf  Hf1  1  0.977777  0.253824  0.776046  1
  Cu  Cu2  1  0.624139  0.599853  0.475713  1
  Cu  Cu3  1  0.375861  0.851575  0.975713  1
  Rh  Rh4  1  0.000000  0.240597  0.240597  1
  Rh  Rh5  1  0.500000  0.240597  0.740597  1
  S  S6  1  0.266752  0.029711  0.262959  1
  S  S7  1  0.761419  0.018704  0.266911  1
  S  S8  1  0.251794  0.018704  0.757285  1
  S  S9  1  0.243817  0.458772  0.714955  1
  S  S10  1  0.756183  0.471138  0.214955  1
  S  S11  1  0.733248  0.996207  0.762959  1
  S  S12  1  0.748206  0.505492  0.766911  1
  S  S13  1  0.238581  0.505492  0.257285  1
