# generated using pymatgen
data_Nd3Y3Zn4Pd9Pt4
_symmetry_space_group_name_H-M   'P 1'
_cell_length_a   8.33393175
_cell_length_b   8.33393137
_cell_length_c   8.31999900
_cell_angle_alpha   109.43735175
_cell_angle_beta   109.43735084
_cell_angle_gamma   109.50507353
_symmetry_Int_Tables_number   1
_chemical_formula_structural   Nd3Y3Zn4Pd9Pt4
_chemical_formula_sum   'Nd3 Y3 Zn4 Pd9 Pt4'
_cell_volume   445.02312378
_cell_formula_units_Z   1
loop_
 _symmetry_equiv_pos_site_id
 _symmetry_equiv_pos_as_xyz
  1  'x, y, z'
loop_
 _atom_site_type_symbol
 _atom_site_label
 _atom_site_symmetry_multiplicity
 _atom_site_fract_x
 _atom_site_fract_y
 _atom_site_fract_z
 _atom_site_occupancy
  Nd  Nd0  1  0.298382  0.298382  0.999859  1
  Nd  Nd1  1  0.701618  0.000000  0.701477  1
  Nd  Nd2  1  0.000000  0.701618  0.701477  1
  Y  Y3  1  0.699186  0.699186  0.002659  1
  Y  Y4  1  0.300814  0.000000  0.303473  1
  Y  Y5  1  0.000000  0.300814  0.303473  1
  Zn  Zn6  1  0.000000  0.000000  0.493966  1
  Zn  Zn7  1  0.000000  0.501666  0.999865  1
  Zn  Zn8  1  0.501666  0.000000  0.999865  1
  Zn  Zn9  1  0.498334  0.498334  0.498199  1
  Pd  Pd10  1  0.668177  0.333399  0.000374  1
  Pd  Pd11  1  0.331823  0.665222  0.332198  1
  Pd  Pd12  1  0.000000  0.333533  0.666173  1
  Pd  Pd13  1  0.333399  0.668177  0.000374  1
  Pd  Pd14  1  0.333533  0.000000  0.666173  1
  Pd  Pd15  1  0.665222  0.331823  0.332198  1
  Pd  Pd16  1  0.666467  0.666467  0.332641  1
  Pd  Pd17  1  0.666601  0.334778  0.666975  1
  Pd  Pd18  1  0.334778  0.666601  0.666975  1
  Pt  Pt19  1  0.332374  0.332374  0.661678  1
  Pt  Pt20  1  0.667626  0.000000  0.329304  1
  Pt  Pt21  1  0.000000  0.667626  0.329304  1
  Pt  Pt22  1  0.000000  0.000000  0.011317  1
