# generated using pymatgen
data_Pr2Y(TmRh6)3
_symmetry_space_group_name_H-M   'P 1'
_cell_length_a   5.29745100
_cell_length_b   5.29828746
_cell_length_c   17.45789700
_cell_angle_alpha   89.99938817
_cell_angle_beta   89.99909611
_cell_angle_gamma   119.99404166
_symmetry_Int_Tables_number   1
_chemical_formula_structural   Pr2Y(TmRh6)3
_chemical_formula_sum   'Pr2 Y1 Tm3 Rh18'
_cell_volume   424.37627437
_cell_formula_units_Z   1
loop_
 _symmetry_equiv_pos_site_id
 _symmetry_equiv_pos_as_xyz
  1  'x, y, z'
loop_
 _atom_site_type_symbol
 _atom_site_label
 _atom_site_symmetry_multiplicity
 _atom_site_fract_x
 _atom_site_fract_y
 _atom_site_fract_z
 _atom_site_occupancy
  Pr  Pr0  1  0.333315  0.666653  0.750748  1
  Pr  Pr1  1  0.666691  0.333372  0.249672  1
  Y  Y2  1  0.333327  0.666673  0.540512  1
  Tm  Tm3  1  0.333320  0.666673  0.959330  1
  Tm  Tm4  1  0.666676  0.333315  0.040648  1
  Tm  Tm5  1  0.666684  0.333325  0.458173  1
  Rh  Rh6  1  0.167414  0.832605  0.375373  1
  Rh  Rh7  1  0.167382  0.334716  0.375335  1
  Rh  Rh8  1  0.665229  0.832600  0.375317  1
  Rh  Rh9  1  0.832365  0.167609  0.624887  1
  Rh  Rh10  1  0.832380  0.664821  0.624918  1
  Rh  Rh11  1  0.335197  0.167616  0.624956  1
  Rh  Rh12  1  0.832182  0.167795  0.876301  1
  Rh  Rh13  1  0.832169  0.664414  0.876292  1
  Rh  Rh14  1  0.335544  0.167799  0.876225  1
  Rh  Rh15  1  0.167725  0.832288  0.123771  1
  Rh  Rh16  1  0.167725  0.335400  0.123788  1
  Rh  Rh17  1  0.664645  0.832302  0.123839  1
  Rh  Rh18  1  0.333054  0.666571  0.249641  1
  Rh  Rh19  1  0.666983  0.333438  0.750399  1
  Rh  Rh20  1  0.000389  0.000204  0.249360  1
  Rh  Rh21  1  0.999594  0.999801  0.750497  1
  Rh  Rh22  1  0.000003  0.000000  0.499898  1
  Rh  Rh23  1  0.000008  0.000009  0.000119  1
