# generated using pymatgen
data_Gd6Mn(GeS7)2
_symmetry_space_group_name_H-M   'P 1'
_cell_length_a   10.10053501
_cell_length_b   10.10080380
_cell_length_c   5.77095800
_cell_angle_alpha   90.00017584
_cell_angle_beta   89.99814508
_cell_angle_gamma   119.99895268
_symmetry_Int_Tables_number   1
_chemical_formula_structural   Gd6Mn(GeS7)2
_chemical_formula_sum   'Gd6 Mn1 Ge2 S14'
_cell_volume   509.89815615
_cell_formula_units_Z   1
loop_
 _symmetry_equiv_pos_site_id
 _symmetry_equiv_pos_as_xyz
  1  'x, y, z'
loop_
 _atom_site_type_symbol
 _atom_site_label
 _atom_site_symmetry_multiplicity
 _atom_site_fract_x
 _atom_site_fract_y
 _atom_site_fract_z
 _atom_site_occupancy
  Gd  Gd0  1  0.977790  0.436474  0.748749  1
  Gd  Gd1  1  0.458814  0.022335  0.748750  1
  Gd  Gd2  1  0.563504  0.541310  0.748682  1
  Gd  Gd3  1  0.688422  0.896503  0.247239  1
  Gd  Gd4  1  0.208199  0.311673  0.247368  1
  Gd  Gd5  1  0.103411  0.791835  0.247218  1
  Mn  Mn6  1  0.333443  0.666971  0.516463  1
  Ge  Ge7  1  0.666609  0.333274  0.167543  1
  Ge  Ge8  1  0.999962  0.999879  0.661318  1
  S  S9  1  0.666562  0.333247  0.548302  1
  S  S10  1  0.999942  0.999893  0.041905  1
  S  S11  1  0.087356  0.510146  0.284835  1
  S  S12  1  0.422849  0.912747  0.285040  1
  S  S13  1  0.489887  0.577296  0.284939  1
  S  S14  1  0.580209  0.826578  0.760358  1
  S  S15  1  0.246435  0.419905  0.760024  1
  S  S16  1  0.173512  0.753649  0.760257  1
  S  S17  1  0.816810  0.564164  0.007055  1
  S  S18  1  0.747325  0.183081  0.007005  1
  S  S19  1  0.435727  0.252655  0.006993  1
  S  S20  1  0.850183  0.768874  0.501298  1
  S  S21  1  0.918743  0.149672  0.501404  1
  S  S22  1  0.230973  0.081172  0.501290  1
