# generated using pymatgen
data_Zn4Cd12Cu7Ni
_symmetry_space_group_name_H-M   'P 1'
_cell_length_a   8.31209520
_cell_length_b   8.31209439
_cell_length_c   8.31209430
_cell_angle_alpha   59.90478195
_cell_angle_beta   59.90478336
_cell_angle_gamma   59.90478827
_symmetry_Int_Tables_number   1
_chemical_formula_structural   Zn4Cd12Cu7Ni
_chemical_formula_sum   'Zn4 Cd12 Cu7 Ni1'
_cell_volume   405.20735615
_cell_formula_units_Z   1
loop_
 _symmetry_equiv_pos_site_id
 _symmetry_equiv_pos_as_xyz
  1  'x, y, z'
loop_
 _atom_site_type_symbol
 _atom_site_label
 _atom_site_symmetry_multiplicity
 _atom_site_fract_x
 _atom_site_fract_y
 _atom_site_fract_z
 _atom_site_occupancy
  Zn  Zn0  1  0.121821  0.628518  0.628518  1
  Zn  Zn1  1  0.628518  0.121821  0.628518  1
  Zn  Zn2  1  0.628518  0.628518  0.121821  1
  Zn  Zn3  1  0.624824  0.624824  0.624824  1
  Cd  Cd4  1  0.808890  0.808890  0.189106  1
  Cd  Cd5  1  0.191403  0.191403  0.808262  1
  Cd  Cd6  1  0.808890  0.189106  0.808890  1
  Cd  Cd7  1  0.191403  0.808262  0.191403  1
  Cd  Cd8  1  0.189106  0.808890  0.808890  1
  Cd  Cd9  1  0.808262  0.191403  0.191403  1
  Cd  Cd10  1  0.441125  0.441125  0.058934  1
  Cd  Cd11  1  0.057591  0.057591  0.442925  1
  Cd  Cd12  1  0.441125  0.058934  0.441125  1
  Cd  Cd13  1  0.057591  0.442925  0.057591  1
  Cd  Cd14  1  0.058934  0.441125  0.441125  1
  Cd  Cd15  1  0.442925  0.057591  0.057591  1
  Cu  Cu16  1  0.741950  0.419130  0.419130  1
  Cu  Cu17  1  0.419130  0.741950  0.419130  1
  Cu  Cu18  1  0.419130  0.419130  0.741950  1
  Cu  Cu19  1  0.419950  0.419950  0.419950  1
  Cu  Cu20  1  0.507497  0.830214  0.830214  1
  Cu  Cu21  1  0.830214  0.507497  0.830214  1
  Cu  Cu22  1  0.830214  0.830214  0.507497  1
  Ni  Ni23  1  0.830993  0.830993  0.830993  1
