# generated using pymatgen
data_K3P2AuSe8
_symmetry_space_group_name_H-M   'P 1'
_cell_length_a   7.36838182
_cell_length_b   7.36838112
_cell_length_c   19.07463385
_cell_angle_alpha   86.77062853
_cell_angle_beta   86.77062756
_cell_angle_gamma   120.85390366
_symmetry_Int_Tables_number   1
_chemical_formula_structural   K3P2AuSe8
_chemical_formula_sum   'K6 P4 Au2 Se16'
_cell_volume   883.24615083
_cell_formula_units_Z   2
loop_
 _symmetry_equiv_pos_site_id
 _symmetry_equiv_pos_as_xyz
  1  'x, y, z'
loop_
 _atom_site_type_symbol
 _atom_site_label
 _atom_site_symmetry_multiplicity
 _atom_site_fract_x
 _atom_site_fract_y
 _atom_site_fract_z
 _atom_site_occupancy
  K  K0  1  0.497407  0.360984  0.105709  1
  K  K1  1  0.360984  0.497407  0.605709  1
  K  K2  1  0.892491  0.679031  0.754056  1
  K  K3  1  0.679031  0.892491  0.254056  1
  K  K4  1  0.579628  0.030794  0.898533  1
  K  K5  1  0.030794  0.579628  0.398533  1
  P  P6  1  0.304189  0.431091  0.877512  1
  P  P7  1  0.431091  0.304189  0.377512  1
  P  P8  1  0.216449  0.681701  0.123498  1
  P  P9  1  0.681701  0.216449  0.623498  1
  Au  Au10  1  0.050302  0.951384  0.998860  1
  Au  Au11  1  0.951384  0.050302  0.498860  1
  Se  Se12  1  0.493126  0.173389  0.722218  1
  Se  Se13  1  0.173389  0.493126  0.222218  1
  Se  Se14  1  0.079215  0.075507  0.874475  1
  Se  Se15  1  0.075507  0.079215  0.374475  1
  Se  Se16  1  0.341858  0.629073  0.781724  1
  Se  Se17  1  0.629073  0.341858  0.281724  1
  Se  Se18  1  0.599440  0.507514  0.920993  1
  Se  Se19  1  0.507514  0.599440  0.420993  1
  Se  Se20  1  0.107113  0.543925  0.940101  1
  Se  Se21  1  0.543925  0.107113  0.440101  1
  Se  Se22  1  0.054670  0.391215  0.058674  1
  Se  Se23  1  0.391215  0.054670  0.558674  1
  Se  Se24  1  0.543823  0.915011  0.083800  1
  Se  Se25  1  0.915011  0.543823  0.583800  1
  Se  Se26  1  0.004045  0.822409  0.123547  1
  Se  Se27  1  0.822409  0.004045  0.623547  1
