# generated using pymatgen
data_Ti(NbSn)5
_symmetry_space_group_name_H-M   'P 1'
_cell_length_a   5.67859024
_cell_length_b   9.27229160
_cell_length_c   10.03987684
_cell_angle_alpha   117.50158889
_cell_angle_beta   106.06981876
_cell_angle_gamma   90.00000008
_symmetry_Int_Tables_number   1
_chemical_formula_structural   Ti(NbSn)5
_chemical_formula_sum   'Ti2 Nb10 Sn10'
_cell_volume   445.48056928
_cell_formula_units_Z   2
loop_
 _symmetry_equiv_pos_site_id
 _symmetry_equiv_pos_as_xyz
  1  'x, y, z'
loop_
 _atom_site_type_symbol
 _atom_site_label
 _atom_site_symmetry_multiplicity
 _atom_site_fract_x
 _atom_site_fract_y
 _atom_site_fract_z
 _atom_site_occupancy
  Ti  Ti0  1  0.000000  0.000000  0.500000  1
  Ti  Ti1  1  0.000000  0.500000  0.500000  1
  Nb  Nb2  1  0.261392  0.499955  0.999911  1
  Nb  Nb3  1  0.738607  0.500045  0.000089  1
  Nb  Nb4  1  0.575002  0.313256  0.168289  1
  Nb  Nb5  1  0.575002  0.855033  0.168289  1
  Nb  Nb6  1  0.165049  0.155113  0.310226  1
  Nb  Nb7  1  0.500000  0.000000  0.500000  1
  Nb  Nb8  1  0.500000  0.500000  0.500000  1
  Nb  Nb9  1  0.834951  0.844887  0.689774  1
  Nb  Nb10  1  0.424998  0.144967  0.831711  1
  Nb  Nb11  1  0.424998  0.686744  0.831711  1
  Sn  Sn12  1  0.243060  0.998750  0.997500  1
  Sn  Sn13  1  0.756941  0.001250  0.002500  1
  Sn  Sn14  1  0.099356  0.412824  0.210352  1
  Sn  Sn15  1  0.099356  0.797528  0.210352  1
  Sn  Sn16  1  0.665640  0.668423  0.336847  1
  Sn  Sn17  1  0.716775  0.206670  0.413340  1
  Sn  Sn18  1  0.283225  0.793330  0.586660  1
  Sn  Sn19  1  0.334360  0.331577  0.663153  1
  Sn  Sn20  1  0.900644  0.202472  0.789648  1
  Sn  Sn21  1  0.900644  0.587176  0.789648  1
