# generated using pymatgen
data_Be2InF5
_symmetry_space_group_name_H-M   'P 1'
_cell_length_a   4.77122260
_cell_length_b   4.77122271
_cell_length_c   6.26352305
_cell_angle_alpha   92.33818699
_cell_angle_beta   92.33819039
_cell_angle_gamma   58.27607368
_symmetry_Int_Tables_number   1
_chemical_formula_structural   Be2InF5
_chemical_formula_sum   'Be2 In1 F5'
_cell_volume   121.15040414
_cell_formula_units_Z   1
loop_
 _symmetry_equiv_pos_site_id
 _symmetry_equiv_pos_as_xyz
  1  'x, y, z'
loop_
 _atom_site_type_symbol
 _atom_site_label
 _atom_site_symmetry_multiplicity
 _atom_site_fract_x
 _atom_site_fract_y
 _atom_site_fract_z
 _atom_site_occupancy
  Be  Be0  1  0.279736  0.391198  0.412413  1
  Be  Be1  1  0.608802  0.720264  0.587587  1
  In  In2  1  0.924401  0.075600  0.000000  1
  F  F3  1  0.381412  0.300185  0.181422  1
  F  F4  1  0.906364  0.499857  0.432688  1
  F  F5  1  0.310566  0.689434  0.500000  1
  F  F6  1  0.500142  0.093636  0.567313  1
  F  F7  1  0.699815  0.618588  0.818578  1
