# generated using pymatgen
data_HoPa2(AlPt)3
_symmetry_space_group_name_H-M   'P 1'
_cell_length_a   7.08643923
_cell_length_b   7.08724338
_cell_length_c   4.12473300
_cell_angle_alpha   90.00000000
_cell_angle_beta   90.00000000
_cell_angle_gamma   120.00376292
_symmetry_Int_Tables_number   1
_chemical_formula_structural   HoPa2(AlPt)3
_chemical_formula_sum   'Ho1 Pa2 Al3 Pt3'
_cell_volume   179.39710005
_cell_formula_units_Z   1
loop_
 _symmetry_equiv_pos_site_id
 _symmetry_equiv_pos_as_xyz
  1  'x, y, z'
loop_
 _atom_site_type_symbol
 _atom_site_label
 _atom_site_symmetry_multiplicity
 _atom_site_fract_x
 _atom_site_fract_y
 _atom_site_fract_z
 _atom_site_occupancy
  Ho  Ho0  1  0.000000  0.583775  0.500000  1
  Pa  Pa1  1  0.422429  0.420814  0.500000  1
  Pa  Pa2  1  0.577571  0.998384  0.500000  1
  Al  Al3  1  0.766729  0.760366  0.000000  1
  Al  Al4  1  0.233271  0.993638  0.000000  1
  Al  Al5  1  0.000000  0.243985  0.000000  1
  Pt  Pt6  1  0.654319  0.322712  0.000000  1
  Pt  Pt7  1  0.345681  0.668394  0.000000  1
  Pt  Pt8  1  0.000000  0.007931  0.500000  1
