# generated using pymatgen
data_YbFe3O5
_symmetry_space_group_name_H-M   'P 1'
_cell_length_a   3.03421600
_cell_length_b   5.32757117
_cell_length_c   12.63537800
_cell_angle_alpha   90.00000000
_cell_angle_beta   90.00000000
_cell_angle_gamma   106.54482664
_symmetry_Int_Tables_number   1
_chemical_formula_structural   YbFe3O5
_chemical_formula_sum   'Yb2 Fe6 O10'
_cell_volume   195.79435465
_cell_formula_units_Z   2
loop_
 _symmetry_equiv_pos_site_id
 _symmetry_equiv_pos_as_xyz
  1  'x, y, z'
loop_
 _atom_site_type_symbol
 _atom_site_label
 _atom_site_symmetry_multiplicity
 _atom_site_fract_x
 _atom_site_fract_y
 _atom_site_fract_z
 _atom_site_occupancy
  Yb  Yb0  1  0.520479  0.040958  0.750000  1
  Yb  Yb1  1  0.479522  0.959042  0.250000  1
  Fe  Fe2  1  0.000000  0.000000  0.500000  1
  Fe  Fe3  1  0.268447  0.536895  0.889660  1
  Fe  Fe4  1  0.731553  0.463104  0.110340  1
  Fe  Fe5  1  0.000000  0.000000  0.000000  1
  Fe  Fe6  1  0.731553  0.463104  0.389661  1
  Fe  Fe7  1  0.268447  0.536895  0.610339  1
  O  O8  1  0.902604  0.805206  0.639323  1
  O  O9  1  0.097397  0.194794  0.360677  1
  O  O10  1  0.097397  0.194794  0.139323  1
  O  O11  1  0.902604  0.805206  0.860677  1
  O  O12  1  0.650525  0.301047  0.947975  1
  O  O13  1  0.349476  0.698951  0.052025  1
  O  O14  1  0.349476  0.698951  0.447975  1
  O  O15  1  0.650525  0.301047  0.552025  1
  O  O16  1  0.186787  0.373574  0.750000  1
  O  O17  1  0.813213  0.626425  0.250000  1
