# generated using pymatgen
data_NdEr9(Ga2Ru3)2
_symmetry_space_group_name_H-M   'P 1'
_cell_length_a   8.28971308
_cell_length_b   8.28971278
_cell_length_c   8.28851475
_cell_angle_alpha   109.05498861
_cell_angle_beta   109.50084292
_cell_angle_gamma   109.86465317
_symmetry_Int_Tables_number   1
_chemical_formula_structural   NdEr9(Ga2Ru3)2
_chemical_formula_sum   'Nd1 Er9 Ga4 Ru6'
_cell_volume   438.41047410
_cell_formula_units_Z   1
loop_
 _symmetry_equiv_pos_site_id
 _symmetry_equiv_pos_as_xyz
  1  'x, y, z'
loop_
 _atom_site_type_symbol
 _atom_site_label
 _atom_site_symmetry_multiplicity
 _atom_site_fract_x
 _atom_site_fract_y
 _atom_site_fract_z
 _atom_site_occupancy
  Nd  Nd0  1  0.186146  0.936146  0.250000  1
  Er  Er1  1  0.781720  0.784353  0.782733  1
  Er  Er2  1  0.316961  0.566961  0.750000  1
  Er  Er3  1  0.753650  0.322157  0.571599  1
  Er  Er4  1  0.569084  0.748186  0.318008  1
  Er  Er5  1  0.713525  0.498296  0.997614  1
  Er  Er6  1  0.000682  0.715911  0.502386  1
  Er  Er7  1  0.501619  0.998986  0.717267  1
  Er  Er8  1  0.250559  0.182051  0.928401  1
  Er  Er9  1  0.930177  0.251075  0.181992  1
  Ga  Ga10  1  0.415079  0.415141  0.412643  1
  Ga  Ga11  1  0.089866  0.496811  0.002188  1
  Ga  Ga12  1  0.994623  0.087679  0.497812  1
  Ga  Ga13  1  0.502498  0.002436  0.087357  1
  Ru  Ru14  1  0.874066  0.124066  0.750000  1
  Ru  Ru15  1  0.744237  0.871458  0.119680  1
  Ru  Ru16  1  0.123174  0.747636  0.872942  1
  Ru  Ru17  1  0.251778  0.624558  0.380320  1
  Ru  Ru18  1  0.374694  0.250232  0.627058  1
  Ru  Ru19  1  0.625860  0.375860  0.250000  1
