# generated using pymatgen
data_Dy3TlIn3CuRh
_symmetry_space_group_name_H-M   'P 1'
_cell_length_a   7.86017300
_cell_length_b   7.86017369
_cell_length_c   3.87168700
_cell_angle_alpha   90.00000000
_cell_angle_beta   90.00000000
_cell_angle_gamma   120.00000861
_symmetry_Int_Tables_number   1
_chemical_formula_structural   Dy3TlIn3CuRh
_chemical_formula_sum   'Dy3 Tl1 In3 Cu1 Rh1'
_cell_volume   207.15483865
_cell_formula_units_Z   1
loop_
 _symmetry_equiv_pos_site_id
 _symmetry_equiv_pos_as_xyz
  1  'x, y, z'
loop_
 _atom_site_type_symbol
 _atom_site_label
 _atom_site_symmetry_multiplicity
 _atom_site_fract_x
 _atom_site_fract_y
 _atom_site_fract_z
 _atom_site_occupancy
  Dy  Dy0  1  0.423688  0.033042  0.500000  1
  Dy  Dy1  1  0.966958  0.390646  0.500000  1
  Dy  Dy2  1  0.609354  0.576312  0.500000  1
  Tl  Tl3  1  0.333333  0.666667  0.000000  1
  In  In4  1  0.756708  0.007937  0.000000  1
  In  In5  1  0.992063  0.748771  0.000000  1
  In  In6  1  0.251229  0.243292  0.000000  1
  Cu  Cu7  1  0.000000  0.000000  0.500000  1
  Rh  Rh8  1  0.666667  0.333333  0.000000  1
