# generated using pymatgen
data_Er3Ni8MoP6
_symmetry_space_group_name_H-M   'P 1'
_cell_length_a   3.74562600
_cell_length_b   10.65042000
_cell_length_c   12.29910200
_cell_angle_alpha   90.00000000
_cell_angle_beta   90.00000000
_cell_angle_gamma   90.00000000
_symmetry_Int_Tables_number   1
_chemical_formula_structural   Er3Ni8MoP6
_chemical_formula_sum   'Er6 Ni16 Mo2 P12'
_cell_volume   490.64180432
_cell_formula_units_Z   2
loop_
 _symmetry_equiv_pos_site_id
 _symmetry_equiv_pos_as_xyz
  1  'x, y, z'
loop_
 _atom_site_type_symbol
 _atom_site_label
 _atom_site_symmetry_multiplicity
 _atom_site_fract_x
 _atom_site_fract_y
 _atom_site_fract_z
 _atom_site_occupancy
  Er  Er0  1  0.000000  0.500000  0.525203  1
  Er  Er1  1  0.500000  0.000000  0.474797  1
  Er  Er2  1  0.500000  0.819344  0.207265  1
  Er  Er3  1  0.500000  0.180656  0.207265  1
  Er  Er4  1  0.000000  0.680656  0.792735  1
  Er  Er5  1  0.000000  0.319344  0.792735  1
  Ni  Ni6  1  0.500000  0.500000  0.700333  1
  Ni  Ni7  1  0.000000  0.000000  0.299667  1
  Ni  Ni8  1  0.000000  0.500000  0.985413  1
  Ni  Ni9  1  0.500000  0.000000  0.014587  1
  Ni  Ni10  1  0.500000  0.332651  0.988154  1
  Ni  Ni11  1  0.500000  0.667349  0.988154  1
  Ni  Ni12  1  0.000000  0.167349  0.011846  1
  Ni  Ni13  1  0.000000  0.832651  0.011846  1
  Ni  Ni14  1  0.500000  0.302990  0.428248  1
  Ni  Ni15  1  0.500000  0.697010  0.428248  1
  Ni  Ni16  1  0.000000  0.197010  0.571752  1
  Ni  Ni17  1  0.000000  0.802990  0.571752  1
  Ni  Ni18  1  0.500000  0.878186  0.709275  1
  Ni  Ni19  1  0.500000  0.121814  0.709275  1
  Ni  Ni20  1  0.000000  0.621814  0.290725  1
  Ni  Ni21  1  0.000000  0.378186  0.290725  1
  Mo  Mo22  1  0.500000  0.500000  0.154121  1
  Mo  Mo23  1  0.000000  0.000000  0.845879  1
  P  P24  1  0.500000  0.500000  0.878179  1
  P  P25  1  0.000000  0.000000  0.121821  1
  P  P26  1  0.500000  0.500000  0.350110  1
  P  P27  1  0.000000  0.000000  0.649890  1
  P  P28  1  0.500000  0.314624  0.614580  1
  P  P29  1  0.500000  0.685376  0.614580  1
  P  P30  1  0.000000  0.185376  0.385420  1
  P  P31  1  0.000000  0.814624  0.385420  1
  P  P32  1  0.500000  0.844298  0.892379  1
  P  P33  1  0.500000  0.155702  0.892379  1
  P  P34  1  0.000000  0.655702  0.107621  1
  P  P35  1  0.000000  0.344298  0.107621  1
