# generated using pymatgen
data_TbHo11(SiPd)12
_symmetry_space_group_name_H-M   'P 1'
_cell_length_a   4.35033500
_cell_length_b   7.41935200
_cell_length_c   20.91568400
_cell_angle_alpha   90.00089940
_cell_angle_beta   90.00000000
_cell_angle_gamma   90.00000000
_symmetry_Int_Tables_number   1
_chemical_formula_structural   TbHo11(SiPd)12
_chemical_formula_sum   'Tb1 Ho11 Si12 Pd12'
_cell_volume   675.08856087
_cell_formula_units_Z   1
loop_
 _symmetry_equiv_pos_site_id
 _symmetry_equiv_pos_as_xyz
  1  'x, y, z'
loop_
 _atom_site_type_symbol
 _atom_site_label
 _atom_site_symmetry_multiplicity
 _atom_site_fract_x
 _atom_site_fract_y
 _atom_site_fract_z
 _atom_site_occupancy
  Tb  Tb0  1  0.250000  0.789994  0.501142  1
  Ho  Ho1  1  0.250000  0.705540  0.332716  1
  Ho  Ho2  1  0.750000  0.294160  0.667215  1
  Ho  Ho3  1  0.750000  0.205756  0.167155  1
  Ho  Ho4  1  0.250000  0.794269  0.832862  1
  Ho  Ho5  1  0.250000  0.792218  0.166501  1
  Ho  Ho6  1  0.750000  0.207772  0.833458  1
  Ho  Ho7  1  0.750000  0.292149  0.333354  1
  Ho  Ho8  1  0.250000  0.707602  0.666727  1
  Ho  Ho9  1  0.250000  0.711300  0.001105  1
  Ho  Ho10  1  0.750000  0.288642  0.998875  1
  Ho  Ho11  1  0.750000  0.211920  0.498847  1
  Si  Si12  1  0.250000  0.088776  0.071470  1
  Si  Si13  1  0.750000  0.911202  0.928511  1
  Si  Si14  1  0.750000  0.588007  0.428193  1
  Si  Si15  1  0.250000  0.410815  0.571528  1
  Si  Si16  1  0.250000  0.084794  0.271357  1
  Si  Si17  1  0.750000  0.915272  0.728701  1
  Si  Si18  1  0.750000  0.584785  0.228619  1
  Si  Si19  1  0.250000  0.415299  0.771424  1
  Si  Si20  1  0.250000  0.086800  0.395190  1
  Si  Si21  1  0.750000  0.913572  0.604860  1
  Si  Si22  1  0.750000  0.586562  0.104461  1
  Si  Si23  1  0.250000  0.413453  0.895539  1
  Pd  Pd24  1  0.250000  0.416429  0.237167  1
  Pd  Pd25  1  0.750000  0.583508  0.762808  1
  Pd  Pd26  1  0.750000  0.916436  0.262753  1
  Pd  Pd27  1  0.250000  0.083545  0.737254  1
  Pd  Pd28  1  0.250000  0.416368  0.436887  1
  Pd  Pd29  1  0.750000  0.582253  0.563329  1
  Pd  Pd30  1  0.750000  0.916950  0.063014  1
  Pd  Pd31  1  0.250000  0.083057  0.936998  1
  Pd  Pd32  1  0.250000  0.419521  0.093362  1
  Pd  Pd33  1  0.750000  0.580463  0.906634  1
  Pd  Pd34  1  0.750000  0.919714  0.406319  1
  Pd  Pd35  1  0.250000  0.081098  0.593667  1
