# generated using pymatgen
data_Zr3BeSiPOs3
_symmetry_space_group_name_H-M   'P 1'
_cell_length_a   6.66887300
_cell_length_b   6.66887338
_cell_length_c   3.58563800
_cell_angle_alpha   90.00000000
_cell_angle_beta   90.00000000
_cell_angle_gamma   120.00001302
_symmetry_Int_Tables_number   1
_chemical_formula_structural   Zr3BeSiPOs3
_chemical_formula_sum   'Zr3 Be1 Si1 P1 Os3'
_cell_volume   138.10262540
_cell_formula_units_Z   1
loop_
 _symmetry_equiv_pos_site_id
 _symmetry_equiv_pos_as_xyz
  1  'x, y, z'
loop_
 _atom_site_type_symbol
 _atom_site_label
 _atom_site_symmetry_multiplicity
 _atom_site_fract_x
 _atom_site_fract_y
 _atom_site_fract_z
 _atom_site_occupancy
  Zr  Zr0  1  0.402169  0.404194  0.500000  1
  Zr  Zr1  1  0.595806  0.997976  0.500000  1
  Zr  Zr2  1  0.002024  0.597831  0.500000  1
  Be  Be3  1  0.000000  0.000000  0.500000  1
  Si  Si4  1  0.666667  0.333333  0.000000  1
  P  P5  1  0.333333  0.666667  0.000000  1
  Os  Os6  1  0.759685  0.760004  0.000000  1
  Os  Os7  1  0.239996  0.999681  0.000000  1
  Os  Os8  1  0.000319  0.240315  0.000000  1
