# generated using pymatgen
data_TbDy15(NiHg)4
_symmetry_space_group_name_H-M   'P 1'
_cell_length_a   9.51191227
_cell_length_b   9.51191280
_cell_length_c   9.51191300
_cell_angle_alpha   59.99959850
_cell_angle_beta   59.99960046
_cell_angle_gamma   59.99959916
_symmetry_Int_Tables_number   1
_chemical_formula_structural   TbDy15(NiHg)4
_chemical_formula_sum   'Tb1 Dy15 Ni4 Hg4'
_cell_volume   608.53368441
_cell_formula_units_Z   1
loop_
 _symmetry_equiv_pos_site_id
 _symmetry_equiv_pos_as_xyz
  1  'x, y, z'
loop_
 _atom_site_type_symbol
 _atom_site_label
 _atom_site_symmetry_multiplicity
 _atom_site_fract_x
 _atom_site_fract_y
 _atom_site_fract_z
 _atom_site_occupancy
  Tb  Tb0  1  0.599878  0.599878  0.599878  1
  Dy  Dy1  1  0.599873  0.599873  0.200367  1
  Dy  Dy2  1  0.599873  0.200367  0.599873  1
  Dy  Dy3  1  0.200367  0.599873  0.599873  1
  Dy  Dy4  1  0.060928  0.439081  0.439081  1
  Dy  Dy5  1  0.439099  0.060911  0.060911  1
  Dy  Dy6  1  0.439081  0.060928  0.439081  1
  Dy  Dy7  1  0.060911  0.439099  0.060911  1
  Dy  Dy8  1  0.439081  0.439081  0.060928  1
  Dy  Dy9  1  0.060911  0.060911  0.439099  1
  Dy  Dy10  1  0.186636  0.813359  0.813359  1
  Dy  Dy11  1  0.813353  0.186646  0.186646  1
  Dy  Dy12  1  0.813359  0.186636  0.813359  1
  Dy  Dy13  1  0.186646  0.813353  0.186646  1
  Dy  Dy14  1  0.813359  0.813359  0.186636  1
  Dy  Dy15  1  0.186646  0.186646  0.813353  1
  Ni  Ni16  1  0.392608  0.392608  0.392608  1
  Ni  Ni17  1  0.392578  0.392578  0.822218  1
  Ni  Ni18  1  0.392578  0.822218  0.392578  1
  Ni  Ni19  1  0.822218  0.392578  0.392578  1
  Hg  Hg20  1  0.834873  0.834873  0.834873  1
  Hg  Hg21  1  0.834883  0.834883  0.495381  1
  Hg  Hg22  1  0.834883  0.495381  0.834883  1
  Hg  Hg23  1  0.495381  0.834883  0.834883  1
