# generated using pymatgen
data_TbThNi2Ag
_symmetry_space_group_name_H-M   'P 1'
_cell_length_a   7.37394630
_cell_length_b   7.37394617
_cell_length_c   3.68254000
_cell_angle_alpha   90.00000000
_cell_angle_beta   90.00000000
_cell_angle_gamma   91.69553170
_symmetry_Int_Tables_number   1
_chemical_formula_structural   TbThNi2Ag
_chemical_formula_sum   'Tb2 Th2 Ni4 Ag2'
_cell_volume   200.15074800
_cell_formula_units_Z   2
loop_
 _symmetry_equiv_pos_site_id
 _symmetry_equiv_pos_as_xyz
  1  'x, y, z'
loop_
 _atom_site_type_symbol
 _atom_site_label
 _atom_site_symmetry_multiplicity
 _atom_site_fract_x
 _atom_site_fract_y
 _atom_site_fract_z
 _atom_site_occupancy
  Tb  Tb0  1  0.173928  0.326072  0.500000  1
  Tb  Tb1  1  0.826072  0.673928  0.500000  1
  Th  Th2  1  0.676819  0.176819  0.500000  1
  Th  Th3  1  0.323181  0.823181  0.500000  1
  Ni  Ni4  1  0.123207  0.623207  0.000000  1
  Ni  Ni5  1  0.876793  0.376793  0.000000  1
  Ni  Ni6  1  0.619434  0.880566  0.000000  1
  Ni  Ni7  1  0.380566  0.119434  0.000000  1
  Ag  Ag8  1  0.000000  0.000000  0.000000  1
  Ag  Ag9  1  0.500000  0.500000  0.000000  1
