# generated using pymatgen
data_Dy3Th(Zn5Ge)2
_symmetry_space_group_name_H-M   'P 1'
_cell_length_a   8.25321307
_cell_length_b   8.25321345
_cell_length_c   8.83276600
_cell_angle_alpha   90.32290607
_cell_angle_beta   89.67709392
_cell_angle_gamma   149.53714033
_symmetry_Int_Tables_number   1
_chemical_formula_structural   Dy3Th(Zn5Ge)2
_chemical_formula_sum   'Dy3 Th1 Zn10 Ge2'
_cell_volume   305.01840587
_cell_formula_units_Z   1
loop_
 _symmetry_equiv_pos_site_id
 _symmetry_equiv_pos_as_xyz
  1  'x, y, z'
loop_
 _atom_site_type_symbol
 _atom_site_label
 _atom_site_symmetry_multiplicity
 _atom_site_fract_x
 _atom_site_fract_y
 _atom_site_fract_z
 _atom_site_occupancy
  Dy  Dy0  1  0.199651  0.800349  0.252642  1
  Dy  Dy1  1  0.800349  0.199651  0.747358  1
  Dy  Dy2  1  0.000000  0.000000  0.500000  1
  Th  Th3  1  0.000000  0.000000  0.000000  1
  Zn  Zn4  1  0.813925  0.186075  0.391283  1
  Zn  Zn5  1  0.186075  0.813925  0.608717  1
  Zn  Zn6  1  0.810820  0.189180  0.105963  1
  Zn  Zn7  1  0.189180  0.810820  0.894037  1
  Zn  Zn8  1  0.651826  0.348174  0.478170  1
  Zn  Zn9  1  0.348174  0.651826  0.521830  1
  Zn  Zn10  1  0.652558  0.347442  0.024685  1
  Zn  Zn11  1  0.347442  0.652558  0.975315  1
  Zn  Zn12  1  0.399505  0.600495  0.248758  1
  Zn  Zn13  1  0.600495  0.399505  0.751242  1
  Ge  Ge14  1  0.555165  0.444835  0.252842  1
  Ge  Ge15  1  0.444835  0.555165  0.747158  1
