# generated using pymatgen
data_Dy7YTi11Si16Rh
_symmetry_space_group_name_H-M   'P 1'
_cell_length_a   7.03614572
_cell_length_b   7.03636590
_cell_length_c   12.86853110
_cell_angle_alpha   89.87873556
_cell_angle_beta   90.11662653
_cell_angle_gamma   89.79152677
_symmetry_Int_Tables_number   1
_chemical_formula_structural   Dy7YTi11Si16Rh
_chemical_formula_sum   'Dy7 Y1 Ti11 Si16 Rh1'
_cell_volume   637.09979128
_cell_formula_units_Z   1
loop_
 _symmetry_equiv_pos_site_id
 _symmetry_equiv_pos_as_xyz
  1  'x, y, z'
loop_
 _atom_site_type_symbol
 _atom_site_label
 _atom_site_symmetry_multiplicity
 _atom_site_fract_x
 _atom_site_fract_y
 _atom_site_fract_z
 _atom_site_occupancy
  Dy  Dy0  1  0.001703  0.342454  0.531961  1
  Dy  Dy1  1  0.659755  0.996105  0.967177  1
  Dy  Dy2  1  0.158557  0.503281  0.782117  1
  Dy  Dy3  1  0.841093  0.499054  0.285204  1
  Dy  Dy4  1  0.503340  0.158558  0.217876  1
  Dy  Dy5  1  0.499044  0.841106  0.714814  1
  Dy  Dy6  1  0.342497  0.001705  0.468064  1
  Y  Y7  1  0.995822  0.659858  0.032739  1
  Ti  Ti8  1  0.344237  0.506303  0.374852  1
  Ti  Ti9  1  0.850379  0.996180  0.376370  1
  Ti  Ti10  1  0.006371  0.151324  0.124897  1
  Ti  Ti11  1  0.996229  0.850381  0.623649  1
  Ti  Ti12  1  0.506322  0.344261  0.625162  1
  Ti  Ti13  1  0.151385  0.006412  0.875041  1
  Ti  Ti14  1  0.824310  0.173188  0.748627  1
  Ti  Ti15  1  0.173216  0.824423  0.251451  1
  Ti  Ti16  1  0.326518  0.326335  0.000000  1
  Ti  Ti17  1  0.492874  0.650836  0.127723  1
  Ti  Ti18  1  0.650760  0.492846  0.872198  1
  Si  Si19  1  0.049923  0.713331  0.435909  1
  Si  Si20  1  0.952032  0.291130  0.934427  1
  Si  Si21  1  0.713356  0.049960  0.564117  1
  Si  Si22  1  0.208303  0.452735  0.184462  1
  Si  Si23  1  0.789903  0.550626  0.682622  1
  Si  Si24  1  0.452921  0.208103  0.815626  1
  Si  Si25  1  0.550661  0.789928  0.317353  1
  Si  Si26  1  0.291451  0.952245  0.065573  1
  Si  Si27  1  0.797633  0.868005  0.185669  1
  Si  Si28  1  0.297191  0.627519  0.565712  1
  Si  Si29  1  0.704079  0.369120  0.065728  1
  Si  Si30  1  0.627565  0.297151  0.434346  1
  Si  Si31  1  0.369489  0.704299  0.934246  1
  Si  Si32  1  0.131017  0.203301  0.315872  1
  Si  Si33  1  0.203313  0.131057  0.684105  1
  Si  Si34  1  0.867685  0.797864  0.814350  1
  Rh  Rh35  1  0.669066  0.669017  0.499962  1
