# generated using pymatgen
data_Sm3Ta(Ni4P3)2
_symmetry_space_group_name_H-M   'P 1'
_cell_length_a   3.82221800
_cell_length_b   10.79124000
_cell_length_c   12.47187400
_cell_angle_alpha   90.00000000
_cell_angle_beta   90.00000000
_cell_angle_gamma   90.00000000
_symmetry_Int_Tables_number   1
_chemical_formula_structural   Sm3Ta(Ni4P3)2
_chemical_formula_sum   'Sm6 Ta2 Ni16 P12'
_cell_volume   514.42079886
_cell_formula_units_Z   2
loop_
 _symmetry_equiv_pos_site_id
 _symmetry_equiv_pos_as_xyz
  1  'x, y, z'
loop_
 _atom_site_type_symbol
 _atom_site_label
 _atom_site_symmetry_multiplicity
 _atom_site_fract_x
 _atom_site_fract_y
 _atom_site_fract_z
 _atom_site_occupancy
  Sm  Sm0  1  0.000000  0.500000  0.523212  1
  Sm  Sm1  1  0.500000  0.000000  0.476788  1
  Sm  Sm2  1  0.500000  0.818483  0.206242  1
  Sm  Sm3  1  0.500000  0.181517  0.206242  1
  Sm  Sm4  1  0.000000  0.681517  0.793758  1
  Sm  Sm5  1  0.000000  0.318483  0.793758  1
  Ta  Ta6  1  0.500000  0.500000  0.150813  1
  Ta  Ta7  1  0.000000  0.000000  0.849187  1
  Ni  Ni8  1  0.000000  0.500000  0.983714  1
  Ni  Ni9  1  0.500000  0.000000  0.016286  1
  Ni  Ni10  1  0.500000  0.300869  0.427184  1
  Ni  Ni11  1  0.500000  0.699131  0.427184  1
  Ni  Ni12  1  0.000000  0.199131  0.572816  1
  Ni  Ni13  1  0.000000  0.800869  0.572816  1
  Ni  Ni14  1  0.500000  0.880746  0.710472  1
  Ni  Ni15  1  0.500000  0.119254  0.710472  1
  Ni  Ni16  1  0.000000  0.619254  0.289528  1
  Ni  Ni17  1  0.000000  0.380746  0.289528  1
  Ni  Ni18  1  0.500000  0.333925  0.988594  1
  Ni  Ni19  1  0.500000  0.666075  0.988594  1
  Ni  Ni20  1  0.000000  0.166075  0.011406  1
  Ni  Ni21  1  0.000000  0.833925  0.011406  1
  Ni  Ni22  1  0.500000  0.500000  0.700489  1
  Ni  Ni23  1  0.000000  0.000000  0.299511  1
  P  P24  1  0.500000  0.311545  0.612908  1
  P  P25  1  0.500000  0.688455  0.612908  1
  P  P26  1  0.000000  0.188455  0.387092  1
  P  P27  1  0.000000  0.811545  0.387092  1
  P  P28  1  0.500000  0.500000  0.879862  1
  P  P29  1  0.000000  0.000000  0.120138  1
  P  P30  1  0.500000  0.843536  0.895545  1
  P  P31  1  0.500000  0.156464  0.895545  1
  P  P32  1  0.000000  0.656464  0.104455  1
  P  P33  1  0.000000  0.343536  0.104455  1
  P  P34  1  0.500000  0.500000  0.348895  1
  P  P35  1  0.000000  0.000000  0.651105  1
