# generated using pymatgen
data_Ta12Be3Si5(IrC)4
_symmetry_space_group_name_H-M   'P 1'
_cell_length_a   8.13305108
_cell_length_b   8.14284334
_cell_length_c   8.13305048
_cell_angle_alpha   60.09530397
_cell_angle_beta   60.06779812
_cell_angle_gamma   60.09530622
_symmetry_Int_Tables_number   1
_chemical_formula_structural   Ta12Be3Si5(IrC)4
_chemical_formula_sum   'Ta12 Be3 Si5 Ir4 C4'
_cell_volume   381.60568649
_cell_formula_units_Z   1
loop_
 _symmetry_equiv_pos_site_id
 _symmetry_equiv_pos_as_xyz
  1  'x, y, z'
loop_
 _atom_site_type_symbol
 _atom_site_label
 _atom_site_symmetry_multiplicity
 _atom_site_fract_x
 _atom_site_fract_y
 _atom_site_fract_z
 _atom_site_occupancy
  Ta  Ta0  1  0.561134  0.939072  0.561134  1
  Ta  Ta1  1  0.311987  0.686790  0.687392  1
  Ta  Ta2  1  0.685460  0.312316  0.312144  1
  Ta  Ta3  1  0.307306  0.689543  0.307306  1
  Ta  Ta4  1  0.687392  0.686790  0.311987  1
  Ta  Ta5  1  0.312144  0.312316  0.685460  1
  Ta  Ta6  1  0.559298  0.564653  0.937260  1
  Ta  Ta7  1  0.937260  0.564653  0.559298  1
  Ta  Ta8  1  0.563783  0.934893  0.933937  1
  Ta  Ta9  1  0.933937  0.934893  0.563783  1
  Ta  Ta10  1  0.684323  0.315225  0.684323  1
  Ta  Ta11  1  0.933791  0.566336  0.933791  1
  Be  Be12  1  0.922337  0.915635  0.247779  1
  Be  Be13  1  0.247779  0.915635  0.922337  1
  Be  Be14  1  0.334692  0.333283  0.334692  1
  Si  Si15  1  0.921652  0.911832  0.921652  1
  Si  Si16  1  0.997085  0.336984  0.337500  1
  Si  Si17  1  0.337888  0.995703  0.337888  1
  Si  Si18  1  0.337500  0.336984  0.997085  1
  Si  Si19  1  0.921488  0.246285  0.921488  1
  Ir  Ir20  1  0.129009  0.127196  0.129009  1
  Ir  Ir21  1  0.626521  0.124808  0.124089  1
  Ir  Ir22  1  0.127222  0.621582  0.127222  1
  Ir  Ir23  1  0.124089  0.124808  0.626521  1
  C  C24  1  0.624529  0.627357  0.624529  1
  C  C25  1  0.125978  0.624754  0.621238  1
  C  C26  1  0.623178  0.124920  0.623178  1
  C  C27  1  0.621238  0.624754  0.125978  1
