# generated using pymatgen
data_Tm2Pa(GaPt)3
_symmetry_space_group_name_H-M   'P 1'
_cell_length_a   7.27245100
_cell_length_b   7.27523976
_cell_length_c   3.86793700
_cell_angle_alpha   90.00000000
_cell_angle_beta   90.00000000
_cell_angle_gamma   119.98732517
_symmetry_Int_Tables_number   1
_chemical_formula_structural   Tm2Pa(GaPt)3
_chemical_formula_sum   'Tm2 Pa1 Ga3 Pt3'
_cell_volume   177.25299879
_cell_formula_units_Z   1
loop_
 _symmetry_equiv_pos_site_id
 _symmetry_equiv_pos_as_xyz
  1  'x, y, z'
loop_
 _atom_site_type_symbol
 _atom_site_label
 _atom_site_symmetry_multiplicity
 _atom_site_fract_x
 _atom_site_fract_y
 _atom_site_fract_z
 _atom_site_occupancy
  Tm  Tm0  1  0.407337  0.407148  0.499999  1
  Tm  Tm1  1  0.000190  0.592852  0.499999  1
  Pa  Pa2  1  0.586559  0.000000  0.499999  1
  Ga  Ga3  1  0.243478  0.000000  0.000000  1
  Ga  Ga4  1  0.010619  0.262847  0.000000  1
  Ga  Ga5  1  0.747771  0.737153  0.000000  1
  Pt  Pt6  1  0.666682  0.321397  0.000000  1
  Pt  Pt7  1  0.345285  0.678603  0.000000  1
  Pt  Pt8  1  0.992075  0.000000  0.499999  1
