# generated using pymatgen
data_B2PdPt6Pb
_symmetry_space_group_name_H-M   'P 1'
_cell_length_a   5.57340500
_cell_length_b   5.57340584
_cell_length_c   5.55412400
_cell_angle_alpha   90.00000000
_cell_angle_beta   90.00000000
_cell_angle_gamma   120.00000093
_symmetry_Int_Tables_number   1
_chemical_formula_structural   B2PdPt6Pb
_chemical_formula_sum   'B2 Pd1 Pt6 Pb1'
_cell_volume   149.41268509
_cell_formula_units_Z   1
loop_
 _symmetry_equiv_pos_site_id
 _symmetry_equiv_pos_as_xyz
  1  'x, y, z'
loop_
 _atom_site_type_symbol
 _atom_site_label
 _atom_site_symmetry_multiplicity
 _atom_site_fract_x
 _atom_site_fract_y
 _atom_site_fract_z
 _atom_site_occupancy
  B  B0  1  0.666667  0.333333  0.500000  1
  B  B1  1  0.333333  0.666667  0.500000  1
  Pd  Pd2  1  0.000000  0.000000  0.500000  1
  Pt  Pt3  1  0.500000  0.500000  0.754583  1
  Pt  Pt4  1  0.000000  0.500000  0.754583  1
  Pt  Pt5  1  0.500000  0.000000  0.754583  1
  Pt  Pt6  1  0.000000  0.500000  0.245417  1
  Pt  Pt7  1  0.500000  0.500000  0.245417  1
  Pt  Pt8  1  0.500000  0.000000  0.245417  1
  Pb  Pb9  1  0.000000  0.000000  0.000000  1
