# generated using pymatgen
data_Tb2IrPdO7
_symmetry_space_group_name_H-M   'P 1'
_cell_length_a   7.27508059
_cell_length_b   7.30811543
_cell_length_c   7.27508137
_cell_angle_alpha   59.84967915
_cell_angle_beta   59.63676487
_cell_angle_gamma   59.84967463
_symmetry_Int_Tables_number   1
_chemical_formula_structural   Tb2IrPdO7
_chemical_formula_sum   'Tb4 Ir2 Pd2 O14'
_cell_volume   272.12882947
_cell_formula_units_Z   2
loop_
 _symmetry_equiv_pos_site_id
 _symmetry_equiv_pos_as_xyz
  1  'x, y, z'
loop_
 _atom_site_type_symbol
 _atom_site_label
 _atom_site_symmetry_multiplicity
 _atom_site_fract_x
 _atom_site_fract_y
 _atom_site_fract_z
 _atom_site_occupancy
  Tb  Tb0  1  0.625000  0.125000  0.125000  1
  Tb  Tb1  1  0.125000  0.625000  0.125000  1
  Tb  Tb2  1  0.125000  0.125000  0.625000  1
  Tb  Tb3  1  0.125000  0.125000  0.125000  1
  Ir  Ir4  1  0.625000  0.125000  0.625000  1
  Ir  Ir5  1  0.625000  0.625000  0.625000  1
  Pd  Pd6  1  0.125000  0.625000  0.625000  1
  Pd  Pd7  1  0.625000  0.625000  0.125000  1
  O  O8  1  0.710335  0.717195  0.290105  1
  O  O9  1  0.290105  0.282365  0.710335  1
  O  O10  1  0.708721  0.291279  0.708721  1
  O  O11  1  0.281952  0.718048  0.281952  1
  O  O12  1  0.290105  0.717195  0.710335  1
  O  O13  1  0.710335  0.282365  0.290105  1
  O  O14  1  0.539665  0.532805  0.959895  1
  O  O15  1  0.959895  0.967635  0.539665  1
  O  O16  1  0.541279  0.958721  0.541279  1
  O  O17  1  0.968048  0.531952  0.968048  1
  O  O18  1  0.959895  0.532805  0.539665  1
  O  O19  1  0.539665  0.967635  0.959895  1
  O  O20  1  0.250363  0.249637  0.250363  1
  O  O21  1  0.999637  0.000363  0.999637  1
