# generated using pymatgen
data_Zr2Ag5F13
_symmetry_space_group_name_H-M   'P 1'
_cell_length_a   6.83562922
_cell_length_b   6.83562938
_cell_length_c   8.85461195
_cell_angle_alpha   82.60897344
_cell_angle_beta   82.60897323
_cell_angle_gamma   50.99168983
_symmetry_Int_Tables_number   1
_chemical_formula_structural   Zr2Ag5F13
_chemical_formula_sum   'Zr2 Ag5 F13'
_cell_volume   318.21603929
_cell_formula_units_Z   1
loop_
 _symmetry_equiv_pos_site_id
 _symmetry_equiv_pos_as_xyz
  1  'x, y, z'
loop_
 _atom_site_type_symbol
 _atom_site_label
 _atom_site_symmetry_multiplicity
 _atom_site_fract_x
 _atom_site_fract_y
 _atom_site_fract_z
 _atom_site_occupancy
  Zr  Zr0  1  0.071643  0.071643  0.761779  1
  Zr  Zr1  1  0.928357  0.928357  0.238221  1
  Ag  Ag2  1  0.657527  0.657527  0.069829  1
  Ag  Ag3  1  0.221640  0.221640  0.344912  1
  Ag  Ag4  1  0.500000  0.500000  0.500000  1
  Ag  Ag5  1  0.778360  0.778360  0.655088  1
  Ag  Ag6  1  0.342473  0.342473  0.930171  1
  F  F7  1  0.052826  0.596826  0.144180  1
  F  F8  1  0.828397  0.284507  0.245496  1
  F  F9  1  0.596826  0.052826  0.144180  1
  F  F10  1  0.344381  0.917014  0.579335  1
  F  F11  1  0.171603  0.715493  0.754504  1
  F  F12  1  0.947174  0.403174  0.855820  1
  F  F13  1  0.403174  0.947174  0.855820  1
  F  F14  1  0.917014  0.344381  0.579335  1
  F  F15  1  0.082986  0.655619  0.420665  1
  F  F16  1  0.655619  0.082986  0.420665  1
  F  F17  1  0.284507  0.828397  0.245496  1
  F  F18  1  0.715493  0.171603  0.754504  1
  F  F19  1  0.000000  0.000000  0.000000  1
