# generated using pymatgen
data_Zr8Pa8TaNb3Ge16
_symmetry_space_group_name_H-M   'P 1'
_cell_length_a   7.17824601
_cell_length_b   7.30356101
_cell_length_c   13.98830200
_cell_angle_alpha   90.00000000
_cell_angle_beta   90.00000000
_cell_angle_gamma   90.00726394
_symmetry_Int_Tables_number   1
_chemical_formula_structural   Zr8Pa8TaNb3Ge16
_chemical_formula_sum   'Zr8 Pa8 Ta1 Nb3 Ge16'
_cell_volume   733.36131432
_cell_formula_units_Z   1
loop_
 _symmetry_equiv_pos_site_id
 _symmetry_equiv_pos_as_xyz
  1  'x, y, z'
loop_
 _atom_site_type_symbol
 _atom_site_label
 _atom_site_symmetry_multiplicity
 _atom_site_fract_x
 _atom_site_fract_y
 _atom_site_fract_z
 _atom_site_occupancy
  Zr  Zr0  1  0.846750  0.667306  0.124573  1
  Zr  Zr1  1  0.346669  0.832847  0.375446  1
  Zr  Zr2  1  0.653212  0.167353  0.875548  1
  Zr  Zr3  1  0.153096  0.332675  0.624506  1
  Zr  Zr4  1  0.153096  0.332675  0.875494  1
  Zr  Zr5  1  0.653212  0.167353  0.624452  1
  Zr  Zr6  1  0.346669  0.832847  0.124554  1
  Zr  Zr7  1  0.846750  0.667306  0.375427  1
  Pa  Pa8  1  0.007630  0.175859  0.095740  1
  Pa  Pa9  1  0.507746  0.324213  0.404274  1
  Pa  Pa10  1  0.492389  0.675866  0.904360  1
  Pa  Pa11  1  0.992374  0.824107  0.595653  1
  Pa  Pa12  1  0.992374  0.824107  0.904347  1
  Pa  Pa13  1  0.492389  0.675866  0.595640  1
  Pa  Pa14  1  0.507746  0.324213  0.095726  1
  Pa  Pa15  1  0.007630  0.175859  0.404260  1
  Ta  Ta16  1  0.674809  0.003314  0.250000  1
  Nb  Nb17  1  0.174551  0.496606  0.250000  1
  Nb  Nb18  1  0.825380  0.503233  0.750000  1
  Nb  Nb19  1  0.325370  0.996629  0.750000  1
  Ge  Ge20  1  0.810141  0.359432  0.250000  1
  Ge  Ge21  1  0.311167  0.139628  0.250000  1
  Ge  Ge22  1  0.689741  0.860264  0.750000  1
  Ge  Ge23  1  0.189732  0.639725  0.750000  1
  Ge  Ge24  1  0.043444  0.879800  0.250000  1
  Ge  Ge25  1  0.543963  0.620902  0.250000  1
  Ge  Ge26  1  0.456053  0.379576  0.750000  1
  Ge  Ge27  1  0.956039  0.120397  0.750000  1
  Ge  Ge28  1  0.815434  0.459951  0.957023  1
  Ge  Ge29  1  0.315313  0.040047  0.542912  1
  Ge  Ge30  1  0.684645  0.959947  0.043366  1
  Ge  Ge31  1  0.184547  0.540076  0.457066  1
  Ge  Ge32  1  0.184547  0.540076  0.042934  1
  Ge  Ge33  1  0.684645  0.959947  0.456634  1
  Ge  Ge34  1  0.315313  0.040047  0.957088  1
  Ge  Ge35  1  0.815434  0.459951  0.542977  1
