# generated using pymatgen
data_CaSmEr2(B6Os)2
_symmetry_space_group_name_H-M   'P 1'
_cell_length_a   3.65345200
_cell_length_b   9.17085370
_cell_length_c   11.59026950
_cell_angle_alpha   89.82504045
_cell_angle_beta   90.00000000
_cell_angle_gamma   90.00000000
_symmetry_Int_Tables_number   1
_chemical_formula_structural   CaSmEr2(B6Os)2
_chemical_formula_sum   'Ca2 Sm2 Er4 B24 Os4'
_cell_volume   388.33334225
_cell_formula_units_Z   2
loop_
 _symmetry_equiv_pos_site_id
 _symmetry_equiv_pos_as_xyz
  1  'x, y, z'
loop_
 _atom_site_type_symbol
 _atom_site_label
 _atom_site_symmetry_multiplicity
 _atom_site_fract_x
 _atom_site_fract_y
 _atom_site_fract_z
 _atom_site_occupancy
  Ca  Ca0  1  0.000000  0.323740  0.415087  1
  Ca  Ca1  1  0.000000  0.676260  0.584913  1
  Sm  Sm2  1  0.000000  0.822013  0.086340  1
  Sm  Sm3  1  0.000000  0.177987  0.913660  1
  Er  Er4  1  0.000000  0.942264  0.370760  1
  Er  Er5  1  0.000000  0.057736  0.629240  1
  Er  Er6  1  0.000000  0.443202  0.130973  1
  Er  Er7  1  0.000000  0.556798  0.869027  1
  B  B8  1  0.500000  0.554344  0.432367  1
  B  B9  1  0.500000  0.445656  0.567633  1
  B  B10  1  0.500000  0.054952  0.068577  1
  B  B11  1  0.500000  0.945048  0.931423  1
  B  B12  1  0.500000  0.748523  0.417682  1
  B  B13  1  0.500000  0.251477  0.582318  1
  B  B14  1  0.500000  0.249454  0.083255  1
  B  B15  1  0.500000  0.750546  0.916745  1
  B  B16  1  0.500000  0.790800  0.266079  1
  B  B17  1  0.500000  0.209200  0.733921  1
  B  B18  1  0.500000  0.290732  0.235044  1
  B  B19  1  0.500000  0.709268  0.764956  1
  B  B20  1  0.500000  0.630413  0.186271  1
  B  B21  1  0.500000  0.369587  0.813729  1
  B  B22  1  0.500000  0.130659  0.314608  1
  B  B23  1  0.500000  0.869341  0.685392  1
  B  B24  1  0.500000  0.984407  0.213180  1
  B  B25  1  0.500000  0.015593  0.786820  1
  B  B26  1  0.500000  0.484017  0.288317  1
  B  B27  1  0.500000  0.515983  0.711683  1
  B  B28  1  0.500000  0.600257  0.027481  1
  B  B29  1  0.500000  0.399743  0.972519  1
  B  B30  1  0.500000  0.098438  0.472881  1
  B  B31  1  0.500000  0.901562  0.527119  1
  Os  Os32  1  0.000000  0.640045  0.318928  1
  Os  Os33  1  0.000000  0.359955  0.681072  1
  Os  Os34  1  0.000000  0.138114  0.179520  1
  Os  Os35  1  0.000000  0.861886  0.820480  1
