# generated using pymatgen
data_ErTh2Sc2In2(HgRh)2
_symmetry_space_group_name_H-M   'P 1'
_cell_length_a   3.75597400
_cell_length_b   7.89555700
_cell_length_c   17.61696300
_cell_angle_alpha   90.00000000
_cell_angle_beta   90.00000000
_cell_angle_gamma   90.00000000
_symmetry_Int_Tables_number   1
_chemical_formula_structural   ErTh2Sc2In2(HgRh)2
_chemical_formula_sum   'Er2 Th4 Sc4 In4 Hg4 Rh4'
_cell_volume   522.43996617
_cell_formula_units_Z   2
loop_
 _symmetry_equiv_pos_site_id
 _symmetry_equiv_pos_as_xyz
  1  'x, y, z'
loop_
 _atom_site_type_symbol
 _atom_site_label
 _atom_site_symmetry_multiplicity
 _atom_site_fract_x
 _atom_site_fract_y
 _atom_site_fract_z
 _atom_site_occupancy
  Er  Er0  1  0.000000  0.000000  0.000000  1
  Er  Er1  1  0.000000  0.500000  0.500000  1
  Th  Th2  1  0.000000  0.767554  0.785667  1
  Th  Th3  1  0.000000  0.232446  0.214333  1
  Th  Th4  1  0.000000  0.267554  0.714333  1
  Th  Th5  1  0.000000  0.732446  0.285667  1
  Sc  Sc6  1  0.000000  0.898389  0.587019  1
  Sc  Sc7  1  0.000000  0.101611  0.412981  1
  Sc  Sc8  1  0.000000  0.398389  0.912981  1
  Sc  Sc9  1  0.000000  0.601611  0.087019  1
  In  In10  1  0.500000  0.896790  0.143543  1
  In  In11  1  0.500000  0.103210  0.856457  1
  In  In12  1  0.500000  0.396790  0.356457  1
  In  In13  1  0.500000  0.603210  0.643543  1
  Hg  Hg14  1  0.500000  0.802190  0.447417  1
  Hg  Hg15  1  0.500000  0.197810  0.552583  1
  Hg  Hg16  1  0.500000  0.302190  0.052583  1
  Hg  Hg17  1  0.500000  0.697810  0.947417  1
  Rh  Rh18  1  0.500000  0.977261  0.698343  1
  Rh  Rh19  1  0.500000  0.022739  0.301657  1
  Rh  Rh20  1  0.500000  0.477261  0.801657  1
  Rh  Rh21  1  0.500000  0.522739  0.198343  1
