# generated using pymatgen
data_Sm8Nb(OsO8)3
_symmetry_space_group_name_H-M   'P 1'
_cell_length_a   5.37193256
_cell_length_b   9.29966807
_cell_length_c   10.18085682
_cell_angle_alpha   89.59376919
_cell_angle_beta   89.82871990
_cell_angle_gamma   90.10314844
_symmetry_Int_Tables_number   1
_chemical_formula_structural   Sm8Nb(OsO8)3
_chemical_formula_sum   'Sm8 Nb1 Os3 O24'
_cell_volume   508.59109549
_cell_formula_units_Z   1
loop_
 _symmetry_equiv_pos_site_id
 _symmetry_equiv_pos_as_xyz
  1  'x, y, z'
loop_
 _atom_site_type_symbol
 _atom_site_label
 _atom_site_symmetry_multiplicity
 _atom_site_fract_x
 _atom_site_fract_y
 _atom_site_fract_z
 _atom_site_occupancy
  Sm  Sm0  1  0.016909  0.395757  0.038031  1
  Sm  Sm1  1  0.038328  0.284936  0.625639  1
  Sm  Sm2  1  0.467421  0.713180  0.135676  1
  Sm  Sm3  1  0.478031  0.598867  0.534448  1
  Sm  Sm4  1  0.523623  0.101423  0.961524  1
  Sm  Sm5  1  0.539446  0.226956  0.370562  1
  Sm  Sm6  1  0.963174  0.784449  0.870531  1
  Sm  Sm7  1  0.975921  0.893805  0.466025  1
  Nb  Nb8  1  0.961004  0.507653  0.348145  1
  Os  Os9  1  0.041986  0.002251  0.148946  1
  Os  Os10  1  0.456540  0.998673  0.647002  1
  Os  Os11  1  0.541222  0.497694  0.852148  1
  O  O12  1  0.082838  0.658023  0.477628  1
  O  O13  1  0.178847  0.546544  0.199286  1
  O  O14  1  0.181411  0.861093  0.261643  1
  O  O15  1  0.186099  0.869746  0.684044  1
  O  O16  1  0.235973  0.387889  0.439164  1
  O  O17  1  0.253423  0.908499  0.008656  1
  O  O18  1  0.246243  0.088559  0.505926  1
  O  O19  1  0.277646  0.611152  0.927478  1
  O  O20  1  0.308019  0.130825  0.176530  1
  O  O21  1  0.318552  0.139656  0.759026  1
  O  O22  1  0.330936  0.445170  0.712499  1
  O  O23  1  0.424868  0.345793  0.972467  1
  O  O24  1  0.571781  0.847741  0.531750  1
  O  O25  1  0.667003  0.945851  0.791344  1
  O  O26  1  0.686147  0.637956  0.739320  1
  O  O27  1  0.678314  0.644842  0.324654  1
  O  O28  1  0.724362  0.110874  0.568948  1
  O  O29  1  0.751436  0.591453  0.992460  1
  O  O30  1  0.748151  0.404688  0.494695  1
  O  O31  1  0.778684  0.890257  0.067654  1
  O  O32  1  0.808861  0.368023  0.819833  1
  O  O33  1  0.803499  0.360568  0.234568  1
  O  O34  1  0.826686  0.048627  0.288647  1
  O  O35  1  0.926619  0.150525  0.023104  1
