# generated using pymatgen
data_Dy16CdHg3OsPt3
_symmetry_space_group_name_H-M   'P 1'
_cell_length_a   9.66414107
_cell_length_b   9.67471479
_cell_length_c   9.67471578
_cell_angle_alpha   59.62851180
_cell_angle_beta   59.63069881
_cell_angle_gamma   59.63070158
_symmetry_Int_Tables_number   1
_chemical_formula_structural   Dy16CdHg3OsPt3
_chemical_formula_sum   'Dy16 Cd1 Hg3 Os1 Pt3'
_cell_volume   634.24538554
_cell_formula_units_Z   1
loop_
 _symmetry_equiv_pos_site_id
 _symmetry_equiv_pos_as_xyz
  1  'x, y, z'
loop_
 _atom_site_type_symbol
 _atom_site_label
 _atom_site_symmetry_multiplicity
 _atom_site_fract_x
 _atom_site_fract_y
 _atom_site_fract_z
 _atom_site_occupancy
  Dy  Dy0  1  0.352988  0.352497  0.352497  1
  Dy  Dy1  1  0.351903  0.351314  0.944453  1
  Dy  Dy2  1  0.351903  0.944453  0.351314  1
  Dy  Dy3  1  0.942028  0.352307  0.352307  1
  Dy  Dy4  1  0.814367  0.189384  0.189384  1
  Dy  Dy5  1  0.187277  0.809790  0.809790  1
  Dy  Dy6  1  0.188047  0.815210  0.189248  1
  Dy  Dy7  1  0.808647  0.188589  0.808854  1
  Dy  Dy8  1  0.188047  0.189248  0.815210  1
  Dy  Dy9  1  0.808647  0.808854  0.188589  1
  Dy  Dy10  1  0.935319  0.565231  0.565231  1
  Dy  Dy11  1  0.557255  0.938272  0.938272  1
  Dy  Dy12  1  0.564159  0.936973  0.565128  1
  Dy  Dy13  1  0.937188  0.558031  0.938362  1
  Dy  Dy14  1  0.564159  0.565128  0.936973  1
  Dy  Dy15  1  0.937188  0.938362  0.558031  1
  Cd  Cd16  1  0.256468  0.580193  0.580193  1
  Hg  Hg17  1  0.583275  0.584896  0.584896  1
  Hg  Hg18  1  0.584164  0.586202  0.241223  1
  Hg  Hg19  1  0.584164  0.241223  0.586202  1
  Os  Os20  1  0.143087  0.143851  0.143851  1
  Pt  Pt21  1  0.144027  0.144313  0.571473  1
  Pt  Pt22  1  0.144027  0.571473  0.144313  1
  Pt  Pt23  1  0.571666  0.144205  0.144205  1
