# generated using pymatgen
data_Er3TmMn2(NiO6)2
_symmetry_space_group_name_H-M   'P 1'
_cell_length_a   5.57750905
_cell_length_b   5.21923034
_cell_length_c   9.11483600
_cell_angle_alpha   55.59078643
_cell_angle_beta   90.00054751
_cell_angle_gamma   89.98804619
_symmetry_Int_Tables_number   1
_chemical_formula_structural   Er3TmMn2(NiO6)2
_chemical_formula_sum   'Er3 Tm1 Mn2 Ni2 O12'
_cell_volume   218.90791087
_cell_formula_units_Z   1
loop_
 _symmetry_equiv_pos_site_id
 _symmetry_equiv_pos_as_xyz
  1  'x, y, z'
loop_
 _atom_site_type_symbol
 _atom_site_label
 _atom_site_symmetry_multiplicity
 _atom_site_fract_x
 _atom_site_fract_y
 _atom_site_fract_z
 _atom_site_occupancy
  Er  Er0  1  0.575099  0.727571  0.751306  1
  Er  Er1  1  0.925102  0.727493  0.251258  1
  Er  Er2  1  0.424997  0.272603  0.248704  1
  Tm  Tm3  1  0.075285  0.272481  0.748633  1
  Mn  Mn4  1  0.499903  0.000320  0.999691  1
  Mn  Mn5  1  0.000188  0.999696  0.500367  1
  Ni  Ni6  1  0.500019  0.499791  0.500229  1
  Ni  Ni7  1  0.000068  0.500316  0.999669  1
  O  O8  1  0.959471  0.875335  0.742223  1
  O  O9  1  0.540760  0.873218  0.242186  1
  O  O10  1  0.040636  0.126861  0.257837  1
  O  O11  1  0.457598  0.127200  0.757713  1
  O  O12  1  0.815916  0.641991  0.556128  1
  O  O13  1  0.685030  0.643470  0.055128  1
  O  O14  1  0.185090  0.356304  0.444999  1
  O  O15  1  0.314411  0.356418  0.944362  1
  O  O16  1  0.704635  0.239689  0.439582  1
  O  O17  1  0.796244  0.239998  0.938689  1
  O  O18  1  0.294822  0.758973  0.560972  1
  O  O19  1  0.204727  0.760272  0.060326  1
