# generated using pymatgen
data_HfNb3(SiIr)4
_symmetry_space_group_name_H-M   'P 1'
_cell_length_a   3.84736000
_cell_length_b   6.47746178
_cell_length_c   7.35422191
_cell_angle_alpha   90.18842098
_cell_angle_beta   90.00000000
_cell_angle_gamma   90.00000000
_symmetry_Int_Tables_number   1
_chemical_formula_structural   HfNb3(SiIr)4
_chemical_formula_sum   'Hf1 Nb3 Si4 Ir4'
_cell_volume   183.27450990
_cell_formula_units_Z   1
loop_
 _symmetry_equiv_pos_site_id
 _symmetry_equiv_pos_as_xyz
  1  'x, y, z'
loop_
 _atom_site_type_symbol
 _atom_site_label
 _atom_site_symmetry_multiplicity
 _atom_site_fract_x
 _atom_site_fract_y
 _atom_site_fract_z
 _atom_site_occupancy
  Hf  Hf0  1  0.750000  0.523384  0.823828  1
  Nb  Nb1  1  0.250000  0.976721  0.327133  1
  Nb  Nb2  1  0.750000  0.024497  0.671128  1
  Nb  Nb3  1  0.250000  0.476192  0.176707  1
  Si  Si4  1  0.250000  0.224746  0.878086  1
  Si  Si5  1  0.250000  0.734448  0.620291  1
  Si  Si6  1  0.750000  0.772827  0.127154  1
  Si  Si7  1  0.750000  0.270843  0.375027  1
  Ir  Ir8  1  0.250000  0.849683  0.937515  1
  Ir  Ir9  1  0.250000  0.353243  0.564709  1
  Ir  Ir10  1  0.750000  0.646686  0.436882  1
  Ir  Ir11  1  0.750000  0.146730  0.061540  1
