# generated using pymatgen
data_Na2AlCuP2
_symmetry_space_group_name_H-M   'P 1'
_cell_length_a   8.92782300
_cell_length_b   8.92782195
_cell_length_c   5.58453600
_cell_angle_alpha   90.00000000
_cell_angle_beta   90.00000000
_cell_angle_gamma   101.22604125
_symmetry_Int_Tables_number   1
_chemical_formula_structural   Na2AlCuP2
_chemical_formula_sum   'Na8 Al4 Cu4 P8'
_cell_volume   436.60450239
_cell_formula_units_Z   4
loop_
 _symmetry_equiv_pos_site_id
 _symmetry_equiv_pos_as_xyz
  1  'x, y, z'
loop_
 _atom_site_type_symbol
 _atom_site_label
 _atom_site_symmetry_multiplicity
 _atom_site_fract_x
 _atom_site_fract_y
 _atom_site_fract_z
 _atom_site_occupancy
  Na  Na0  1  0.569656  0.930344  0.250000  1
  Na  Na1  1  0.677655  0.322345  0.216167  1
  Na  Na2  1  0.322345  0.677655  0.783833  1
  Na  Na3  1  0.069656  0.430344  0.250000  1
  Na  Na4  1  0.930344  0.569656  0.750000  1
  Na  Na5  1  0.430344  0.069656  0.750000  1
  Na  Na6  1  0.822345  0.177655  0.716167  1
  Na  Na7  1  0.177655  0.822345  0.283833  1
  Al  Al8  1  0.868518  0.868518  0.000000  1
  Al  Al9  1  0.131482  0.131482  0.000000  1
  Al  Al10  1  0.368518  0.368518  0.500000  1
  Al  Al11  1  0.631482  0.631482  0.500000  1
  Cu  Cu12  1  0.882218  0.882218  0.500000  1
  Cu  Cu13  1  0.117782  0.117782  0.500000  1
  Cu  Cu14  1  0.617782  0.617782  0.000000  1
  Cu  Cu15  1  0.382218  0.382218  0.000000  1
  P  P16  1  0.103847  0.896153  0.776118  1
  P  P17  1  0.603847  0.396153  0.723882  1
  P  P18  1  0.896153  0.103847  0.223882  1
  P  P19  1  0.396153  0.603847  0.276118  1
  P  P20  1  0.354441  0.145559  0.250000  1
  P  P21  1  0.145559  0.354441  0.750000  1
  P  P22  1  0.645559  0.854441  0.750000  1
  P  P23  1  0.854441  0.645559  0.250000  1
