# generated using pymatgen
data_LiDy2Co5(P3Rh2)2
_symmetry_space_group_name_H-M   'P 1'
_cell_length_a   3.74531900
_cell_length_b   10.53840800
_cell_length_c   12.24950700
_cell_angle_alpha   90.00000000
_cell_angle_beta   90.00000000
_cell_angle_gamma   90.00000000
_symmetry_Int_Tables_number   1
_chemical_formula_structural   LiDy2Co5(P3Rh2)2
_chemical_formula_sum   'Li2 Dy4 Co10 P12 Rh8'
_cell_volume   483.48436291
_cell_formula_units_Z   2
loop_
 _symmetry_equiv_pos_site_id
 _symmetry_equiv_pos_as_xyz
  1  'x, y, z'
loop_
 _atom_site_type_symbol
 _atom_site_label
 _atom_site_symmetry_multiplicity
 _atom_site_fract_x
 _atom_site_fract_y
 _atom_site_fract_z
 _atom_site_occupancy
  Li  Li0  1  0.750000  0.292572  0.010867  1
  Li  Li1  1  0.750000  0.207428  0.510867  1
  Dy  Dy2  1  0.250000  0.582940  0.710091  1
  Dy  Dy3  1  0.250000  0.917060  0.210091  1
  Dy  Dy4  1  0.750000  0.420237  0.290782  1
  Dy  Dy5  1  0.750000  0.079763  0.790782  1
  Co  Co6  1  0.750000  0.776219  0.822610  1
  Co  Co7  1  0.750000  0.723781  0.322610  1
  Co  Co8  1  0.250000  0.878601  0.696982  1
  Co  Co9  1  0.250000  0.621399  0.196982  1
  Co  Co10  1  0.750000  0.114892  0.307058  1
  Co  Co11  1  0.750000  0.385108  0.807058  1
  Co  Co12  1  0.250000  0.464074  0.934606  1
  Co  Co13  1  0.250000  0.035926  0.434606  1
  Co  Co14  1  0.750000  0.538812  0.065691  1
  Co  Co15  1  0.750000  0.961188  0.565691  1
  P  P16  1  0.250000  0.431228  0.112345  1
  P  P17  1  0.250000  0.068772  0.612345  1
  P  P18  1  0.750000  0.576250  0.888522  1
  P  P19  1  0.750000  0.923750  0.388522  1
  P  P20  1  0.250000  0.273912  0.865685  1
  P  P21  1  0.250000  0.226088  0.365685  1
  P  P22  1  0.750000  0.726066  0.140167  1
  P  P23  1  0.750000  0.773934  0.640167  1
  P  P24  1  0.250000  0.606360  0.379661  1
  P  P25  1  0.250000  0.893640  0.879661  1
  P  P26  1  0.750000  0.402290  0.616796  1
  P  P27  1  0.750000  0.097710  0.116796  1
  Rh  Rh28  1  0.250000  0.706548  0.983772  1
  Rh  Rh29  1  0.250000  0.793452  0.483772  1
  Rh  Rh30  1  0.250000  0.408973  0.478078  1
  Rh  Rh31  1  0.250000  0.091027  0.978078  1
  Rh  Rh32  1  0.750000  0.600314  0.519567  1
  Rh  Rh33  1  0.750000  0.899686  0.019567  1
  Rh  Rh34  1  0.250000  0.221886  0.176721  1
  Rh  Rh35  1  0.250000  0.278114  0.676721  1
