# generated using pymatgen
data_SrZrCl6
_symmetry_space_group_name_H-M   'P 1'
_cell_length_a   7.61596370
_cell_length_b   7.61596421
_cell_length_c   7.61596511
_cell_angle_alpha   56.23814676
_cell_angle_beta   56.23814454
_cell_angle_gamma   56.23813917
_symmetry_Int_Tables_number   1
_chemical_formula_structural   SrZrCl6
_chemical_formula_sum   'Sr1 Zr1 Cl6'
_cell_volume   285.16987384
_cell_formula_units_Z   1
loop_
 _symmetry_equiv_pos_site_id
 _symmetry_equiv_pos_as_xyz
  1  'x, y, z'
loop_
 _atom_site_type_symbol
 _atom_site_label
 _atom_site_symmetry_multiplicity
 _atom_site_fract_x
 _atom_site_fract_y
 _atom_site_fract_z
 _atom_site_occupancy
  Sr  Sr0  1  0.333549  0.333549  0.333549  1
  Zr  Zr1  1  0.666932  0.666932  0.666932  1
  Cl  Cl2  1  0.031317  0.464081  0.731328  1
  Cl  Cl3  1  0.315577  0.880582  0.576633  1
  Cl  Cl4  1  0.464081  0.731328  0.031317  1
  Cl  Cl5  1  0.576633  0.315577  0.880582  1
  Cl  Cl6  1  0.731328  0.031317  0.464081  1
  Cl  Cl7  1  0.880582  0.576633  0.315577  1
