# generated using pymatgen
data_NaPd2F9
_symmetry_space_group_name_H-M   'P 1'
_cell_length_a   5.20461900
_cell_length_b   5.20461878
_cell_length_c   7.49858200
_cell_angle_alpha   90.00000000
_cell_angle_beta   90.00000000
_cell_angle_gamma   120.00000183
_symmetry_Int_Tables_number   1
_chemical_formula_structural   NaPd2F9
_chemical_formula_sum   'Na1 Pd2 F9'
_cell_volume   175.90882846
_cell_formula_units_Z   1
loop_
 _symmetry_equiv_pos_site_id
 _symmetry_equiv_pos_as_xyz
  1  'x, y, z'
loop_
 _atom_site_type_symbol
 _atom_site_label
 _atom_site_symmetry_multiplicity
 _atom_site_fract_x
 _atom_site_fract_y
 _atom_site_fract_z
 _atom_site_occupancy
  Na  Na0  1  0.666667  0.333333  0.336280  1
  Pd  Pd1  1  0.333333  0.666667  0.685814  1
  Pd  Pd2  1  0.000000  0.000000  0.980318  1
  F  F3  1  0.665639  0.986923  0.832967  1
  F  F4  1  0.013077  0.678716  0.832967  1
  F  F5  1  0.321284  0.334361  0.832967  1
  F  F6  1  0.621823  0.649741  0.537972  1
  F  F7  1  0.350259  0.972081  0.537972  1
  F  F8  1  0.027919  0.378177  0.537972  1
  F  F9  1  0.715003  0.691534  0.128256  1
  F  F10  1  0.308466  0.023469  0.128256  1
  F  F11  1  0.976531  0.284997  0.128256  1
