# generated using pymatgen
data_YHo3Sc4(B6Ir)4
_symmetry_space_group_name_H-M   'P 1'
_cell_length_a   3.54675000
_cell_length_b   9.01154600
_cell_length_c   11.37937700
_cell_angle_alpha   89.99803903
_cell_angle_beta   90.00000000
_cell_angle_gamma   90.00000000
_symmetry_Int_Tables_number   1
_chemical_formula_structural   YHo3Sc4(B6Ir)4
_chemical_formula_sum   'Y1 Ho3 Sc4 B24 Ir4'
_cell_volume   363.70424258
_cell_formula_units_Z   1
loop_
 _symmetry_equiv_pos_site_id
 _symmetry_equiv_pos_as_xyz
  1  'x, y, z'
loop_
 _atom_site_type_symbol
 _atom_site_label
 _atom_site_symmetry_multiplicity
 _atom_site_fract_x
 _atom_site_fract_y
 _atom_site_fract_z
 _atom_site_occupancy
  Y  Y0  1  0.500000  0.319912  0.414073  1
  Ho  Ho1  1  0.500000  0.680182  0.585942  1
  Ho  Ho2  1  0.500000  0.180165  0.914055  1
  Ho  Ho3  1  0.500000  0.819850  0.085953  1
  Sc  Sc4  1  0.500000  0.445133  0.124225  1
  Sc  Sc5  1  0.500000  0.554872  0.875730  1
  Sc  Sc6  1  0.500000  0.054822  0.624338  1
  Sc  Sc7  1  0.500000  0.944994  0.375708  1
  B  B8  1  0.000000  0.100135  0.472932  1
  B  B9  1  0.000000  0.899478  0.527178  1
  B  B10  1  0.000000  0.399474  0.972820  1
  B  B11  1  0.000000  0.600526  0.027178  1
  B  B12  1  0.000000  0.129664  0.318328  1
  B  B13  1  0.000000  0.869947  0.681450  1
  B  B14  1  0.000000  0.369950  0.818554  1
  B  B15  1  0.000000  0.630060  0.181443  1
  B  B16  1  0.000000  0.054642  0.065501  1
  B  B17  1  0.000000  0.945359  0.934503  1
  B  B18  1  0.000000  0.445561  0.565785  1
  B  B19  1  0.000000  0.554999  0.434518  1
  B  B20  1  0.000000  0.481891  0.284903  1
  B  B21  1  0.000000  0.518420  0.714871  1
  B  B22  1  0.000000  0.018411  0.785144  1
  B  B23  1  0.000000  0.981576  0.214848  1
  B  B24  1  0.000000  0.253902  0.080043  1
  B  B25  1  0.000000  0.746095  0.919948  1
  B  B26  1  0.000000  0.245945  0.580432  1
  B  B27  1  0.000000  0.753917  0.419947  1
  B  B28  1  0.000000  0.295732  0.235255  1
  B  B29  1  0.000000  0.704201  0.764405  1
  B  B30  1  0.000000  0.204198  0.735608  1
  B  B31  1  0.000000  0.795793  0.264400  1
  Ir  Ir32  1  0.500000  0.141174  0.181155  1
  Ir  Ir33  1  0.500000  0.858630  0.818611  1
  Ir  Ir34  1  0.500000  0.358644  0.681719  1
  Ir  Ir35  1  0.500000  0.641747  0.318495  1
