# generated using pymatgen
data_Zn12Ir3Pt4
_symmetry_space_group_name_H-M   'P 1'
_cell_length_a   2.83269800
_cell_length_b   7.00338938
_cell_length_c   28.70159167
_cell_angle_alpha   90.52361839
_cell_angle_beta   90.00000000
_cell_angle_gamma   90.00000000
_symmetry_Int_Tables_number   1
_chemical_formula_structural   Zn12Ir3Pt4
_chemical_formula_sum   'Zn24 Ir6 Pt8'
_cell_volume   569.37237820
_cell_formula_units_Z   2
loop_
 _symmetry_equiv_pos_site_id
 _symmetry_equiv_pos_as_xyz
  1  'x, y, z'
loop_
 _atom_site_type_symbol
 _atom_site_label
 _atom_site_symmetry_multiplicity
 _atom_site_fract_x
 _atom_site_fract_y
 _atom_site_fract_z
 _atom_site_occupancy
  Zn  Zn0  1  0.500000  0.865125  0.072203  1
  Zn  Zn1  1  0.500000  0.134875  0.927797  1
  Zn  Zn2  1  0.500000  0.368920  0.428461  1
  Zn  Zn3  1  0.500000  0.631080  0.571539  1
  Zn  Zn4  1  0.500000  0.864243  0.214035  1
  Zn  Zn5  1  0.500000  0.135757  0.785965  1
  Zn  Zn6  1  0.500000  0.354910  0.283664  1
  Zn  Zn7  1  0.500000  0.645090  0.716336  1
  Zn  Zn8  1  0.500000  0.819300  0.491419  1
  Zn  Zn9  1  0.500000  0.180700  0.508581  1
  Zn  Zn10  1  0.500000  0.321158  0.007213  1
  Zn  Zn11  1  0.500000  0.678842  0.992787  1
  Zn  Zn12  1  0.500000  0.606323  0.144157  1
  Zn  Zn13  1  0.500000  0.393677  0.855843  1
  Zn  Zn14  1  0.500000  0.747057  0.902792  1
  Zn  Zn15  1  0.500000  0.252943  0.097208  1
  Zn  Zn16  1  0.500000  0.240009  0.601282  1
  Zn  Zn17  1  0.500000  0.759991  0.398718  1
  Zn  Zn18  1  0.500000  0.753623  0.803325  1
  Zn  Zn19  1  0.500000  0.246377  0.196675  1
  Zn  Zn20  1  0.500000  0.280166  0.702770  1
  Zn  Zn21  1  0.500000  0.719835  0.297230  1
  Zn  Zn22  1  0.500000  0.881448  0.641751  1
  Zn  Zn23  1  0.500000  0.118552  0.358249  1
  Ir  Ir24  1  0.000000  0.538975  0.067281  1
  Ir  Ir25  1  0.000000  0.461025  0.932719  1
  Ir  Ir26  1  0.000000  0.039741  0.433622  1
  Ir  Ir27  1  0.000000  0.960259  0.566378  1
  Ir  Ir28  1  0.000000  0.547971  0.221711  1
  Ir  Ir29  1  0.000000  0.452029  0.778289  1
  Pt  Pt30  1  0.000000  0.035879  0.281999  1
  Pt  Pt31  1  0.000000  0.964121  0.718001  1
  Pt  Pt32  1  0.000000  0.496029  0.356191  1
  Pt  Pt33  1  0.000000  0.503971  0.643809  1
  Pt  Pt34  1  0.000000  0.003456  0.143690  1
  Pt  Pt35  1  0.000000  0.996544  0.856310  1
  Pt  Pt36  1  0.000000  0.500000  0.500000  1
  Pt  Pt37  1  0.000000  0.000000  0.000000  1
