# generated using pymatgen
data_Y4Er8GaCo5
_symmetry_space_group_name_H-M   'P 1'
_cell_length_a   8.19310647
_cell_length_b   8.19301776
_cell_length_c   8.19310795
_cell_angle_alpha   110.75022432
_cell_angle_beta   110.55681766
_cell_angle_gamma   107.13212492
_symmetry_Int_Tables_number   1
_chemical_formula_structural   Y4Er8GaCo5
_chemical_formula_sum   'Y4 Er8 Ga1 Co5'
_cell_volume   422.83918244
_cell_formula_units_Z   1
loop_
 _symmetry_equiv_pos_site_id
 _symmetry_equiv_pos_as_xyz
  1  'x, y, z'
loop_
 _atom_site_type_symbol
 _atom_site_label
 _atom_site_symmetry_multiplicity
 _atom_site_fract_x
 _atom_site_fract_y
 _atom_site_fract_z
 _atom_site_occupancy
  Y  Y0  1  0.289043  0.187285  0.476313  1
  Y  Y1  1  0.710957  0.812715  0.523687  1
  Y  Y2  1  0.289028  0.812715  0.101758  1
  Y  Y3  1  0.710972  0.187285  0.898242  1
  Er  Er4  1  0.620311  0.316105  0.304208  1
  Er  Er5  1  0.379689  0.683895  0.695792  1
  Er  Er6  1  0.011897  0.316105  0.695794  1
  Er  Er7  1  0.988103  0.683895  0.304206  1
  Er  Er8  1  0.214499  0.405379  0.190879  1
  Er  Er9  1  0.785501  0.594621  0.809121  1
  Er  Er10  1  0.214488  0.023610  0.809121  1
  Er  Er11  1  0.785512  0.976390  0.190879  1
  Ga  Ga12  1  0.500000  0.500000  0.000000  1
  Co  Co13  1  0.000002  0.377093  0.377091  1
  Co  Co14  1  0.999998  0.622907  0.622909  1
  Co  Co15  1  0.385911  0.885908  0.499997  1
  Co  Co16  1  0.614089  0.114092  0.500003  1
  Co  Co17  1  0.000000  0.000000  0.000000  1
