# generated using pymatgen
data_Zr5Co11(P3Ru2)4
_symmetry_space_group_name_H-M   'P 1'
_cell_length_a   12.03139222
_cell_length_b   12.05463498
_cell_length_c   3.73228500
_cell_angle_alpha   90.00000000
_cell_angle_beta   90.00000000
_cell_angle_gamma   119.89482335
_symmetry_Int_Tables_number   1
_chemical_formula_structural   Zr5Co11(P3Ru2)4
_chemical_formula_sum   'Zr5 Co11 P12 Ru8'
_cell_volume   469.28285021
_cell_formula_units_Z   1
loop_
 _symmetry_equiv_pos_site_id
 _symmetry_equiv_pos_as_xyz
  1  'x, y, z'
loop_
 _atom_site_type_symbol
 _atom_site_label
 _atom_site_symmetry_multiplicity
 _atom_site_fract_x
 _atom_site_fract_y
 _atom_site_fract_z
 _atom_site_occupancy
  Zr  Zr0  1  0.667002  0.333545  0.000000  1
  Zr  Zr1  1  0.327970  0.661804  0.000000  1
  Zr  Zr2  1  0.823510  0.822847  0.500000  1
  Zr  Zr3  1  0.175778  0.000591  0.500000  1
  Zr  Zr4  1  0.000488  0.176720  0.500000  1
  Co  Co5  1  0.130161  0.483727  0.500000  1
  Co  Co6  1  0.807137  0.175109  0.000000  1
  Co  Co7  1  0.827035  0.631344  0.000000  1
  Co  Co8  1  0.367079  0.193411  0.000000  1
  Co  Co9  1  0.174569  0.806892  0.000000  1
  Co  Co10  1  0.631999  0.824959  0.000000  1
  Co  Co11  1  0.192439  0.372138  0.000000  1
  Co  Co12  1  0.278045  0.280412  0.500000  1
  Co  Co13  1  0.720538  0.999968  0.500000  1
  Co  Co14  1  0.001555  0.719992  0.500000  1
  Co  Co15  1  0.000515  0.000243  0.000000  1
  P  P16  1  0.687317  0.162890  0.500000  1
  P  P17  1  0.840061  0.524044  0.500000  1
  P  P18  1  0.474948  0.315446  0.500000  1
  P  P19  1  0.159947  0.679839  0.500000  1
  P  P20  1  0.523753  0.839041  0.500000  1
  P  P21  1  0.308401  0.475720  0.500000  1
  P  P22  1  0.174814  0.176646  0.000000  1
  P  P23  1  0.825007  0.999753  0.000000  1
  P  P24  1  0.999862  0.824679  0.000000  1
  P  P25  1  0.643276  0.643145  0.000000  1
  P  P26  1  0.356043  0.000080  0.000000  1
  P  P27  1  0.002666  0.357387  0.000000  1
  Ru  Ru28  1  0.875383  0.355004  0.500000  1
  Ru  Ru29  1  0.647236  0.517421  0.500000  1
  Ru  Ru30  1  0.483358  0.130433  0.500000  1
  Ru  Ru31  1  0.351114  0.867795  0.500000  1
  Ru  Ru32  1  0.512998  0.645642  0.500000  1
  Ru  Ru33  1  0.445162  0.446104  0.000000  1
  Ru  Ru34  1  0.553842  0.000104  0.000000  1
  Ru  Ru35  1  0.008992  0.555127  0.000000  1
