# generated using pymatgen
data_Th3Al3Os2Rh
_symmetry_space_group_name_H-M   'P 1'
_cell_length_a   7.11988300
_cell_length_b   7.11988401
_cell_length_c   4.23594700
_cell_angle_alpha   90.00000000
_cell_angle_beta   90.00000000
_cell_angle_gamma   119.99999068
_symmetry_Int_Tables_number   1
_chemical_formula_structural   Th3Al3Os2Rh
_chemical_formula_sum   'Th3 Al3 Os2 Rh1'
_cell_volume   185.96318057
_cell_formula_units_Z   1
loop_
 _symmetry_equiv_pos_site_id
 _symmetry_equiv_pos_as_xyz
  1  'x, y, z'
loop_
 _atom_site_type_symbol
 _atom_site_label
 _atom_site_symmetry_multiplicity
 _atom_site_fract_x
 _atom_site_fract_y
 _atom_site_fract_z
 _atom_site_occupancy
  Th  Th0  1  0.003098  0.417346  0.500000  1
  Th  Th1  1  0.582654  0.585752  0.500000  1
  Th  Th2  1  0.414248  0.996902  0.500000  1
  Al  Al3  1  0.003264  0.773569  0.000000  1
  Al  Al4  1  0.226431  0.229695  0.000000  1
  Al  Al5  1  0.770305  0.996736  0.000000  1
  Os  Os6  1  0.333333  0.666667  0.000000  1
  Os  Os7  1  0.000000  0.000000  0.500000  1
  Rh  Rh8  1  0.666667  0.333333  0.000000  1
