# generated using pymatgen
data_Sc5P12Ru15Rh4
_symmetry_space_group_name_H-M   'P 1'
_cell_length_a   12.43077800
_cell_length_b   12.43077890
_cell_length_c   3.91575700
_cell_angle_alpha   90.00000000
_cell_angle_beta   90.00000000
_cell_angle_gamma   120.00000292
_symmetry_Int_Tables_number   1
_chemical_formula_structural   Sc5P12Ru15Rh4
_chemical_formula_sum   'Sc5 P12 Ru15 Rh4'
_cell_volume   524.01413784
_cell_formula_units_Z   1
loop_
 _symmetry_equiv_pos_site_id
 _symmetry_equiv_pos_as_xyz
  1  'x, y, z'
loop_
 _atom_site_type_symbol
 _atom_site_label
 _atom_site_symmetry_multiplicity
 _atom_site_fract_x
 _atom_site_fract_y
 _atom_site_fract_z
 _atom_site_occupancy
  Sc  Sc0  1  0.333333  0.666667  0.000000  1
  Sc  Sc1  1  0.666667  0.333333  0.000000  1
  Sc  Sc2  1  0.812483  0.999459  0.500000  1
  Sc  Sc3  1  0.000541  0.813023  0.500000  1
  Sc  Sc4  1  0.186977  0.187517  0.500000  1
  P  P5  1  0.179114  0.996672  0.000000  1
  P  P6  1  0.003328  0.182442  0.000000  1
  P  P7  1  0.817558  0.820886  0.000000  1
  P  P8  1  0.172210  0.479262  0.500000  1
  P  P9  1  0.520738  0.692948  0.500000  1
  P  P10  1  0.307052  0.827790  0.500000  1
  P  P11  1  0.687367  0.517789  0.500000  1
  P  P12  1  0.830421  0.312633  0.500000  1
  P  P13  1  0.482211  0.169579  0.500000  1
  P  P14  1  0.627435  0.996248  0.000000  1
  P  P15  1  0.003752  0.631186  0.000000  1
  P  P16  1  0.368814  0.372565  0.000000  1
  Ru  Ru17  1  0.448888  0.006137  0.000000  1
  Ru  Ru18  1  0.993863  0.442751  0.000000  1
  Ru  Ru19  1  0.557249  0.551112  0.000000  1
  Ru  Ru20  1  0.365787  0.492112  0.500000  1
  Ru  Ru21  1  0.507888  0.873675  0.500000  1
  Ru  Ru22  1  0.126325  0.634213  0.500000  1
  Ru  Ru23  1  0.869973  0.509947  0.500000  1
  Ru  Ru24  1  0.639973  0.130027  0.500000  1
  Ru  Ru25  1  0.490053  0.360027  0.500000  1
  Ru  Ru26  1  0.182973  0.376109  0.000000  1
  Ru  Ru27  1  0.623891  0.806866  0.000000  1
  Ru  Ru28  1  0.193134  0.817027  0.000000  1
  Ru  Ru29  1  0.280802  0.002329  0.500000  1
  Ru  Ru30  1  0.997671  0.278473  0.500000  1
  Ru  Ru31  1  0.721527  0.719198  0.500000  1
  Rh  Rh32  1  0.814896  0.629804  0.000000  1
  Rh  Rh33  1  0.814908  0.185104  0.000000  1
  Rh  Rh34  1  0.370196  0.185092  0.000000  1
  Rh  Rh35  1  0.000000  0.000000  0.000000  1
