# generated using pymatgen
data_Ho3In3NiHgPd
_symmetry_space_group_name_H-M   'P 1'
_cell_length_a   7.86190900
_cell_length_b   7.86190932
_cell_length_c   3.71799700
_cell_angle_alpha   90.00000000
_cell_angle_beta   90.00000000
_cell_angle_gamma   120.00000285
_symmetry_Int_Tables_number   1
_chemical_formula_structural   Ho3In3NiHgPd
_chemical_formula_sum   'Ho3 In3 Ni1 Hg1 Pd1'
_cell_volume   199.01953048
_cell_formula_units_Z   1
loop_
 _symmetry_equiv_pos_site_id
 _symmetry_equiv_pos_as_xyz
  1  'x, y, z'
loop_
 _atom_site_type_symbol
 _atom_site_label
 _atom_site_symmetry_multiplicity
 _atom_site_fract_x
 _atom_site_fract_y
 _atom_site_fract_z
 _atom_site_occupancy
  Ho  Ho0  1  0.980002  0.590078  0.000000  1
  Ho  Ho1  1  0.409922  0.389923  0.000000  1
  Ho  Ho2  1  0.610077  0.019998  0.000000  1
  In  In3  1  0.751011  0.748589  0.500000  1
  In  In4  1  0.997577  0.248989  0.500000  1
  In  In5  1  0.251411  0.002423  0.500000  1
  Ni  Ni6  1  0.000000  0.000000  0.000000  1
  Hg  Hg7  1  0.333333  0.666667  0.500000  1
  Pd  Pd8  1  0.666667  0.333333  0.500000  1
