# generated using pymatgen
data_Nd10Sn20IrPd7
_symmetry_space_group_name_H-M   'P 1'
_cell_length_a   14.29640307
_cell_length_b   14.32008507
_cell_length_c   4.66111900
_cell_angle_alpha   90.00000000
_cell_angle_beta   90.00000000
_cell_angle_gamma   89.98839527
_symmetry_Int_Tables_number   1
_chemical_formula_structural   Nd10Sn20IrPd7
_chemical_formula_sum   'Nd10 Sn20 Ir1 Pd7'
_cell_volume   954.25086896
_cell_formula_units_Z   1
loop_
 _symmetry_equiv_pos_site_id
 _symmetry_equiv_pos_as_xyz
  1  'x, y, z'
loop_
 _atom_site_type_symbol
 _atom_site_label
 _atom_site_symmetry_multiplicity
 _atom_site_fract_x
 _atom_site_fract_y
 _atom_site_fract_z
 _atom_site_occupancy
  Nd  Nd0  1  0.500216  0.499051  0.000000  1
  Nd  Nd1  1  0.999663  0.996256  0.000000  1
  Nd  Nd2  1  0.679207  0.178995  0.500000  1
  Nd  Nd3  1  0.320536  0.820205  0.500000  1
  Nd  Nd4  1  0.178700  0.321423  0.500000  1
  Nd  Nd5  1  0.823963  0.680597  0.500000  1
  Nd  Nd6  1  0.891209  0.392205  0.500000  1
  Nd  Nd7  1  0.106221  0.611262  0.500000  1
  Nd  Nd8  1  0.390750  0.109076  0.500000  1
  Nd  Nd9  1  0.610170  0.891129  0.500000  1
  Sn  Sn10  1  0.568736  0.068435  0.000000  1
  Sn  Sn11  1  0.430538  0.931495  0.000000  1
  Sn  Sn12  1  0.068834  0.432679  0.000000  1
  Sn  Sn13  1  0.931249  0.571300  0.000000  1
  Sn  Sn14  1  0.654165  0.700154  0.000000  1
  Sn  Sn15  1  0.346658  0.299515  0.000000  1
  Sn  Sn16  1  0.152515  0.798156  0.000000  1
  Sn  Sn17  1  0.847004  0.199847  0.000000  1
  Sn  Sn18  1  0.299875  0.653729  0.000000  1
  Sn  Sn19  1  0.700528  0.346119  0.000000  1
  Sn  Sn20  1  0.199772  0.153165  0.000000  1
  Sn  Sn21  1  0.801436  0.846364  0.000000  1
  Sn  Sn22  1  0.661982  0.503196  0.500000  1
  Sn  Sn23  1  0.337730  0.497690  0.500000  1
  Sn  Sn24  1  0.160872  0.995537  0.500000  1
  Sn  Sn25  1  0.838243  0.001869  0.500000  1
  Sn  Sn26  1  0.497621  0.661255  0.500000  1
  Sn  Sn27  1  0.502921  0.338576  0.500000  1
  Sn  Sn28  1  0.003079  0.161122  0.500000  1
  Sn  Sn29  1  0.995385  0.837623  0.500000  1
  Ir  Ir30  1  0.969061  0.755674  0.000000  1
  Pd  Pd31  1  0.745835  0.529550  0.000000  1
  Pd  Pd32  1  0.254815  0.469511  0.000000  1
  Pd  Pd33  1  0.244745  0.969708  0.000000  1
  Pd  Pd34  1  0.754653  0.030053  0.000000  1
  Pd  Pd35  1  0.470327  0.746219  0.000000  1
  Pd  Pd36  1  0.530623  0.254162  0.000000  1
  Pd  Pd37  1  0.030162  0.247097  0.000000  1
