# generated using pymatgen
data_Hf4Ni11Rh
_symmetry_space_group_name_H-M   'P 1'
_cell_length_a   5.30247830
_cell_length_b   5.29810500
_cell_length_c   8.59189900
_cell_angle_alpha   90.00000000
_cell_angle_beta   90.00000000
_cell_angle_gamma   119.97274045
_symmetry_Int_Tables_number   1
_chemical_formula_structural   Hf4Ni11Rh
_chemical_formula_sum   'Hf4 Ni11 Rh1'
_cell_volume   209.09251391
_cell_formula_units_Z   1
loop_
 _symmetry_equiv_pos_site_id
 _symmetry_equiv_pos_as_xyz
  1  'x, y, z'
loop_
 _atom_site_type_symbol
 _atom_site_label
 _atom_site_symmetry_multiplicity
 _atom_site_fract_x
 _atom_site_fract_y
 _atom_site_fract_z
 _atom_site_occupancy
  Hf  Hf0  1  0.002224  0.001113  0.498203  1
  Hf  Hf1  1  0.668300  0.334149  0.750000  1
  Hf  Hf2  1  0.331553  0.665777  0.250000  1
  Hf  Hf3  1  0.002224  0.001113  0.001797  1
  Ni  Ni4  1  0.174571  0.350364  0.750000  1
  Ni  Ni5  1  0.000253  0.500127  0.001219  1
  Ni  Ni6  1  0.821579  0.644584  0.250000  1
  Ni  Ni7  1  0.355224  0.177612  0.250000  1
  Ni  Ni8  1  0.499032  0.496601  0.004137  1
  Ni  Ni9  1  0.821579  0.176996  0.250000  1
  Ni  Ni10  1  0.499032  0.496601  0.495863  1
  Ni  Ni11  1  0.499032  0.002431  0.495863  1
  Ni  Ni12  1  0.174571  0.824206  0.750000  1
  Ni  Ni13  1  0.499032  0.002431  0.004137  1
  Ni  Ni14  1  0.000253  0.500127  0.498781  1
  Rh  Rh15  1  0.651541  0.825770  0.750000  1
