# generated using pymatgen
data_Hf18Re7WAu2
_symmetry_space_group_name_H-M   'P 1'
_cell_length_a   8.75102300
_cell_length_b   8.75102305
_cell_length_c   8.56247900
_cell_angle_alpha   90.00000000
_cell_angle_beta   90.00000000
_cell_angle_gamma   120.00000358
_symmetry_Int_Tables_number   1
_chemical_formula_structural   Hf18Re7WAu2
_chemical_formula_sum   'Hf18 Re7 W1 Au2'
_cell_volume   567.86851286
_cell_formula_units_Z   1
loop_
 _symmetry_equiv_pos_site_id
 _symmetry_equiv_pos_as_xyz
  1  'x, y, z'
loop_
 _atom_site_type_symbol
 _atom_site_label
 _atom_site_symmetry_multiplicity
 _atom_site_fract_x
 _atom_site_fract_y
 _atom_site_fract_z
 _atom_site_occupancy
  Hf  Hf0  1  0.193044  0.806956  0.451836  1
  Hf  Hf1  1  0.193044  0.386090  0.451836  1
  Hf  Hf2  1  0.613910  0.806956  0.451836  1
  Hf  Hf3  1  0.806956  0.193044  0.548164  1
  Hf  Hf4  1  0.806956  0.613910  0.548164  1
  Hf  Hf5  1  0.386090  0.193044  0.548164  1
  Hf  Hf6  1  0.807795  0.192205  0.951752  1
  Hf  Hf7  1  0.807795  0.615590  0.951752  1
  Hf  Hf8  1  0.384410  0.192205  0.951752  1
  Hf  Hf9  1  0.192205  0.807795  0.048248  1
  Hf  Hf10  1  0.192205  0.384410  0.048248  1
  Hf  Hf11  1  0.615590  0.807795  0.048248  1
  Hf  Hf12  1  0.541479  0.458521  0.249784  1
  Hf  Hf13  1  0.541479  0.082957  0.249784  1
  Hf  Hf14  1  0.917043  0.458521  0.249784  1
  Hf  Hf15  1  0.458521  0.541479  0.750216  1
  Hf  Hf16  1  0.458521  0.917043  0.750216  1
  Hf  Hf17  1  0.082957  0.541479  0.750216  1
  Re  Re18  1  0.889846  0.110154  0.250197  1
  Re  Re19  1  0.889846  0.779691  0.250197  1
  Re  Re20  1  0.220309  0.110154  0.250197  1
  Re  Re21  1  0.110154  0.889846  0.749803  1
  Re  Re22  1  0.110154  0.220309  0.749803  1
  Re  Re23  1  0.779691  0.889846  0.749803  1
  Re  Re24  1  0.000000  0.000000  0.000000  1
  W  W25  1  0.000000  0.000000  0.500000  1
  Au  Au26  1  0.333333  0.666667  0.249564  1
  Au  Au27  1  0.666667  0.333333  0.750436  1
