# generated using pymatgen
data_Nd3Dy12Y(CdIr)4
_symmetry_space_group_name_H-M   'P 1'
_cell_length_a   9.69225868
_cell_length_b   9.68450079
_cell_length_c   9.69087175
_cell_angle_alpha   60.03121962
_cell_angle_beta   59.98703524
_cell_angle_gamma   60.01701321
_symmetry_Int_Tables_number   1
_chemical_formula_structural   Nd3Dy12Y(CdIr)4
_chemical_formula_sum   'Nd3 Dy12 Y1 Cd4 Ir4'
_cell_volume   643.37722291
_cell_formula_units_Z   1
loop_
 _symmetry_equiv_pos_site_id
 _symmetry_equiv_pos_as_xyz
  1  'x, y, z'
loop_
 _atom_site_type_symbol
 _atom_site_label
 _atom_site_symmetry_multiplicity
 _atom_site_fract_x
 _atom_site_fract_y
 _atom_site_fract_z
 _atom_site_occupancy
  Nd  Nd0  1  0.938039  0.561961  0.938039  1
  Nd  Nd1  1  0.562995  0.565002  0.935772  1
  Nd  Nd2  1  0.935772  0.936231  0.562995  1
  Dy  Dy3  1  0.350278  0.347013  0.348505  1
  Dy  Dy4  1  0.350162  0.350739  0.954290  1
  Dy  Dy5  1  0.348505  0.954203  0.350278  1
  Dy  Dy6  1  0.954290  0.344808  0.350162  1
  Dy  Dy7  1  0.812243  0.187676  0.187160  1
  Dy  Dy8  1  0.187160  0.812920  0.812243  1
  Dy  Dy9  1  0.189023  0.810977  0.189023  1
  Dy  Dy10  1  0.810990  0.189010  0.810990  1
  Dy  Dy11  1  0.189889  0.189917  0.809076  1
  Dy  Dy12  1  0.809076  0.811118  0.189889  1
  Dy  Dy13  1  0.943272  0.558030  0.552625  1
  Dy  Dy14  1  0.552625  0.946073  0.943272  1
  Y  Y15  1  0.560315  0.939685  0.560315  1
  Cd  Cd16  1  0.582025  0.581195  0.578606  1
  Cd  Cd17  1  0.579359  0.582265  0.259072  1
  Cd  Cd18  1  0.578606  0.258171  0.582025  1
  Cd  Cd19  1  0.259072  0.579301  0.579359  1
  Ir  Ir20  1  0.147782  0.138471  0.138893  1
  Ir  Ir21  1  0.143954  0.143126  0.575669  1
  Ir  Ir22  1  0.138893  0.574853  0.147782  1
  Ir  Ir23  1  0.575669  0.137252  0.143954  1
