# generated using pymatgen
data_La4Y5HoIr4
_symmetry_space_group_name_H-M   'P 1'
_cell_length_a   6.59810652
_cell_length_b   7.25603623
_cell_length_c   8.91148546
_cell_angle_alpha   96.90828230
_cell_angle_beta   111.72810413
_cell_angle_gamma   89.99999490
_symmetry_Int_Tables_number   1
_chemical_formula_structural   La4Y5HoIr4
_chemical_formula_sum   'La4 Y5 Ho1 Ir4'
_cell_volume   392.99804055
_cell_formula_units_Z   1
loop_
 _symmetry_equiv_pos_site_id
 _symmetry_equiv_pos_as_xyz
  1  'x, y, z'
loop_
 _atom_site_type_symbol
 _atom_site_label
 _atom_site_symmetry_multiplicity
 _atom_site_fract_x
 _atom_site_fract_y
 _atom_site_fract_z
 _atom_site_occupancy
  La  La0  1  0.976338  0.917541  0.193798  1
  La  La1  1  0.782541  0.582459  0.806202  1
  La  La2  1  0.023770  0.082711  0.806354  1
  La  La3  1  0.217415  0.417289  0.193646  1
  Y  Y4  1  0.641589  0.816716  0.433588  1
  Y  Y5  1  0.207999  0.683284  0.566412  1
  Y  Y6  1  0.358380  0.183376  0.566618  1
  Y  Y7  1  0.791762  0.316624  0.433382  1
  Y  Y8  1  0.429632  0.750000  0.000000  1
  Ho  Ho9  1  0.569779  0.250000  0.000000  1
  Ir  Ir10  1  0.816880  0.575854  0.225224  1
  Ir  Ir11  1  0.591658  0.924146  0.774776  1
  Ir  Ir12  1  0.183460  0.422576  0.774662  1
  Ir  Ir13  1  0.408797  0.077424  0.225338  1
