# generated using pymatgen
data_Tm6Lu2Ga3Ir
_symmetry_space_group_name_H-M   'P 1'
_cell_length_a   9.89720601
_cell_length_b   9.89515858
_cell_length_c   6.91484201
_cell_angle_alpha   89.99706979
_cell_angle_beta   90.00585920
_cell_angle_gamma   120.00685154
_symmetry_Int_Tables_number   1
_chemical_formula_structural   Tm6Lu2Ga3Ir
_chemical_formula_sum   'Tm12 Lu4 Ga6 Ir2'
_cell_volume   586.43282547
_cell_formula_units_Z   2
loop_
 _symmetry_equiv_pos_site_id
 _symmetry_equiv_pos_as_xyz
  1  'x, y, z'
loop_
 _atom_site_type_symbol
 _atom_site_label
 _atom_site_symmetry_multiplicity
 _atom_site_fract_x
 _atom_site_fract_y
 _atom_site_fract_z
 _atom_site_occupancy
  Tm  Tm0  1  0.657739  0.828887  0.990285  1
  Tm  Tm1  1  0.828851  0.171113  0.490285  1
  Tm  Tm2  1  0.333032  0.666522  0.661872  1
  Tm  Tm3  1  0.666511  0.333478  0.161872  1
  Tm  Tm4  1  0.465898  0.533399  0.294362  1
  Tm  Tm5  1  0.932498  0.466601  0.794362  1
  Tm  Tm6  1  0.533282  0.067822  0.794259  1
  Tm  Tm7  1  0.465461  0.932178  0.294259  1
  Tm  Tm8  1  0.067714  0.534122  0.293993  1
  Tm  Tm9  1  0.533590  0.465878  0.793993  1
  Tm  Tm10  1  0.000453  0.000054  0.265840  1
  Tm  Tm11  1  0.000399  0.999946  0.765840  1
  Lu  Lu12  1  0.171434  0.828540  0.990228  1
  Lu  Lu13  1  0.342893  0.171460  0.490228  1
  Lu  Lu14  1  0.828465  0.657018  0.490277  1
  Lu  Lu15  1  0.171448  0.342982  0.990277  1
  Ga  Ga16  1  0.163168  0.836794  0.541660  1
  Ga  Ga17  1  0.326374  0.163206  0.041660  1
  Ga  Ga18  1  0.837157  0.673263  0.041755  1
  Ga  Ga19  1  0.163893  0.326737  0.541755  1
  Ga  Ga20  1  0.673124  0.836038  0.541110  1
  Ga  Ga21  1  0.837086  0.163962  0.041110  1
  Ir  Ir22  1  0.333019  0.666509  0.056359  1
  Ir  Ir23  1  0.666511  0.333491  0.556359  1
