# generated using pymatgen
data_LiZr3(Al8Pt3)3
_symmetry_space_group_name_H-M   'P 1'
_cell_length_a   7.45587535
_cell_length_b   7.45982932
_cell_length_c   13.01639719
_cell_angle_alpha   84.46154362
_cell_angle_beta   100.94689535
_cell_angle_gamma   119.90459586
_symmetry_Int_Tables_number   1
_chemical_formula_structural   LiZr3(Al8Pt3)3
_chemical_formula_sum   'Li1 Zr3 Al24 Pt9'
_cell_volume   616.15400554
_cell_formula_units_Z   1
loop_
 _symmetry_equiv_pos_site_id
 _symmetry_equiv_pos_as_xyz
  1  'x, y, z'
loop_
 _atom_site_type_symbol
 _atom_site_label
 _atom_site_symmetry_multiplicity
 _atom_site_fract_x
 _atom_site_fract_y
 _atom_site_fract_z
 _atom_site_occupancy
  Li  Li0  1  0.929444  0.327631  0.792847  1
  Zr  Zr1  1  0.734907  0.001561  0.188259  1
  Zr  Zr2  1  0.269260  0.002205  0.811579  1
  Zr  Zr3  1  0.058896  0.665390  0.188101  1
  Al  Al4  1  0.817656  0.872707  0.817446  1
  Al  Al5  1  0.187682  0.126537  0.184966  1
  Al  Al6  1  0.985428  0.661268  0.938183  1
  Al  Al7  1  0.017797  0.334130  0.053563  1
  Al  Al8  1  0.394128  0.669551  0.818586  1
  Al  Al9  1  0.605703  0.336657  0.183757  1
  Al  Al10  1  0.888748  0.661909  0.680773  1
  Al  Al11  1  0.113221  0.334886  0.323276  1
  Al  Al12  1  0.598995  0.449476  0.817781  1
  Al  Al13  1  0.397225  0.548422  0.184550  1
  Al  Al14  1  0.225974  0.336049  0.680622  1
  Al  Al15  1  0.770044  0.662619  0.324113  1
  Al  Al16  1  0.853390  0.333285  0.561914  1
  Al  Al17  1  0.186647  0.999538  0.561828  1
  Al  Al18  1  0.812393  0.000068  0.440204  1
  Al  Al19  1  0.353931  0.997396  0.059385  1
  Al  Al20  1  0.652423  0.010236  0.938551  1
  Al  Al21  1  0.561603  0.000050  0.680970  1
  Al  Al22  1  0.441413  0.003796  0.322078  1
  Al  Al23  1  0.521835  0.667821  0.565210  1
  Al  Al24  1  0.479659  0.332499  0.437570  1
  Al  Al25  1  0.685223  0.669012  0.048680  1
  Al  Al26  1  0.306168  0.328551  0.945285  1
  Al  Al27  1  0.146205  0.666509  0.440124  1
  Pt  Pt28  1  0.334283  0.676605  0.003260  1
  Pt  Pt29  1  0.541937  0.325057  0.637142  1
  Pt  Pt30  1  0.454298  0.676353  0.363172  1
  Pt  Pt31  1  0.886959  0.006068  0.639106  1
  Pt  Pt32  1  0.110762  0.990434  0.361265  1
  Pt  Pt33  1  0.672247  0.329005  0.002541  1
  Pt  Pt34  1  0.205965  0.667835  0.639135  1
  Pt  Pt35  1  0.796762  0.333228  0.360958  1
  Pt  Pt36  1  0.000791  0.995654  0.003218  1
