# generated using pymatgen
data_Ti6Ga6Pd5Rh7
_symmetry_space_group_name_H-M   'P 1'
_cell_length_a   4.07114500
_cell_length_b   7.21265703
_cell_length_c   12.03894527
_cell_angle_alpha   90.01696750
_cell_angle_beta   89.99993854
_cell_angle_gamma   89.99996391
_symmetry_Int_Tables_number   1
_chemical_formula_structural   Ti6Ga6Pd5Rh7
_chemical_formula_sum   'Ti6 Ga6 Pd5 Rh7'
_cell_volume   353.50883553
_cell_formula_units_Z   1
loop_
 _symmetry_equiv_pos_site_id
 _symmetry_equiv_pos_as_xyz
  1  'x, y, z'
loop_
 _atom_site_type_symbol
 _atom_site_label
 _atom_site_symmetry_multiplicity
 _atom_site_fract_x
 _atom_site_fract_y
 _atom_site_fract_z
 _atom_site_occupancy
  Ti  Ti0  1  0.999999  0.499867  0.991382  1
  Ti  Ti1  1  0.499999  0.996114  0.170541  1
  Ti  Ti2  1  0.000002  0.507646  0.341307  1
  Ti  Ti3  1  0.499999  0.995776  0.503907  1
  Ti  Ti4  1  0.999999  0.498960  0.666046  1
  Ti  Ti5  1  0.499996  0.000539  0.826394  1
  Ga  Ga6  1  0.999998  0.000730  0.997517  1
  Ga  Ga7  1  0.500000  0.501655  0.167797  1
  Ga  Ga8  1  0.000002  0.995304  0.336791  1
  Ga  Ga9  1  0.500001  0.502444  0.502771  1
  Ga  Ga10  1  0.999998  0.000636  0.665576  1
  Ga  Ga11  1  0.499999  0.499485  0.829463  1
  Pd  Pd12  1  0.499999  0.248976  0.000940  1
  Pd  Pd13  1  0.499998  0.752425  0.999802  1
  Pd  Pd14  1  0.000004  0.251883  0.167488  1
  Pd  Pd15  1  0.000001  0.747973  0.165170  1
  Pd  Pd16  1  0.500003  0.250045  0.333845  1
  Rh  Rh17  1  0.500003  0.749632  0.331686  1
  Rh  Rh18  1  0.000002  0.248570  0.498450  1
  Rh  Rh19  1  0.000003  0.751547  0.500398  1
  Rh  Rh20  1  0.499998  0.251575  0.666154  1
  Rh  Rh21  1  0.499999  0.749186  0.667856  1
  Rh  Rh22  1  0.999999  0.247888  0.834063  1
  Rh  Rh23  1  0.999998  0.751151  0.834653  1
