# generated using pymatgen
data_TbHo3Er4(B6Os)4
_symmetry_space_group_name_H-M   'P 1'
_cell_length_a   3.63981600
_cell_length_b   9.11892500
_cell_length_c   11.50166100
_cell_angle_alpha   89.99870025
_cell_angle_beta   89.99984159
_cell_angle_gamma   90.00032078
_symmetry_Int_Tables_number   1
_chemical_formula_structural   TbHo3Er4(B6Os)4
_chemical_formula_sum   'Tb1 Ho3 Er4 B24 Os4'
_cell_volume   381.75403540
_cell_formula_units_Z   1
loop_
 _symmetry_equiv_pos_site_id
 _symmetry_equiv_pos_as_xyz
  1  'x, y, z'
loop_
 _atom_site_type_symbol
 _atom_site_label
 _atom_site_symmetry_multiplicity
 _atom_site_fract_x
 _atom_site_fract_y
 _atom_site_fract_z
 _atom_site_occupancy
  Tb  Tb0  1  0.999991  0.178229  0.913993  1
  Ho  Ho1  1  0.000079  0.321636  0.414307  1
  Ho  Ho2  1  0.000035  0.678287  0.585821  1
  Ho  Ho3  1  0.000138  0.821699  0.085951  1
  Er  Er4  1  0.000064  0.943715  0.373088  1
  Er  Er5  1  0.999991  0.056323  0.626885  1
  Er  Er6  1  0.000063  0.443866  0.127291  1
  Er  Er7  1  0.000010  0.556369  0.872837  1
  B  B8  1  0.500086  0.553857  0.433141  1
  B  B9  1  0.500017  0.446301  0.566670  1
  B  B10  1  0.499910  0.053614  0.067299  1
  B  B11  1  0.499829  0.945670  0.933075  1
  B  B12  1  0.500082  0.748280  0.419837  1
  B  B13  1  0.500010  0.251766  0.579977  1
  B  B14  1  0.499947  0.248421  0.080797  1
  B  B15  1  0.499864  0.751476  0.919789  1
  B  B16  1  0.500060  0.790980  0.266276  1
  B  B17  1  0.499966  0.209299  0.733326  1
  B  B18  1  0.499959  0.291008  0.234111  1
  B  B19  1  0.499872  0.708891  0.766060  1
  B  B20  1  0.500061  0.631176  0.185041  1
  B  B21  1  0.499991  0.369274  0.814688  1
  B  B22  1  0.499966  0.131104  0.315200  1
  B  B23  1  0.499881  0.868643  0.684783  1
  B  B24  1  0.499943  0.982444  0.213343  1
  B  B25  1  0.499818  0.016894  0.786571  1
  B  B26  1  0.500106  0.482639  0.287016  1
  B  B27  1  0.499998  0.517632  0.712897  1
  B  B28  1  0.499991  0.606325  0.029442  1
  B  B29  1  0.499983  0.394421  0.970801  1
  B  B30  1  0.499994  0.106631  0.470494  1
  B  B31  1  0.499979  0.893279  0.529473  1
  Os  Os32  1  0.000493  0.637326  0.321108  1
  Os  Os33  1  0.000252  0.363040  0.678620  1
  Os  Os34  1  0.999873  0.137179  0.179114  1
  Os  Os35  1  0.999695  0.862306  0.820877  1
