# generated using pymatgen
data_CaPr2PaN4
_symmetry_space_group_name_H-M   'P 1'
_cell_length_a   6.35235500
_cell_length_b   6.35213984
_cell_length_c   5.03664001
_cell_angle_alpha   66.64611019
_cell_angle_beta   66.64158113
_cell_angle_gamma   46.71232010
_symmetry_Int_Tables_number   1
_chemical_formula_structural   CaPr2PaN4
_chemical_formula_sum   'Ca1 Pr2 Pa1 N4'
_cell_volume   133.43331675
_cell_formula_units_Z   1
loop_
 _symmetry_equiv_pos_site_id
 _symmetry_equiv_pos_as_xyz
  1  'x, y, z'
loop_
 _atom_site_type_symbol
 _atom_site_label
 _atom_site_symmetry_multiplicity
 _atom_site_fract_x
 _atom_site_fract_y
 _atom_site_fract_z
 _atom_site_occupancy
  Ca  Ca0  1  0.497472  0.502528  0.502528  1
  Pr  Pr1  1  0.747372  0.752628  0.752628  1
  Pr  Pr2  1  0.247372  0.252628  0.252628  1
  Pa  Pa3  1  0.998984  0.001016  0.001016  1
  N  N4  1  0.997454  0.002546  0.507953  1
  N  N5  1  0.208111  0.212878  0.791889  1
  N  N6  1  0.492047  0.507953  0.002546  1
  N  N7  1  0.787122  0.791889  0.212878  1
