# generated using pymatgen
data_YbSc3B8MoRu9
_symmetry_space_group_name_H-M   'P 1'
_cell_length_a   3.01968600
_cell_length_b   8.59414076
_cell_length_c   10.09928675
_cell_angle_alpha   90.45897262
_cell_angle_beta   90.00000000
_cell_angle_gamma   90.00000000
_symmetry_Int_Tables_number   1
_chemical_formula_structural   YbSc3B8MoRu9
_chemical_formula_sum   'Yb1 Sc3 B8 Mo1 Ru9'
_cell_volume   262.08430703
_cell_formula_units_Z   1
loop_
 _symmetry_equiv_pos_site_id
 _symmetry_equiv_pos_as_xyz
  1  'x, y, z'
loop_
 _atom_site_type_symbol
 _atom_site_label
 _atom_site_symmetry_multiplicity
 _atom_site_fract_x
 _atom_site_fract_y
 _atom_site_fract_z
 _atom_site_occupancy
  Yb  Yb0  1  0.500000  0.843229  0.181289  1
  Sc  Sc1  1  0.500000  0.158777  0.819821  1
  Sc  Sc2  1  0.500000  0.659416  0.683881  1
  Sc  Sc3  1  0.500000  0.344951  0.316207  1
  B  B4  1  0.500000  0.965158  0.589012  1
  B  B5  1  0.500000  0.036129  0.409936  1
  B  B6  1  0.500000  0.850454  0.899842  1
  B  B7  1  0.500000  0.149195  0.099322  1
  B  B8  1  0.500000  0.644790  0.399371  1
  B  B9  1  0.500000  0.350471  0.601698  1
  B  B10  1  0.500000  0.460559  0.914238  1
  B  B11  1  0.500000  0.532499  0.087528  1
  Mo  Mo12  1  0.000000  0.657543  0.950942  1
  Ru  Ru13  1  0.000000  0.336641  0.047572  1
  Ru  Ru14  1  0.000000  0.841405  0.454494  1
  Ru  Ru15  1  0.000000  0.159241  0.546849  1
  Ru  Ru16  1  0.000000  0.006585  0.995222  1
  Ru  Ru17  1  0.000000  0.403908  0.761005  1
  Ru  Ru18  1  0.000000  0.590661  0.240871  1
  Ru  Ru19  1  0.000000  0.500155  0.502841  1
  Ru  Ru20  1  0.000000  0.906912  0.736160  1
  Ru  Ru21  1  0.000000  0.101318  0.261899  1
