# generated using pymatgen
data_Tm4Ga5PIr7
_symmetry_space_group_name_H-M   'P 1'
_cell_length_a   7.21821452
_cell_length_b   7.21821558
_cell_length_c   7.21821462
_cell_angle_alpha   109.50426905
_cell_angle_beta   109.45470463
_cell_angle_gamma   109.45470129
_symmetry_Int_Tables_number   1
_chemical_formula_structural   Tm4Ga5PIr7
_chemical_formula_sum   'Tm4 Ga5 P1 Ir7'
_cell_volume   289.51254223
_cell_formula_units_Z   1
loop_
 _symmetry_equiv_pos_site_id
 _symmetry_equiv_pos_as_xyz
  1  'x, y, z'
loop_
 _atom_site_type_symbol
 _atom_site_label
 _atom_site_symmetry_multiplicity
 _atom_site_fract_x
 _atom_site_fract_y
 _atom_site_fract_z
 _atom_site_occupancy
  Tm  Tm0  1  0.000000  0.997961  0.523576  1
  Tm  Tm1  1  0.000000  0.523576  0.997961  1
  Tm  Tm2  1  0.474386  0.997961  0.997961  1
  Tm  Tm3  1  0.525614  0.523576  0.523576  1
  Ga  Ga4  1  0.686314  0.699211  0.012897  1
  Ga  Ga5  1  0.313686  0.012897  0.326583  1
  Ga  Ga6  1  0.000000  0.287656  0.287656  1
  Ga  Ga7  1  0.313686  0.326583  0.012897  1
  Ga  Ga8  1  0.686314  0.012897  0.699211  1
  P  P9  1  0.000000  0.656903  0.656903  1
  Ir  Ir10  1  0.753866  0.250696  0.496830  1
  Ir  Ir11  1  0.753866  0.496830  0.250696  1
  Ir  Ir12  1  0.500000  0.258213  0.758213  1
  Ir  Ir13  1  0.246134  0.496830  0.742965  1
  Ir  Ir14  1  0.246134  0.742965  0.496830  1
  Ir  Ir15  1  0.500000  0.758213  0.258213  1
  Ir  Ir16  1  0.000000  0.957034  0.957034  1
