# generated using pymatgen
data_Dy12Ir3Os
_symmetry_space_group_name_H-M   'P 1'
_cell_length_a   6.38730304
_cell_length_b   7.29044005
_cell_length_c   9.17881700
_cell_angle_alpha   90.00000000
_cell_angle_beta   90.00000000
_cell_angle_gamma   89.98706446
_symmetry_Int_Tables_number   1
_chemical_formula_structural   Dy12Ir3Os
_chemical_formula_sum   'Dy12 Ir3 Os1'
_cell_volume   427.42307510
_cell_formula_units_Z   1
loop_
 _symmetry_equiv_pos_site_id
 _symmetry_equiv_pos_as_xyz
  1  'x, y, z'
loop_
 _atom_site_type_symbol
 _atom_site_label
 _atom_site_symmetry_multiplicity
 _atom_site_fract_x
 _atom_site_fract_y
 _atom_site_fract_z
 _atom_site_occupancy
  Dy  Dy0  1  0.326621  0.677624  0.064038  1
  Dy  Dy1  1  0.171697  0.175164  0.436111  1
  Dy  Dy2  1  0.671247  0.323564  0.562803  1
  Dy  Dy3  1  0.830927  0.823910  0.939212  1
  Dy  Dy4  1  0.671247  0.323564  0.937197  1
  Dy  Dy5  1  0.830927  0.823910  0.560788  1
  Dy  Dy6  1  0.326621  0.677624  0.435962  1
  Dy  Dy7  1  0.171697  0.175164  0.063889  1
  Dy  Dy8  1  0.868881  0.535523  0.250000  1
  Dy  Dy9  1  0.630059  0.035428  0.250000  1
  Dy  Dy10  1  0.132083  0.464367  0.750000  1
  Dy  Dy11  1  0.370091  0.963649  0.750000  1
  Ir  Ir12  1  0.455422  0.383635  0.250000  1
  Ir  Ir13  1  0.955197  0.116986  0.750000  1
  Ir  Ir14  1  0.546721  0.616683  0.750000  1
  Os  Os15  1  0.040563  0.883204  0.250000  1
