# generated using pymatgen
data_Zr12ZnCu3(Ir2N)4
_symmetry_space_group_name_H-M   'P 1'
_cell_length_a   8.54353213
_cell_length_b   8.51948185
_cell_length_c   8.54350300
_cell_angle_alpha   59.90579922
_cell_angle_beta   59.99940500
_cell_angle_gamma   59.90595592
_symmetry_Int_Tables_number   1
_chemical_formula_structural   Zr12ZnCu3(Ir2N)4
_chemical_formula_sum   'Zr12 Zn1 Cu3 Ir8 N4'
_cell_volume   439.08676770
_cell_formula_units_Z   1
loop_
 _symmetry_equiv_pos_site_id
 _symmetry_equiv_pos_as_xyz
  1  'x, y, z'
loop_
 _atom_site_type_symbol
 _atom_site_label
 _atom_site_symmetry_multiplicity
 _atom_site_fract_x
 _atom_site_fract_y
 _atom_site_fract_z
 _atom_site_occupancy
  Zr  Zr0  1  0.806669  0.194172  0.192491  1
  Zr  Zr1  1  0.194777  0.805026  0.194778  1
  Zr  Zr2  1  0.805418  0.805023  0.194780  1
  Zr  Zr3  1  0.194777  0.805023  0.805423  1
  Zr  Zr4  1  0.806671  0.194167  0.806676  1
  Zr  Zr5  1  0.192488  0.194167  0.806675  1
  Zr  Zr6  1  0.443331  0.055828  0.057509  1
  Zr  Zr7  1  0.055223  0.444974  0.055222  1
  Zr  Zr8  1  0.444582  0.444977  0.055220  1
  Zr  Zr9  1  0.055223  0.444977  0.444577  1
  Zr  Zr10  1  0.443329  0.055833  0.443324  1
  Zr  Zr11  1  0.057512  0.055833  0.443325  1
  Zn  Zn12  1  0.625000  0.125000  0.625000  1
  Cu  Cu13  1  0.625000  0.625000  0.125000  1
  Cu  Cu14  1  0.625000  0.625000  0.625000  1
  Cu  Cu15  1  0.125000  0.625000  0.625000  1
  Ir  Ir16  1  0.415118  0.417302  0.752462  1
  Ir  Ir17  1  0.415118  0.417301  0.415116  1
  Ir  Ir18  1  0.752465  0.417300  0.415116  1
  Ir  Ir19  1  0.415841  0.752475  0.415843  1
  Ir  Ir20  1  0.834882  0.832698  0.497538  1
  Ir  Ir21  1  0.834882  0.832699  0.834884  1
  Ir  Ir22  1  0.497535  0.832700  0.834884  1
  Ir  Ir23  1  0.834159  0.497525  0.834157  1
  N  N24  1  0.125000  0.125000  0.625000  1
  N  N25  1  0.125000  0.125000  0.125000  1
  N  N26  1  0.625000  0.125000  0.125000  1
  N  N27  1  0.125000  0.625000  0.125000  1
