# generated using pymatgen
data_Tb11Dy5MgIn3Rh4
_symmetry_space_group_name_H-M   'P 1'
_cell_length_a   9.70752991
_cell_length_b   9.70468153
_cell_length_c   9.71704034
_cell_angle_alpha   60.06465284
_cell_angle_beta   60.02327416
_cell_angle_gamma   60.00018570
_symmetry_Int_Tables_number   1
_chemical_formula_structural   Tb11Dy5MgIn3Rh4
_chemical_formula_sum   'Tb11 Dy5 Mg1 In3 Rh4'
_cell_volume   647.73565346
_cell_formula_units_Z   1
loop_
 _symmetry_equiv_pos_site_id
 _symmetry_equiv_pos_as_xyz
  1  'x, y, z'
loop_
 _atom_site_type_symbol
 _atom_site_label
 _atom_site_symmetry_multiplicity
 _atom_site_fract_x
 _atom_site_fract_y
 _atom_site_fract_z
 _atom_site_occupancy
  Tb  Tb0  1  0.688005  0.311803  0.312303  1
  Tb  Tb1  1  0.687338  0.688262  0.314092  1
  Tb  Tb2  1  0.310430  0.688301  0.314066  1
  Tb  Tb3  1  0.936547  0.936199  0.562666  1
  Tb  Tb4  1  0.150618  0.148452  0.550053  1
  Tb  Tb5  1  0.564580  0.936378  0.562302  1
  Tb  Tb6  1  0.153820  0.151854  0.150861  1
  Tb  Tb7  1  0.308353  0.310662  0.691487  1
  Tb  Tb8  1  0.938020  0.562247  0.561656  1
  Tb  Tb9  1  0.563159  0.562741  0.936126  1
  Tb  Tb10  1  0.564349  0.937343  0.934481  1
  Dy  Dy11  1  0.937916  0.562942  0.936251  1
  Dy  Dy12  1  0.151972  0.546539  0.149270  1
  Dy  Dy13  1  0.309133  0.690167  0.691560  1
  Dy  Dy14  1  0.689656  0.310585  0.691482  1
  Dy  Dy15  1  0.543409  0.151797  0.150855  1
  Mg  Mg16  1  0.922548  0.923896  0.230858  1
  In  In17  1  0.247389  0.917041  0.918758  1
  In  In18  1  0.916503  0.247042  0.919781  1
  In  In19  1  0.916592  0.916990  0.918774  1
  Rh  Rh20  1  0.356948  0.357151  0.358684  1
  Rh  Rh21  1  0.926770  0.357415  0.358939  1
  Rh  Rh22  1  0.358293  0.358420  0.925503  1
  Rh  Rh23  1  0.357655  0.925773  0.359191  1
