# generated using pymatgen
data_Pr2GaSi3(IrRh)3
_symmetry_space_group_name_H-M   'P 1'
_cell_length_a   6.75551133
_cell_length_b   6.74096076
_cell_length_c   6.75747772
_cell_angle_alpha   130.21415423
_cell_angle_beta   114.44266508
_cell_angle_gamma   86.66798270
_symmetry_Int_Tables_number   1
_chemical_formula_structural   Pr2GaSi3(IrRh)3
_chemical_formula_sum   'Pr2 Ga1 Si3 Ir3 Rh3'
_cell_volume   204.03022718
_cell_formula_units_Z   1
loop_
 _symmetry_equiv_pos_site_id
 _symmetry_equiv_pos_as_xyz
  1  'x, y, z'
loop_
 _atom_site_type_symbol
 _atom_site_label
 _atom_site_symmetry_multiplicity
 _atom_site_fract_x
 _atom_site_fract_y
 _atom_site_fract_z
 _atom_site_occupancy
  Pr  Pr0  1  0.249543  0.966419  0.715310  1
  Pr  Pr1  1  0.750556  0.025119  0.272938  1
  Ga  Ga2  1  0.092662  0.298630  0.208789  1
  Si  Si3  1  0.933000  0.728456  0.796940  1
  Si  Si4  1  0.406946  0.618277  0.211081  1
  Si  Si5  1  0.572243  0.367475  0.794256  1
  Ir  Ir6  1  0.715527  0.995686  0.712675  1
  Ir  Ir7  1  0.229782  0.498616  0.734570  1
  Ir  Ir8  1  0.764104  0.497259  0.268157  1
  Rh  Rh9  1  0.525949  0.504397  0.527973  1
  Rh  Rh10  1  0.976861  0.504142  0.977517  1
  Rh  Rh11  1  0.282829  0.995522  0.279795  1
