# generated using pymatgen
data_Dy4Ho4Re(B8Ru)3
_symmetry_space_group_name_H-M   'P 1'
_cell_length_a   3.66374300
_cell_length_b   9.13555481
_cell_length_c   11.52200700
_cell_angle_alpha   90.12355785
_cell_angle_beta   90.00000000
_cell_angle_gamma   90.00000000
_symmetry_Int_Tables_number   1
_chemical_formula_structural   Dy4Ho4Re(B8Ru)3
_chemical_formula_sum   'Dy4 Ho4 Re1 B24 Ru3'
_cell_volume   385.64442202
_cell_formula_units_Z   1
loop_
 _symmetry_equiv_pos_site_id
 _symmetry_equiv_pos_as_xyz
  1  'x, y, z'
loop_
 _atom_site_type_symbol
 _atom_site_label
 _atom_site_symmetry_multiplicity
 _atom_site_fract_x
 _atom_site_fract_y
 _atom_site_fract_z
 _atom_site_occupancy
  Dy  Dy0  1  0.000000  0.323023  0.415094  1
  Dy  Dy1  1  0.000000  0.679910  0.588001  1
  Dy  Dy2  1  0.000000  0.822776  0.083536  1
  Dy  Dy3  1  0.000000  0.176138  0.913452  1
  Ho  Ho4  1  0.000000  0.943120  0.370978  1
  Ho  Ho5  1  0.000000  0.056434  0.627744  1
  Ho  Ho6  1  0.000000  0.442603  0.128709  1
  Ho  Ho7  1  0.000000  0.555980  0.872395  1
  Re  Re8  1  0.000000  0.862303  0.821129  1
  B  B9  1  0.500000  0.554126  0.433158  1
  B  B10  1  0.500000  0.446181  0.567193  1
  B  B11  1  0.500000  0.053849  0.067568  1
  B  B12  1  0.500000  0.947035  0.933147  1
  B  B13  1  0.500000  0.748428  0.419337  1
  B  B14  1  0.500000  0.251925  0.580414  1
  B  B15  1  0.500000  0.248109  0.080877  1
  B  B16  1  0.500000  0.751297  0.919230  1
  B  B17  1  0.500000  0.790250  0.265849  1
  B  B18  1  0.500000  0.209296  0.733186  1
  B  B19  1  0.500000  0.290733  0.234202  1
  B  B20  1  0.500000  0.708353  0.765917  1
  B  B21  1  0.500000  0.630874  0.185299  1
  B  B22  1  0.500000  0.368407  0.814360  1
  B  B23  1  0.500000  0.131656  0.314869  1
  B  B24  1  0.500000  0.868888  0.685390  1
  B  B25  1  0.500000  0.983562  0.212498  1
  B  B26  1  0.500000  0.017803  0.787292  1
  B  B27  1  0.500000  0.483347  0.287980  1
  B  B28  1  0.500000  0.516610  0.712640  1
  B  B29  1  0.500000  0.605259  0.029966  1
  B  B30  1  0.500000  0.392671  0.970917  1
  B  B31  1  0.500000  0.107114  0.469891  1
  B  B32  1  0.500000  0.893788  0.528681  1
  Ru  Ru33  1  0.000000  0.637766  0.321084  1
  Ru  Ru34  1  0.000000  0.362363  0.678547  1
  Ru  Ru35  1  0.000000  0.138020  0.179471  1
