# generated using pymatgen
data_CsZnAs3F18
_symmetry_space_group_name_H-M   'P 1'
_cell_length_a   9.72328500
_cell_length_b   10.67050100
_cell_length_c   14.30829300
_cell_angle_alpha   90.00000000
_cell_angle_beta   90.00000000
_cell_angle_gamma   90.00000000
_symmetry_Int_Tables_number   1
_chemical_formula_structural   CsZnAs3F18
_chemical_formula_sum   'Cs4 Zn4 As12 F72'
_cell_volume   1484.51862712
_cell_formula_units_Z   4
loop_
 _symmetry_equiv_pos_site_id
 _symmetry_equiv_pos_as_xyz
  1  'x, y, z'
loop_
 _atom_site_type_symbol
 _atom_site_label
 _atom_site_symmetry_multiplicity
 _atom_site_fract_x
 _atom_site_fract_y
 _atom_site_fract_z
 _atom_site_occupancy
  Cs  Cs0  1  0.518888  0.926607  0.750000  1
  Cs  Cs1  1  0.981112  0.426607  0.750000  1
  Cs  Cs2  1  0.481112  0.073393  0.250000  1
  Cs  Cs3  1  0.018888  0.573393  0.250000  1
  Zn  Zn4  1  0.000000  0.000000  0.500000  1
  Zn  Zn5  1  0.500000  0.500000  0.000000  1
  Zn  Zn6  1  0.000000  0.000000  0.000000  1
  Zn  Zn7  1  0.500000  0.500000  0.500000  1
  As  As8  1  0.098803  0.011391  0.750000  1
  As  As9  1  0.401197  0.511391  0.750000  1
  As  As10  1  0.901197  0.988609  0.250000  1
  As  As11  1  0.598803  0.488609  0.250000  1
  As  As12  1  0.696267  0.204649  0.541828  1
  As  As13  1  0.803733  0.704649  0.958172  1
  As  As14  1  0.303733  0.795351  0.041828  1
  As  As15  1  0.196267  0.295351  0.458172  1
  As  As16  1  0.303733  0.795351  0.458172  1
  As  As17  1  0.196267  0.295351  0.041828  1
  As  As18  1  0.696267  0.204649  0.958172  1
  As  As19  1  0.803733  0.704649  0.541828  1
  F  F20  1  0.103757  0.014641  0.622502  1
  F  F21  1  0.396243  0.514641  0.877498  1
  F  F22  1  0.896243  0.985359  0.122502  1
  F  F23  1  0.603757  0.485359  0.377498  1
  F  F24  1  0.896243  0.985359  0.377498  1
  F  F25  1  0.603757  0.485359  0.122502  1
  F  F26  1  0.103757  0.014641  0.877498  1
  F  F27  1  0.396243  0.514641  0.622502  1
  F  F28  1  0.166008  0.859969  0.750000  1
  F  F29  1  0.333992  0.359969  0.750000  1
  F  F30  1  0.833992  0.140031  0.250000  1
  F  F31  1  0.666008  0.640031  0.250000  1
  F  F32  1  0.265101  0.074689  0.750000  1
  F  F33  1  0.234899  0.574689  0.750000  1
  F  F34  1  0.734899  0.925311  0.250000  1
  F  F35  1  0.765101  0.425311  0.250000  1
  F  F36  1  0.032375  0.164233  0.750000  1
  F  F37  1  0.467625  0.664233  0.750000  1
  F  F38  1  0.967625  0.835767  0.250000  1
  F  F39  1  0.532375  0.335767  0.250000  1
  F  F40  1  0.930763  0.953544  0.750000  1
  F  F41  1  0.569237  0.453544  0.750000  1
  F  F42  1  0.069237  0.046456  0.250000  1
  F  F43  1  0.430763  0.546456  0.250000  1
  F  F44  1  0.821911  0.077781  0.553559  1
  F  F45  1  0.678089  0.577781  0.946441  1
  F  F46  1  0.178089  0.922219  0.053559  1
  F  F47  1  0.321911  0.422219  0.446441  1
  F  F48  1  0.178089  0.922219  0.446441  1
  F  F49  1  0.321911  0.422219  0.053559  1
  F  F50  1  0.821911  0.077781  0.946441  1
  F  F51  1  0.678089  0.577781  0.553559  1
  F  F52  1  0.795563  0.284127  0.459727  1
  F  F53  1  0.704437  0.784127  0.040273  1
  F  F54  1  0.204437  0.715873  0.959727  1
  F  F55  1  0.295563  0.215873  0.540273  1
  F  F56  1  0.204437  0.715873  0.540273  1
  F  F57  1  0.295563  0.215873  0.959727  1
  F  F58  1  0.795563  0.284127  0.040273  1
  F  F59  1  0.704437  0.784127  0.459727  1
  F  F60  1  0.612472  0.123271  0.451997  1
  F  F61  1  0.887528  0.623271  0.048003  1
  F  F62  1  0.387528  0.876729  0.951997  1
  F  F63  1  0.112472  0.376729  0.548003  1
  F  F64  1  0.387528  0.876729  0.548003  1
  F  F65  1  0.112472  0.376729  0.951997  1
  F  F66  1  0.612472  0.123271  0.048003  1
  F  F67  1  0.887528  0.623271  0.451997  1
  F  F68  1  0.565259  0.327360  0.537848  1
  F  F69  1  0.934741  0.827360  0.962152  1
  F  F70  1  0.434741  0.672640  0.037848  1
  F  F71  1  0.065259  0.172640  0.462152  1
  F  F72  1  0.434741  0.672640  0.462152  1
  F  F73  1  0.065259  0.172640  0.037848  1
  F  F74  1  0.565259  0.327360  0.962152  1
  F  F75  1  0.934741  0.827360  0.537848  1
  F  F76  1  0.593842  0.127808  0.624435  1
  F  F77  1  0.906158  0.627808  0.875565  1
  F  F78  1  0.406158  0.872192  0.124435  1
  F  F79  1  0.093842  0.372192  0.375565  1
  F  F80  1  0.406158  0.872192  0.375565  1
  F  F81  1  0.093842  0.372192  0.124435  1
  F  F82  1  0.593842  0.127808  0.875565  1
  F  F83  1  0.906158  0.627808  0.624435  1
  F  F84  1  0.780063  0.285044  0.632291  1
  F  F85  1  0.719937  0.785044  0.867709  1
  F  F86  1  0.219937  0.714956  0.132291  1
  F  F87  1  0.280063  0.214956  0.367709  1
  F  F88  1  0.219937  0.714956  0.367709  1
  F  F89  1  0.280063  0.214956  0.132291  1
  F  F90  1  0.780063  0.285044  0.867709  1
  F  F91  1  0.719937  0.785044  0.632291  1
