# generated using pymatgen
data_U8Ta7Nb4Si16Ru
_symmetry_space_group_name_H-M   'P 1'
_cell_length_a   7.00378345
_cell_length_b   7.01362448
_cell_length_c   12.95162730
_cell_angle_alpha   89.91896177
_cell_angle_beta   90.05393130
_cell_angle_gamma   90.00853219
_symmetry_Int_Tables_number   1
_chemical_formula_structural   U8Ta7Nb4Si16Ru
_chemical_formula_sum   'U8 Ta7 Nb4 Si16 Ru1'
_cell_volume   636.20770726
_cell_formula_units_Z   1
loop_
 _symmetry_equiv_pos_site_id
 _symmetry_equiv_pos_as_xyz
  1  'x, y, z'
loop_
 _atom_site_type_symbol
 _atom_site_label
 _atom_site_symmetry_multiplicity
 _atom_site_fract_x
 _atom_site_fract_y
 _atom_site_fract_z
 _atom_site_occupancy
  U  U0  1  0.996656  0.334886  0.221440  1
  U  U1  1  0.008162  0.671235  0.717109  1
  U  U2  1  0.166474  0.498169  0.469107  1
  U  U3  1  0.503496  0.831475  0.033723  1
  U  U4  1  0.829887  0.506223  0.969333  1
  U  U5  1  0.495993  0.166207  0.528924  1
  U  U6  1  0.328437  0.993001  0.779634  1
  U  U7  1  0.670308  0.004020  0.279262  1
  Ta  Ta8  1  0.167575  0.166679  0.000946  1
  Ta  Ta9  1  0.830014  0.832766  0.500081  1
  Ta  Ta10  1  0.329253  0.665330  0.249617  1
  Ta  Ta11  1  0.667918  0.331384  0.749587  1
  Ta  Ta12  1  0.843620  0.001833  0.873846  1
  Ta  Ta13  1  0.496122  0.658275  0.623549  1
  Ta  Ta14  1  0.344301  0.499242  0.876063  1
  Nb  Nb15  1  0.495747  0.338630  0.125117  1
  Nb  Nb16  1  0.658354  0.498224  0.375646  1
  Nb  Nb17  1  0.998068  0.157818  0.627367  1
  Nb  Nb18  1  0.996563  0.839815  0.122734  1
  Si  Si19  1  0.291868  0.035177  0.188770  1
  Si  Si20  1  0.701776  0.959943  0.683903  1
  Si  Si21  1  0.459615  0.796510  0.432487  1
  Si  Si22  1  0.202712  0.537593  0.065079  1
  Si  Si23  1  0.538711  0.200765  0.934483  1
  Si  Si24  1  0.794734  0.460941  0.565445  1
  Si  Si25  1  0.040211  0.299192  0.816241  1
  Si  Si26  1  0.965658  0.716739  0.316379  1
  Si  Si27  1  0.370227  0.291243  0.317003  1
  Si  Si28  1  0.629421  0.706856  0.815474  1
  Si  Si29  1  0.203392  0.872705  0.561902  1
  Si  Si30  1  0.129297  0.793264  0.933789  1
  Si  Si31  1  0.793770  0.130321  0.066698  1
  Si  Si32  1  0.880256  0.199832  0.433869  1
  Si  Si33  1  0.294344  0.369938  0.683316  1
  Si  Si34  1  0.705634  0.624954  0.184941  1
  Ru  Ru35  1  0.171425  0.008815  0.377140  1
