# generated using pymatgen
data_Er2Zn3Ag4
_symmetry_space_group_name_H-M   'P 1'
_cell_length_a   5.27702654
_cell_length_b   5.27702616
_cell_length_c   13.94964300
_cell_angle_alpha   90.00000000
_cell_angle_beta   90.00000000
_cell_angle_gamma   119.30272839
_symmetry_Int_Tables_number   1
_chemical_formula_structural   Er2Zn3Ag4
_chemical_formula_sum   'Er4 Zn6 Ag8'
_cell_volume   338.75132075
_cell_formula_units_Z   2
loop_
 _symmetry_equiv_pos_site_id
 _symmetry_equiv_pos_as_xyz
  1  'x, y, z'
loop_
 _atom_site_type_symbol
 _atom_site_label
 _atom_site_symmetry_multiplicity
 _atom_site_fract_x
 _atom_site_fract_y
 _atom_site_fract_z
 _atom_site_occupancy
  Er  Er0  1  0.820653  0.820653  0.116881  1
  Er  Er1  1  0.179347  0.179347  0.883119  1
  Er  Er2  1  0.820653  0.820653  0.383119  1
  Er  Er3  1  0.179347  0.179347  0.616881  1
  Zn  Zn4  1  0.169296  0.674057  0.750000  1
  Zn  Zn5  1  0.674057  0.169296  0.750000  1
  Zn  Zn6  1  0.676141  0.676141  0.750000  1
  Zn  Zn7  1  0.325943  0.830704  0.250000  1
  Zn  Zn8  1  0.830704  0.325943  0.250000  1
  Zn  Zn9  1  0.323859  0.323859  0.250000  1
  Ag  Ag10  1  0.161824  0.487451  0.078563  1
  Ag  Ag11  1  0.512549  0.838176  0.921437  1
  Ag  Ag12  1  0.487451  0.161824  0.078563  1
  Ag  Ag13  1  0.838176  0.512549  0.578563  1
  Ag  Ag14  1  0.487451  0.161824  0.421437  1
  Ag  Ag15  1  0.838176  0.512549  0.921437  1
  Ag  Ag16  1  0.512549  0.838176  0.578563  1
  Ag  Ag17  1  0.161824  0.487451  0.421437  1
