# generated using pymatgen
data_TmV2(Ni10B3)2
_symmetry_space_group_name_H-M   'P 1'
_cell_length_a   7.46314957
_cell_length_b   7.46314939
_cell_length_c   7.46315000
_cell_angle_alpha   59.99999728
_cell_angle_beta   59.99999811
_cell_angle_gamma   60.00000303
_symmetry_Int_Tables_number   1
_chemical_formula_structural   TmV2(Ni10B3)2
_chemical_formula_sum   'Tm1 V2 Ni20 B6'
_cell_volume   293.93509854
_cell_formula_units_Z   1
loop_
 _symmetry_equiv_pos_site_id
 _symmetry_equiv_pos_as_xyz
  1  'x, y, z'
loop_
 _atom_site_type_symbol
 _atom_site_label
 _atom_site_symmetry_multiplicity
 _atom_site_fract_x
 _atom_site_fract_y
 _atom_site_fract_z
 _atom_site_occupancy
  Tm  Tm0  1  0.750000  0.750000  0.750000  1
  V  V1  1  0.000000  0.000000  0.000000  1
  V  V2  1  0.250000  0.250000  0.250000  1
  Ni  Ni3  1  0.608228  0.608228  0.175313  1
  Ni  Ni4  1  0.608228  0.175313  0.608228  1
  Ni  Ni5  1  0.175313  0.608228  0.608228  1
  Ni  Ni6  1  0.608228  0.608228  0.608228  1
  Ni  Ni7  1  0.377938  0.377938  0.866187  1
  Ni  Ni8  1  0.377938  0.866187  0.377938  1
  Ni  Ni9  1  0.866187  0.377938  0.377938  1
  Ni  Ni10  1  0.377938  0.377938  0.377938  1
  Ni  Ni11  1  0.002190  0.002190  0.337176  1
  Ni  Ni12  1  0.658445  0.002190  0.337176  1
  Ni  Ni13  1  0.002190  0.658445  0.337176  1
  Ni  Ni14  1  0.658445  0.337176  0.002190  1
  Ni  Ni15  1  0.002190  0.337176  0.002190  1
  Ni  Ni16  1  0.002190  0.337176  0.658445  1
  Ni  Ni17  1  0.337176  0.658445  0.002190  1
  Ni  Ni18  1  0.337176  0.002190  0.658445  1
  Ni  Ni19  1  0.337176  0.002190  0.002190  1
  Ni  Ni20  1  0.002190  0.002190  0.658445  1
  Ni  Ni21  1  0.002190  0.658445  0.002190  1
  Ni  Ni22  1  0.658445  0.002190  0.002190  1
  B  B23  1  0.731956  0.731956  0.268044  1
  B  B24  1  0.268044  0.731956  0.268044  1
  B  B25  1  0.731956  0.268044  0.268044  1
  B  B26  1  0.268044  0.268044  0.731956  1
  B  B27  1  0.731956  0.268044  0.731956  1
  B  B28  1  0.268044  0.731956  0.731956  1
