# generated using pymatgen
data_V8CoNiTe8
_symmetry_space_group_name_H-M   'P 1'
_cell_length_a   4.56003400
_cell_length_b   10.48785300
_cell_length_c   18.26678300
_cell_angle_alpha   90.00000000
_cell_angle_beta   90.00000000
_cell_angle_gamma   90.00000000
_symmetry_Int_Tables_number   1
_chemical_formula_structural   V8CoNiTe8
_chemical_formula_sum   'V16 Co2 Ni2 Te16'
_cell_volume   873.60828078
_cell_formula_units_Z   2
loop_
 _symmetry_equiv_pos_site_id
 _symmetry_equiv_pos_as_xyz
  1  'x, y, z'
loop_
 _atom_site_type_symbol
 _atom_site_label
 _atom_site_symmetry_multiplicity
 _atom_site_fract_x
 _atom_site_fract_y
 _atom_site_fract_z
 _atom_site_occupancy
  V  V0  1  0.498070  0.563158  0.386070  1
  V  V1  1  0.498070  0.436842  0.613930  1
  V  V2  1  0.501930  0.063158  0.113930  1
  V  V3  1  0.501930  0.936842  0.886070  1
  V  V4  1  0.499478  0.701009  0.535608  1
  V  V5  1  0.499478  0.298991  0.464392  1
  V  V6  1  0.500522  0.201009  0.964392  1
  V  V7  1  0.500522  0.798991  0.035608  1
  V  V8  1  0.000066  0.686424  0.443995  1
  V  V9  1  0.000066  0.313576  0.556005  1
  V  V10  1  0.999934  0.186424  0.056005  1
  V  V11  1  0.999934  0.813576  0.943995  1
  V  V12  1  0.002293  0.402917  0.394156  1
  V  V13  1  0.002293  0.597083  0.605844  1
  V  V14  1  0.997707  0.902917  0.105844  1
  V  V15  1  0.997707  0.097083  0.894156  1
  Co  Co16  1  0.250112  0.500000  0.500000  1
  Co  Co17  1  0.749888  0.000000  0.000000  1
  Ni  Ni18  1  0.750184  0.500000  0.500000  1
  Ni  Ni19  1  0.249816  0.000000  0.000000  1
  Te  Te20  1  0.000223  0.844953  0.562052  1
  Te  Te21  1  0.000223  0.155047  0.437948  1
  Te  Te22  1  0.999777  0.344953  0.937948  1
  Te  Te23  1  0.999777  0.655047  0.062052  1
  Te  Te24  1  0.500369  0.333808  0.317260  1
  Te  Te25  1  0.500369  0.666192  0.682740  1
  Te  Te26  1  0.499631  0.833808  0.182740  1
  Te  Te27  1  0.499631  0.166192  0.817260  1
  Te  Te28  1  0.499496  0.820804  0.403693  1
  Te  Te29  1  0.499496  0.179196  0.596307  1
  Te  Te30  1  0.500504  0.320804  0.096307  1
  Te  Te31  1  0.500504  0.679196  0.903693  1
  Te  Te32  1  0.999783  0.606894  0.302718  1
  Te  Te33  1  0.999783  0.393106  0.697282  1
  Te  Te34  1  0.000217  0.106894  0.197282  1
  Te  Te35  1  0.000217  0.893106  0.802718  1
