# generated using pymatgen
data_Ag4P10Pb
_symmetry_space_group_name_H-M   'P 1'
_cell_length_a   7.76796696
_cell_length_b   7.76796664
_cell_length_c   7.76796551
_cell_angle_alpha   59.48494613
_cell_angle_beta   59.48494209
_cell_angle_gamma   59.48494249
_symmetry_Int_Tables_number   1
_chemical_formula_structural   Ag4P10Pb
_chemical_formula_sum   'Ag4 P10 Pb1'
_cell_volume   327.55881325
_cell_formula_units_Z   1
loop_
 _symmetry_equiv_pos_site_id
 _symmetry_equiv_pos_as_xyz
  1  'x, y, z'
loop_
 _atom_site_type_symbol
 _atom_site_label
 _atom_site_symmetry_multiplicity
 _atom_site_fract_x
 _atom_site_fract_y
 _atom_site_fract_z
 _atom_site_occupancy
  Ag  Ag0  1  0.997754  0.997754  0.997754  1
  Ag  Ag1  1  0.894430  0.367828  0.367828  1
  Ag  Ag2  1  0.367828  0.894430  0.367828  1
  Ag  Ag3  1  0.367828  0.367828  0.894430  1
  P  P4  1  0.980037  0.517582  0.980037  1
  P  P5  1  0.980037  0.980037  0.517582  1
  P  P6  1  0.865107  0.865107  0.865107  1
  P  P7  1  0.867154  0.397943  0.867154  1
  P  P8  1  0.982599  0.516265  0.516265  1
  P  P9  1  0.517582  0.980037  0.980037  1
  P  P10  1  0.867154  0.867154  0.397943  1
  P  P11  1  0.397943  0.867154  0.867154  1
  P  P12  1  0.516265  0.516265  0.982599  1
  P  P13  1  0.516265  0.982599  0.516265  1
  Pb  Pb14  1  0.426715  0.426715  0.426715  1
