# generated using pymatgen
data_Mg4Zn5GaOs2
_symmetry_space_group_name_H-M   'P 1'
_cell_length_a   5.22849176
_cell_length_b   5.22849254
_cell_length_c   8.40079000
_cell_angle_alpha   89.15042088
_cell_angle_beta   90.84956828
_cell_angle_gamma   120.77514079
_symmetry_Int_Tables_number   1
_chemical_formula_structural   Mg4Zn5GaOs2
_chemical_formula_sum   'Mg4 Zn5 Ga1 Os2'
_cell_volume   197.28544133
_cell_formula_units_Z   1
loop_
 _symmetry_equiv_pos_site_id
 _symmetry_equiv_pos_as_xyz
  1  'x, y, z'
loop_
 _atom_site_type_symbol
 _atom_site_label
 _atom_site_symmetry_multiplicity
 _atom_site_fract_x
 _atom_site_fract_y
 _atom_site_fract_z
 _atom_site_occupancy
  Mg  Mg0  1  0.676504  0.323496  0.068120  1
  Mg  Mg1  1  0.323496  0.676504  0.931880  1
  Mg  Mg2  1  0.323632  0.676368  0.568046  1
  Mg  Mg3  1  0.676368  0.323632  0.431954  1
  Zn  Zn4  1  0.830594  0.645066  0.746534  1
  Zn  Zn5  1  0.169406  0.354934  0.253466  1
  Zn  Zn6  1  0.354934  0.169406  0.746534  1
  Zn  Zn7  1  0.645066  0.830594  0.253466  1
  Zn  Zn8  1  0.000000  0.000000  0.500000  1
  Ga  Ga9  1  0.000000  0.000000  0.000000  1
  Os  Os10  1  0.841457  0.158543  0.754479  1
  Os  Os11  1  0.158543  0.841457  0.245521  1
