# generated using pymatgen
data_SmMn(PRh)2
_symmetry_space_group_name_H-M   'P 1'
_cell_length_a   3.89060700
_cell_length_b   11.13922900
_cell_length_c   12.89291200
_cell_angle_alpha   90.00000000
_cell_angle_beta   90.00000000
_cell_angle_gamma   90.00000000
_symmetry_Int_Tables_number   1
_chemical_formula_structural   SmMn(PRh)2
_chemical_formula_sum   'Sm6 Mn6 P12 Rh12'
_cell_volume   558.75769164
_cell_formula_units_Z   6
loop_
 _symmetry_equiv_pos_site_id
 _symmetry_equiv_pos_as_xyz
  1  'x, y, z'
loop_
 _atom_site_type_symbol
 _atom_site_label
 _atom_site_symmetry_multiplicity
 _atom_site_fract_x
 _atom_site_fract_y
 _atom_site_fract_z
 _atom_site_occupancy
  Sm  Sm0  1  0.000000  0.500000  0.516534  1
  Sm  Sm1  1  0.500000  0.000000  0.483125  1
  Sm  Sm2  1  0.500000  0.820563  0.200573  1
  Sm  Sm3  1  0.500000  0.179437  0.200573  1
  Sm  Sm4  1  0.000000  0.678069  0.795390  1
  Sm  Sm5  1  0.000000  0.321931  0.795390  1
  Mn  Mn6  1  0.500000  0.500000  0.161247  1
  Mn  Mn7  1  0.000000  0.000000  0.845055  1
  Mn  Mn8  1  0.000000  0.500000  0.986756  1
  Mn  Mn9  1  0.500000  0.000000  0.008139  1
  Mn  Mn10  1  0.500000  0.344346  0.999502  1
  Mn  Mn11  1  0.500000  0.655654  0.999502  1
  P  P12  1  0.500000  0.500000  0.883518  1
  P  P13  1  0.000000  0.000000  0.109922  1
  P  P14  1  0.500000  0.500000  0.342749  1
  P  P15  1  0.000000  0.000000  0.659131  1
  P  P16  1  0.500000  0.311427  0.616928  1
  P  P17  1  0.500000  0.688573  0.616928  1
  P  P18  1  0.000000  0.186509  0.380697  1
  P  P19  1  0.000000  0.813491  0.380697  1
  P  P20  1  0.500000  0.843589  0.897088  1
  P  P21  1  0.500000  0.156411  0.897088  1
  P  P22  1  0.000000  0.646869  0.107011  1
  P  P23  1  0.000000  0.353131  0.107011  1
  Rh  Rh24  1  0.500000  0.500000  0.699474  1
  Rh  Rh25  1  0.000000  0.000000  0.295268  1
  Rh  Rh26  1  0.000000  0.173624  0.004128  1
  Rh  Rh27  1  0.000000  0.826376  0.004128  1
  Rh  Rh28  1  0.500000  0.291109  0.430875  1
  Rh  Rh29  1  0.500000  0.708891  0.430875  1
  Rh  Rh30  1  0.000000  0.204942  0.569721  1
  Rh  Rh31  1  0.000000  0.795058  0.569721  1
  Rh  Rh32  1  0.500000  0.874783  0.713912  1
  Rh  Rh33  1  0.500000  0.125217  0.713912  1
  Rh  Rh34  1  0.000000  0.624570  0.288715  1
  Rh  Rh35  1  0.000000  0.375430  0.288715  1
