# generated using pymatgen
data_Ca5Nd15(SnSb)8
_symmetry_space_group_name_H-M   'P 1'
_cell_length_a   8.30762162
_cell_length_b   8.36431814
_cell_length_c   15.99669066
_cell_angle_alpha   89.88478776
_cell_angle_beta   90.18472734
_cell_angle_gamma   90.09440859
_symmetry_Int_Tables_number   1
_chemical_formula_structural   Ca5Nd15(SnSb)8
_chemical_formula_sum   'Ca5 Nd15 Sn8 Sb8'
_cell_volume   1111.56196336
_cell_formula_units_Z   1
loop_
 _symmetry_equiv_pos_site_id
 _symmetry_equiv_pos_as_xyz
  1  'x, y, z'
loop_
 _atom_site_type_symbol
 _atom_site_label
 _atom_site_symmetry_multiplicity
 _atom_site_fract_x
 _atom_site_fract_y
 _atom_site_fract_z
 _atom_site_occupancy
  Ca  Ca0  1  0.035331  0.173292  0.396864  1
  Ca  Ca1  1  0.206947  0.498248  0.250341  1
  Ca  Ca2  1  0.710589  0.001091  0.250739  1
  Ca  Ca3  1  0.291592  0.999577  0.750087  1
  Ca  Ca4  1  0.791564  0.500461  0.750164  1
  Nd  Nd5  1  0.381264  0.835634  0.118918  1
  Nd  Nd6  1  0.118186  0.336778  0.618103  1
  Nd  Nd7  1  0.467463  0.677702  0.896487  1
  Nd  Nd8  1  0.880953  0.663952  0.119232  1
  Nd  Nd9  1  0.119821  0.335624  0.880708  1
  Nd  Nd10  1  0.466961  0.680288  0.603842  1
  Nd  Nd11  1  0.618482  0.164039  0.619441  1
  Nd  Nd12  1  0.881263  0.662574  0.381288  1
  Nd  Nd13  1  0.030336  0.179775  0.100008  1
  Nd  Nd14  1  0.968006  0.822878  0.896562  1
  Nd  Nd15  1  0.620357  0.163408  0.880532  1
  Nd  Nd16  1  0.532223  0.321665  0.103749  1
  Nd  Nd17  1  0.381134  0.837610  0.380064  1
  Nd  Nd18  1  0.966539  0.822601  0.603995  1
  Nd  Nd19  1  0.533294  0.322633  0.396164  1
  Sn  Sn20  1  0.666998  0.861056  0.750387  1
  Sn  Sn21  1  0.832235  0.361032  0.250238  1
  Sn  Sn22  1  0.579524  0.616097  0.250054  1
  Sn  Sn23  1  0.419073  0.383813  0.750027  1
  Sn  Sn24  1  0.166260  0.637976  0.750033  1
  Sn  Sn25  1  0.920116  0.116743  0.749805  1
  Sn  Sn26  1  0.333620  0.138450  0.248839  1
  Sn  Sn27  1  0.080697  0.883188  0.248269  1
  Sb  Sb28  1  0.774954  0.474992  0.545112  1
  Sb  Sb29  1  0.721172  0.969299  0.458021  1
  Sb  Sb30  1  0.224548  0.531403  0.457614  1
  Sb  Sb31  1  0.277988  0.028336  0.956723  1
  Sb  Sb32  1  0.777639  0.470484  0.957301  1
  Sb  Sb33  1  0.222355  0.528981  0.042769  1
  Sb  Sb34  1  0.279068  0.027820  0.544840  1
  Sb  Sb35  1  0.721448  0.970499  0.042681  1
