# generated using pymatgen
data_YbPa3(Co3Si5)2
_symmetry_space_group_name_H-M   'P 1'
_cell_length_a   7.80460224
_cell_length_b   7.83613849
_cell_length_c   5.59977700
_cell_angle_alpha   69.05923590
_cell_angle_beta   68.95786338
_cell_angle_gamma   89.59712566
_symmetry_Int_Tables_number   1
_chemical_formula_structural   YbPa3(Co3Si5)2
_chemical_formula_sum   'Yb1 Pa3 Co6 Si10'
_cell_volume   295.61771910
_cell_formula_units_Z   1
loop_
 _symmetry_equiv_pos_site_id
 _symmetry_equiv_pos_as_xyz
  1  'x, y, z'
loop_
 _atom_site_type_symbol
 _atom_site_label
 _atom_site_symmetry_multiplicity
 _atom_site_fract_x
 _atom_site_fract_y
 _atom_site_fract_z
 _atom_site_occupancy
  Yb  Yb0  1  0.602362  0.867107  0.265384  1
  Pa  Pa1  1  0.865174  0.602692  0.766313  1
  Pa  Pa2  1  0.402302  0.132363  0.732439  1
  Pa  Pa3  1  0.131833  0.398290  0.234759  1
  Co  Co4  1  0.238571  0.517694  0.622022  1
  Co  Co5  1  0.479003  0.751108  0.885008  1
  Co  Co6  1  0.759003  0.477961  0.381324  1
  Co  Co7  1  0.517471  0.250552  0.115889  1
  Co  Co8  1  0.003431  0.000844  0.743057  1
  Co  Co9  1  0.003365  0.000931  0.252690  1
  Si  Si10  1  0.044659  0.251611  0.851680  1
  Si  Si11  1  0.742303  0.953667  0.652201  1
  Si  Si12  1  0.951654  0.748788  0.150011  1
  Si  Si13  1  0.258570  0.045629  0.347799  1
  Si  Si14  1  0.233720  0.767529  0.750262  1
  Si  Si15  1  0.766452  0.229881  0.249154  1
  Si  Si16  1  0.499987  0.502946  0.744084  1
  Si  Si17  1  0.499897  0.502927  0.252940  1
  Si  Si18  1  0.766464  0.230053  0.754303  1
  Si  Si19  1  0.233778  0.767426  0.248682  1
