# generated using pymatgen
data_Tm4NbSn(B2Ru5)2
_symmetry_space_group_name_H-M   'P 1'
_cell_length_a   9.66538200
_cell_length_b   9.66538200
_cell_length_c   3.12193400
_cell_angle_alpha   90.00000000
_cell_angle_beta   90.00000000
_cell_angle_gamma   90.00000000
_symmetry_Int_Tables_number   1
_chemical_formula_structural   Tm4NbSn(B2Ru5)2
_chemical_formula_sum   'Tm4 Nb1 Sn1 B4 Ru10'
_cell_volume   291.64985425
_cell_formula_units_Z   1
loop_
 _symmetry_equiv_pos_site_id
 _symmetry_equiv_pos_as_xyz
  1  'x, y, z'
loop_
 _atom_site_type_symbol
 _atom_site_label
 _atom_site_symmetry_multiplicity
 _atom_site_fract_x
 _atom_site_fract_y
 _atom_site_fract_z
 _atom_site_occupancy
  Tm  Tm0  1  0.825438  0.674815  0.000000  1
  Tm  Tm1  1  0.174562  0.325185  0.000000  1
  Tm  Tm2  1  0.325185  0.825438  0.000000  1
  Tm  Tm3  1  0.674815  0.174562  0.000000  1
  Nb  Nb4  1  0.000000  0.000000  0.000000  1
  Sn  Sn5  1  0.500000  0.500000  0.000000  1
  B  B6  1  0.619865  0.879306  0.000000  1
  B  B7  1  0.380135  0.120694  0.000000  1
  B  B8  1  0.120694  0.619865  0.000000  1
  B  B9  1  0.879306  0.380135  0.000000  1
  Ru  Ru10  1  0.572522  0.722603  0.500000  1
  Ru  Ru11  1  0.427478  0.277397  0.500000  1
  Ru  Ru12  1  0.069600  0.781881  0.500000  1
  Ru  Ru13  1  0.930400  0.218119  0.500000  1
  Ru  Ru14  1  0.277397  0.572522  0.500000  1
  Ru  Ru15  1  0.722603  0.427478  0.500000  1
  Ru  Ru16  1  0.218119  0.069600  0.500000  1
  Ru  Ru17  1  0.781881  0.930400  0.500000  1
  Ru  Ru18  1  0.500000  0.000000  0.500000  1
  Ru  Ru19  1  0.000000  0.500000  0.500000  1
