# generated using pymatgen
data_Zn3Fe5(Mo3N)4
_symmetry_space_group_name_H-M   'P 1'
_cell_length_a   6.72710978
_cell_length_b   6.74037396
_cell_length_c   6.74982567
_cell_angle_alpha   89.99482906
_cell_angle_beta   89.73287727
_cell_angle_gamma   90.00864221
_symmetry_Int_Tables_number   1
_chemical_formula_structural   Zn3Fe5(Mo3N)4
_chemical_formula_sum   'Zn3 Fe5 Mo12 N4'
_cell_volume   306.05560468
_cell_formula_units_Z   1
loop_
 _symmetry_equiv_pos_site_id
 _symmetry_equiv_pos_as_xyz
  1  'x, y, z'
loop_
 _atom_site_type_symbol
 _atom_site_label
 _atom_site_symmetry_multiplicity
 _atom_site_fract_x
 _atom_site_fract_y
 _atom_site_fract_z
 _atom_site_occupancy
  Zn  Zn0  1  0.069486  0.064848  0.071605  1
  Zn  Zn1  1  0.319752  0.183723  0.819508  1
  Zn  Zn2  1  0.817593  0.319922  0.182332  1
  Fe  Fe3  1  0.186093  0.814886  0.325135  1
  Fe  Fe4  1  0.433175  0.924205  0.569560  1
  Fe  Fe5  1  0.573243  0.441058  0.923629  1
  Fe  Fe6  1  0.933423  0.576535  0.433199  1
  Fe  Fe7  1  0.683347  0.680618  0.680170  1
  Mo  Mo8  1  0.126587  0.202390  0.455193  1
  Mo  Mo9  1  0.381023  0.788655  0.950423  1
  Mo  Mo10  1  0.877018  0.701849  0.046090  1
  Mo  Mo11  1  0.203172  0.461654  0.127595  1
  Mo  Mo12  1  0.790305  0.944425  0.382106  1
  Mo  Mo13  1  0.045160  0.874136  0.695719  1
  Mo  Mo14  1  0.453107  0.121196  0.209862  1
  Mo  Mo15  1  0.297119  0.553408  0.622919  1
  Mo  Mo16  1  0.946545  0.382210  0.789907  1
  Mo  Mo17  1  0.546729  0.623472  0.296584  1
  Mo  Mo18  1  0.696755  0.040382  0.870482  1
  Mo  Mo19  1  0.623550  0.299655  0.548994  1
  N  N20  1  0.373921  0.375201  0.375918  1
  N  N21  1  0.626173  0.873679  0.125953  1
  N  N22  1  0.124173  0.626498  0.872183  1
  N  N23  1  0.872549  0.125397  0.624935  1
