# generated using pymatgen
data_CaZnCo(PO4)2
_symmetry_space_group_name_H-M   'P 1'
_cell_length_a   5.03810061
_cell_length_b   8.54552651
_cell_length_c   9.08664505
_cell_angle_alpha   113.30672109
_cell_angle_beta   102.44816136
_cell_angle_gamma   94.22430812
_symmetry_Int_Tables_number   1
_chemical_formula_structural   CaZnCo(PO4)2
_chemical_formula_sum   'Ca2 Zn2 Co2 P4 O16'
_cell_volume   345.28598171
_cell_formula_units_Z   2
loop_
 _symmetry_equiv_pos_site_id
 _symmetry_equiv_pos_as_xyz
  1  'x, y, z'
loop_
 _atom_site_type_symbol
 _atom_site_label
 _atom_site_symmetry_multiplicity
 _atom_site_fract_x
 _atom_site_fract_y
 _atom_site_fract_z
 _atom_site_occupancy
  Ca  Ca0  1  0.774096  0.268157  0.946932  1
  Ca  Ca1  1  0.225904  0.731843  0.053068  1
  Zn  Zn2  1  0.843795  0.082781  0.287816  1
  Zn  Zn3  1  0.156205  0.917219  0.712184  1
  Co  Co4  1  0.621584  0.390389  0.588085  1
  Co  Co5  1  0.378416  0.609611  0.411915  1
  P  P6  1  0.890489  0.719434  0.302589  1
  P  P7  1  0.109511  0.280566  0.697411  1
  P  P8  1  0.320809  0.208832  0.182337  1
  P  P9  1  0.679191  0.791168  0.817663  1
  O  O10  1  0.032728  0.437956  0.828900  1
  O  O11  1  0.967272  0.562044  0.171100  1
  O  O12  1  0.441879  0.052569  0.199821  1
  O  O13  1  0.558121  0.947431  0.800179  1
  O  O14  1  0.060189  0.729918  0.475798  1
  O  O15  1  0.939811  0.270082  0.524202  1
  O  O16  1  0.995830  0.117886  0.716202  1
  O  O17  1  0.004170  0.882114  0.283798  1
  O  O18  1  0.433078  0.367693  0.358434  1
  O  O19  1  0.566922  0.632307  0.641566  1
  O  O20  1  0.607833  0.742964  0.950162  1
  O  O21  1  0.392167  0.257036  0.049838  1
  O  O22  1  0.422172  0.291743  0.708379  1
  O  O23  1  0.577828  0.708257  0.291621  1
  O  O24  1  0.999705  0.829210  0.852164  1
  O  O25  1  0.000295  0.170790  0.147836  1
