# generated using pymatgen
data_Zr6AlGa5Pt6
_symmetry_space_group_name_H-M   'P 1'
_cell_length_a   7.18305900
_cell_length_b   7.20881518
_cell_length_c   7.19145690
_cell_angle_alpha   89.84316448
_cell_angle_beta   90.00000000
_cell_angle_gamma   119.88187596
_symmetry_Int_Tables_number   1
_chemical_formula_structural   Zr6AlGa5Pt6
_chemical_formula_sum   'Zr6 Al1 Ga5 Pt6'
_cell_volume   322.87497337
_cell_formula_units_Z   1
loop_
 _symmetry_equiv_pos_site_id
 _symmetry_equiv_pos_as_xyz
  1  'x, y, z'
loop_
 _atom_site_type_symbol
 _atom_site_label
 _atom_site_symmetry_multiplicity
 _atom_site_fract_x
 _atom_site_fract_y
 _atom_site_fract_z
 _atom_site_occupancy
  Zr  Zr0  1  0.387097  0.409567  0.749495  1
  Zr  Zr1  1  0.022114  0.612169  0.749306  1
  Zr  Zr2  1  0.592780  0.977560  0.749789  1
  Zr  Zr3  1  0.615220  0.022440  0.250211  1
  Zr  Zr4  1  0.977530  0.590433  0.250505  1
  Zr  Zr5  1  0.409945  0.387831  0.250694  1
  Al  Al6  1  0.259513  0.000000  0.000000  1
  Ga  Ga7  1  0.734813  0.732586  0.000052  1
  Ga  Ga8  1  0.002228  0.267414  0.999948  1
  Ga  Ga9  1  0.733070  0.732673  0.500119  1
  Ga  Ga10  1  0.268466  0.000000  0.500000  1
  Ga  Ga11  1  0.000397  0.267327  0.499881  1
  Pt  Pt12  1  0.659696  0.327079  0.968751  1
  Pt  Pt13  1  0.002654  0.999824  0.748820  1
  Pt  Pt14  1  0.666163  0.333293  0.532191  1
  Pt  Pt15  1  0.332869  0.666707  0.467809  1
  Pt  Pt16  1  0.332616  0.672921  0.031249  1
  Pt  Pt17  1  0.002830  0.000176  0.251180  1
