# generated using pymatgen
data_Rb4US5
_symmetry_space_group_name_H-M   'P 1'
_cell_length_a   7.98131314
_cell_length_b   8.02664587
_cell_length_c   11.83428081
_cell_angle_alpha   101.71864193
_cell_angle_beta   109.74970179
_cell_angle_gamma   102.42699016
_symmetry_Int_Tables_number   1
_chemical_formula_structural   Rb4US5
_chemical_formula_sum   'Rb8 U2 S10'
_cell_volume   664.71164826
_cell_formula_units_Z   2
loop_
 _symmetry_equiv_pos_site_id
 _symmetry_equiv_pos_as_xyz
  1  'x, y, z'
loop_
 _atom_site_type_symbol
 _atom_site_label
 _atom_site_symmetry_multiplicity
 _atom_site_fract_x
 _atom_site_fract_y
 _atom_site_fract_z
 _atom_site_occupancy
  Rb  Rb0  1  0.580402  0.794575  0.095738  1
  Rb  Rb1  1  0.205251  0.592041  0.701025  1
  Rb  Rb2  1  0.598727  0.296613  0.597836  1
  Rb  Rb3  1  0.401273  0.703387  0.402164  1
  Rb  Rb4  1  0.419598  0.205425  0.904262  1
  Rb  Rb5  1  0.000000  0.000000  0.500000  1
  Rb  Rb6  1  0.000000  0.500000  0.000000  1
  Rb  Rb7  1  0.794749  0.407959  0.298975  1
  U  U8  1  0.186732  0.098308  0.192353  1
  U  U9  1  0.813268  0.901692  0.807647  1
  S  S10  1  0.357308  0.377226  0.156989  1
  S  S11  1  0.642692  0.622774  0.843011  1
  S  S12  1  0.178045  0.296142  0.387823  1
  S  S13  1  0.821955  0.703858  0.612177  1
  S  S14  1  0.973579  0.177053  0.764074  1
  S  S15  1  0.026421  0.822947  0.235926  1
  S  S16  1  0.854087  0.104812  0.034784  1
  S  S17  1  0.145913  0.895188  0.965216  1
  S  S18  1  0.498953  0.940937  0.694146  1
  S  S19  1  0.501047  0.059063  0.305854  1
