# generated using pymatgen
data_Th2Zn17CdCu4
_symmetry_space_group_name_H-M   'P 1'
_cell_length_a   8.29381590
_cell_length_b   8.29381608
_cell_length_c   8.29381500
_cell_angle_alpha   99.54585690
_cell_angle_beta   99.54585710
_cell_angle_gamma   131.93799148
_symmetry_Int_Tables_number   1
_chemical_formula_structural   Th2Zn17CdCu4
_chemical_formula_sum   'Th2 Zn17 Cd1 Cu4'
_cell_volume   387.60095796
_cell_formula_units_Z   1
loop_
 _symmetry_equiv_pos_site_id
 _symmetry_equiv_pos_as_xyz
  1  'x, y, z'
loop_
 _atom_site_type_symbol
 _atom_site_label
 _atom_site_symmetry_multiplicity
 _atom_site_fract_x
 _atom_site_fract_y
 _atom_site_fract_z
 _atom_site_occupancy
  Th  Th0  1  0.000000  0.000000  0.000000  1
  Th  Th1  1  0.250000  0.750000  0.500000  1
  Zn  Zn2  1  0.500000  0.500000  0.000000  1
  Zn  Zn3  1  0.187423  0.513338  0.083210  1
  Zn  Zn4  1  0.187423  0.104214  0.674086  1
  Zn  Zn5  1  0.764197  0.934131  0.584764  1
  Zn  Zn6  1  0.764197  0.179433  0.830065  1
  Zn  Zn7  1  0.430129  0.513338  0.325914  1
  Zn  Zn8  1  0.430129  0.104214  0.916790  1
  Zn  Zn9  1  0.349367  0.934131  0.169935  1
  Zn  Zn10  1  0.349367  0.179433  0.415236  1
  Zn  Zn11  1  0.065869  0.235803  0.415236  1
  Zn  Zn12  1  0.065869  0.650633  0.830065  1
  Zn  Zn13  1  0.486662  0.812577  0.916790  1
  Zn  Zn14  1  0.486662  0.569871  0.674086  1
  Zn  Zn15  1  0.820567  0.235803  0.169935  1
  Zn  Zn16  1  0.820567  0.650633  0.584764  1
  Zn  Zn17  1  0.895786  0.812577  0.325914  1
  Zn  Zn18  1  0.895786  0.569871  0.083210  1
  Cd  Cd19  1  0.750000  0.250000  0.500000  1
  Cu  Cu20  1  0.128758  0.373833  0.754925  1
  Cu  Cu21  1  0.626167  0.871242  0.245075  1
  Cu  Cu22  1  0.626167  0.381092  0.754925  1
  Cu  Cu23  1  0.618908  0.373833  0.245075  1
