# generated using pymatgen
data_KBi(TeO4)2
_symmetry_space_group_name_H-M   'P 1'
_cell_length_a   7.85089337
_cell_length_b   7.85089408
_cell_length_c   7.41842902
_cell_angle_alpha   63.32066430
_cell_angle_beta   63.32065757
_cell_angle_gamma   91.94196656
_symmetry_Int_Tables_number   1
_chemical_formula_structural   KBi(TeO4)2
_chemical_formula_sum   'K2 Bi2 Te4 O16'
_cell_volume   348.82589148
_cell_formula_units_Z   2
loop_
 _symmetry_equiv_pos_site_id
 _symmetry_equiv_pos_as_xyz
  1  'x, y, z'
loop_
 _atom_site_type_symbol
 _atom_site_label
 _atom_site_symmetry_multiplicity
 _atom_site_fract_x
 _atom_site_fract_y
 _atom_site_fract_z
 _atom_site_occupancy
  K  K0  1  0.713776  0.286224  0.250000  1
  K  K1  1  0.286224  0.713776  0.750000  1
  Bi  Bi2  1  0.699396  0.300604  0.750000  1
  Bi  Bi3  1  0.300604  0.699396  0.250000  1
  Te  Te4  1  0.181763  0.199246  0.803208  1
  Te  Te5  1  0.199246  0.181763  0.303208  1
  Te  Te6  1  0.800754  0.818237  0.696792  1
  Te  Te7  1  0.818237  0.800754  0.196792  1
  O  O8  1  0.460267  0.281909  0.671250  1
  O  O9  1  0.718091  0.539733  0.828750  1
  O  O10  1  0.539733  0.718091  0.328750  1
  O  O11  1  0.281909  0.460267  0.171250  1
  O  O12  1  0.135249  0.441100  0.640493  1
  O  O13  1  0.558900  0.864751  0.859507  1
  O  O14  1  0.864751  0.558900  0.359507  1
  O  O15  1  0.441100  0.135249  0.140493  1
  O  O16  1  0.123469  0.253752  0.059603  1
  O  O17  1  0.746248  0.876531  0.440397  1
  O  O18  1  0.876531  0.746248  0.940397  1
  O  O19  1  0.253752  0.123469  0.559603  1
  O  O20  1  0.088224  0.874590  0.471922  1
  O  O21  1  0.125410  0.911776  0.028078  1
  O  O22  1  0.911776  0.125410  0.528078  1
  O  O23  1  0.874590  0.088224  0.971922  1
