# generated using pymatgen
data_Zr6MnFe14Si7Tc
_symmetry_space_group_name_H-M   'P 1'
_cell_length_a   8.14766158
_cell_length_b   8.13316884
_cell_length_c   8.16232115
_cell_angle_alpha   59.90110147
_cell_angle_beta   60.05939887
_cell_angle_gamma   59.94103354
_symmetry_Int_Tables_number   1
_chemical_formula_structural   Zr6MnFe14Si7Tc
_chemical_formula_sum   'Zr6 Mn1 Fe14 Si7 Tc1'
_cell_volume   382.17852794
_cell_formula_units_Z   1
loop_
 _symmetry_equiv_pos_site_id
 _symmetry_equiv_pos_as_xyz
  1  'x, y, z'
loop_
 _atom_site_type_symbol
 _atom_site_label
 _atom_site_symmetry_multiplicity
 _atom_site_fract_x
 _atom_site_fract_y
 _atom_site_fract_z
 _atom_site_occupancy
  Zr  Zr0  1  0.703206  0.704001  0.294514  1
  Zr  Zr1  1  0.298278  0.704001  0.294514  1
  Zr  Zr2  1  0.698624  0.302120  0.300632  1
  Zr  Zr3  1  0.295688  0.293174  0.706511  1
  Zr  Zr4  1  0.704627  0.293174  0.706511  1
  Zr  Zr5  1  0.291573  0.707945  0.708907  1
  Mn  Mn6  1  0.876757  0.364043  0.882444  1
  Fe  Fe7  1  0.369813  0.876479  0.878479  1
  Fe  Fe8  1  0.875231  0.876479  0.878479  1
  Fe  Fe9  1  0.121106  0.126250  0.631538  1
  Fe  Fe10  1  0.122906  0.631554  0.122631  1
  Fe  Fe11  1  0.635535  0.125088  0.119192  1
  Fe  Fe12  1  0.120183  0.125088  0.119192  1
  Fe  Fe13  1  0.676499  0.674557  0.972445  1
  Fe  Fe14  1  0.674690  0.971585  0.679036  1
  Fe  Fe15  1  0.972046  0.672872  0.679408  1
  Fe  Fe16  1  0.675674  0.672872  0.679408  1
  Fe  Fe17  1  0.324139  0.322535  0.029189  1
  Fe  Fe18  1  0.324936  0.027644  0.322483  1
  Fe  Fe19  1  0.029082  0.323591  0.322667  1
  Fe  Fe20  1  0.324658  0.323591  0.322667  1
  Si  Si21  1  0.012685  0.992931  0.981700  1
  Si  Si22  1  0.001260  0.000896  0.504084  1
  Si  Si23  1  0.493762  0.000896  0.504084  1
  Si  Si24  1  0.001770  0.497130  0.499331  1
  Si  Si25  1  0.495411  0.502672  0.001555  1
  Si  Si26  1  0.000361  0.502672  0.001555  1
  Si  Si27  1  0.499929  0.999392  0.000749  1
  Tc  Tc28  1  0.879570  0.884766  0.356094  1
