# generated using pymatgen
data_Rb2Sm10Rh2Br17
_symmetry_space_group_name_H-M   'P 1'
_cell_length_a   9.47364390
_cell_length_b   11.08795157
_cell_length_c   11.08816900
_cell_angle_alpha   107.71190722
_cell_angle_beta   93.72011452
_cell_angle_gamma   93.72594695
_symmetry_Int_Tables_number   1
_chemical_formula_structural   Rb2Sm10Rh2Br17
_chemical_formula_sum   'Rb2 Sm10 Rh2 Br17'
_cell_volume   1102.78311148
_cell_formula_units_Z   1
loop_
 _symmetry_equiv_pos_site_id
 _symmetry_equiv_pos_as_xyz
  1  'x, y, z'
loop_
 _atom_site_type_symbol
 _atom_site_label
 _atom_site_symmetry_multiplicity
 _atom_site_fract_x
 _atom_site_fract_y
 _atom_site_fract_z
 _atom_site_occupancy
  Rb  Rb0  1  0.999294  0.803048  0.195390  1
  Rb  Rb1  1  0.999289  0.195484  0.802912  1
  Sm  Sm2  1  0.432047  0.166395  0.166350  1
  Sm  Sm3  1  0.572266  0.513318  0.200811  1
  Sm  Sm4  1  0.826079  0.290883  0.290902  1
  Sm  Sm5  1  0.308765  0.436385  0.436411  1
  Sm  Sm6  1  0.428118  0.799516  0.486697  1
  Sm  Sm7  1  0.572253  0.200748  0.513297  1
  Sm  Sm8  1  0.691331  0.563849  0.563874  1
  Sm  Sm9  1  0.174035  0.709175  0.709161  1
  Sm  Sm10  1  0.428100  0.486689  0.799456  1
  Sm  Sm11  1  0.568120  0.833547  0.833533  1
  Rh  Rh12  1  0.567922  0.358796  0.358793  1
  Rh  Rh13  1  0.432108  0.640915  0.640912  1
  Br  Br14  1  0.584883  0.684959  0.020077  1
  Br  Br15  1  0.704098  0.067623  0.067615  1
  Br  Br16  1  0.854546  0.450537  0.120899  1
  Br  Br17  1  0.129151  0.212134  0.212085  1
  Br  Br18  1  0.283208  0.607173  0.254509  1
  Br  Br19  1  0.415120  0.979468  0.315212  1
  Br  Br20  1  0.717110  0.746549  0.393560  1
  Br  Br21  1  0.854658  0.120918  0.450525  1
  Br  Br22  1  0.999857  0.500529  0.500631  1
  Br  Br23  1  0.145471  0.879502  0.549206  1
  Br  Br24  1  0.283073  0.254512  0.607213  1
  Br  Br25  1  0.584884  0.020096  0.684958  1
  Br  Br26  1  0.717070  0.393362  0.746464  1
  Br  Br27  1  0.871053  0.787829  0.787854  1
  Br  Br28  1  0.145463  0.549073  0.879449  1
  Br  Br29  1  0.295674  0.931856  0.931842  1
  Br  Br30  1  0.414962  0.315128  0.979403  1
