# generated using pymatgen
data_EuTaIrF12
_symmetry_space_group_name_H-M   'P 1'
_cell_length_a   5.45977360
_cell_length_b   5.97730254
_cell_length_c   9.32978520
_cell_angle_alpha   104.88749375
_cell_angle_beta   90.58251675
_cell_angle_gamma   118.12933285
_symmetry_Int_Tables_number   1
_chemical_formula_structural   EuTaIrF12
_chemical_formula_sum   'Eu1 Ta1 Ir1 F12'
_cell_volume   256.40097714
_cell_formula_units_Z   1
loop_
 _symmetry_equiv_pos_site_id
 _symmetry_equiv_pos_as_xyz
  1  'x, y, z'
loop_
 _atom_site_type_symbol
 _atom_site_label
 _atom_site_symmetry_multiplicity
 _atom_site_fract_x
 _atom_site_fract_y
 _atom_site_fract_z
 _atom_site_occupancy
  Eu  Eu0  1  0.006303  0.006013  0.010348  1
  Ta  Ta1  1  0.223974  0.484521  0.723051  1
  Ir  Ir2  1  0.771466  0.508164  0.263751  1
  F  F3  1  0.833568  0.268556  0.712740  1
  F  F4  1  0.166437  0.730230  0.291899  1
  F  F5  1  0.201067  0.727520  0.915036  1
  F  F6  1  0.723173  0.722551  0.437264  1
  F  F7  1  0.280972  0.271820  0.559593  1
  F  F8  1  0.800273  0.290973  0.373732  1
  F  F9  1  0.201263  0.717728  0.630623  1
  F  F10  1  0.359496  0.273546  0.207642  1
  F  F11  1  0.632397  0.719984  0.795850  1
  F  F12  1  0.739798  0.722580  0.139285  1
  F  F13  1  0.258510  0.286225  0.859294  1
  F  F14  1  0.801304  0.269588  0.079893  1
