# generated using pymatgen
data_Zr6Co5Sn6Au
_symmetry_space_group_name_H-M   'P 1'
_cell_length_a   7.16615900
_cell_length_b   7.16615984
_cell_length_c   7.42130700
_cell_angle_alpha   90.00000000
_cell_angle_beta   90.00000000
_cell_angle_gamma   119.99999151
_symmetry_Int_Tables_number   1
_chemical_formula_structural   Zr6Co5Sn6Au
_chemical_formula_sum   'Zr6 Co5 Sn6 Au1'
_cell_volume   330.05323752
_cell_formula_units_Z   1
loop_
 _symmetry_equiv_pos_site_id
 _symmetry_equiv_pos_as_xyz
  1  'x, y, z'
loop_
 _atom_site_type_symbol
 _atom_site_label
 _atom_site_symmetry_multiplicity
 _atom_site_fract_x
 _atom_site_fract_y
 _atom_site_fract_z
 _atom_site_occupancy
  Zr  Zr0  1  0.001867  0.397274  0.756242  1
  Zr  Zr1  1  0.602726  0.604594  0.756242  1
  Zr  Zr2  1  0.395406  0.998133  0.756242  1
  Zr  Zr3  1  0.969282  0.381551  0.239256  1
  Zr  Zr4  1  0.618449  0.587730  0.239256  1
  Zr  Zr5  1  0.412270  0.030718  0.239256  1
  Co  Co6  1  0.666667  0.333333  0.541359  1
  Co  Co7  1  0.333333  0.666667  0.039141  1
  Co  Co8  1  0.000000  0.000000  0.753788  1
  Co  Co9  1  0.000000  0.000000  0.249041  1
  Co  Co10  1  0.666667  0.333333  0.965192  1
  Sn  Sn11  1  0.265017  0.253270  0.502913  1
  Sn  Sn12  1  0.988253  0.734983  0.502913  1
  Sn  Sn13  1  0.008943  0.739221  0.999877  1
  Sn  Sn14  1  0.746730  0.011747  0.502913  1
  Sn  Sn15  1  0.730278  0.991057  0.999877  1
  Sn  Sn16  1  0.260779  0.269722  0.999877  1
  Au  Au17  1  0.333333  0.666667  0.456615  1
