# generated using pymatgen
data_Sr3DyCoO6
_symmetry_space_group_name_H-M   'P 1'
_cell_length_a   6.77811495
_cell_length_b   6.77638391
_cell_length_c   6.77678945
_cell_angle_alpha   92.53247959
_cell_angle_beta   92.55418025
_cell_angle_gamma   92.54552747
_symmetry_Int_Tables_number   1
_chemical_formula_structural   Sr3DyCoO6
_chemical_formula_sum   'Sr6 Dy2 Co2 O12'
_cell_volume   310.31686336
_cell_formula_units_Z   2
loop_
 _symmetry_equiv_pos_site_id
 _symmetry_equiv_pos_as_xyz
  1  'x, y, z'
loop_
 _atom_site_type_symbol
 _atom_site_label
 _atom_site_symmetry_multiplicity
 _atom_site_fract_x
 _atom_site_fract_y
 _atom_site_fract_z
 _atom_site_occupancy
  Sr  Sr0  1  0.881990  0.249714  0.617927  1
  Sr  Sr1  1  0.249812  0.618893  0.881033  1
  Sr  Sr2  1  0.618191  0.881694  0.250288  1
  Sr  Sr3  1  0.750217  0.381271  0.118498  1
  Sr  Sr4  1  0.381849  0.118462  0.749581  1
  Sr  Sr5  1  0.118019  0.750448  0.381583  1
  Dy  Dy6  1  0.749787  0.749264  0.750885  1
  Dy  Dy7  1  0.250245  0.250748  0.249125  1
  Co  Co8  1  0.999754  0.000192  0.000086  1
  Co  Co9  1  0.500200  0.499708  0.500121  1
  O  O10  1  0.219160  0.413635  0.544496  1
  O  O11  1  0.414358  0.545882  0.218732  1
  O  O12  1  0.545161  0.218506  0.413192  1
  O  O13  1  0.913936  0.719070  0.046097  1
  O  O14  1  0.718171  0.044347  0.914580  1
  O  O15  1  0.044375  0.913625  0.718839  1
  O  O16  1  0.781680  0.585920  0.455812  1
  O  O17  1  0.586210  0.453805  0.781228  1
  O  O18  1  0.454734  0.780737  0.586963  1
  O  O19  1  0.085615  0.281628  0.954123  1
  O  O20  1  0.281157  0.955482  0.085615  1
  O  O21  1  0.955379  0.086970  0.281196  1
