# generated using pymatgen
data_Ti10BeAlSn6
_symmetry_space_group_name_H-M   'P 1'
_cell_length_a   8.21523800
_cell_length_b   8.21523680
_cell_length_c   5.52199100
_cell_angle_alpha   90.00000000
_cell_angle_beta   90.00000000
_cell_angle_gamma   119.99999677
_symmetry_Int_Tables_number   1
_chemical_formula_structural   Ti10BeAlSn6
_chemical_formula_sum   'Ti10 Be1 Al1 Sn6'
_cell_volume   322.75024185
_cell_formula_units_Z   1
loop_
 _symmetry_equiv_pos_site_id
 _symmetry_equiv_pos_as_xyz
  1  'x, y, z'
loop_
 _atom_site_type_symbol
 _atom_site_label
 _atom_site_symmetry_multiplicity
 _atom_site_fract_x
 _atom_site_fract_y
 _atom_site_fract_z
 _atom_site_occupancy
  Ti  Ti0  1  0.000000  0.262439  0.235694  1
  Ti  Ti1  1  0.737561  0.000000  0.764306  1
  Ti  Ti2  1  0.737561  0.737561  0.235694  1
  Ti  Ti3  1  0.666667  0.333333  0.500000  1
  Ti  Ti4  1  0.000000  0.737561  0.764306  1
  Ti  Ti5  1  0.262439  0.262439  0.764306  1
  Ti  Ti6  1  0.333333  0.666667  0.000000  1
  Ti  Ti7  1  0.666667  0.333333  0.000000  1
  Ti  Ti8  1  0.333333  0.666667  0.500000  1
  Ti  Ti9  1  0.262439  0.000000  0.235694  1
  Be  Be10  1  0.000000  0.000000  0.000000  1
  Al  Al11  1  0.000000  0.000000  0.500000  1
  Sn  Sn12  1  0.613775  0.000000  0.254051  1
  Sn  Sn13  1  0.386225  0.000000  0.745949  1
  Sn  Sn14  1  0.386225  0.386225  0.254051  1
  Sn  Sn15  1  0.000000  0.613775  0.254051  1
  Sn  Sn16  1  0.000000  0.386225  0.745949  1
  Sn  Sn17  1  0.613775  0.613775  0.745949  1
