# generated using pymatgen
data_MgGa(FeRh2)2
_symmetry_space_group_name_H-M   'P 1'
_cell_length_a   4.30722300
_cell_length_b   6.06367400
_cell_length_c   12.90411300
_cell_angle_alpha   90.00000000
_cell_angle_beta   90.00087855
_cell_angle_gamma   90.00000000
_symmetry_Int_Tables_number   1
_chemical_formula_structural   MgGa(FeRh2)2
_chemical_formula_sum   'Mg3 Ga3 Fe6 Rh12'
_cell_volume   337.02441157
_cell_formula_units_Z   3
loop_
 _symmetry_equiv_pos_site_id
 _symmetry_equiv_pos_as_xyz
  1  'x, y, z'
loop_
 _atom_site_type_symbol
 _atom_site_label
 _atom_site_symmetry_multiplicity
 _atom_site_fract_x
 _atom_site_fract_y
 _atom_site_fract_z
 _atom_site_occupancy
  Mg  Mg0  1  0.999997  0.000000  0.999741  1
  Mg  Mg1  1  0.499787  0.500000  0.166655  1
  Mg  Mg2  1  0.999806  0.000000  0.333612  1
  Ga  Ga3  1  0.500009  0.500000  0.500175  1
  Ga  Ga4  1  0.000205  0.000000  0.666658  1
  Ga  Ga5  1  0.500209  0.500000  0.833170  1
  Fe  Fe6  1  0.999986  0.500000  0.001881  1
  Fe  Fe7  1  0.499823  0.000000  0.166671  1
  Fe  Fe8  1  0.999836  0.500000  0.331442  1
  Fe  Fe9  1  0.499989  0.000000  0.498283  1
  Fe  Fe10  1  0.000182  0.500000  0.666672  1
  Fe  Fe11  1  0.500169  0.000000  0.835036  1
  Rh  Rh12  1  0.500002  0.252456  0.996749  1
  Rh  Rh13  1  0.500002  0.747544  0.996749  1
  Rh  Rh14  1  0.999823  0.250625  0.166669  1
  Rh  Rh15  1  0.999823  0.749376  0.166669  1
  Rh  Rh16  1  0.499837  0.252469  0.336581  1
  Rh  Rh17  1  0.499837  0.747529  0.336581  1
  Rh  Rh18  1  0.000006  0.252603  0.503350  1
  Rh  Rh19  1  0.000006  0.747397  0.503350  1
  Rh  Rh20  1  0.500166  0.250117  0.666667  1
  Rh  Rh21  1  0.500166  0.749881  0.666667  1
  Rh  Rh22  1  0.000172  0.252588  0.829986  1
  Rh  Rh23  1  0.000172  0.747413  0.829986  1
