# generated using pymatgen
data_Ba5GeSb2
_symmetry_space_group_name_H-M   'P 1'
_cell_length_a   9.07170400
_cell_length_b   10.51285000
_cell_length_c   14.18558200
_cell_angle_alpha   90.00000000
_cell_angle_beta   90.00000000
_cell_angle_gamma   90.00000000
_symmetry_Int_Tables_number   1
_chemical_formula_structural   Ba5GeSb2
_chemical_formula_sum   'Ba20 Ge4 Sb8'
_cell_volume   1352.87134331
_cell_formula_units_Z   4
loop_
 _symmetry_equiv_pos_site_id
 _symmetry_equiv_pos_as_xyz
  1  'x, y, z'
loop_
 _atom_site_type_symbol
 _atom_site_label
 _atom_site_symmetry_multiplicity
 _atom_site_fract_x
 _atom_site_fract_y
 _atom_site_fract_z
 _atom_site_occupancy
  Ba  Ba0  1  0.054841  0.750000  0.500750  1
  Ba  Ba1  1  0.945159  0.250000  0.499250  1
  Ba  Ba2  1  0.554841  0.250000  0.999250  1
  Ba  Ba3  1  0.445159  0.750000  0.000750  1
  Ba  Ba4  1  0.854072  0.750000  0.798962  1
  Ba  Ba5  1  0.145928  0.250000  0.201038  1
  Ba  Ba6  1  0.354072  0.250000  0.701038  1
  Ba  Ba7  1  0.645928  0.750000  0.298962  1
  Ba  Ba8  1  0.683492  0.528364  0.575899  1
  Ba  Ba9  1  0.316508  0.471636  0.424101  1
  Ba  Ba10  1  0.183492  0.471636  0.924101  1
  Ba  Ba11  1  0.316508  0.028364  0.424101  1
  Ba  Ba12  1  0.816508  0.528364  0.075899  1
  Ba  Ba13  1  0.683492  0.971636  0.575899  1
  Ba  Ba14  1  0.816508  0.971636  0.075899  1
  Ba  Ba15  1  0.183492  0.028364  0.924101  1
  Ba  Ba16  1  0.329147  0.750000  0.716061  1
  Ba  Ba17  1  0.670853  0.250000  0.283939  1
  Ba  Ba18  1  0.829147  0.250000  0.783939  1
  Ba  Ba19  1  0.170853  0.750000  0.216061  1
  Ge  Ge20  1  0.063759  0.750000  0.987061  1
  Ge  Ge21  1  0.936241  0.250000  0.012939  1
  Ge  Ge22  1  0.563759  0.250000  0.512939  1
  Ge  Ge23  1  0.436241  0.750000  0.487061  1
  Sb  Sb24  1  0.561683  0.505960  0.831065  1
  Sb  Sb25  1  0.438317  0.494040  0.168935  1
  Sb  Sb26  1  0.061683  0.494040  0.668935  1
  Sb  Sb27  1  0.438317  0.005960  0.168935  1
  Sb  Sb28  1  0.938317  0.505960  0.331065  1
  Sb  Sb29  1  0.561683  0.994040  0.831065  1
  Sb  Sb30  1  0.938317  0.994040  0.331065  1
  Sb  Sb31  1  0.061683  0.005960  0.668935  1
