# generated using pymatgen
data_CePrFe3Co9P7
_symmetry_space_group_name_H-M   'P 1'
_cell_length_a   9.06243500
_cell_length_b   9.06243531
_cell_length_c   3.67120800
_cell_angle_alpha   90.00000000
_cell_angle_beta   90.00000000
_cell_angle_gamma   120.00000252
_symmetry_Int_Tables_number   1
_chemical_formula_structural   CePrFe3Co9P7
_chemical_formula_sum   'Ce1 Pr1 Fe3 Co9 P7'
_cell_volume   261.11356598
_cell_formula_units_Z   1
loop_
 _symmetry_equiv_pos_site_id
 _symmetry_equiv_pos_as_xyz
  1  'x, y, z'
loop_
 _atom_site_type_symbol
 _atom_site_label
 _atom_site_symmetry_multiplicity
 _atom_site_fract_x
 _atom_site_fract_y
 _atom_site_fract_z
 _atom_site_occupancy
  Ce  Ce0  1  0.666667  0.333333  0.500000  1
  Pr  Pr1  1  0.333333  0.666667  0.000000  1
  Fe  Fe2  1  0.214589  0.120494  0.500000  1
  Fe  Fe3  1  0.879506  0.094096  0.500000  1
  Fe  Fe4  1  0.905904  0.785411  0.500000  1
  Co  Co5  1  0.432191  0.368757  0.000000  1
  Co  Co6  1  0.631243  0.063434  0.000000  1
  Co  Co7  1  0.936566  0.567809  0.000000  1
  Co  Co8  1  0.153302  0.881265  0.000000  1
  Co  Co9  1  0.118735  0.272037  0.000000  1
  Co  Co10  1  0.727963  0.846698  0.000000  1
  Co  Co11  1  0.384011  0.954261  0.500000  1
  Co  Co12  1  0.045739  0.429752  0.500000  1
  Co  Co13  1  0.570248  0.615989  0.500000  1
  P  P14  1  0.405121  0.107236  0.000000  1
  P  P15  1  0.892764  0.297885  0.000000  1
  P  P16  1  0.702115  0.594879  0.000000  1
  P  P17  1  0.105679  0.709510  0.500000  1
  P  P18  1  0.290490  0.396169  0.500000  1
  P  P19  1  0.603831  0.894321  0.500000  1
  P  P20  1  0.000000  0.000000  0.000000  1
