# generated using pymatgen
data_Er2Tm3IrRu
_symmetry_space_group_name_H-M   'P 1'
_cell_length_a   6.34819600
_cell_length_b   7.22344609
_cell_length_c   8.36063784
_cell_angle_alpha   96.75675207
_cell_angle_beta   112.31188391
_cell_angle_gamma   90.00000391
_symmetry_Int_Tables_number   1
_chemical_formula_structural   Er2Tm3IrRu
_chemical_formula_sum   'Er4 Tm6 Ir2 Ru2'
_cell_volume   351.80062921
_cell_formula_units_Z   2
loop_
 _symmetry_equiv_pos_site_id
 _symmetry_equiv_pos_as_xyz
  1  'x, y, z'
loop_
 _atom_site_type_symbol
 _atom_site_label
 _atom_site_symmetry_multiplicity
 _atom_site_fract_x
 _atom_site_fract_y
 _atom_site_fract_z
 _atom_site_occupancy
  Er  Er0  1  0.792249  0.081703  0.814760  1
  Er  Er1  1  0.977488  0.418297  0.185240  1
  Er  Er2  1  0.209460  0.915706  0.183778  1
  Er  Er3  1  0.025683  0.584294  0.816222  1
  Tm  Tm4  1  0.207849  0.182172  0.563350  1
  Tm  Tm5  1  0.644500  0.317828  0.436650  1
  Tm  Tm6  1  0.790603  0.815203  0.437961  1
  Tm  Tm7  1  0.352641  0.684797  0.562039  1
  Tm  Tm8  1  0.423479  0.250000  0.000000  1
  Tm  Tm9  1  0.576532  0.750000  0.000000  1
  Ir  Ir10  1  0.603964  0.423359  0.778790  1
  Ir  Ir11  1  0.825172  0.076641  0.221210  1
  Ru  Ru12  1  0.394925  0.574990  0.219471  1
  Ru  Ru13  1  0.175455  0.925010  0.780529  1
