# generated using pymatgen
data_Ho4MoI4
_symmetry_space_group_name_H-M   'P 1'
_cell_length_a   11.31838913
_cell_length_b   11.31839010
_cell_length_c   5.97496419
_cell_angle_alpha   90.39715819
_cell_angle_beta   90.39715365
_cell_angle_gamma   89.98959659
_symmetry_Int_Tables_number   1
_chemical_formula_structural   Ho4MoI4
_chemical_formula_sum   'Ho8 Mo2 I8'
_cell_volume   765.39164072
_cell_formula_units_Z   2
loop_
 _symmetry_equiv_pos_site_id
 _symmetry_equiv_pos_as_xyz
  1  'x, y, z'
loop_
 _atom_site_type_symbol
 _atom_site_label
 _atom_site_symmetry_multiplicity
 _atom_site_fract_x
 _atom_site_fract_y
 _atom_site_fract_z
 _atom_site_occupancy
  Ho  Ho0  1  0.205740  0.915669  0.002908  1
  Ho  Ho1  1  0.794260  0.084331  0.997092  1
  Ho  Ho2  1  0.084331  0.794260  0.497092  1
  Ho  Ho3  1  0.915669  0.205740  0.502908  1
  Ho  Ho4  1  0.794341  0.915664  0.496317  1
  Ho  Ho5  1  0.205659  0.084336  0.503683  1
  Ho  Ho6  1  0.084336  0.205659  0.003683  1
  Ho  Ho7  1  0.915664  0.794341  0.996317  1
  Mo  Mo8  1  0.999709  0.000291  0.250000  1
  Mo  Mo9  1  0.000291  0.999709  0.750000  1
  I  I10  1  0.360237  0.848049  0.494535  1
  I  I11  1  0.639763  0.151951  0.505465  1
  I  I12  1  0.151951  0.639763  0.005465  1
  I  I13  1  0.848049  0.360237  0.994535  1
  I  I14  1  0.360022  0.152276  0.014004  1
  I  I15  1  0.639978  0.847724  0.985996  1
  I  I16  1  0.847724  0.639978  0.485996  1
  I  I17  1  0.152276  0.360022  0.514004  1
