# generated using pymatgen
data_Y2Zn3Ag4
_symmetry_space_group_name_H-M   'P 1'
_cell_length_a   5.32881656
_cell_length_b   5.32881530
_cell_length_c   14.04513900
_cell_angle_alpha   90.00000000
_cell_angle_beta   90.00000000
_cell_angle_gamma   119.95881089
_symmetry_Int_Tables_number   1
_chemical_formula_structural   Y2Zn3Ag4
_chemical_formula_sum   'Y4 Zn6 Ag8'
_cell_volume   345.53990894
_cell_formula_units_Z   2
loop_
 _symmetry_equiv_pos_site_id
 _symmetry_equiv_pos_as_xyz
  1  'x, y, z'
loop_
 _atom_site_type_symbol
 _atom_site_label
 _atom_site_symmetry_multiplicity
 _atom_site_fract_x
 _atom_site_fract_y
 _atom_site_fract_z
 _atom_site_occupancy
  Y  Y0  1  0.812318  0.812318  0.121050  1
  Y  Y1  1  0.187682  0.187682  0.878950  1
  Y  Y2  1  0.812318  0.812318  0.378950  1
  Y  Y3  1  0.187682  0.187682  0.621050  1
  Zn  Zn4  1  0.182950  0.686949  0.750000  1
  Zn  Zn5  1  0.686949  0.182950  0.750000  1
  Zn  Zn6  1  0.686526  0.686526  0.750000  1
  Zn  Zn7  1  0.313051  0.817050  0.250000  1
  Zn  Zn8  1  0.817050  0.313051  0.250000  1
  Zn  Zn9  1  0.313474  0.313474  0.250000  1
  Ag  Ag10  1  0.154973  0.475247  0.076898  1
  Ag  Ag11  1  0.524753  0.845027  0.923102  1
  Ag  Ag12  1  0.475247  0.154973  0.076898  1
  Ag  Ag13  1  0.845027  0.524753  0.576898  1
  Ag  Ag14  1  0.475247  0.154973  0.423102  1
  Ag  Ag15  1  0.845027  0.524753  0.923102  1
  Ag  Ag16  1  0.524753  0.845027  0.576898  1
  Ag  Ag17  1  0.154973  0.475247  0.423102  1
