# generated using pymatgen
data_Ho7Er13Sn3Pb13
_symmetry_space_group_name_H-M   'P 1'
_cell_length_a   8.14912074
_cell_length_b   15.51992104
_cell_length_c   8.19315044
_cell_angle_alpha   90.00343811
_cell_angle_beta   89.89737968
_cell_angle_gamma   90.00693531
_symmetry_Int_Tables_number   1
_chemical_formula_structural   Ho7Er13Sn3Pb13
_chemical_formula_sum   'Ho7 Er13 Sn3 Pb13'
_cell_volume   1036.21646480
_cell_formula_units_Z   1
loop_
 _symmetry_equiv_pos_site_id
 _symmetry_equiv_pos_as_xyz
  1  'x, y, z'
loop_
 _atom_site_type_symbol
 _atom_site_label
 _atom_site_symmetry_multiplicity
 _atom_site_fract_x
 _atom_site_fract_y
 _atom_site_fract_z
 _atom_site_occupancy
  Ho  Ho0  1  0.963113  0.898450  0.827726  1
  Ho  Ho1  1  0.537104  0.100773  0.327419  1
  Ho  Ho2  1  0.036744  0.400149  0.175902  1
  Ho  Ho3  1  0.537105  0.399236  0.327425  1
  Ho  Ho4  1  0.036733  0.099849  0.175907  1
  Ho  Ho5  1  0.462686  0.898460  0.672619  1
  Ho  Ho6  1  0.963112  0.601550  0.827722  1
  Er  Er7  1  0.620756  0.623190  0.161461  1
  Er  Er8  1  0.121533  0.876979  0.338291  1
  Er  Er9  1  0.381116  0.122265  0.838081  1
  Er  Er10  1  0.876692  0.378814  0.659345  1
  Er  Er11  1  0.381126  0.377765  0.838081  1
  Er  Er12  1  0.876669  0.121205  0.659339  1
  Er  Er13  1  0.620756  0.876792  0.161461  1
  Er  Er14  1  0.121548  0.623009  0.338324  1
  Er  Er15  1  0.462643  0.601552  0.672582  1
  Er  Er16  1  0.788791  0.749969  0.492652  1
  Er  Er17  1  0.288496  0.749985  0.007317  1
  Er  Er18  1  0.212170  0.250008  0.505614  1
  Er  Er19  1  0.709068  0.250014  0.993372  1
  Sn  Sn20  1  0.425090  0.749995  0.376107  1
  Sn  Sn21  1  0.925259  0.750001  0.124617  1
  Sn  Sn22  1  0.575230  0.250004  0.623872  1
  Pb  Pb23  1  0.717909  0.458313  0.967886  1
  Pb  Pb24  1  0.218223  0.041657  0.532891  1
  Pb  Pb25  1  0.282608  0.957895  0.031898  1
  Pb  Pb26  1  0.781864  0.542366  0.466478  1
  Pb  Pb27  1  0.282642  0.542116  0.031856  1
  Pb  Pb28  1  0.781930  0.957644  0.466427  1
  Pb  Pb29  1  0.717914  0.041677  0.967889  1
  Pb  Pb30  1  0.218259  0.458382  0.532930  1
  Pb  Pb31  1  0.073328  0.249997  0.875328  1
  Pb  Pb32  1  0.652015  0.749956  0.847365  1
  Pb  Pb33  1  0.152263  0.749986  0.652797  1
  Pb  Pb34  1  0.349397  0.250004  0.153789  1
  Pb  Pb35  1  0.848114  0.249994  0.347229  1
