# generated using pymatgen
data_NaSr17CaIn8N7
_symmetry_space_group_name_H-M   'P 1'
_cell_length_a   11.01918180
_cell_length_b   11.13428922
_cell_length_c   11.01918259
_cell_angle_alpha   59.65383723
_cell_angle_beta   60.69231684
_cell_angle_gamma   59.65384003
_symmetry_Int_Tables_number   1
_chemical_formula_structural   NaSr17CaIn8N7
_chemical_formula_sum   'Na1 Sr17 Ca1 In8 N7'
_cell_volume   955.76344133
_cell_formula_units_Z   1
loop_
 _symmetry_equiv_pos_site_id
 _symmetry_equiv_pos_as_xyz
  1  'x, y, z'
loop_
 _atom_site_type_symbol
 _atom_site_label
 _atom_site_symmetry_multiplicity
 _atom_site_fract_x
 _atom_site_fract_y
 _atom_site_fract_z
 _atom_site_occupancy
  Na  Na0  1  0.167799  0.832201  0.167799  1
  Sr  Sr1  1  0.825468  0.501496  0.171541  1
  Sr  Sr2  1  0.827048  0.498557  0.501443  1
  Sr  Sr3  1  0.841756  0.158244  0.172219  1
  Sr  Sr4  1  0.827048  0.172952  0.501443  1
  Sr  Sr5  1  0.834637  0.165363  0.834637  1
  Sr  Sr6  1  0.171541  0.501496  0.825468  1
  Sr  Sr7  1  0.501443  0.498557  0.827048  1
  Sr  Sr8  1  0.172219  0.158244  0.841756  1
  Sr  Sr9  1  0.493214  0.506786  0.170847  1
  Sr  Sr10  1  0.498504  0.174532  0.498504  1
  Sr  Sr11  1  0.498504  0.828459  0.498504  1
  Sr  Sr12  1  0.170847  0.829153  0.493214  1
  Sr  Sr13  1  0.170847  0.506786  0.493214  1
  Sr  Sr14  1  0.172219  0.827781  0.841756  1
  Sr  Sr15  1  0.501443  0.172952  0.827048  1
  Sr  Sr16  1  0.493214  0.829153  0.170847  1
  Sr  Sr17  1  0.841756  0.827781  0.172219  1
  Ca  Ca18  1  0.498238  0.501762  0.498238  1
  In  In19  1  0.178780  0.178708  0.463801  1
  In  In20  1  0.818228  0.822534  0.536705  1
  In  In21  1  0.821292  0.536199  0.821292  1
  In  In22  1  0.177466  0.463295  0.177466  1
  In  In23  1  0.177466  0.181772  0.177466  1
  In  In24  1  0.463801  0.178708  0.178780  1
  In  In25  1  0.821292  0.821220  0.821292  1
  In  In26  1  0.536705  0.822534  0.818228  1
  N  N27  1  0.326885  0.327507  0.672493  1
  N  N28  1  0.672493  0.673115  0.326885  1
  N  N29  1  0.670175  0.329825  0.670175  1
  N  N30  1  0.332440  0.667560  0.332440  1
  N  N31  1  0.672493  0.327507  0.326885  1
  N  N32  1  0.326885  0.673115  0.672493  1
  N  N33  1  0.995856  0.004144  0.995856  1
