# generated using pymatgen
data_Nd6Cd(SiS7)2
_symmetry_space_group_name_H-M   'P 1'
_cell_length_a   10.27719800
_cell_length_b   10.27719666
_cell_length_c   5.72487700
_cell_angle_alpha   90.00000000
_cell_angle_beta   90.00000000
_cell_angle_gamma   120.00000431
_symmetry_Int_Tables_number   1
_chemical_formula_structural   Nd6Cd(SiS7)2
_chemical_formula_sum   'Nd6 Cd1 Si2 S14'
_cell_volume   523.65609622
_cell_formula_units_Z   1
loop_
 _symmetry_equiv_pos_site_id
 _symmetry_equiv_pos_as_xyz
  1  'x, y, z'
loop_
 _atom_site_type_symbol
 _atom_site_label
 _atom_site_symmetry_multiplicity
 _atom_site_fract_x
 _atom_site_fract_y
 _atom_site_fract_z
 _atom_site_occupancy
  Nd  Nd0  1  0.876663  0.234824  0.248747  1
  Nd  Nd1  1  0.765176  0.641840  0.248747  1
  Nd  Nd2  1  0.358160  0.123337  0.248747  1
  Nd  Nd3  1  0.123529  0.765366  0.751335  1
  Nd  Nd4  1  0.234634  0.358163  0.751335  1
  Nd  Nd5  1  0.641837  0.876471  0.751335  1
  Cd  Cd6  1  0.000000  0.000000  0.489820  1
  Si  Si7  1  0.666667  0.333333  0.835292  1
  Si  Si8  1  0.333333  0.666667  0.339365  1
  S  S9  1  0.666667  0.333333  0.466904  1
  S  S10  1  0.333333  0.666667  0.970363  1
  S  S11  1  0.911659  0.168082  0.731292  1
  S  S12  1  0.831918  0.743577  0.731292  1
  S  S13  1  0.256423  0.088341  0.731292  1
  S  S14  1  0.086141  0.830227  0.240944  1
  S  S15  1  0.169773  0.255915  0.240944  1
  S  S16  1  0.744085  0.913859  0.240944  1
  S  S17  1  0.591099  0.114076  0.981429  1
  S  S18  1  0.885924  0.477024  0.981429  1
  S  S19  1  0.522976  0.408901  0.981429  1
  S  S20  1  0.409139  0.886100  0.484223  1
  S  S21  1  0.113900  0.523039  0.484223  1
  S  S22  1  0.476961  0.590861  0.484223  1
