# generated using pymatgen
data_NdDyTmTe4
_symmetry_space_group_name_H-M   'P 1'
_cell_length_a   4.38904200
_cell_length_b   7.57821358
_cell_length_c   7.66682800
_cell_angle_alpha   71.71989839
_cell_angle_beta   90.00000000
_cell_angle_gamma   90.00000000
_symmetry_Int_Tables_number   1
_chemical_formula_structural   NdDyTmTe4
_chemical_formula_sum   'Nd1 Dy1 Tm1 Te4'
_cell_volume   242.13804533
_cell_formula_units_Z   1
loop_
 _symmetry_equiv_pos_site_id
 _symmetry_equiv_pos_as_xyz
  1  'x, y, z'
loop_
 _atom_site_type_symbol
 _atom_site_label
 _atom_site_symmetry_multiplicity
 _atom_site_fract_x
 _atom_site_fract_y
 _atom_site_fract_z
 _atom_site_occupancy
  Nd  Nd0  1  0.000000  0.500000  0.500000  1
  Dy  Dy1  1  0.000000  0.000000  0.000000  1
  Tm  Tm2  1  0.500000  0.500000  0.000000  1
  Te  Te3  1  0.500000  0.759826  0.245448  1
  Te  Te4  1  0.000000  0.254524  0.238373  1
  Te  Te5  1  0.500000  0.240174  0.754552  1
  Te  Te6  1  0.000000  0.745476  0.761627  1
