# generated using pymatgen
data_Na12Ge5P3Pt8
_symmetry_space_group_name_H-M   'P 1'
_cell_length_a   5.92453046
_cell_length_b   7.71276052
_cell_length_c   13.02152600
_cell_angle_alpha   90.00000000
_cell_angle_beta   90.00000000
_cell_angle_gamma   89.60491118
_symmetry_Int_Tables_number   1
_chemical_formula_structural   Na12Ge5P3Pt8
_chemical_formula_sum   'Na12 Ge5 P3 Pt8'
_cell_volume   594.99777370
_cell_formula_units_Z   1
loop_
 _symmetry_equiv_pos_site_id
 _symmetry_equiv_pos_as_xyz
  1  'x, y, z'
loop_
 _atom_site_type_symbol
 _atom_site_label
 _atom_site_symmetry_multiplicity
 _atom_site_fract_x
 _atom_site_fract_y
 _atom_site_fract_z
 _atom_site_occupancy
  Na  Na0  1  0.653198  0.220697  0.250000  1
  Na  Na1  1  0.351895  0.778177  0.750000  1
  Na  Na2  1  0.347766  0.719501  0.250000  1
  Na  Na3  1  0.652364  0.282769  0.750000  1
  Na  Na4  1  0.125476  0.387646  0.105173  1
  Na  Na5  1  0.870065  0.612914  0.897290  1
  Na  Na6  1  0.870065  0.612914  0.602710  1
  Na  Na7  1  0.875231  0.888045  0.394244  1
  Na  Na8  1  0.125476  0.387646  0.394827  1
  Na  Na9  1  0.122869  0.109147  0.602365  1
  Na  Na10  1  0.122869  0.109147  0.897635  1
  Na  Na11  1  0.875231  0.888045  0.105756  1
  Ge  Ge12  1  0.161083  0.419113  0.750000  1
  Ge  Ge13  1  0.580179  0.250114  0.000539  1
  Ge  Ge14  1  0.421658  0.751399  0.000158  1
  Ge  Ge15  1  0.421658  0.751399  0.499842  1
  Ge  Ge16  1  0.580179  0.250114  0.499461  1
  P  P17  1  0.176236  0.074657  0.250000  1
  P  P18  1  0.826164  0.929348  0.750000  1
  P  P19  1  0.833526  0.568819  0.250000  1
  Pt  Pt20  1  0.367120  0.023909  0.098385  1
  Pt  Pt21  1  0.633098  0.976316  0.902087  1
  Pt  Pt22  1  0.633098  0.976316  0.597913  1
  Pt  Pt23  1  0.637037  0.525747  0.400145  1
  Pt  Pt24  1  0.367120  0.023909  0.401615  1
  Pt  Pt25  1  0.366151  0.478224  0.592516  1
  Pt  Pt26  1  0.366151  0.478224  0.907484  1
  Pt  Pt27  1  0.637037  0.525747  0.099855  1
