# generated using pymatgen
data_La2Tb3Ta2BiO14
_symmetry_space_group_name_H-M   'P 1'
_cell_length_a   6.59097479
_cell_length_b   6.64627373
_cell_length_c   7.66206100
_cell_angle_alpha   90.00000000
_cell_angle_beta   90.00000000
_cell_angle_gamma   110.21942967
_symmetry_Int_Tables_number   1
_chemical_formula_structural   La2Tb3Ta2BiO14
_chemical_formula_sum   'La2 Tb3 Ta2 Bi1 O14'
_cell_volume   314.95630989
_cell_formula_units_Z   1
loop_
 _symmetry_equiv_pos_site_id
 _symmetry_equiv_pos_as_xyz
  1  'x, y, z'
loop_
 _atom_site_type_symbol
 _atom_site_label
 _atom_site_symmetry_multiplicity
 _atom_site_fract_x
 _atom_site_fract_y
 _atom_site_fract_z
 _atom_site_occupancy
  La  La0  1  0.992776  0.001432  0.003095  1
  La  La1  1  0.992776  0.001432  0.496905  1
  Tb  Tb2  1  0.511548  0.055702  0.250000  1
  Tb  Tb3  1  0.950614  0.492652  0.750000  1
  Tb  Tb4  1  0.052412  0.518384  0.250000  1
  Ta  Ta5  1  0.505550  0.504898  0.001655  1
  Ta  Ta6  1  0.505550  0.504898  0.498345  1
  Bi  Bi7  1  0.475386  0.967519  0.750000  1
  O  O8  1  0.838420  0.132135  0.750000  1
  O  O9  1  0.153983  0.880924  0.250000  1
  O  O10  1  0.094118  0.850480  0.750000  1
  O  O11  1  0.878464  0.165360  0.250000  1
  O  O12  1  0.434800  0.174100  0.971270  1
  O  O13  1  0.567909  0.809262  0.452579  1
  O  O14  1  0.190379  0.447425  0.531975  1
  O  O15  1  0.821908  0.555731  0.033170  1
  O  O16  1  0.438046  0.411362  0.250000  1
  O  O17  1  0.580365  0.539786  0.750000  1
  O  O18  1  0.190379  0.447425  0.968025  1
  O  O19  1  0.821908  0.555731  0.466830  1
  O  O20  1  0.434800  0.174100  0.528730  1
  O  O21  1  0.567909  0.809262  0.047421  1
