# generated using pymatgen
data_Yb(ThPd4)3
_symmetry_space_group_name_H-M   'P 1'
_cell_length_a   5.91626100
_cell_length_b   5.91626047
_cell_length_c   9.68366800
_cell_angle_alpha   90.00000000
_cell_angle_beta   90.00000000
_cell_angle_gamma   119.99999736
_symmetry_Int_Tables_number   1
_chemical_formula_structural   Yb(ThPd4)3
_chemical_formula_sum   'Yb1 Th3 Pd12'
_cell_volume   293.53855081
_cell_formula_units_Z   1
loop_
 _symmetry_equiv_pos_site_id
 _symmetry_equiv_pos_as_xyz
  1  'x, y, z'
loop_
 _atom_site_type_symbol
 _atom_site_label
 _atom_site_symmetry_multiplicity
 _atom_site_fract_x
 _atom_site_fract_y
 _atom_site_fract_z
 _atom_site_occupancy
  Yb  Yb0  1  0.333333  0.666667  0.250000  1
  Th  Th1  1  0.000000  0.000000  0.492627  1
  Th  Th2  1  0.000000  0.000000  0.007373  1
  Th  Th3  1  0.666667  0.333333  0.750000  1
  Pd  Pd4  1  0.499544  0.500456  0.498760  1
  Pd  Pd5  1  0.499544  0.999089  0.498760  1
  Pd  Pd6  1  0.000911  0.500456  0.498760  1
  Pd  Pd7  1  0.499544  0.500456  0.001240  1
  Pd  Pd8  1  0.499544  0.999089  0.001240  1
  Pd  Pd9  1  0.000911  0.500456  0.001240  1
  Pd  Pd10  1  0.824569  0.649138  0.250000  1
  Pd  Pd11  1  0.350862  0.175431  0.250000  1
  Pd  Pd12  1  0.824569  0.175431  0.250000  1
  Pd  Pd13  1  0.173683  0.347366  0.750000  1
  Pd  Pd14  1  0.652634  0.826317  0.750000  1
  Pd  Pd15  1  0.173683  0.826317  0.750000  1
