# generated using pymatgen
data_Lu5Tc6P12Ir13
_symmetry_space_group_name_H-M   'P 1'
_cell_length_a   12.62021700
_cell_length_b   12.62021716
_cell_length_c   3.96708300
_cell_angle_alpha   90.00000000
_cell_angle_beta   90.00000000
_cell_angle_gamma   119.99999695
_symmetry_Int_Tables_number   1
_chemical_formula_structural   Lu5Tc6P12Ir13
_chemical_formula_sum   'Lu5 Tc6 P12 Ir13'
_cell_volume   547.18676273
_cell_formula_units_Z   1
loop_
 _symmetry_equiv_pos_site_id
 _symmetry_equiv_pos_as_xyz
  1  'x, y, z'
loop_
 _atom_site_type_symbol
 _atom_site_label
 _atom_site_symmetry_multiplicity
 _atom_site_fract_x
 _atom_site_fract_y
 _atom_site_fract_z
 _atom_site_occupancy
  Lu  Lu0  1  0.333333  0.666667  0.500000  1
  Lu  Lu1  1  0.666667  0.333333  0.500000  1
  Lu  Lu2  1  0.000115  0.812297  0.000000  1
  Lu  Lu3  1  0.187703  0.187817  0.000000  1
  Lu  Lu4  1  0.812183  0.999885  0.000000  1
  Tc  Tc5  1  0.989923  0.446578  0.500000  1
  Tc  Tc6  1  0.553422  0.543345  0.500000  1
  Tc  Tc7  1  0.456655  0.010077  0.500000  1
  Tc  Tc8  1  0.620801  0.800024  0.500000  1
  Tc  Tc9  1  0.199976  0.820776  0.500000  1
  Tc  Tc10  1  0.179224  0.379199  0.500000  1
  P  P11  1  0.007136  0.639584  0.500000  1
  P  P12  1  0.360416  0.367553  0.500000  1
  P  P13  1  0.632447  0.992864  0.500000  1
  P  P14  1  0.520707  0.693726  0.000000  1
  P  P15  1  0.306274  0.826980  0.000000  1
  P  P16  1  0.173020  0.479293  0.000000  1
  P  P17  1  0.482777  0.168261  0.000000  1
  P  P18  1  0.685485  0.517223  0.000000  1
  P  P19  1  0.831739  0.314515  0.000000  1
  P  P20  1  0.004211  0.181949  0.500000  1
  P  P21  1  0.818051  0.822261  0.500000  1
  P  P22  1  0.177739  0.995789  0.500000  1
  Ir  Ir23  1  0.505635  0.873158  0.000000  1
  Ir  Ir24  1  0.126842  0.632478  0.000000  1
  Ir  Ir25  1  0.367522  0.494365  0.000000  1
  Ir  Ir26  1  0.494678  0.357294  0.000000  1
  Ir  Ir27  1  0.862617  0.505322  0.000000  1
  Ir  Ir28  1  0.642706  0.137383  0.000000  1
  Ir  Ir29  1  0.994775  0.280390  0.000000  1
  Ir  Ir30  1  0.719610  0.714386  0.000000  1
  Ir  Ir31  1  0.285614  0.005225  0.000000  1
  Ir  Ir32  1  0.372507  0.185448  0.500000  1
  Ir  Ir33  1  0.812941  0.627493  0.500000  1
  Ir  Ir34  1  0.814552  0.187059  0.500000  1
  Ir  Ir35  1  0.000000  0.000000  0.500000  1
