# generated using pymatgen
data_BaNp3(NiAs)4
_symmetry_space_group_name_H-M   'P 1'
_cell_length_a   4.13051000
_cell_length_b   4.13050999
_cell_length_c   16.08818000
_cell_angle_alpha   90.00000000
_cell_angle_beta   90.00000000
_cell_angle_gamma   120.00001611
_symmetry_Int_Tables_number   1
_chemical_formula_structural   BaNp3(NiAs)4
_chemical_formula_sum   'Ba1 Np3 Ni4 As4'
_cell_volume   237.70856621
_cell_formula_units_Z   1
loop_
 _symmetry_equiv_pos_site_id
 _symmetry_equiv_pos_as_xyz
  1  'x, y, z'
loop_
 _atom_site_type_symbol
 _atom_site_label
 _atom_site_symmetry_multiplicity
 _atom_site_fract_x
 _atom_site_fract_y
 _atom_site_fract_z
 _atom_site_occupancy
  Ba  Ba0  1  0.000000  0.000000  0.000000  1
  Np  Np1  1  0.000000  0.000000  0.262795  1
  Np  Np2  1  0.000000  0.000000  0.737205  1
  Np  Np3  1  0.000000  0.000000  0.500000  1
  Ni  Ni4  1  0.333333  0.666667  0.168430  1
  Ni  Ni5  1  0.666667  0.333333  0.831570  1
  Ni  Ni6  1  0.666667  0.333333  0.632877  1
  Ni  Ni7  1  0.333333  0.666667  0.367123  1
  As  As8  1  0.333333  0.666667  0.611799  1
  As  As9  1  0.666667  0.333333  0.388201  1
  As  As10  1  0.666667  0.333333  0.146191  1
  As  As11  1  0.333333  0.666667  0.853809  1
