# generated using pymatgen
data_Yb2Ho2Al15(SiIr2)3
_symmetry_space_group_name_H-M   'P 1'
_cell_length_a   7.53343349
_cell_length_b   7.52810725
_cell_length_c   9.35346744
_cell_angle_alpha   89.96463164
_cell_angle_beta   89.92963783
_cell_angle_gamma   119.74121677
_symmetry_Int_Tables_number   1
_chemical_formula_structural   Yb2Ho2Al15(SiIr2)3
_chemical_formula_sum   'Yb2 Ho2 Al15 Si3 Ir6'
_cell_volume   460.58296066
_cell_formula_units_Z   1
loop_
 _symmetry_equiv_pos_site_id
 _symmetry_equiv_pos_as_xyz
  1  'x, y, z'
loop_
 _atom_site_type_symbol
 _atom_site_label
 _atom_site_symmetry_multiplicity
 _atom_site_fract_x
 _atom_site_fract_y
 _atom_site_fract_z
 _atom_site_occupancy
  Yb  Yb0  1  0.994544  0.668119  0.247902  1
  Yb  Yb1  1  0.004663  0.325856  0.753735  1
  Ho  Ho2  1  0.681138  0.003322  0.247346  1
  Ho  Ho3  1  0.324103  0.003679  0.749800  1
  Al  Al4  1  0.997162  0.667187  0.923146  1
  Al  Al5  1  0.998705  0.663530  0.574480  1
  Al  Al6  1  0.334718  0.998824  0.423226  1
  Al  Al7  1  0.002200  0.337299  0.429286  1
  Al  Al8  1  0.664715  0.999855  0.576411  1
  Al  Al9  1  0.660369  0.995017  0.921447  1
  Al  Al10  1  0.334481  0.999151  0.076813  1
  Al  Al11  1  0.335676  0.335699  0.557412  1
  Al  Al12  1  0.665602  0.665471  0.442943  1
  Al  Al13  1  0.664977  0.665204  0.058362  1
  Al  Al14  1  0.337895  0.335480  0.942657  1
  Al  Al15  1  0.334428  0.547108  0.250130  1
  Al  Al16  1  0.664739  0.451034  0.750443  1
  Al  Al17  1  0.545440  0.334793  0.249970  1
  Al  Al18  1  0.450867  0.663659  0.749568  1
  Si  Si19  1  0.131526  0.128432  0.250593  1
  Si  Si20  1  0.871147  0.871669  0.749967  1
  Si  Si21  1  0.002287  0.338555  0.073303  1
  Ir  Ir22  1  0.676973  0.327190  0.001895  1
  Ir  Ir23  1  0.322223  0.664964  0.000006  1
  Ir  Ir24  1  0.330264  0.672278  0.499197  1
  Ir  Ir25  1  0.669835  0.327462  0.499071  1
  Ir  Ir26  1  0.999354  0.008318  0.001694  1
  Ir  Ir27  1  0.999966  0.000843  0.499196  1
