# generated using pymatgen
data_Tm16In6IrRh
_symmetry_space_group_name_H-M   'P 1'
_cell_length_a   10.30000000
_cell_length_b   10.30000030
_cell_length_c   6.94267400
_cell_angle_alpha   90.00000000
_cell_angle_beta   90.00000000
_cell_angle_gamma   119.99999905
_symmetry_Int_Tables_number   1
_chemical_formula_structural   Tm16In6IrRh
_chemical_formula_sum   'Tm16 In6 Ir1 Rh1'
_cell_volume   637.86955002
_cell_formula_units_Z   1
loop_
 _symmetry_equiv_pos_site_id
 _symmetry_equiv_pos_as_xyz
  1  'x, y, z'
loop_
 _atom_site_type_symbol
 _atom_site_label
 _atom_site_symmetry_multiplicity
 _atom_site_fract_x
 _atom_site_fract_y
 _atom_site_fract_z
 _atom_site_occupancy
  Tm  Tm0  1  0.532555  0.065111  0.514831  1
  Tm  Tm1  1  0.934889  0.467445  0.514831  1
  Tm  Tm2  1  0.532555  0.467445  0.514831  1
  Tm  Tm3  1  0.467677  0.935352  0.015321  1
  Tm  Tm4  1  0.064648  0.532323  0.015321  1
  Tm  Tm5  1  0.467677  0.532323  0.015321  1
  Tm  Tm6  1  0.176553  0.353105  0.721634  1
  Tm  Tm7  1  0.646895  0.823447  0.721634  1
  Tm  Tm8  1  0.176553  0.823447  0.721634  1
  Tm  Tm9  1  0.823303  0.646608  0.222128  1
  Tm  Tm10  1  0.353392  0.176697  0.222128  1
  Tm  Tm11  1  0.823303  0.176697  0.222128  1
  Tm  Tm12  1  0.666667  0.333333  0.894657  1
  Tm  Tm13  1  0.333333  0.666667  0.394527  1
  Tm  Tm14  1  0.000000  0.000000  0.500503  1
  Tm  Tm15  1  0.000000  0.000000  0.000522  1
  In  In16  1  0.837190  0.674381  0.761229  1
  In  In17  1  0.325619  0.162810  0.761229  1
  In  In18  1  0.837190  0.162810  0.761229  1
  In  In19  1  0.162799  0.325596  0.260833  1
  In  In20  1  0.674404  0.837201  0.260833  1
  In  In21  1  0.162799  0.837201  0.260833  1
  Ir  Ir22  1  0.666667  0.333333  0.290690  1
  Rh  Rh23  1  0.333333  0.666667  0.789172  1
