# generated using pymatgen
data_Tb2Th3Tl3P
_symmetry_space_group_name_H-M   'P 1'
_cell_length_a   9.48206900
_cell_length_b   9.48206683
_cell_length_c   6.73922000
_cell_angle_alpha   90.00000000
_cell_angle_beta   90.00000000
_cell_angle_gamma   119.99999709
_symmetry_Int_Tables_number   1
_chemical_formula_structural   Tb2Th3Tl3P
_chemical_formula_sum   'Tb4 Th6 Tl6 P2'
_cell_volume   524.74269556
_cell_formula_units_Z   2
loop_
 _symmetry_equiv_pos_site_id
 _symmetry_equiv_pos_as_xyz
  1  'x, y, z'
loop_
 _atom_site_type_symbol
 _atom_site_label
 _atom_site_symmetry_multiplicity
 _atom_site_fract_x
 _atom_site_fract_y
 _atom_site_fract_z
 _atom_site_occupancy
  Tb  Tb0  1  0.666667  0.333333  0.500000  1
  Tb  Tb1  1  0.333333  0.666667  0.500000  1
  Tb  Tb2  1  0.333333  0.666667  0.000000  1
  Tb  Tb3  1  0.666667  0.333333  0.000000  1
  Th  Th4  1  0.756668  0.756668  0.250000  1
  Th  Th5  1  0.243332  0.000000  0.250000  1
  Th  Th6  1  0.000000  0.243332  0.250000  1
  Th  Th7  1  0.243332  0.243332  0.750000  1
  Th  Th8  1  0.756668  0.000000  0.750000  1
  Th  Th9  1  0.000000  0.756668  0.750000  1
  Tl  Tl10  1  0.401861  0.401861  0.250000  1
  Tl  Tl11  1  0.598139  0.000000  0.250000  1
  Tl  Tl12  1  0.000000  0.598139  0.250000  1
  Tl  Tl13  1  0.598139  0.598139  0.750000  1
  Tl  Tl14  1  0.401861  0.000000  0.750000  1
  Tl  Tl15  1  0.000000  0.401861  0.750000  1
  P  P16  1  0.000000  0.000000  0.500000  1
  P  P17  1  0.000000  0.000000  0.000000  1
