# generated using pymatgen
data_Dy16Cd4Ru3Au
_symmetry_space_group_name_H-M   'P 1'
_cell_length_a   9.67076151
_cell_length_b   9.63128578
_cell_length_c   9.67076200
_cell_angle_alpha   59.86432162
_cell_angle_beta   59.99999832
_cell_angle_gamma   59.86431821
_symmetry_Int_Tables_number   1
_chemical_formula_structural   Dy16Cd4Ru3Au
_chemical_formula_sum   'Dy16 Cd4 Ru3 Au1'
_cell_volume   635.61908856
_cell_formula_units_Z   1
loop_
 _symmetry_equiv_pos_site_id
 _symmetry_equiv_pos_as_xyz
  1  'x, y, z'
loop_
 _atom_site_type_symbol
 _atom_site_label
 _atom_site_symmetry_multiplicity
 _atom_site_fract_x
 _atom_site_fract_y
 _atom_site_fract_z
 _atom_site_occupancy
  Dy  Dy0  1  0.437931  0.435152  0.063459  1
  Dy  Dy1  1  0.067669  0.057623  0.437355  1
  Dy  Dy2  1  0.437355  0.057623  0.067669  1
  Dy  Dy3  1  0.854405  0.843774  0.854405  1
  Dy  Dy4  1  0.690018  0.320173  0.299792  1
  Dy  Dy5  1  0.063459  0.435152  0.437931  1
  Dy  Dy6  1  0.311923  0.688400  0.687753  1
  Dy  Dy7  1  0.299792  0.320173  0.690018  1
  Dy  Dy8  1  0.854405  0.843774  0.447417  1
  Dy  Dy9  1  0.687753  0.688400  0.311923  1
  Dy  Dy10  1  0.447417  0.843774  0.854405  1
  Dy  Dy11  1  0.063459  0.435152  0.063459  1
  Dy  Dy12  1  0.846843  0.459470  0.846843  1
  Dy  Dy13  1  0.437355  0.057623  0.437355  1
  Dy  Dy14  1  0.311923  0.688400  0.311923  1
  Dy  Dy15  1  0.690018  0.320173  0.690018  1
  Cd  Cd16  1  0.081129  0.756611  0.081129  1
  Cd  Cd17  1  0.079817  0.080835  0.759529  1
  Cd  Cd18  1  0.759529  0.080835  0.079817  1
  Cd  Cd19  1  0.079817  0.080835  0.079817  1
  Ru  Ru20  1  0.640065  0.644917  0.640065  1
  Ru  Ru21  1  0.640065  0.644917  0.074951  1
  Ru  Ru22  1  0.074951  0.644917  0.640065  1
  Au  Au23  1  0.642901  0.071296  0.642901  1
