# generated using pymatgen
data_Ho3In4IrRh
_symmetry_space_group_name_H-M   'P 1'
_cell_length_a   7.83690100
_cell_length_b   7.83690181
_cell_length_c   3.84642500
_cell_angle_alpha   90.00000000
_cell_angle_beta   90.00000000
_cell_angle_gamma   120.00000080
_symmetry_Int_Tables_number   1
_chemical_formula_structural   Ho3In4IrRh
_chemical_formula_sum   'Ho3 In4 Ir1 Rh1'
_cell_volume   204.58635410
_cell_formula_units_Z   1
loop_
 _symmetry_equiv_pos_site_id
 _symmetry_equiv_pos_as_xyz
  1  'x, y, z'
loop_
 _atom_site_type_symbol
 _atom_site_label
 _atom_site_symmetry_multiplicity
 _atom_site_fract_x
 _atom_site_fract_y
 _atom_site_fract_z
 _atom_site_occupancy
  Ho  Ho0  1  0.381955  0.417445  0.000000  1
  Ho  Ho1  1  0.035490  0.618044  0.000000  1
  Ho  Ho2  1  0.582555  0.964511  0.000000  1
  In  In3  1  0.000526  0.256033  0.500000  1
  In  In4  1  0.666666  0.333334  0.500000  1
  In  In5  1  0.743968  0.744493  0.500000  1
  In  In6  1  0.255507  0.999475  0.500000  1
  Ir  Ir7  1  0.333333  0.666666  0.500000  1
  Rh  Rh8  1  0.000000  0.000000  0.000000  1
