# generated using pymatgen
data_Yb2AsPd6
_symmetry_space_group_name_H-M   'P 1'
_cell_length_a   6.16613874
_cell_length_b   6.16613894
_cell_length_c   6.16613900
_cell_angle_alpha   60.00000505
_cell_angle_beta   60.00000394
_cell_angle_gamma   60.00001302
_symmetry_Int_Tables_number   1
_chemical_formula_structural   Yb2AsPd6
_chemical_formula_sum   'Yb2 As1 Pd6'
_cell_volume   165.77726994
_cell_formula_units_Z   1
loop_
 _symmetry_equiv_pos_site_id
 _symmetry_equiv_pos_as_xyz
  1  'x, y, z'
loop_
 _atom_site_type_symbol
 _atom_site_label
 _atom_site_symmetry_multiplicity
 _atom_site_fract_x
 _atom_site_fract_y
 _atom_site_fract_z
 _atom_site_occupancy
  Yb  Yb0  1  0.250000  0.250000  0.250000  1
  Yb  Yb1  1  0.750000  0.750000  0.750000  1
  As  As2  1  0.000000  0.000000  0.000000  1
  Pd  Pd3  1  0.726004  0.273996  0.273996  1
  Pd  Pd4  1  0.273996  0.726004  0.273996  1
  Pd  Pd5  1  0.726004  0.726004  0.273996  1
  Pd  Pd6  1  0.273996  0.273996  0.726004  1
  Pd  Pd7  1  0.726004  0.273996  0.726004  1
  Pd  Pd8  1  0.273996  0.726004  0.726004  1
