# generated using pymatgen
data_Ho4AgPd4Pb
_symmetry_space_group_name_H-M   'P 1'
_cell_length_a   7.75218900
_cell_length_b   7.75218900
_cell_length_c   3.67407700
_cell_angle_alpha   90.00000000
_cell_angle_beta   90.00000000
_cell_angle_gamma   90.00000000
_symmetry_Int_Tables_number   1
_chemical_formula_structural   Ho4AgPd4Pb
_chemical_formula_sum   'Ho4 Ag1 Pd4 Pb1'
_cell_volume   220.79892701
_cell_formula_units_Z   1
loop_
 _symmetry_equiv_pos_site_id
 _symmetry_equiv_pos_as_xyz
  1  'x, y, z'
loop_
 _atom_site_type_symbol
 _atom_site_label
 _atom_site_symmetry_multiplicity
 _atom_site_fract_x
 _atom_site_fract_y
 _atom_site_fract_z
 _atom_site_occupancy
  Ho  Ho0  1  0.673706  0.168326  0.500000  1
  Ho  Ho1  1  0.168326  0.326294  0.500000  1
  Ho  Ho2  1  0.831674  0.673706  0.500000  1
  Ho  Ho3  1  0.326294  0.831674  0.500000  1
  Ag  Ag4  1  0.000000  0.000000  0.000000  1
  Pd  Pd5  1  0.368049  0.123952  0.000000  1
  Pd  Pd6  1  0.123952  0.631951  0.000000  1
  Pd  Pd7  1  0.631951  0.876048  0.000000  1
  Pd  Pd8  1  0.876048  0.368049  0.000000  1
  Pb  Pb9  1  0.500000  0.500000  0.000000  1
