# generated using pymatgen
data_TmZr7(Nb3Ge4)4
_symmetry_space_group_name_H-M   'P 1'
_cell_length_a   6.87503575
_cell_length_b   7.01090640
_cell_length_c   13.39390208
_cell_angle_alpha   90.06777186
_cell_angle_beta   89.95373272
_cell_angle_gamma   90.00281094
_symmetry_Int_Tables_number   1
_chemical_formula_structural   TmZr7(Nb3Ge4)4
_chemical_formula_sum   'Tm1 Zr7 Nb12 Ge16'
_cell_volume   645.58852643
_cell_formula_units_Z   1
loop_
 _symmetry_equiv_pos_site_id
 _symmetry_equiv_pos_as_xyz
  1  'x, y, z'
loop_
 _atom_site_type_symbol
 _atom_site_label
 _atom_site_symmetry_multiplicity
 _atom_site_fract_x
 _atom_site_fract_y
 _atom_site_fract_z
 _atom_site_occupancy
  Tm  Tm0  1  0.993584  0.173263  0.091662  1
  Zr  Zr1  1  0.493150  0.326598  0.091840  1
  Zr  Zr2  1  0.990062  0.175619  0.407650  1
  Zr  Zr3  1  0.508859  0.674781  0.591383  1
  Zr  Zr4  1  0.009320  0.822637  0.905938  1
  Zr  Zr5  1  0.509097  0.676163  0.907031  1
  Zr  Zr6  1  0.009531  0.825716  0.591505  1
  Zr  Zr7  1  0.491235  0.324554  0.409064  1
  Nb  Nb8  1  0.663268  0.008908  0.749353  1
  Nb  Nb9  1  0.163174  0.492773  0.749958  1
  Nb  Nb10  1  0.337103  0.990934  0.251558  1
  Nb  Nb11  1  0.836144  0.508893  0.252263  1
  Nb  Nb12  1  0.839704  0.334452  0.624447  1
  Nb  Nb13  1  0.339443  0.165837  0.875217  1
  Nb  Nb14  1  0.160412  0.665753  0.125536  1
  Nb  Nb15  1  0.658760  0.832225  0.375885  1
  Nb  Nb16  1  0.160426  0.666337  0.376671  1
  Nb  Nb17  1  0.657749  0.831728  0.125520  1
  Nb  Nb18  1  0.837347  0.336153  0.874435  1
  Nb  Nb19  1  0.340190  0.165871  0.624722  1
  Ge  Ge20  1  0.804719  0.648720  0.749027  1
  Ge  Ge21  1  0.305487  0.852040  0.749554  1
  Ge  Ge22  1  0.196531  0.352648  0.251071  1
  Ge  Ge23  1  0.693258  0.148463  0.250409  1
  Ge  Ge24  1  0.536983  0.386437  0.749650  1
  Ge  Ge25  1  0.037266  0.114802  0.750255  1
  Ge  Ge26  1  0.461833  0.613068  0.250624  1
  Ge  Ge27  1  0.961596  0.884255  0.251202  1
  Ge  Ge28  1  0.681808  0.039545  0.539630  1
  Ge  Ge29  1  0.182360  0.462917  0.958902  1
  Ge  Ge30  1  0.323482  0.957613  0.039153  1
  Ge  Ge31  1  0.819199  0.539240  0.460655  1
  Ge  Ge32  1  0.317966  0.961609  0.460368  1
  Ge  Ge33  1  0.818283  0.541754  0.039113  1
  Ge  Ge34  1  0.679610  0.038235  0.958739  1
  Ge  Ge35  1  0.181060  0.459460  0.540008  1
