# generated using pymatgen
data_Tb3(AlPt)4
_symmetry_space_group_name_H-M   'P 1'
_cell_length_a   8.20829502
_cell_length_b   8.20829555
_cell_length_c   8.20829455
_cell_angle_alpha   150.66734719
_cell_angle_beta   127.89697750
_cell_angle_gamma   60.91976527
_symmetry_Int_Tables_number   1
_chemical_formula_structural   Tb3(AlPt)4
_chemical_formula_sum   'Tb3 Al4 Pt4'
_cell_volume   212.03393704
_cell_formula_units_Z   1
loop_
 _symmetry_equiv_pos_site_id
 _symmetry_equiv_pos_as_xyz
  1  'x, y, z'
loop_
 _atom_site_type_symbol
 _atom_site_label
 _atom_site_symmetry_multiplicity
 _atom_site_fract_x
 _atom_site_fract_y
 _atom_site_fract_z
 _atom_site_occupancy
  Tb  Tb0  1  0.500000  0.000000  0.500000  1
  Tb  Tb1  1  0.881094  0.881094  0.000000  1
  Tb  Tb2  1  0.118906  0.118906  0.000000  1
  Al  Al3  1  0.481528  0.677738  0.803790  1
  Al  Al4  1  0.873948  0.677738  0.196210  1
  Al  Al5  1  0.126052  0.322262  0.803790  1
  Al  Al6  1  0.518472  0.322262  0.196210  1
  Pt  Pt7  1  0.281972  0.781972  0.500000  1
  Pt  Pt8  1  0.718028  0.218028  0.500000  1
  Pt  Pt9  1  0.794082  0.500000  0.294082  1
  Pt  Pt10  1  0.205918  0.500000  0.705918  1
