# generated using pymatgen
data_Pr9Lu(AlTe)4
_symmetry_space_group_name_H-M   'P 1'
_cell_length_a   8.99160471
_cell_length_b   8.99160511
_cell_length_c   8.25620600
_cell_angle_alpha   89.95548422
_cell_angle_beta   89.95548421
_cell_angle_gamma   126.24165731
_symmetry_Int_Tables_number   1
_chemical_formula_structural   Pr9Lu(AlTe)4
_chemical_formula_sum   'Pr9 Lu1 Al4 Te4'
_cell_volume   538.36300860
_cell_formula_units_Z   1
loop_
 _symmetry_equiv_pos_site_id
 _symmetry_equiv_pos_as_xyz
  1  'x, y, z'
loop_
 _atom_site_type_symbol
 _atom_site_label
 _atom_site_symmetry_multiplicity
 _atom_site_fract_x
 _atom_site_fract_y
 _atom_site_fract_z
 _atom_site_occupancy
  Pr  Pr0  1  0.000000  0.000000  0.000000  1
  Pr  Pr1  1  0.801525  0.536779  0.167832  1
  Pr  Pr2  1  0.463221  0.198475  0.832168  1
  Pr  Pr3  1  0.966959  0.697827  0.668083  1
  Pr  Pr4  1  0.302173  0.033041  0.331917  1
  Pr  Pr5  1  0.198475  0.463221  0.832168  1
  Pr  Pr6  1  0.536779  0.801525  0.167832  1
  Pr  Pr7  1  0.033041  0.302173  0.331917  1
  Pr  Pr8  1  0.697827  0.966959  0.668083  1
  Lu  Lu9  1  0.500000  0.500000  0.500000  1
  Al  Al10  1  0.875109  0.875109  0.386484  1
  Al  Al11  1  0.124891  0.124891  0.613516  1
  Al  Al12  1  0.618011  0.618011  0.875437  1
  Al  Al13  1  0.381989  0.381989  0.124563  1
  Te  Te14  1  0.202393  0.797607  0.000000  1
  Te  Te15  1  0.697140  0.302860  0.500000  1
  Te  Te16  1  0.797607  0.202393  0.000000  1
  Te  Te17  1  0.302860  0.697140  0.500000  1
