# generated using pymatgen
data_Na2CoTcAs2
_symmetry_space_group_name_H-M   'P 1'
_cell_length_a   4.02491700
_cell_length_b   4.02491700
_cell_length_c   7.02158200
_cell_angle_alpha   90.00000000
_cell_angle_beta   90.00000000
_cell_angle_gamma   90.00000000
_symmetry_Int_Tables_number   1
_chemical_formula_structural   Na2CoTcAs2
_chemical_formula_sum   'Na2 Co1 Tc1 As2'
_cell_volume   113.74932547
_cell_formula_units_Z   1
loop_
 _symmetry_equiv_pos_site_id
 _symmetry_equiv_pos_as_xyz
  1  'x, y, z'
loop_
 _atom_site_type_symbol
 _atom_site_label
 _atom_site_symmetry_multiplicity
 _atom_site_fract_x
 _atom_site_fract_y
 _atom_site_fract_z
 _atom_site_occupancy
  Na  Na0  1  0.000000  0.500000  0.347500  1
  Na  Na1  1  0.500000  0.000000  0.652500  1
  Co  Co2  1  0.000000  0.000000  0.000000  1
  Tc  Tc3  1  0.500000  0.500000  0.000000  1
  As  As4  1  0.500000  0.000000  0.194843  1
  As  As5  1  0.000000  0.500000  0.805157  1
