# generated using pymatgen
data_YTh3(InGa2)2
_symmetry_space_group_name_H-M   'P 1'
_cell_length_a   7.44260386
_cell_length_b   7.44260412
_cell_length_c   4.47380700
_cell_angle_alpha   90.00000000
_cell_angle_beta   90.00000000
_cell_angle_gamma   89.43427640
_symmetry_Int_Tables_number   1
_chemical_formula_structural   YTh3(InGa2)2
_chemical_formula_sum   'Y1 Th3 In2 Ga4'
_cell_volume   247.80262213
_cell_formula_units_Z   1
loop_
 _symmetry_equiv_pos_site_id
 _symmetry_equiv_pos_as_xyz
  1  'x, y, z'
loop_
 _atom_site_type_symbol
 _atom_site_label
 _atom_site_symmetry_multiplicity
 _atom_site_fract_x
 _atom_site_fract_y
 _atom_site_fract_z
 _atom_site_occupancy
  Y  Y0  1  0.823786  0.676214  0.500000  1
  Th  Th1  1  0.676118  0.174560  0.500000  1
  Th  Th2  1  0.325440  0.823882  0.500000  1
  Th  Th3  1  0.173800  0.326200  0.500000  1
  In  In4  1  0.503258  0.502365  0.000000  1
  In  In5  1  0.997635  0.996742  0.000000  1
  Ga  Ga6  1  0.118046  0.623853  0.000000  1
  Ga  Ga7  1  0.876147  0.381954  0.000000  1
  Ga  Ga8  1  0.626451  0.873549  0.000000  1
  Ga  Ga9  1  0.379321  0.120679  0.000000  1
