# generated using pymatgen
data_SmDyTh6(ReC2)4
_symmetry_space_group_name_H-M   'P 1'
_cell_length_a   5.33629600
_cell_length_b   6.68085820
_cell_length_c   10.04114540
_cell_angle_alpha   90.11095414
_cell_angle_beta   90.00000000
_cell_angle_gamma   90.00000000
_symmetry_Int_Tables_number   1
_chemical_formula_structural   SmDyTh6(ReC2)4
_chemical_formula_sum   'Sm1 Dy1 Th6 Re4 C8'
_cell_volume   357.97657377
_cell_formula_units_Z   1
loop_
 _symmetry_equiv_pos_site_id
 _symmetry_equiv_pos_as_xyz
  1  'x, y, z'
loop_
 _atom_site_type_symbol
 _atom_site_label
 _atom_site_symmetry_multiplicity
 _atom_site_fract_x
 _atom_site_fract_y
 _atom_site_fract_z
 _atom_site_occupancy
  Sm  Sm0  1  0.250000  0.683918  0.549837  1
  Dy  Dy1  1  0.750000  0.320371  0.447979  1
  Th  Th2  1  0.750000  0.473949  0.775787  1
  Th  Th3  1  0.250000  0.027179  0.284285  1
  Th  Th4  1  0.750000  0.973516  0.715754  1
  Th  Th5  1  0.250000  0.525632  0.223046  1
  Th  Th6  1  0.750000  0.809995  0.048725  1
  Th  Th7  1  0.250000  0.190682  0.951571  1
  Re  Re8  1  0.750000  0.771044  0.363938  1
  Re  Re9  1  0.250000  0.726438  0.861279  1
  Re  Re10  1  0.250000  0.228526  0.635343  1
  Re  Re11  1  0.750000  0.273188  0.139800  1
  C  C12  1  0.250000  0.964216  0.741433  1
  C  C13  1  0.750000  0.532070  0.245440  1
  C  C14  1  0.250000  0.466295  0.755912  1
  C  C15  1  0.750000  0.037454  0.260851  1
  C  C16  1  0.250000  0.323696  0.448865  1
  C  C17  1  0.750000  0.164627  0.947408  1
  C  C18  1  0.250000  0.835011  0.052861  1
  C  C19  1  0.750000  0.672193  0.549886  1
