# generated using pymatgen
data_CaHo11(SiPd)12
_symmetry_space_group_name_H-M   'P 1'
_cell_length_a   4.33539900
_cell_length_b   7.43048018
_cell_length_c   20.96788177
_cell_angle_alpha   90.15831119
_cell_angle_beta   90.00000000
_cell_angle_gamma   90.00000000
_symmetry_Int_Tables_number   1
_chemical_formula_structural   CaHo11(SiPd)12
_chemical_formula_sum   'Ca1 Ho11 Si12 Pd12'
_cell_volume   675.45878471
_cell_formula_units_Z   1
loop_
 _symmetry_equiv_pos_site_id
 _symmetry_equiv_pos_as_xyz
  1  'x, y, z'
loop_
 _atom_site_type_symbol
 _atom_site_label
 _atom_site_symmetry_multiplicity
 _atom_site_fract_x
 _atom_site_fract_y
 _atom_site_fract_z
 _atom_site_occupancy
  Ca  Ca0  1  0.250000  0.791867  0.500628  1
  Ho  Ho1  1  0.250000  0.704457  0.333136  1
  Ho  Ho2  1  0.750000  0.295593  0.667329  1
  Ho  Ho3  1  0.750000  0.205029  0.167352  1
  Ho  Ho4  1  0.250000  0.794738  0.832664  1
  Ho  Ho5  1  0.250000  0.793491  0.166571  1
  Ho  Ho6  1  0.750000  0.206408  0.833610  1
  Ho  Ho7  1  0.750000  0.293631  0.333321  1
  Ho  Ho8  1  0.250000  0.707170  0.666041  1
  Ho  Ho9  1  0.250000  0.711126  0.000845  1
  Ho  Ho10  1  0.750000  0.289066  0.999054  1
  Ho  Ho11  1  0.750000  0.209343  0.499047  1
  Si  Si12  1  0.250000  0.090075  0.071644  1
  Si  Si13  1  0.750000  0.910241  0.928410  1
  Si  Si14  1  0.750000  0.589129  0.427290  1
  Si  Si15  1  0.250000  0.408652  0.570895  1
  Si  Si16  1  0.250000  0.085853  0.271281  1
  Si  Si17  1  0.750000  0.914566  0.729053  1
  Si  Si18  1  0.750000  0.585410  0.228617  1
  Si  Si19  1  0.250000  0.414314  0.771365  1
  Si  Si20  1  0.250000  0.088396  0.394305  1
  Si  Si21  1  0.750000  0.913736  0.606267  1
  Si  Si22  1  0.750000  0.588138  0.104601  1
  Si  Si23  1  0.250000  0.411823  0.895355  1
  Pd  Pd24  1  0.250000  0.416524  0.236421  1
  Pd  Pd25  1  0.750000  0.583671  0.763494  1
  Pd  Pd26  1  0.750000  0.916382  0.262770  1
  Pd  Pd27  1  0.250000  0.084004  0.737316  1
  Pd  Pd28  1  0.250000  0.413933  0.437403  1
  Pd  Pd29  1  0.750000  0.580818  0.563815  1
  Pd  Pd30  1  0.750000  0.916432  0.062211  1
  Pd  Pd31  1  0.250000  0.083420  0.937721  1
  Pd  Pd32  1  0.250000  0.419913  0.093175  1
  Pd  Pd33  1  0.750000  0.580142  0.906709  1
  Pd  Pd34  1  0.750000  0.919577  0.404766  1
  Pd  Pd35  1  0.250000  0.082930  0.595519  1
