# generated using pymatgen
data_Ta12Mn3Ga9N4
_symmetry_space_group_name_H-M   'P 1'
_cell_length_a   8.19677142
_cell_length_b   8.23601480
_cell_length_c   8.23601500
_cell_angle_alpha   59.99999518
_cell_angle_beta   59.84149375
_cell_angle_gamma   59.84149491
_symmetry_Int_Tables_number   1
_chemical_formula_structural   Ta12Mn3Ga9N4
_chemical_formula_sum   'Ta12 Mn3 Ga9 N4'
_cell_volume   392.20886393
_cell_formula_units_Z   1
loop_
 _symmetry_equiv_pos_site_id
 _symmetry_equiv_pos_as_xyz
  1  'x, y, z'
loop_
 _atom_site_type_symbol
 _atom_site_label
 _atom_site_symmetry_multiplicity
 _atom_site_fract_x
 _atom_site_fract_y
 _atom_site_fract_z
 _atom_site_occupancy
  Ta  Ta0  1  0.809576  0.807189  0.191618  1
  Ta  Ta1  1  0.194320  0.195767  0.804956  1
  Ta  Ta2  1  0.809576  0.191618  0.807189  1
  Ta  Ta3  1  0.194320  0.804956  0.195767  1
  Ta  Ta4  1  0.194320  0.804956  0.804956  1
  Ta  Ta5  1  0.809576  0.191618  0.191618  1
  Ta  Ta6  1  0.440424  0.442811  0.058382  1
  Ta  Ta7  1  0.055680  0.054233  0.445044  1
  Ta  Ta8  1  0.440424  0.058382  0.442811  1
  Ta  Ta9  1  0.055680  0.445044  0.054233  1
  Ta  Ta10  1  0.055680  0.445044  0.445044  1
  Ta  Ta11  1  0.440424  0.058382  0.058382  1
  Mn  Mn12  1  0.625000  0.125000  0.625000  1
  Mn  Mn13  1  0.625000  0.625000  0.125000  1
  Mn  Mn14  1  0.625000  0.625000  0.625000  1
  Ga  Ga15  1  0.125000  0.625000  0.625000  1
  Ga  Ga16  1  0.757686  0.414105  0.414105  1
  Ga  Ga17  1  0.427600  0.756407  0.407997  1
  Ga  Ga18  1  0.427600  0.407997  0.756407  1
  Ga  Ga19  1  0.427600  0.407997  0.407997  1
  Ga  Ga20  1  0.492314  0.835895  0.835895  1
  Ga  Ga21  1  0.822400  0.493593  0.842003  1
  Ga  Ga22  1  0.822400  0.842003  0.493593  1
  Ga  Ga23  1  0.822400  0.842003  0.842003  1
  N  N24  1  0.625000  0.125000  0.125000  1
  N  N25  1  0.125000  0.625000  0.125000  1
  N  N26  1  0.125000  0.125000  0.625000  1
  N  N27  1  0.125000  0.125000  0.125000  1
