# generated using pymatgen
data_Lu3Al3GaAu2
_symmetry_space_group_name_H-M   'P 1'
_cell_length_a   7.02085300
_cell_length_b   7.02085320
_cell_length_c   4.19840300
_cell_angle_alpha   90.00000000
_cell_angle_beta   90.00000000
_cell_angle_gamma   120.00000376
_symmetry_Int_Tables_number   1
_chemical_formula_structural   Lu3Al3GaAu2
_chemical_formula_sum   'Lu3 Al3 Ga1 Au2'
_cell_volume   179.22331731
_cell_formula_units_Z   1
loop_
 _symmetry_equiv_pos_site_id
 _symmetry_equiv_pos_as_xyz
  1  'x, y, z'
loop_
 _atom_site_type_symbol
 _atom_site_label
 _atom_site_symmetry_multiplicity
 _atom_site_fract_x
 _atom_site_fract_y
 _atom_site_fract_z
 _atom_site_occupancy
  Lu  Lu0  1  0.418478  0.417496  0.500000  1
  Lu  Lu1  1  0.582504  0.000982  0.500000  1
  Lu  Lu2  1  0.999018  0.581522  0.500000  1
  Al  Al3  1  0.753789  0.756587  0.000000  1
  Al  Al4  1  0.243413  0.997202  0.000000  1
  Al  Al5  1  0.002798  0.246211  0.000000  1
  Ga  Ga6  1  0.666667  0.333333  0.000000  1
  Au  Au7  1  0.333333  0.666667  0.000000  1
  Au  Au8  1  0.000000  0.000000  0.500000  1
