# generated using pymatgen
data_Ac16MgCd3Ru4
_symmetry_space_group_name_H-M   'P 1'
_cell_length_a   10.52743326
_cell_length_b   10.52743185
_cell_length_c   10.52683801
_cell_angle_alpha   59.99813028
_cell_angle_beta   59.99813707
_cell_angle_gamma   60.00000003
_symmetry_Int_Tables_number   1
_chemical_formula_structural   Ac16MgCd3Ru4
_chemical_formula_sum   'Ac16 Mg1 Cd3 Ru4'
_cell_volume   824.92720411
_cell_formula_units_Z   1
loop_
 _symmetry_equiv_pos_site_id
 _symmetry_equiv_pos_as_xyz
  1  'x, y, z'
loop_
 _atom_site_type_symbol
 _atom_site_label
 _atom_site_symmetry_multiplicity
 _atom_site_fract_x
 _atom_site_fract_y
 _atom_site_fract_z
 _atom_site_occupancy
  Ac  Ac0  1  0.561209  0.561209  0.937026  1
  Ac  Ac1  1  0.940556  0.561209  0.937026  1
  Ac  Ac2  1  0.561209  0.940556  0.937026  1
  Ac  Ac3  1  0.939339  0.939339  0.560644  1
  Ac  Ac4  1  0.560678  0.939339  0.560644  1
  Ac  Ac5  1  0.939339  0.560678  0.560644  1
  Ac  Ac6  1  0.188303  0.188303  0.811804  1
  Ac  Ac7  1  0.811591  0.188303  0.811804  1
  Ac  Ac8  1  0.188302  0.811592  0.811804  1
  Ac  Ac9  1  0.813612  0.813613  0.186544  1
  Ac  Ac10  1  0.186231  0.813612  0.186543  1
  Ac  Ac11  1  0.813612  0.186232  0.186544  1
  Ac  Ac12  1  0.345413  0.345413  0.963760  1
  Ac  Ac13  1  0.344239  0.966512  0.345011  1
  Ac  Ac14  1  0.966512  0.344239  0.345011  1
  Ac  Ac15  1  0.344239  0.344239  0.345011  1
  Mg  Mg16  1  0.573374  0.573374  0.279877  1
  Cd  Cd17  1  0.578708  0.265004  0.577579  1
  Cd  Cd18  1  0.265004  0.578708  0.577579  1
  Cd  Cd19  1  0.578708  0.578708  0.577579  1
  Ru  Ru20  1  0.137997  0.137997  0.586009  1
  Ru  Ru21  1  0.137142  0.587541  0.138175  1
  Ru  Ru22  1  0.587541  0.137142  0.138175  1
  Ru  Ru23  1  0.137142  0.137142  0.138175  1
