# generated using pymatgen
data_LiAl8Ru3Rh4
_symmetry_space_group_name_H-M   'P 1'
_cell_length_a   6.00056300
_cell_length_b   4.25330300
_cell_length_c   8.52065900
_cell_angle_alpha   90.00000000
_cell_angle_beta   89.99986592
_cell_angle_gamma   90.00000000
_symmetry_Int_Tables_number   1
_chemical_formula_structural   LiAl8Ru3Rh4
_chemical_formula_sum   'Li1 Al8 Ru3 Rh4'
_cell_volume   217.46607057
_cell_formula_units_Z   1
loop_
 _symmetry_equiv_pos_site_id
 _symmetry_equiv_pos_as_xyz
  1  'x, y, z'
loop_
 _atom_site_type_symbol
 _atom_site_label
 _atom_site_symmetry_multiplicity
 _atom_site_fract_x
 _atom_site_fract_y
 _atom_site_fract_z
 _atom_site_occupancy
  Li  Li0  1  0.750006  0.250000  0.125014  1
  Al  Al1  1  0.491645  0.750000  0.124993  1
  Al  Al2  1  0.008359  0.750000  0.124994  1
  Al  Al3  1  0.496449  0.250000  0.381414  1
  Al  Al4  1  0.003555  0.250000  0.381415  1
  Al  Al5  1  0.000657  0.750000  0.624994  1
  Al  Al6  1  0.499342  0.750000  0.624996  1
  Al  Al7  1  0.003557  0.250000  0.868597  1
  Al  Al8  1  0.496444  0.250000  0.868598  1
  Ru  Ru9  1  0.250004  0.750000  0.371983  1
  Ru  Ru10  1  0.749996  0.250000  0.625009  1
  Ru  Ru11  1  0.249998  0.750000  0.878001  1
  Rh  Rh12  1  0.250001  0.250000  0.125002  1
  Rh  Rh13  1  0.749995  0.750000  0.366107  1
  Rh  Rh14  1  0.249990  0.250000  0.624999  1
  Rh  Rh15  1  0.749998  0.750000  0.883887  1
