# generated using pymatgen
data_La4Pd3PtPb2
_symmetry_space_group_name_H-M   'P 1'
_cell_length_a   8.07891062
_cell_length_b   8.07891062
_cell_length_c   3.94275400
_cell_angle_alpha   90.00000000
_cell_angle_beta   90.00000000
_cell_angle_gamma   90.09221043
_symmetry_Int_Tables_number   1
_chemical_formula_structural   La4Pd3PtPb2
_chemical_formula_sum   'La4 Pd3 Pt1 Pb2'
_cell_volume   257.33847614
_cell_formula_units_Z   1
loop_
 _symmetry_equiv_pos_site_id
 _symmetry_equiv_pos_as_xyz
  1  'x, y, z'
loop_
 _atom_site_type_symbol
 _atom_site_label
 _atom_site_symmetry_multiplicity
 _atom_site_fract_x
 _atom_site_fract_y
 _atom_site_fract_z
 _atom_site_occupancy
  La  La0  1  0.672202  0.178961  0.500000  1
  La  La1  1  0.181085  0.318915  0.500000  1
  La  La2  1  0.822733  0.677267  0.500000  1
  La  La3  1  0.321039  0.827798  0.500000  1
  Pd  Pd4  1  0.124610  0.624394  0.000000  1
  Pd  Pd5  1  0.628719  0.871281  0.000000  1
  Pd  Pd6  1  0.875606  0.375390  0.000000  1
  Pt  Pt7  1  0.378600  0.121400  0.000000  1
  Pb  Pb8  1  0.995011  0.999606  0.000000  1
  Pb  Pb9  1  0.500394  0.504989  0.000000  1
