# generated using pymatgen
data_SmDy7(Si3Pt)4
_symmetry_space_group_name_H-M   'P 1'
_cell_length_a   8.14347900
_cell_length_b   8.14347902
_cell_length_c   8.17956300
_cell_angle_alpha   90.00000000
_cell_angle_beta   90.00000000
_cell_angle_gamma   119.99999586
_symmetry_Int_Tables_number   1
_chemical_formula_structural   SmDy7(Si3Pt)4
_chemical_formula_sum   'Sm1 Dy7 Si12 Pt4'
_cell_volume   469.76506246
_cell_formula_units_Z   1
loop_
 _symmetry_equiv_pos_site_id
 _symmetry_equiv_pos_as_xyz
  1  'x, y, z'
loop_
 _atom_site_type_symbol
 _atom_site_label
 _atom_site_symmetry_multiplicity
 _atom_site_fract_x
 _atom_site_fract_y
 _atom_site_fract_z
 _atom_site_occupancy
  Sm  Sm0  1  0.000000  0.000000  0.250000  1
  Dy  Dy1  1  0.000000  0.000000  0.750000  1
  Dy  Dy2  1  0.002889  0.501445  0.250000  1
  Dy  Dy3  1  0.498555  0.501445  0.250000  1
  Dy  Dy4  1  0.501468  0.002936  0.750000  1
  Dy  Dy5  1  0.498555  0.997111  0.250000  1
  Dy  Dy6  1  0.501468  0.498532  0.750000  1
  Dy  Dy7  1  0.997064  0.498532  0.750000  1
  Si  Si8  1  0.165695  0.331390  0.998201  1
  Si  Si9  1  0.668610  0.834305  0.998201  1
  Si  Si10  1  0.165695  0.331390  0.501799  1
  Si  Si11  1  0.331394  0.165697  0.000269  1
  Si  Si12  1  0.165695  0.834305  0.998201  1
  Si  Si13  1  0.668610  0.834305  0.501799  1
  Si  Si14  1  0.834303  0.668606  0.000269  1
  Si  Si15  1  0.331394  0.165697  0.499731  1
  Si  Si16  1  0.165695  0.834305  0.501799  1
  Si  Si17  1  0.834303  0.668606  0.499731  1
  Si  Si18  1  0.834303  0.165697  0.000269  1
  Si  Si19  1  0.834303  0.165697  0.499731  1
  Pt  Pt20  1  0.333333  0.666667  0.997008  1
  Pt  Pt21  1  0.333333  0.666667  0.502992  1
  Pt  Pt22  1  0.666667  0.333333  0.002903  1
  Pt  Pt23  1  0.666667  0.333333  0.497097  1
