# generated using pymatgen
data_Sm3Th5(MgRh)8
_symmetry_space_group_name_H-M   'P 1'
_cell_length_a   4.02260200
_cell_length_b   7.75142907
_cell_length_c   16.93301164
_cell_angle_alpha   90.66508486
_cell_angle_beta   90.00000000
_cell_angle_gamma   90.00000000
_symmetry_Int_Tables_number   1
_chemical_formula_structural   Sm3Th5(MgRh)8
_chemical_formula_sum   'Sm3 Th5 Mg8 Rh8'
_cell_volume   527.95121021
_cell_formula_units_Z   1
loop_
 _symmetry_equiv_pos_site_id
 _symmetry_equiv_pos_as_xyz
  1  'x, y, z'
loop_
 _atom_site_type_symbol
 _atom_site_label
 _atom_site_symmetry_multiplicity
 _atom_site_fract_x
 _atom_site_fract_y
 _atom_site_fract_z
 _atom_site_occupancy
  Sm  Sm0  1  0.750000  0.443073  0.218493  1
  Sm  Sm1  1  0.250000  0.052614  0.717877  1
  Sm  Sm2  1  0.250000  0.554461  0.782207  1
  Th  Th3  1  0.250000  0.168688  0.935777  1
  Th  Th4  1  0.250000  0.665811  0.563716  1
  Th  Th5  1  0.750000  0.329771  0.437159  1
  Th  Th6  1  0.750000  0.946828  0.279947  1
  Th  Th7  1  0.750000  0.837883  0.061633  1
  Mg  Mg8  1  0.750000  0.011200  0.566396  1
  Mg  Mg9  1  0.250000  0.621321  0.346351  1
  Mg  Mg10  1  0.750000  0.372725  0.654562  1
  Mg  Mg11  1  0.250000  0.493882  0.066666  1
  Mg  Mg12  1  0.750000  0.511940  0.934258  1
  Mg  Mg13  1  0.250000  0.985193  0.437485  1
  Mg  Mg14  1  0.250000  0.133244  0.150228  1
  Mg  Mg15  1  0.750000  0.873149  0.845499  1
  Rh  Rh16  1  0.750000  0.733733  0.443591  1
  Rh  Rh17  1  0.250000  0.235954  0.318395  1
  Rh  Rh18  1  0.750000  0.242475  0.819193  1
  Rh  Rh19  1  0.750000  0.743032  0.680286  1
  Rh  Rh20  1  0.250000  0.267501  0.554441  1
  Rh  Rh21  1  0.250000  0.770204  0.186470  1
  Rh  Rh22  1  0.750000  0.238507  0.053950  1
  Rh  Rh23  1  0.250000  0.766811  0.945421  1
