# generated using pymatgen
data_Y3Si2(PPd5)4
_symmetry_space_group_name_H-M   'P 1'
_cell_length_a   8.69697669
_cell_length_b   8.68200433
_cell_length_c   8.68200353
_cell_angle_alpha   60.11412809
_cell_angle_beta   59.94293268
_cell_angle_gamma   59.94293647
_symmetry_Int_Tables_number   1
_chemical_formula_structural   Y3Si2(PPd5)4
_chemical_formula_sum   'Y3 Si2 P4 Pd20'
_cell_volume   463.54368395
_cell_formula_units_Z   1
loop_
 _symmetry_equiv_pos_site_id
 _symmetry_equiv_pos_as_xyz
  1  'x, y, z'
loop_
 _atom_site_type_symbol
 _atom_site_label
 _atom_site_symmetry_multiplicity
 _atom_site_fract_x
 _atom_site_fract_y
 _atom_site_fract_z
 _atom_site_occupancy
  Y  Y0  1  0.250000  0.250000  0.250000  1
  Y  Y1  1  0.750000  0.750000  0.750000  1
  Y  Y2  1  0.000000  0.000000  0.000000  1
  Si  Si3  1  0.734304  0.265696  0.265696  1
  Si  Si4  1  0.265696  0.734304  0.734304  1
  P  P5  1  0.264653  0.735347  0.264653  1
  P  P6  1  0.735347  0.264653  0.735347  1
  P  P7  1  0.264653  0.264653  0.735347  1
  P  P8  1  0.735347  0.735347  0.264653  1
  Pd  Pd9  1  0.383061  0.384885  0.384885  1
  Pd  Pd10  1  0.616939  0.615115  0.615115  1
  Pd  Pd11  1  0.384885  0.383061  0.847171  1
  Pd  Pd12  1  0.384885  0.847171  0.383061  1
  Pd  Pd13  1  0.615115  0.616939  0.152829  1
  Pd  Pd14  1  0.615115  0.152829  0.616939  1
  Pd  Pd15  1  0.847171  0.384885  0.384885  1
  Pd  Pd16  1  0.152829  0.615115  0.615115  1
  Pd  Pd17  1  0.343852  0.000000  0.000000  1
  Pd  Pd18  1  0.656148  0.000000  0.000000  1
  Pd  Pd19  1  0.000000  0.343852  0.656148  1
  Pd  Pd20  1  0.000000  0.656148  0.343852  1
  Pd  Pd21  1  0.000790  0.346127  0.999210  1
  Pd  Pd22  1  0.653873  0.999210  0.346127  1
  Pd  Pd23  1  0.999210  0.653873  0.000790  1
  Pd  Pd24  1  0.346127  0.000790  0.653873  1
  Pd  Pd25  1  0.000790  0.999210  0.346127  1
  Pd  Pd26  1  0.999210  0.000790  0.653873  1
  Pd  Pd27  1  0.653873  0.346127  0.999210  1
  Pd  Pd28  1  0.346127  0.653873  0.000790  1
