# generated using pymatgen
data_CeZr3(NiAs2)2
_symmetry_space_group_name_H-M   'P 1'
_cell_length_a   4.02344800
_cell_length_b   4.02344821
_cell_length_c   13.51999500
_cell_angle_alpha   90.00000000
_cell_angle_beta   90.00000000
_cell_angle_gamma   119.99998182
_symmetry_Int_Tables_number   1
_chemical_formula_structural   CeZr3(NiAs2)2
_chemical_formula_sum   'Ce1 Zr3 Ni2 As4'
_cell_volume   189.54138537
_cell_formula_units_Z   1
loop_
 _symmetry_equiv_pos_site_id
 _symmetry_equiv_pos_as_xyz
  1  'x, y, z'
loop_
 _atom_site_type_symbol
 _atom_site_label
 _atom_site_symmetry_multiplicity
 _atom_site_fract_x
 _atom_site_fract_y
 _atom_site_fract_z
 _atom_site_occupancy
  Ce  Ce0  1  0.666667  0.333333  0.386078  1
  Zr  Zr1  1  0.333333  0.666667  0.891380  1
  Zr  Zr2  1  0.333333  0.666667  0.629534  1
  Zr  Zr3  1  0.666667  0.333333  0.103030  1
  Ni  Ni4  1  0.000000  0.000000  0.770267  1
  Ni  Ni5  1  0.000000  0.000000  0.203238  1
  As  As6  1  0.333333  0.666667  0.242374  1
  As  As7  1  0.000000  0.000000  0.998631  1
  As  As8  1  0.000000  0.000000  0.518118  1
  As  As9  1  0.666667  0.333333  0.757350  1
