# generated using pymatgen
data_EuCu2Ni3
_symmetry_space_group_name_H-M   'P 1'
_cell_length_a   5.05857500
_cell_length_b   5.05857522
_cell_length_c   3.99554900
_cell_angle_alpha   90.00000000
_cell_angle_beta   90.00000000
_cell_angle_gamma   119.99999202
_symmetry_Int_Tables_number   1
_chemical_formula_structural   EuCu2Ni3
_chemical_formula_sum   'Eu1 Cu2 Ni3'
_cell_volume   88.54489623
_cell_formula_units_Z   1
loop_
 _symmetry_equiv_pos_site_id
 _symmetry_equiv_pos_as_xyz
  1  'x, y, z'
loop_
 _atom_site_type_symbol
 _atom_site_label
 _atom_site_symmetry_multiplicity
 _atom_site_fract_x
 _atom_site_fract_y
 _atom_site_fract_z
 _atom_site_occupancy
  Eu  Eu0  1  0.000000  0.000000  0.000000  1
  Cu  Cu1  1  0.666667  0.333333  0.000000  1
  Cu  Cu2  1  0.333333  0.666667  0.000000  1
  Ni  Ni3  1  0.500000  0.500000  0.500000  1
  Ni  Ni4  1  0.500000  0.000000  0.500000  1
  Ni  Ni5  1  0.000000  0.500000  0.500000  1
