# generated using pymatgen
data_Ho5HgRu2
_symmetry_space_group_name_H-M   'P 1'
_cell_length_a   8.50548049
_cell_length_b   8.50547985
_cell_length_c   8.50548100
_cell_angle_alpha   126.32966016
_cell_angle_beta   126.32965700
_cell_angle_gamma   79.34700120
_symmetry_Int_Tables_number   1
_chemical_formula_structural   Ho5HgRu2
_chemical_formula_sum   'Ho10 Hg2 Ru4'
_cell_volume   386.05312248
_cell_formula_units_Z   2
loop_
 _symmetry_equiv_pos_site_id
 _symmetry_equiv_pos_as_xyz
  1  'x, y, z'
loop_
 _atom_site_type_symbol
 _atom_site_label
 _atom_site_symmetry_multiplicity
 _atom_site_fract_x
 _atom_site_fract_y
 _atom_site_fract_z
 _atom_site_occupancy
  Ho  Ho0  1  0.000000  0.000000  0.000000  1
  Ho  Ho1  1  0.500000  0.500000  0.000000  1
  Ho  Ho2  1  0.793120  0.293120  0.816650  1
  Ho  Ho3  1  0.206880  0.706880  0.183350  1
  Ho  Ho4  1  0.476470  0.976470  0.183350  1
  Ho  Ho5  1  0.293120  0.476470  0.500000  1
  Ho  Ho6  1  0.023530  0.206880  0.500000  1
  Ho  Ho7  1  0.523530  0.023530  0.816650  1
  Ho  Ho8  1  0.706880  0.523530  0.500000  1
  Ho  Ho9  1  0.976470  0.793120  0.500000  1
  Hg  Hg10  1  0.250000  0.250000  0.000000  1
  Hg  Hg11  1  0.750000  0.750000  0.000000  1
  Ru  Ru12  1  0.141983  0.641983  0.783964  1
  Ru  Ru13  1  0.858017  0.358017  0.216036  1
  Ru  Ru14  1  0.641983  0.858017  0.500000  1
  Ru  Ru15  1  0.358017  0.141983  0.500000  1
