# generated using pymatgen
data_BaPu2PbCl12
_symmetry_space_group_name_H-M   'P 1'
_cell_length_a   6.90312500
_cell_length_b   6.90312422
_cell_length_c   13.03995000
_cell_angle_alpha   90.00000000
_cell_angle_beta   90.00000000
_cell_angle_gamma   119.99999896
_symmetry_Int_Tables_number   1
_chemical_formula_structural   BaPu2PbCl12
_chemical_formula_sum   'Ba1 Pu2 Pb1 Cl12'
_cell_volume   538.14336277
_cell_formula_units_Z   1
loop_
 _symmetry_equiv_pos_site_id
 _symmetry_equiv_pos_as_xyz
  1  'x, y, z'
loop_
 _atom_site_type_symbol
 _atom_site_label
 _atom_site_symmetry_multiplicity
 _atom_site_fract_x
 _atom_site_fract_y
 _atom_site_fract_z
 _atom_site_occupancy
  Ba  Ba0  1  0.666667  0.333333  0.750000  1
  Pu  Pu1  1  0.000000  0.000000  0.493285  1
  Pu  Pu2  1  0.000000  0.000000  0.006715  1
  Pb  Pb3  1  0.333333  0.666667  0.250000  1
  Cl  Cl4  1  0.682988  0.973516  0.611145  1
  Cl  Cl5  1  0.316216  0.006987  0.379306  1
  Cl  Cl6  1  0.026484  0.709472  0.611145  1
  Cl  Cl7  1  0.682988  0.709472  0.888855  1
  Cl  Cl8  1  0.993013  0.309230  0.379306  1
  Cl  Cl9  1  0.316216  0.309230  0.120694  1
  Cl  Cl10  1  0.290528  0.317012  0.611145  1
  Cl  Cl11  1  0.026484  0.317012  0.888855  1
  Cl  Cl12  1  0.690770  0.683784  0.379306  1
  Cl  Cl13  1  0.993013  0.683784  0.120694  1
  Cl  Cl14  1  0.290528  0.973516  0.888855  1
  Cl  Cl15  1  0.690770  0.006987  0.120694  1
