# generated using pymatgen
data_Dy3Ta(P3Rh4)2
_symmetry_space_group_name_H-M   'P 1'
_cell_length_a   3.94075400
_cell_length_b   11.16458400
_cell_length_c   12.86347100
_cell_angle_alpha   90.00000000
_cell_angle_beta   90.00000000
_cell_angle_gamma   90.00000000
_symmetry_Int_Tables_number   1
_chemical_formula_structural   Dy3Ta(P3Rh4)2
_chemical_formula_sum   'Dy6 Ta2 P12 Rh16'
_cell_volume   565.95257783
_cell_formula_units_Z   2
loop_
 _symmetry_equiv_pos_site_id
 _symmetry_equiv_pos_as_xyz
  1  'x, y, z'
loop_
 _atom_site_type_symbol
 _atom_site_label
 _atom_site_symmetry_multiplicity
 _atom_site_fract_x
 _atom_site_fract_y
 _atom_site_fract_z
 _atom_site_occupancy
  Dy  Dy0  1  0.000000  0.500000  0.522587  1
  Dy  Dy1  1  0.500000  0.000000  0.477413  1
  Dy  Dy2  1  0.500000  0.819119  0.202106  1
  Dy  Dy3  1  0.500000  0.180881  0.202106  1
  Dy  Dy4  1  0.000000  0.680881  0.797894  1
  Dy  Dy5  1  0.000000  0.319119  0.797894  1
  Ta  Ta6  1  0.500000  0.500000  0.158362  1
  Ta  Ta7  1  0.000000  0.000000  0.841638  1
  P  P8  1  0.500000  0.500000  0.875530  1
  P  P9  1  0.000000  0.000000  0.124470  1
  P  P10  1  0.500000  0.500000  0.352479  1
  P  P11  1  0.000000  0.000000  0.647521  1
  P  P12  1  0.500000  0.314298  0.616852  1
  P  P13  1  0.500000  0.685702  0.616852  1
  P  P14  1  0.000000  0.185702  0.383148  1
  P  P15  1  0.000000  0.814298  0.383148  1
  P  P16  1  0.500000  0.844695  0.887332  1
  P  P17  1  0.500000  0.155305  0.887332  1
  P  P18  1  0.000000  0.655305  0.112668  1
  P  P19  1  0.000000  0.344695  0.112668  1
  Rh  Rh20  1  0.500000  0.500000  0.697926  1
  Rh  Rh21  1  0.000000  0.000000  0.302074  1
  Rh  Rh22  1  0.000000  0.500000  0.988437  1
  Rh  Rh23  1  0.500000  0.000000  0.011563  1
  Rh  Rh24  1  0.500000  0.332024  0.986567  1
  Rh  Rh25  1  0.500000  0.667976  0.986567  1
  Rh  Rh26  1  0.000000  0.167976  0.013433  1
  Rh  Rh27  1  0.000000  0.832024  0.013433  1
  Rh  Rh28  1  0.500000  0.294429  0.432453  1
  Rh  Rh29  1  0.500000  0.705571  0.432453  1
  Rh  Rh30  1  0.000000  0.205571  0.567547  1
  Rh  Rh31  1  0.000000  0.794429  0.567547  1
  Rh  Rh32  1  0.500000  0.874128  0.707270  1
  Rh  Rh33  1  0.500000  0.125872  0.707270  1
  Rh  Rh34  1  0.000000  0.625872  0.292730  1
  Rh  Rh35  1  0.000000  0.374128  0.292730  1
