# generated using pymatgen
data_Pr2Mo2O7
_symmetry_space_group_name_H-M   'P 1'
_cell_length_a   7.54402670
_cell_length_b   7.54402733
_cell_length_c   7.54402701
_cell_angle_alpha   119.94430451
_cell_angle_beta   119.94429735
_cell_angle_gamma   90.09649768
_symmetry_Int_Tables_number   1
_chemical_formula_structural   Pr2Mo2O7
_chemical_formula_sum   'Pr4 Mo4 O14'
_cell_volume   303.85019958
_cell_formula_units_Z   2
loop_
 _symmetry_equiv_pos_site_id
 _symmetry_equiv_pos_as_xyz
  1  'x, y, z'
loop_
 _atom_site_type_symbol
 _atom_site_label
 _atom_site_symmetry_multiplicity
 _atom_site_fract_x
 _atom_site_fract_y
 _atom_site_fract_z
 _atom_site_occupancy
  Pr  Pr0  1  0.375000  0.625000  0.750000  1
  Pr  Pr1  1  0.375000  0.625000  0.250000  1
  Pr  Pr2  1  0.875000  0.625000  0.250000  1
  Pr  Pr3  1  0.375000  0.125000  0.750000  1
  Mo  Mo4  1  0.875000  0.625000  0.750000  1
  Mo  Mo5  1  0.375000  0.125000  0.250000  1
  Mo  Mo6  1  0.875000  0.125000  0.250000  1
  Mo  Mo7  1  0.875000  0.125000  0.750000  1
  O  O8  1  0.785521  0.201613  0.998723  1
  O  O9  1  0.547110  0.463202  0.498723  1
  O  O10  1  0.207153  0.207153  0.000000  1
  O  O11  1  0.957153  0.457153  0.500000  1
  O  O12  1  0.798387  0.797110  0.583909  1
  O  O13  1  0.536798  0.035521  0.083909  1
  O  O14  1  0.250000  0.750000  0.500000  1
  O  O15  1  0.951613  0.452890  0.916091  1
  O  O16  1  0.964479  0.048387  0.501277  1
  O  O17  1  0.542847  0.042847  0.500000  1
  O  O18  1  0.213202  0.214479  0.416091  1
  O  O19  1  0.500000  0.500000  0.000000  1
  O  O20  1  0.792847  0.792847  0.000000  1
  O  O21  1  0.202890  0.786798  0.001277  1
