# generated using pymatgen
data_TbCu3HgPt
_symmetry_space_group_name_H-M   'P 1'
_cell_length_a   5.20990698
_cell_length_b   5.20990719
_cell_length_c   5.20990842
_cell_angle_alpha   59.66797704
_cell_angle_beta   59.66796977
_cell_angle_gamma   59.66797598
_symmetry_Int_Tables_number   1
_chemical_formula_structural   TbCu3HgPt
_chemical_formula_sum   'Tb1 Cu3 Hg1 Pt1'
_cell_volume   99.23995639
_cell_formula_units_Z   1
loop_
 _symmetry_equiv_pos_site_id
 _symmetry_equiv_pos_as_xyz
  1  'x, y, z'
loop_
 _atom_site_type_symbol
 _atom_site_label
 _atom_site_symmetry_multiplicity
 _atom_site_fract_x
 _atom_site_fract_y
 _atom_site_fract_z
 _atom_site_occupancy
  Tb  Tb0  1  0.251621  0.251621  0.251621  1
  Cu  Cu1  1  0.624248  0.624248  0.123069  1
  Cu  Cu2  1  0.624248  0.123069  0.624248  1
  Cu  Cu3  1  0.123069  0.624248  0.624248  1
  Hg  Hg4  1  0.002463  0.002463  0.002463  1
  Pt  Pt5  1  0.624350  0.624350  0.624350  1
