# generated using pymatgen
data_DyEr3(Al3Ir)6
_symmetry_space_group_name_H-M   'P 1'
_cell_length_a   7.54550770
_cell_length_b   7.54424702
_cell_length_c   9.45501800
_cell_angle_alpha   90.00000000
_cell_angle_beta   90.00000000
_cell_angle_gamma   119.51154784
_symmetry_Int_Tables_number   1
_chemical_formula_structural   DyEr3(Al3Ir)6
_chemical_formula_sum   'Dy1 Er3 Al18 Ir6'
_cell_volume   468.39685240
_cell_formula_units_Z   1
loop_
 _symmetry_equiv_pos_site_id
 _symmetry_equiv_pos_as_xyz
  1  'x, y, z'
loop_
 _atom_site_type_symbol
 _atom_site_label
 _atom_site_symmetry_multiplicity
 _atom_site_fract_x
 _atom_site_fract_y
 _atom_site_fract_z
 _atom_site_occupancy
  Dy  Dy0  1  0.328895  0.005331  0.250000  1
  Er  Er1  1  0.994767  0.671260  0.750000  1
  Er  Er2  1  0.005206  0.328727  0.250000  1
  Er  Er3  1  0.671269  0.994791  0.750000  1
  Al  Al4  1  0.128336  0.128487  0.750000  1
  Al  Al5  1  0.871116  0.871417  0.250000  1
  Al  Al6  1  0.000671  0.335204  0.574538  1
  Al  Al7  1  0.998945  0.664493  0.425865  1
  Al  Al8  1  0.998945  0.664493  0.074135  1
  Al  Al9  1  0.335202  0.000714  0.925015  1
  Al  Al10  1  0.000671  0.335204  0.925462  1
  Al  Al11  1  0.665177  0.999214  0.074053  1
  Al  Al12  1  0.665177  0.999214  0.425947  1
  Al  Al13  1  0.335202  0.000714  0.574985  1
  Al  Al14  1  0.333112  0.333412  0.051740  1
  Al  Al15  1  0.666857  0.666862  0.947452  1
  Al  Al16  1  0.666857  0.666862  0.552548  1
  Al  Al17  1  0.333112  0.333412  0.448260  1
  Al  Al18  1  0.339288  0.548615  0.750000  1
  Al  Al19  1  0.661118  0.451885  0.250000  1
  Al  Al20  1  0.548735  0.339475  0.750000  1
  Al  Al21  1  0.451419  0.660256  0.250000  1
  Ir  Ir22  1  0.672076  0.328074  0.500103  1
  Ir  Ir23  1  0.328025  0.671943  0.500094  1
  Ir  Ir24  1  0.328025  0.671943  0.999906  1
  Ir  Ir25  1  0.672076  0.328074  0.999897  1
  Ir  Ir26  1  0.999860  0.999962  0.500131  1
  Ir  Ir27  1  0.999860  0.999962  0.999869  1
