# generated using pymatgen
data_Dy15Y(In3Pt)2
_symmetry_space_group_name_H-M   'P 1'
_cell_length_a   10.49949200
_cell_length_b   10.50635370
_cell_length_c   7.01998514
_cell_angle_alpha   90.01962049
_cell_angle_beta   90.00000000
_cell_angle_gamma   119.97835392
_symmetry_Int_Tables_number   1
_chemical_formula_structural   Dy15Y(In3Pt)2
_chemical_formula_sum   'Dy15 Y1 In6 Pt2'
_cell_volume   670.78258938
_cell_formula_units_Z   1
loop_
 _symmetry_equiv_pos_site_id
 _symmetry_equiv_pos_as_xyz
  1  'x, y, z'
loop_
 _atom_site_type_symbol
 _atom_site_label
 _atom_site_symmetry_multiplicity
 _atom_site_fract_x
 _atom_site_fract_y
 _atom_site_fract_z
 _atom_site_occupancy
  Dy  Dy0  1  0.937626  0.468801  0.515593  1
  Dy  Dy1  1  0.531177  0.468802  0.515593  1
  Dy  Dy2  1  0.468832  0.937664  0.015613  1
  Dy  Dy3  1  0.062246  0.531094  0.015600  1
  Dy  Dy4  1  0.468846  0.531093  0.015600  1
  Dy  Dy5  1  0.174995  0.349990  0.723213  1
  Dy  Dy6  1  0.650110  0.824974  0.723422  1
  Dy  Dy7  1  0.174863  0.824974  0.723422  1
  Dy  Dy8  1  0.825096  0.650193  0.223264  1
  Dy  Dy9  1  0.349884  0.175078  0.223128  1
  Dy  Dy10  1  0.825194  0.175078  0.223128  1
  Dy  Dy11  1  0.666689  0.333377  0.890640  1
  Dy  Dy12  1  0.333281  0.666563  0.390377  1
  Dy  Dy13  1  0.000047  0.000093  0.497544  1
  Dy  Dy14  1  0.999962  0.999924  0.997461  1
  Y  Y15  1  0.530833  0.061667  0.516102  1
  In  In16  1  0.836983  0.673966  0.759560  1
  In  In17  1  0.326133  0.163035  0.759608  1
  In  In18  1  0.836901  0.163035  0.759608  1
  In  In19  1  0.163039  0.326078  0.259564  1
  In  In20  1  0.673857  0.837030  0.259594  1
  In  In21  1  0.163174  0.837030  0.259594  1
  Pt  Pt22  1  0.666954  0.333907  0.288288  1
  Pt  Pt23  1  0.333277  0.666555  0.788684  1
