# generated using pymatgen
data_La6BiSbTe6
_symmetry_space_group_name_H-M   'P 1'
_cell_length_a   8.40627275
_cell_length_b   8.40940759
_cell_length_c   8.44188063
_cell_angle_alpha   109.55822090
_cell_angle_beta   109.53389888
_cell_angle_gamma   109.35052997
_symmetry_Int_Tables_number   1
_chemical_formula_structural   La6BiSbTe6
_chemical_formula_sum   'La6 Bi1 Sb1 Te6'
_cell_volume   459.22915454
_cell_formula_units_Z   1
loop_
 _symmetry_equiv_pos_site_id
 _symmetry_equiv_pos_as_xyz
  1  'x, y, z'
loop_
 _atom_site_type_symbol
 _atom_site_label
 _atom_site_symmetry_multiplicity
 _atom_site_fract_x
 _atom_site_fract_y
 _atom_site_fract_z
 _atom_site_occupancy
  La  La0  1  0.870444  0.119299  0.748152  1
  La  La1  1  0.379198  0.254120  0.624811  1
  La  La2  1  0.120563  0.749044  0.872563  1
  La  La3  1  0.748970  0.872603  0.120126  1
  La  La4  1  0.256149  0.626444  0.379404  1
  La  La5  1  0.624443  0.378233  0.255074  1
  Bi  Bi6  1  0.499369  0.999052  0.342962  1
  Sb  Sb7  1  0.656047  0.655798  0.656213  1
  Te  Te8  1  0.999124  0.345806  0.499870  1
  Te  Te9  1  0.345869  0.499618  0.000016  1
  Te  Te10  1  0.999845  0.847149  0.499180  1
  Te  Te11  1  0.847117  0.499140  0.000126  1
  Te  Te12  1  0.153804  0.153679  0.154299  1
  Te  Te13  1  0.499057  0.000013  0.847204  1
