# generated using pymatgen
data_K16ZrSnSb8
_symmetry_space_group_name_H-M   'P 1'
_cell_length_a   11.63905983
_cell_length_b   11.63906741
_cell_length_c   11.62678200
_cell_angle_alpha   60.03491060
_cell_angle_beta   60.03488907
_cell_angle_gamma   60.07083741
_symmetry_Int_Tables_number   1
_chemical_formula_structural   K16ZrSnSb8
_chemical_formula_sum   'K16 Zr1 Sn1 Sb8'
_cell_volume   1114.91489350
_cell_formula_units_Z   1
loop_
 _symmetry_equiv_pos_site_id
 _symmetry_equiv_pos_as_xyz
  1  'x, y, z'
loop_
 _atom_site_type_symbol
 _atom_site_label
 _atom_site_symmetry_multiplicity
 _atom_site_fract_x
 _atom_site_fract_y
 _atom_site_fract_z
 _atom_site_occupancy
  K  K0  1  0.623261  0.130312  0.623214  1
  K  K1  1  0.623238  0.623239  0.130355  1
  K  K2  1  0.130313  0.623262  0.623213  1
  K  K3  1  0.623238  0.623239  0.623168  1
  K  K4  1  0.021694  0.021693  0.478306  1
  K  K5  1  0.776426  0.223526  0.223515  1
  K  K6  1  0.223524  0.776427  0.776535  1
  K  K7  1  0.776475  0.776477  0.223524  1
  K  K8  1  0.776426  0.223526  0.776532  1
  K  K9  1  0.223524  0.776427  0.223514  1
  K  K10  1  0.478256  0.021783  0.478122  1
  K  K11  1  0.478256  0.021783  0.021839  1
  K  K12  1  0.021784  0.478254  0.478121  1
  K  K13  1  0.021784  0.478254  0.021841  1
  K  K14  1  0.223513  0.223513  0.776487  1
  K  K15  1  0.478073  0.478072  0.021927  1
  Zr  Zr16  1  0.749944  0.749942  0.750057  1
  Sn  Sn17  1  0.500142  0.500143  0.499857  1
  Sb  Sb18  1  0.396685  0.809891  0.396712  1
  Sb  Sb19  1  0.851233  0.851233  0.446455  1
  Sb  Sb20  1  0.446544  0.851251  0.851103  1
  Sb  Sb21  1  0.851233  0.851233  0.851080  1
  Sb  Sb22  1  0.809891  0.396685  0.396712  1
  Sb  Sb23  1  0.396646  0.396646  0.396674  1
  Sb  Sb24  1  0.396646  0.396646  0.810034  1
  Sb  Sb25  1  0.851251  0.446544  0.851103  1
