# generated using pymatgen
data_Tb6Al24Fe2Os2Ru3Rh
_symmetry_space_group_name_H-M   'P 1'
_cell_length_a   8.79712500
_cell_length_b   8.79712600
_cell_length_c   9.50660900
_cell_angle_alpha   90.00000000
_cell_angle_beta   90.00000000
_cell_angle_gamma   120.09920847
_symmetry_Int_Tables_number   1
_chemical_formula_structural   Tb6Al24Fe2Os2Ru3Rh
_chemical_formula_sum   'Tb6 Al24 Fe2 Os2 Ru3 Rh1'
_cell_volume   636.50645195
_cell_formula_units_Z   1
loop_
 _symmetry_equiv_pos_site_id
 _symmetry_equiv_pos_as_xyz
  1  'x, y, z'
loop_
 _atom_site_type_symbol
 _atom_site_label
 _atom_site_symmetry_multiplicity
 _atom_site_fract_x
 _atom_site_fract_y
 _atom_site_fract_z
 _atom_site_occupancy
  Tb  Tb0  1  0.197359  0.387372  0.250519  1
  Tb  Tb1  1  0.802641  0.612628  0.749481  1
  Tb  Tb2  1  0.611404  0.802979  0.249827  1
  Tb  Tb3  1  0.388596  0.197021  0.750173  1
  Tb  Tb4  1  0.193695  0.808466  0.250435  1
  Tb  Tb5  1  0.806305  0.191534  0.749565  1
  Al  Al6  1  0.334548  0.668088  0.013090  1
  Al  Al7  1  0.665452  0.331912  0.986910  1
  Al  Al8  1  0.667170  0.332732  0.512812  1
  Al  Al9  1  0.332830  0.667268  0.487188  1
  Al  Al10  1  0.158857  0.318097  0.575907  1
  Al  Al11  1  0.841143  0.681903  0.424093  1
  Al  Al12  1  0.681810  0.840985  0.575612  1
  Al  Al13  1  0.840199  0.682261  0.075898  1
  Al  Al14  1  0.318190  0.159015  0.424388  1
  Al  Al15  1  0.159801  0.317739  0.924102  1
  Al  Al16  1  0.158400  0.841489  0.576955  1
  Al  Al17  1  0.318536  0.159218  0.075475  1
  Al  Al18  1  0.841600  0.158511  0.423045  1
  Al  Al19  1  0.681464  0.840782  0.924525  1
  Al  Al20  1  0.840610  0.157213  0.076983  1
  Al  Al21  1  0.159390  0.842787  0.923017  1
  Al  Al22  1  0.561036  0.120601  0.249657  1
  Al  Al23  1  0.438964  0.879399  0.750343  1
  Al  Al24  1  0.878960  0.438945  0.250458  1
  Al  Al25  1  0.121040  0.561055  0.749542  1
  Al  Al26  1  0.562470  0.437857  0.249613  1
  Al  Al27  1  0.437530  0.562143  0.750387  1
  Al  Al28  1  0.999906  0.000291  0.250077  1
  Al  Al29  1  0.000094  0.999709  0.749923  1
  Fe  Fe30  1  0.000000  0.000000  0.000000  1
  Fe  Fe31  1  0.000000  0.000000  0.500000  1
  Os  Os32  1  0.500000  0.500000  0.000000  1
  Os  Os33  1  0.500000  0.500000  0.500000  1
  Ru  Ru34  1  0.500000  0.000000  0.000000  1
  Ru  Ru35  1  0.500000  0.000000  0.500000  1
  Ru  Ru36  1  0.000000  0.500000  0.500000  1
  Rh  Rh37  1  0.000000  0.500000  0.000000  1
