# generated using pymatgen
data_Sr2B4Os3C
_symmetry_space_group_name_H-M   'P 1'
_cell_length_a   5.79744738
_cell_length_b   5.79744816
_cell_length_c   8.00112398
_cell_angle_alpha   58.12521002
_cell_angle_beta   58.12520352
_cell_angle_gamma   41.27194456
_symmetry_Int_Tables_number   1
_chemical_formula_structural   Sr2B4Os3C
_chemical_formula_sum   'Sr2 B4 Os3 C1'
_cell_volume   146.45102956
_cell_formula_units_Z   1
loop_
 _symmetry_equiv_pos_site_id
 _symmetry_equiv_pos_as_xyz
  1  'x, y, z'
loop_
 _atom_site_type_symbol
 _atom_site_label
 _atom_site_symmetry_multiplicity
 _atom_site_fract_x
 _atom_site_fract_y
 _atom_site_fract_z
 _atom_site_occupancy
  Sr  Sr0  1  0.389115  0.931689  0.237973  1
  Sr  Sr1  1  0.068311  0.610885  0.762027  1
  B  B2  1  0.065618  0.639626  0.314589  1
  B  B3  1  0.529979  0.543259  0.876115  1
  B  B4  1  0.360374  0.934382  0.685411  1
  B  B5  1  0.456741  0.470021  0.123885  1
  Os  Os6  1  0.862259  0.398106  0.589674  1
  Os  Os7  1  0.998749  0.001251  0.000000  1
  Os  Os8  1  0.601894  0.137741  0.410326  1
  C  C9  1  0.731961  0.268039  0.500000  1
