# generated using pymatgen
data_Er4GaCuRu6
_symmetry_space_group_name_H-M   'P 1'
_cell_length_a   5.32301732
_cell_length_b   5.33841852
_cell_length_c   8.58405051
_cell_angle_alpha   89.99863909
_cell_angle_beta   89.96532787
_cell_angle_gamma   119.88497395
_symmetry_Int_Tables_number   1
_chemical_formula_structural   Er4GaCuRu6
_chemical_formula_sum   'Er4 Ga1 Cu1 Ru6'
_cell_volume   211.49275755
_cell_formula_units_Z   1
loop_
 _symmetry_equiv_pos_site_id
 _symmetry_equiv_pos_as_xyz
  1  'x, y, z'
loop_
 _atom_site_type_symbol
 _atom_site_label
 _atom_site_symmetry_multiplicity
 _atom_site_fract_x
 _atom_site_fract_y
 _atom_site_fract_z
 _atom_site_occupancy
  Er  Er0  1  0.329277  0.658715  0.437803  1
  Er  Er1  1  0.663378  0.326680  0.564017  1
  Er  Er2  1  0.669118  0.338069  0.930621  1
  Er  Er3  1  0.336485  0.673056  0.071597  1
  Ga  Ga4  1  0.995505  0.991073  0.001414  1
  Cu  Cu5  1  0.170105  0.337908  0.749936  1
  Ru  Ru6  1  0.178776  0.837331  0.751559  1
  Ru  Ru7  1  0.347071  0.173755  0.245318  1
  Ru  Ru8  1  0.830872  0.661850  0.256114  1
  Ru  Ru9  1  0.658202  0.837935  0.751602  1
  Ru  Ru10  1  0.826461  0.173883  0.245205  1
  Ru  Ru11  1  0.994751  0.989747  0.494814  1
