# generated using pymatgen
data_Li3Yb2Lu2AlPt4
_symmetry_space_group_name_H-M   'P 1'
_cell_length_a   4.03971800
_cell_length_b   6.97760445
_cell_length_c   8.29511800
_cell_angle_alpha   90.70928642
_cell_angle_beta   90.00000000
_cell_angle_gamma   90.00000000
_symmetry_Int_Tables_number   1
_chemical_formula_structural   Li3Yb2Lu2AlPt4
_chemical_formula_sum   'Li3 Yb2 Lu2 Al1 Pt4'
_cell_volume   233.80117299
_cell_formula_units_Z   1
loop_
 _symmetry_equiv_pos_site_id
 _symmetry_equiv_pos_as_xyz
  1  'x, y, z'
loop_
 _atom_site_type_symbol
 _atom_site_label
 _atom_site_symmetry_multiplicity
 _atom_site_fract_x
 _atom_site_fract_y
 _atom_site_fract_z
 _atom_site_occupancy
  Li  Li0  1  0.250000  0.129147  0.058773  1
  Li  Li1  1  0.250000  0.632539  0.438836  1
  Li  Li2  1  0.750000  0.873893  0.943558  1
  Yb  Yb3  1  0.750000  0.953826  0.321129  1
  Yb  Yb4  1  0.750000  0.456951  0.177615  1
  Lu  Lu5  1  0.250000  0.040957  0.679111  1
  Lu  Lu6  1  0.250000  0.546717  0.822189  1
  Al  Al7  1  0.750000  0.372940  0.557693  1
  Pt  Pt8  1  0.250000  0.257216  0.397597  1
  Pt  Pt9  1  0.250000  0.746688  0.117788  1
  Pt  Pt10  1  0.750000  0.736693  0.631386  1
  Pt  Pt11  1  0.750000  0.252433  0.854327  1
