# generated using pymatgen
data_TbYRh2O7
_symmetry_space_group_name_H-M   'P 1'
_cell_length_a   7.24185418
_cell_length_b   7.24185476
_cell_length_c   7.24185393
_cell_angle_alpha   119.89087517
_cell_angle_beta   120.08936664
_cell_angle_gamma   90.01720071
_symmetry_Int_Tables_number   1
_chemical_formula_structural   TbYRh2O7
_chemical_formula_sum   'Tb2 Y2 Rh4 O14'
_cell_volume   268.59475913
_cell_formula_units_Z   2
loop_
 _symmetry_equiv_pos_site_id
 _symmetry_equiv_pos_as_xyz
  1  'x, y, z'
loop_
 _atom_site_type_symbol
 _atom_site_label
 _atom_site_symmetry_multiplicity
 _atom_site_fract_x
 _atom_site_fract_y
 _atom_site_fract_z
 _atom_site_occupancy
  Tb  Tb0  1  0.000000  0.500000  0.000000  1
  Tb  Tb1  1  0.000000  0.000000  0.500000  1
  Y  Y2  1  0.000000  0.500000  0.500000  1
  Y  Y3  1  0.500000  0.500000  0.000000  1
  Rh  Rh4  1  0.500000  0.000000  0.000000  1
  Rh  Rh5  1  0.500000  0.500000  0.500000  1
  Rh  Rh6  1  0.500000  0.000000  0.500000  1
  Rh  Rh7  1  0.000000  0.000000  0.000000  1
  O  O8  1  0.874504  0.624504  0.250000  1
  O  O9  1  0.125496  0.375496  0.750000  1
  O  O10  1  0.837248  0.087248  0.750000  1
  O  O11  1  0.414439  0.664439  0.750000  1
  O  O12  1  0.836558  0.663393  0.749595  1
  O  O13  1  0.413798  0.086964  0.750405  1
  O  O14  1  0.836558  0.086964  0.173166  1
  O  O15  1  0.413798  0.663393  0.326834  1
  O  O16  1  0.162752  0.912752  0.250000  1
  O  O17  1  0.585561  0.335561  0.250000  1
  O  O18  1  0.163442  0.336607  0.250405  1
  O  O19  1  0.586202  0.913036  0.249595  1
  O  O20  1  0.163442  0.913036  0.826834  1
  O  O21  1  0.586202  0.336607  0.673166  1
