# generated using pymatgen
data_Tb7HoTa8(TiSi4)4
_symmetry_space_group_name_H-M   'P 1'
_cell_length_a   7.06288857
_cell_length_b   7.05947848
_cell_length_c   12.99805913
_cell_angle_alpha   89.98659961
_cell_angle_beta   90.09348450
_cell_angle_gamma   89.96942332
_symmetry_Int_Tables_number   1
_chemical_formula_structural   Tb7HoTa8(TiSi4)4
_chemical_formula_sum   'Tb7 Ho1 Ta8 Ti4 Si16'
_cell_volume   648.08628355
_cell_formula_units_Z   1
loop_
 _symmetry_equiv_pos_site_id
 _symmetry_equiv_pos_as_xyz
  1  'x, y, z'
loop_
 _atom_site_type_symbol
 _atom_site_label
 _atom_site_symmetry_multiplicity
 _atom_site_fract_x
 _atom_site_fract_y
 _atom_site_fract_z
 _atom_site_occupancy
  Tb  Tb0  1  0.340878  0.003359  0.466397  1
  Tb  Tb1  1  0.497764  0.840845  0.717161  1
  Tb  Tb2  1  0.501960  0.158406  0.217217  1
  Tb  Tb3  1  0.841469  0.498210  0.282946  1
  Tb  Tb4  1  0.158049  0.502595  0.782828  1
  Tb  Tb5  1  0.659221  0.996764  0.967372  1
  Tb  Tb6  1  0.003149  0.340529  0.533088  1
  Ho  Ho7  1  0.997578  0.659898  0.032879  1
  Ta  Ta8  1  0.329038  0.329331  0.999824  1
  Ta  Ta9  1  0.174311  0.825186  0.249977  1
  Ta  Ta10  1  0.826629  0.174300  0.750202  1
  Ta  Ta11  1  0.152424  0.009538  0.874623  1
  Ta  Ta12  1  0.492036  0.652510  0.123624  1
  Ta  Ta13  1  0.507152  0.346425  0.624903  1
  Ta  Ta14  1  0.652367  0.492156  0.876115  1
  Ta  Ta15  1  0.347051  0.507613  0.375415  1
  Ti  Ti16  1  0.669462  0.668845  0.499879  1
  Ti  Ti17  1  0.847807  0.991181  0.374073  1
  Ti  Ti18  1  0.008924  0.152980  0.125439  1
  Ti  Ti19  1  0.991292  0.846504  0.626070  1
  Si  Si20  1  0.201941  0.131601  0.683025  1
  Si  Si21  1  0.365234  0.704101  0.932771  1
  Si  Si22  1  0.634398  0.296437  0.433349  1
  Si  Si23  1  0.704832  0.365597  0.067544  1
  Si  Si24  1  0.296438  0.634572  0.566316  1
  Si  Si25  1  0.800258  0.867642  0.184559  1
  Si  Si26  1  0.131043  0.201155  0.316066  1
  Si  Si27  1  0.866177  0.798255  0.816129  1
  Si  Si28  1  0.291720  0.953833  0.064641  1
  Si  Si29  1  0.548733  0.792983  0.315094  1
  Si  Si30  1  0.453763  0.206525  0.813261  1
  Si  Si31  1  0.793618  0.548327  0.684379  1
  Si  Si32  1  0.205316  0.452949  0.185829  1
  Si  Si33  1  0.709145  0.045426  0.563384  1
  Si  Si34  1  0.953669  0.294747  0.937110  1
  Si  Si35  1  0.045153  0.708682  0.436513  1
