# generated using pymatgen
data_Ho9Al(SiB4)4
_symmetry_space_group_name_H-M   'P 1'
_cell_length_a   7.13892200
_cell_length_b   7.13892200
_cell_length_c   7.93052400
_cell_angle_alpha   90.00000000
_cell_angle_beta   90.00000000
_cell_angle_gamma   90.00000000
_symmetry_Int_Tables_number   1
_chemical_formula_structural   Ho9Al(SiB4)4
_chemical_formula_sum   'Ho9 Al1 Si4 B16'
_cell_volume   404.17286931
_cell_formula_units_Z   1
loop_
 _symmetry_equiv_pos_site_id
 _symmetry_equiv_pos_as_xyz
  1  'x, y, z'
loop_
 _atom_site_type_symbol
 _atom_site_label
 _atom_site_symmetry_multiplicity
 _atom_site_fract_x
 _atom_site_fract_y
 _atom_site_fract_z
 _atom_site_occupancy
  Ho  Ho0  1  0.682346  0.179331  0.227438  1
  Ho  Ho1  1  0.317654  0.820669  0.772562  1
  Ho  Ho2  1  0.317654  0.820669  0.227438  1
  Ho  Ho3  1  0.820669  0.682346  0.227438  1
  Ho  Ho4  1  0.820669  0.682346  0.772562  1
  Ho  Ho5  1  0.682346  0.179331  0.772562  1
  Ho  Ho6  1  0.179331  0.317654  0.772562  1
  Ho  Ho7  1  0.179331  0.317654  0.227438  1
  Ho  Ho8  1  0.500000  0.500000  0.500000  1
  Al  Al9  1  0.000000  0.000000  0.500000  1
  Si  Si10  1  0.114053  0.620730  0.500000  1
  Si  Si11  1  0.885947  0.379270  0.500000  1
  Si  Si12  1  0.379270  0.114053  0.500000  1
  Si  Si13  1  0.620730  0.885947  0.500000  1
  B  B14  1  0.174727  0.039731  0.000000  1
  B  B15  1  0.825273  0.960269  0.000000  1
  B  B16  1  0.960269  0.174727  0.000000  1
  B  B17  1  0.327121  0.539556  0.000000  1
  B  B18  1  0.039731  0.825273  0.000000  1
  B  B19  1  0.672879  0.460444  0.000000  1
  B  B20  1  0.539556  0.672879  0.000000  1
  B  B21  1  0.460444  0.327121  0.000000  1
  B  B22  1  0.089849  0.588453  0.000000  1
  B  B23  1  0.910151  0.411547  0.000000  1
  B  B24  1  0.411547  0.089849  0.000000  1
  B  B25  1  0.588453  0.910151  0.000000  1
  B  B26  1  0.000000  0.000000  0.161889  1
  B  B27  1  0.000000  0.000000  0.838111  1
  B  B28  1  0.500000  0.500000  0.835185  1
  B  B29  1  0.500000  0.500000  0.164815  1
