# generated using pymatgen
data_NaAg(SO4)2
_symmetry_space_group_name_H-M   'P 1'
_cell_length_a   8.61648500
_cell_length_b   4.84706998
_cell_length_c   9.30088194
_cell_angle_alpha   64.78861943
_cell_angle_beta   90.00000000
_cell_angle_gamma   90.00000000
_symmetry_Int_Tables_number   1
_chemical_formula_structural   NaAg(SO4)2
_chemical_formula_sum   'Na2 Ag2 S4 O16'
_cell_volume   351.44594113
_cell_formula_units_Z   2
loop_
 _symmetry_equiv_pos_site_id
 _symmetry_equiv_pos_as_xyz
  1  'x, y, z'
loop_
 _atom_site_type_symbol
 _atom_site_label
 _atom_site_symmetry_multiplicity
 _atom_site_fract_x
 _atom_site_fract_y
 _atom_site_fract_z
 _atom_site_occupancy
  Na  Na0  1  0.000000  0.000000  0.500000  1
  Na  Na1  1  0.500000  0.000000  0.000000  1
  Ag  Ag2  1  0.000000  0.000000  0.000000  1
  Ag  Ag3  1  0.500000  0.000000  0.500000  1
  S  S4  1  0.207837  0.606819  0.888099  1
  S  S5  1  0.292163  0.606819  0.388099  1
  S  S6  1  0.792163  0.393181  0.111901  1
  S  S7  1  0.707837  0.393181  0.611901  1
  O  O8  1  0.358199  0.636093  0.534966  1
  O  O9  1  0.641801  0.363907  0.465034  1
  O  O10  1  0.141801  0.636093  0.034966  1
  O  O11  1  0.204657  0.260658  0.938054  1
  O  O12  1  0.704657  0.739342  0.561946  1
  O  O13  1  0.610854  0.225196  0.748754  1
  O  O14  1  0.795343  0.739342  0.061946  1
  O  O15  1  0.858199  0.363907  0.965034  1
  O  O16  1  0.372344  0.686696  0.870299  1
  O  O17  1  0.389146  0.774804  0.251246  1
  O  O18  1  0.889146  0.225196  0.248754  1
  O  O19  1  0.127656  0.686696  0.370299  1
  O  O20  1  0.295343  0.260658  0.438054  1
  O  O21  1  0.627656  0.313304  0.129701  1
  O  O22  1  0.110854  0.774804  0.751246  1
  O  O23  1  0.872344  0.313304  0.629701  1
