# generated using pymatgen
data_Sn16PdPtRh2
_symmetry_space_group_name_H-M   'P 1'
_cell_length_a   12.69055247
_cell_length_b   12.69055330
_cell_length_c   12.69805101
_cell_angle_alpha   150.80522083
_cell_angle_beta   150.80522807
_cell_angle_gamma   41.67186474
_symmetry_Int_Tables_number   1
_chemical_formula_structural   Sn16PdPtRh2
_chemical_formula_sum   'Sn16 Pd1 Pt1 Rh2'
_cell_volume   485.58938930
_cell_formula_units_Z   1
loop_
 _symmetry_equiv_pos_site_id
 _symmetry_equiv_pos_as_xyz
  1  'x, y, z'
loop_
 _atom_site_type_symbol
 _atom_site_label
 _atom_site_symmetry_multiplicity
 _atom_site_fract_x
 _atom_site_fract_y
 _atom_site_fract_z
 _atom_site_occupancy
  Sn  Sn0  1  0.143260  0.636676  0.153207  1
  Sn  Sn1  1  0.637057  0.483680  0.493850  1
  Sn  Sn2  1  0.885090  0.890824  0.649446  1
  Sn  Sn3  1  0.390924  0.741546  0.005458  1
  Sn  Sn4  1  0.609176  0.614910  0.350554  1
  Sn  Sn5  1  0.114534  0.763911  0.005458  1
  Sn  Sn6  1  0.863324  0.356740  0.846793  1
  Sn  Sn7  1  0.356793  0.510172  0.493850  1
  Sn  Sn8  1  0.989828  0.143207  0.506150  1
  Sn  Sn9  1  0.483469  0.990054  0.846793  1
  Sn  Sn10  1  0.736089  0.385466  0.994542  1
  Sn  Sn11  1  0.241378  0.235644  0.350554  1
  Sn  Sn12  1  0.758454  0.109076  0.994542  1
  Sn  Sn13  1  0.264356  0.258622  0.649446  1
  Sn  Sn14  1  0.016320  0.862943  0.506150  1
  Sn  Sn15  1  0.509946  0.016531  0.153207  1
  Pd  Pd16  1  0.000000  0.500000  0.500000  1
  Pt  Pt17  1  0.750000  0.750000  0.000000  1
  Rh  Rh18  1  0.250000  0.250000  0.000000  1
  Rh  Rh19  1  0.500000  0.000000  0.500000  1
