# generated using pymatgen
data_Nb12VCo8Re3C4
_symmetry_space_group_name_H-M   'P 1'
_cell_length_a   8.18221161
_cell_length_b   8.12098106
_cell_length_c   8.18221200
_cell_angle_alpha   59.75026891
_cell_angle_beta   59.99999842
_cell_angle_gamma   59.75026944
_symmetry_Int_Tables_number   1
_chemical_formula_structural   Nb12VCo8Re3C4
_chemical_formula_sum   'Nb12 V1 Co8 Re3 C4'
_cell_volume   382.98807505
_cell_formula_units_Z   1
loop_
 _symmetry_equiv_pos_site_id
 _symmetry_equiv_pos_as_xyz
  1  'x, y, z'
loop_
 _atom_site_type_symbol
 _atom_site_label
 _atom_site_symmetry_multiplicity
 _atom_site_fract_x
 _atom_site_fract_y
 _atom_site_fract_z
 _atom_site_occupancy
  Nb  Nb0  1  0.694317  0.305425  0.694317  1
  Nb  Nb1  1  0.941775  0.556760  0.559689  1
  Nb  Nb2  1  0.555683  0.944575  0.944058  1
  Nb  Nb3  1  0.941775  0.556760  0.941775  1
  Nb  Nb4  1  0.559689  0.556760  0.941775  1
  Nb  Nb5  1  0.944058  0.944575  0.555683  1
  Nb  Nb6  1  0.690311  0.693240  0.308225  1
  Nb  Nb7  1  0.308225  0.693240  0.690311  1
  Nb  Nb8  1  0.694317  0.305425  0.305942  1
  Nb  Nb9  1  0.305942  0.305425  0.694317  1
  Nb  Nb10  1  0.555683  0.944575  0.555683  1
  Nb  Nb11  1  0.308225  0.693240  0.308225  1
  V  V12  1  0.125000  0.625000  0.125000  1
  Co  Co13  1  0.322791  0.333606  0.322791  1
  Co  Co14  1  0.229188  0.916394  0.927209  1
  Co  Co15  1  0.924600  0.226199  0.924600  1
  Co  Co16  1  0.927209  0.916394  0.229188  1
  Co  Co17  1  0.325400  0.023801  0.325400  1
  Co  Co18  1  0.322791  0.333606  0.020812  1
  Co  Co19  1  0.020812  0.333606  0.322791  1
  Co  Co20  1  0.927209  0.916394  0.927209  1
  Re  Re21  1  0.125000  0.125000  0.125000  1
  Re  Re22  1  0.625000  0.125000  0.125000  1
  Re  Re23  1  0.125000  0.125000  0.625000  1
  C  C24  1  0.625000  0.625000  0.625000  1
  C  C25  1  0.125000  0.625000  0.625000  1
  C  C26  1  0.625000  0.125000  0.625000  1
  C  C27  1  0.625000  0.625000  0.125000  1
