# generated using pymatgen
data_HoZn3PtAu
_symmetry_space_group_name_H-M   'P 1'
_cell_length_a   5.23575583
_cell_length_b   5.23575468
_cell_length_c   5.25010223
_cell_angle_alpha   60.09036539
_cell_angle_beta   60.09036675
_cell_angle_gamma   60.00000352
_symmetry_Int_Tables_number   1
_chemical_formula_structural   HoZn3PtAu
_chemical_formula_sum   'Ho1 Zn3 Pt1 Au1'
_cell_volume   101.90683082
_cell_formula_units_Z   1
loop_
 _symmetry_equiv_pos_site_id
 _symmetry_equiv_pos_as_xyz
  1  'x, y, z'
loop_
 _atom_site_type_symbol
 _atom_site_label
 _atom_site_symmetry_multiplicity
 _atom_site_fract_x
 _atom_site_fract_y
 _atom_site_fract_z
 _atom_site_occupancy
  Ho  Ho0  1  0.998065  0.998065  0.005804  1
  Zn  Zn1  1  0.624440  0.132549  0.618571  1
  Zn  Zn2  1  0.132549  0.624440  0.618571  1
  Zn  Zn3  1  0.624440  0.624440  0.618571  1
  Pt  Pt4  1  0.629520  0.629520  0.111440  1
  Au  Au5  1  0.240987  0.240987  0.277041  1
