# generated using pymatgen
data_Gd3ZrSn2Ir3
_symmetry_space_group_name_H-M   'P 1'
_cell_length_a   7.26595100
_cell_length_b   7.36971632
_cell_length_c   4.19738000
_cell_angle_alpha   90.00000000
_cell_angle_beta   90.00000000
_cell_angle_gamma   119.53530805
_symmetry_Int_Tables_number   1
_chemical_formula_structural   Gd3ZrSn2Ir3
_chemical_formula_sum   'Gd3 Zr1 Sn2 Ir3'
_cell_volume   195.55403133
_cell_formula_units_Z   1
loop_
 _symmetry_equiv_pos_site_id
 _symmetry_equiv_pos_as_xyz
  1  'x, y, z'
loop_
 _atom_site_type_symbol
 _atom_site_label
 _atom_site_symmetry_multiplicity
 _atom_site_fract_x
 _atom_site_fract_y
 _atom_site_fract_z
 _atom_site_occupancy
  Gd  Gd0  1  0.602198  0.000000  0.000000  1
  Gd  Gd1  1  0.993203  0.581607  0.000000  1
  Gd  Gd2  1  0.411595  0.418393  0.000000  1
  Zr  Zr3  1  0.249338  0.000000  0.500000  1
  Sn  Sn4  1  0.001217  0.252712  0.500000  1
  Sn  Sn5  1  0.748505  0.747288  0.500000  1
  Ir  Ir6  1  0.327706  0.676341  0.500000  1
  Ir  Ir7  1  0.651367  0.323659  0.500000  1
  Ir  Ir8  1  0.014872  0.000000  0.000000  1
