# generated using pymatgen
data_Hf10GaSiSb4
_symmetry_space_group_name_H-M   'P 1'
_cell_length_a   5.47415319
_cell_length_b   8.23721929
_cell_length_c   8.23721795
_cell_angle_alpha   83.66098245
_cell_angle_beta   70.59268803
_cell_angle_gamma   70.59267469
_symmetry_Int_Tables_number   1
_chemical_formula_structural   Hf10GaSiSb4
_chemical_formula_sum   'Hf10 Ga1 Si1 Sb4'
_cell_volume   330.42089442
_cell_formula_units_Z   1
loop_
 _symmetry_equiv_pos_site_id
 _symmetry_equiv_pos_as_xyz
  1  'x, y, z'
loop_
 _atom_site_type_symbol
 _atom_site_label
 _atom_site_symmetry_multiplicity
 _atom_site_fract_x
 _atom_site_fract_y
 _atom_site_fract_z
 _atom_site_occupancy
  Hf  Hf0  1  0.077740  0.136219  0.714567  1
  Hf  Hf1  1  0.928528  0.863781  0.285433  1
  Hf  Hf2  1  0.792307  0.285433  0.136219  1
  Hf  Hf3  1  0.422260  0.285433  0.863781  1
  Hf  Hf4  1  0.213960  0.714567  0.863781  1
  Hf  Hf5  1  0.571472  0.714567  0.136219  1
  Hf  Hf6  1  0.707693  0.863781  0.714567  1
  Hf  Hf7  1  0.286040  0.136219  0.285433  1
  Hf  Hf8  1  0.250000  0.500000  0.500000  1
  Hf  Hf9  1  0.750000  0.500000  0.500000  1
  Ga  Ga10  1  0.750000  0.000000  0.000000  1
  Si  Si11  1  0.250000  0.000000  0.000000  1
  Sb  Sb12  1  0.164384  0.500000  0.171230  1
  Sb  Sb13  1  0.835616  0.500000  0.828770  1
  Sb  Sb14  1  0.335616  0.828770  0.500000  1
  Sb  Sb15  1  0.664384  0.171230  0.500000  1
