# generated using pymatgen
data_Tb8Re13B12
_symmetry_space_group_name_H-M   'P 1'
_cell_length_a   7.81359306
_cell_length_b   7.81359407
_cell_length_c   7.81359285
_cell_angle_alpha   86.23231396
_cell_angle_beta   86.23231389
_cell_angle_gamma   86.23231530
_symmetry_Int_Tables_number   1
_chemical_formula_structural   Tb8Re13B12
_chemical_formula_sum   'Tb8 Re13 B12'
_cell_volume   474.07378992
_cell_formula_units_Z   1
loop_
 _symmetry_equiv_pos_site_id
 _symmetry_equiv_pos_as_xyz
  1  'x, y, z'
loop_
 _atom_site_type_symbol
 _atom_site_label
 _atom_site_symmetry_multiplicity
 _atom_site_fract_x
 _atom_site_fract_y
 _atom_site_fract_z
 _atom_site_occupancy
  Tb  Tb0  1  0.641274  0.641274  0.641274  1
  Tb  Tb1  1  0.358726  0.358726  0.358726  1
  Tb  Tb2  1  0.188604  0.188604  0.687416  1
  Tb  Tb3  1  0.687416  0.188604  0.188604  1
  Tb  Tb4  1  0.188604  0.687416  0.188604  1
  Tb  Tb5  1  0.811396  0.811396  0.312584  1
  Tb  Tb6  1  0.312584  0.811396  0.811396  1
  Tb  Tb7  1  0.811396  0.312584  0.811396  1
  Re  Re8  1  0.000000  0.000000  0.000000  1
  Re  Re9  1  0.596705  0.063464  0.596705  1
  Re  Re10  1  0.596705  0.596705  0.063464  1
  Re  Re11  1  0.063464  0.596705  0.596705  1
  Re  Re12  1  0.403295  0.936536  0.403295  1
  Re  Re13  1  0.403295  0.403295  0.936536  1
  Re  Re14  1  0.936536  0.403295  0.403295  1
  Re  Re15  1  0.923033  0.923033  0.671003  1
  Re  Re16  1  0.671003  0.923033  0.923033  1
  Re  Re17  1  0.923033  0.671003  0.923033  1
  Re  Re18  1  0.076967  0.076967  0.328997  1
  Re  Re19  1  0.328997  0.076967  0.076967  1
  Re  Re20  1  0.076967  0.328997  0.076967  1
  B  B21  1  0.152035  0.847965  0.500000  1
  B  B22  1  0.500000  0.152035  0.847965  1
  B  B23  1  0.847965  0.500000  0.152035  1
  B  B24  1  0.500000  0.847965  0.152035  1
  B  B25  1  0.152035  0.500000  0.847965  1
  B  B26  1  0.847965  0.152035  0.500000  1
  B  B27  1  0.671698  0.500000  0.328302  1
  B  B28  1  0.328302  0.671698  0.500000  1
  B  B29  1  0.500000  0.328302  0.671698  1
  B  B30  1  0.328302  0.500000  0.671698  1
  B  B31  1  0.671698  0.328302  0.500000  1
  B  B32  1  0.500000  0.671698  0.328302  1
