# generated using pymatgen
data_Nb3GaPtO
_symmetry_space_group_name_H-M   'P 1'
_cell_length_a   7.05976100
_cell_length_b   7.05976100
_cell_length_c   7.05976100
_cell_angle_alpha   90.00000000
_cell_angle_beta   90.00000000
_cell_angle_gamma   90.00000000
_symmetry_Int_Tables_number   1
_chemical_formula_structural   Nb3GaPtO
_chemical_formula_sum   'Nb12 Ga4 Pt4 O4'
_cell_volume   351.86007935
_cell_formula_units_Z   4
loop_
 _symmetry_equiv_pos_site_id
 _symmetry_equiv_pos_as_xyz
  1  'x, y, z'
loop_
 _atom_site_type_symbol
 _atom_site_label
 _atom_site_symmetry_multiplicity
 _atom_site_fract_x
 _atom_site_fract_y
 _atom_site_fract_z
 _atom_site_occupancy
  Nb  Nb0  1  0.788738  0.949615  0.377082  1
  Nb  Nb1  1  0.711262  0.050385  0.877082  1
  Nb  Nb2  1  0.211262  0.449615  0.122918  1
  Nb  Nb3  1  0.288738  0.550385  0.622918  1
  Nb  Nb4  1  0.949615  0.377082  0.788738  1
  Nb  Nb5  1  0.050385  0.877082  0.711262  1
  Nb  Nb6  1  0.449615  0.122918  0.211262  1
  Nb  Nb7  1  0.550385  0.622918  0.288738  1
  Nb  Nb8  1  0.377082  0.788738  0.949615  1
  Nb  Nb9  1  0.877082  0.711262  0.050385  1
  Nb  Nb10  1  0.122918  0.211262  0.449615  1
  Nb  Nb11  1  0.622918  0.288738  0.550385  1
  Ga  Ga12  1  0.569360  0.430640  0.930640  1
  Ga  Ga13  1  0.430640  0.930640  0.569360  1
  Ga  Ga14  1  0.930640  0.569360  0.430640  1
  Ga  Ga15  1  0.069360  0.069360  0.069360  1
  Pt  Pt16  1  0.183476  0.816524  0.316524  1
  Pt  Pt17  1  0.316524  0.183476  0.816524  1
  Pt  Pt18  1  0.816524  0.316524  0.183476  1
  Pt  Pt19  1  0.683476  0.683476  0.683476  1
  O  O20  1  0.877755  0.122245  0.622245  1
  O  O21  1  0.622245  0.877755  0.122245  1
  O  O22  1  0.122245  0.622245  0.877755  1
  O  O23  1  0.377755  0.377755  0.377755  1
