# generated using pymatgen
data_CaAl6PtAu3
_symmetry_space_group_name_H-M   'P 1'
_cell_length_a   7.55569700
_cell_length_b   7.55569678
_cell_length_c   4.00828800
_cell_angle_alpha   90.00000000
_cell_angle_beta   90.00000000
_cell_angle_gamma   120.00000535
_symmetry_Int_Tables_number   1
_chemical_formula_structural   CaAl6PtAu3
_chemical_formula_sum   'Ca1 Al6 Pt1 Au3'
_cell_volume   198.17030642
_cell_formula_units_Z   1
loop_
 _symmetry_equiv_pos_site_id
 _symmetry_equiv_pos_as_xyz
  1  'x, y, z'
loop_
 _atom_site_type_symbol
 _atom_site_label
 _atom_site_symmetry_multiplicity
 _atom_site_fract_x
 _atom_site_fract_y
 _atom_site_fract_z
 _atom_site_occupancy
  Ca  Ca0  1  0.000000  0.000000  0.000000  1
  Al  Al1  1  0.943681  0.471841  0.000000  1
  Al  Al2  1  0.205067  0.794933  0.500000  1
  Al  Al3  1  0.528159  0.056319  0.000000  1
  Al  Al4  1  0.528159  0.471841  0.000000  1
  Al  Al5  1  0.205067  0.410133  0.500000  1
  Al  Al6  1  0.589867  0.794933  0.500000  1
  Pt  Pt7  1  0.333333  0.666667  0.000000  1
  Au  Au8  1  0.392427  0.196213  0.500000  1
  Au  Au9  1  0.803787  0.196213  0.500000  1
  Au  Au10  1  0.803787  0.607573  0.500000  1
