# generated using pymatgen
data_BaSc2CoH12Ru
_symmetry_space_group_name_H-M   'P 1'
_cell_length_a   4.69561500
_cell_length_b   4.69561622
_cell_length_c   8.26614700
_cell_angle_alpha   90.00000000
_cell_angle_beta   90.00000000
_cell_angle_gamma   119.99999843
_symmetry_Int_Tables_number   1
_chemical_formula_structural   BaSc2CoH12Ru
_chemical_formula_sum   'Ba1 Sc2 Co1 H12 Ru1'
_cell_volume   157.84064193
_cell_formula_units_Z   1
loop_
 _symmetry_equiv_pos_site_id
 _symmetry_equiv_pos_as_xyz
  1  'x, y, z'
loop_
 _atom_site_type_symbol
 _atom_site_label
 _atom_site_symmetry_multiplicity
 _atom_site_fract_x
 _atom_site_fract_y
 _atom_site_fract_z
 _atom_site_occupancy
  Ba  Ba0  1  0.000000  0.000000  0.007841  1
  Sc  Sc1  1  0.666667  0.333333  0.372121  1
  Sc  Sc2  1  0.333333  0.666667  0.625082  1
  Co  Co3  1  0.333333  0.666667  0.289780  1
  H  H4  1  0.171916  0.828084  0.391304  1
  H  H5  1  0.656168  0.828084  0.391304  1
  H  H6  1  0.171916  0.343832  0.391304  1
  H  H7  1  0.841801  0.158199  0.597536  1
  H  H8  1  0.316396  0.158199  0.597536  1
  H  H9  1  0.841801  0.683604  0.597536  1
  H  H10  1  0.497180  0.994361  0.831507  1
  H  H11  1  0.497180  0.502820  0.831507  1
  H  H12  1  0.005639  0.502820  0.831507  1
  H  H13  1  0.493831  0.987663  0.178492  1
  H  H14  1  0.493831  0.506169  0.178492  1
  H  H15  1  0.012337  0.506169  0.178492  1
  Ru  Ru16  1  0.666667  0.333333  0.708662  1
