# generated using pymatgen
data_Tb13Ce3(HgRh)4
_symmetry_space_group_name_H-M   'P 1'
_cell_length_a   9.58520345
_cell_length_b   9.65873129
_cell_length_c   9.65873000
_cell_angle_alpha   59.99999758
_cell_angle_beta   59.74591771
_cell_angle_gamma   59.74592205
_symmetry_Int_Tables_number   1
_chemical_formula_structural   Tb13Ce3(HgRh)4
_chemical_formula_sum   'Tb13 Ce3 Hg4 Rh4'
_cell_volume   629.86553789
_cell_formula_units_Z   1
loop_
 _symmetry_equiv_pos_site_id
 _symmetry_equiv_pos_as_xyz
  1  'x, y, z'
loop_
 _atom_site_type_symbol
 _atom_site_label
 _atom_site_symmetry_multiplicity
 _atom_site_fract_x
 _atom_site_fract_y
 _atom_site_fract_z
 _atom_site_occupancy
  Tb  Tb0  1  0.189202  0.603599  0.603599  1
  Tb  Tb1  1  0.061929  0.438912  0.438912  1
  Tb  Tb2  1  0.440182  0.060686  0.060686  1
  Tb  Tb3  1  0.440182  0.060686  0.438447  1
  Tb  Tb4  1  0.061929  0.438912  0.060248  1
  Tb  Tb5  1  0.440182  0.438447  0.060686  1
  Tb  Tb6  1  0.061929  0.060248  0.438912  1
  Tb  Tb7  1  0.186435  0.814068  0.814068  1
  Tb  Tb8  1  0.813563  0.186495  0.186495  1
  Tb  Tb9  1  0.813563  0.186495  0.813447  1
  Tb  Tb10  1  0.186435  0.814068  0.185429  1
  Tb  Tb11  1  0.813563  0.813447  0.186495  1
  Tb  Tb12  1  0.186435  0.185429  0.814068  1
  Ce  Ce13  1  0.597097  0.600526  0.600526  1
  Ce  Ce14  1  0.597097  0.600526  0.201851  1
  Ce  Ce15  1  0.597097  0.201851  0.600526  1
  Hg  Hg16  1  0.834355  0.835471  0.835471  1
  Hg  Hg17  1  0.834355  0.835471  0.494703  1
  Hg  Hg18  1  0.834355  0.494703  0.835471  1
  Hg  Hg19  1  0.495695  0.834768  0.834768  1
  Rh  Rh20  1  0.398773  0.391269  0.391269  1
  Rh  Rh21  1  0.398773  0.391269  0.818688  1
  Rh  Rh22  1  0.398773  0.818688  0.391269  1
  Rh  Rh23  1  0.818106  0.393965  0.393965  1
