# generated using pymatgen
data_GdDy2Y(NiAs)4
_symmetry_space_group_name_H-M   'P 1'
_cell_length_a   4.04974000
_cell_length_b   4.04973974
_cell_length_c   15.65169000
_cell_angle_alpha   90.00000000
_cell_angle_beta   90.00000000
_cell_angle_gamma   119.99998576
_symmetry_Int_Tables_number   1
_chemical_formula_structural   GdDy2Y(NiAs)4
_chemical_formula_sum   'Gd1 Dy2 Y1 Ni4 As4'
_cell_volume   222.30344222
_cell_formula_units_Z   1
loop_
 _symmetry_equiv_pos_site_id
 _symmetry_equiv_pos_as_xyz
  1  'x, y, z'
loop_
 _atom_site_type_symbol
 _atom_site_label
 _atom_site_symmetry_multiplicity
 _atom_site_fract_x
 _atom_site_fract_y
 _atom_site_fract_z
 _atom_site_occupancy
  Gd  Gd0  1  0.000000  0.000000  0.000000  1
  Dy  Dy1  1  0.000000  0.000000  0.249990  1
  Dy  Dy2  1  0.000000  0.000000  0.750010  1
  Y  Y3  1  0.000000  0.000000  0.500000  1
  Ni  Ni4  1  0.333333  0.666667  0.133615  1
  Ni  Ni5  1  0.666667  0.333333  0.866385  1
  Ni  Ni6  1  0.666667  0.333333  0.633608  1
  Ni  Ni7  1  0.333333  0.666667  0.366392  1
  As  As8  1  0.333333  0.666667  0.621587  1
  As  As9  1  0.666667  0.333333  0.378413  1
  As  As10  1  0.666667  0.333333  0.121589  1
  As  As11  1  0.333333  0.666667  0.878411  1
