# generated using pymatgen
data_Tb2Ho5CoI12
_symmetry_space_group_name_H-M   'P 1'
_cell_length_a   9.74151837
_cell_length_b   9.74125795
_cell_length_c   9.73457960
_cell_angle_alpha   106.80488642
_cell_angle_beta   106.83245006
_cell_angle_gamma   106.89092806
_symmetry_Int_Tables_number   1
_chemical_formula_structural   Tb2Ho5CoI12
_chemical_formula_sum   'Tb2 Ho5 Co1 I12'
_cell_volume   772.59156945
_cell_formula_units_Z   1
loop_
 _symmetry_equiv_pos_site_id
 _symmetry_equiv_pos_as_xyz
  1  'x, y, z'
loop_
 _atom_site_type_symbol
 _atom_site_label
 _atom_site_symmetry_multiplicity
 _atom_site_fract_x
 _atom_site_fract_y
 _atom_site_fract_z
 _atom_site_occupancy
  Tb  Tb0  1  0.908440  0.711150  0.978601  1
  Tb  Tb1  1  0.711205  0.978726  0.907827  1
  Ho  Ho2  1  0.500201  0.500164  0.500067  1
  Ho  Ho3  1  0.022095  0.091698  0.286139  1
  Ho  Ho4  1  0.091793  0.285830  0.021606  1
  Ho  Ho5  1  0.285801  0.021960  0.091081  1
  Ho  Ho6  1  0.978960  0.909444  0.714144  1
  Co  Co7  1  0.999838  0.999940  0.999972  1
  I  I8  1  0.162241  0.463299  0.386637  1
  I  I9  1  0.463465  0.386742  0.162129  1
  I  I10  1  0.386606  0.162160  0.463255  1
  I  I11  1  0.838057  0.536700  0.612001  1
  I  I12  1  0.535026  0.612124  0.837437  1
  I  I13  1  0.613571  0.837509  0.535147  1
  I  I14  1  0.677684  0.071910  0.226464  1
  I  I15  1  0.071248  0.224336  0.676971  1
  I  I16  1  0.226659  0.677425  0.071881  1
  I  I17  1  0.321622  0.928484  0.775183  1
  I  I18  1  0.929166  0.776880  0.324682  1
  I  I19  1  0.776321  0.323519  0.928776  1
