# generated using pymatgen
data_Ta12Al8CrCu2TcC4
_symmetry_space_group_name_H-M   'P 1'
_cell_length_a   8.26880070
_cell_length_b   8.22613244
_cell_length_c   8.26880100
_cell_angle_alpha   60.17055154
_cell_angle_beta   60.41923455
_cell_angle_gamma   60.17055494
_symmetry_Int_Tables_number   1
_chemical_formula_structural   Ta12Al8CrCu2TcC4
_chemical_formula_sum   'Ta12 Al8 Cr1 Cu2 Tc1 C4'
_cell_volume   399.98599039
_cell_formula_units_Z   1
loop_
 _symmetry_equiv_pos_site_id
 _symmetry_equiv_pos_as_xyz
  1  'x, y, z'
loop_
 _atom_site_type_symbol
 _atom_site_label
 _atom_site_symmetry_multiplicity
 _atom_site_fract_x
 _atom_site_fract_y
 _atom_site_fract_z
 _atom_site_occupancy
  Ta  Ta0  1  0.555114  0.943540  0.557806  1
  Ta  Ta1  1  0.310812  0.698089  0.681953  1
  Ta  Ta2  1  0.680614  0.311551  0.313493  1
  Ta  Ta3  1  0.317144  0.682773  0.317310  1
  Ta  Ta4  1  0.680614  0.694343  0.313493  1
  Ta  Ta5  1  0.310812  0.309146  0.681953  1
  Ta  Ta6  1  0.569386  0.555657  0.936507  1
  Ta  Ta7  1  0.939188  0.551911  0.568047  1
  Ta  Ta8  1  0.569386  0.938449  0.936507  1
  Ta  Ta9  1  0.939188  0.940854  0.568047  1
  Ta  Ta10  1  0.694886  0.306460  0.692194  1
  Ta  Ta11  1  0.932856  0.567227  0.932690  1
  Al  Al12  1  0.922425  0.914940  0.917343  1
  Al  Al13  1  0.996306  0.334940  0.333814  1
  Al  Al14  1  0.327575  0.004706  0.332657  1
  Al  Al15  1  0.331310  0.337192  0.994306  1
  Al  Al16  1  0.922425  0.245294  0.917343  1
  Al  Al17  1  0.918690  0.912808  0.255694  1
  Al  Al18  1  0.253694  0.915060  0.916186  1
  Al  Al19  1  0.327575  0.335060  0.332657  1
  Cr  Cr20  1  0.125000  0.125000  0.625000  1
  Cu  Cu21  1  0.125000  0.125000  0.125000  1
  Cu  Cu22  1  0.125000  0.625000  0.125000  1
  Tc  Tc23  1  0.625000  0.125000  0.125000  1
  C  C24  1  0.625000  0.625000  0.625000  1
  C  C25  1  0.125000  0.625000  0.625000  1
  C  C26  1  0.625000  0.125000  0.625000  1
  C  C27  1  0.625000  0.625000  0.125000  1
