# generated using pymatgen
data_SmLu2Th3Si4
_symmetry_space_group_name_H-M   'P 1'
_cell_length_a   7.56215547
_cell_length_b   7.56215547
_cell_length_c   4.28392200
_cell_angle_alpha   90.00000000
_cell_angle_beta   90.00000000
_cell_angle_gamma   89.95951040
_symmetry_Int_Tables_number   1
_chemical_formula_structural   SmLu2Th3Si4
_chemical_formula_sum   'Sm1 Lu2 Th3 Si4'
_cell_volume   244.98113933
_cell_formula_units_Z   1
loop_
 _symmetry_equiv_pos_site_id
 _symmetry_equiv_pos_as_xyz
  1  'x, y, z'
loop_
 _atom_site_type_symbol
 _atom_site_label
 _atom_site_symmetry_multiplicity
 _atom_site_fract_x
 _atom_site_fract_y
 _atom_site_fract_z
 _atom_site_occupancy
  Sm  Sm0  1  0.823545  0.676455  0.500000  1
  Lu  Lu1  1  0.999193  0.000922  0.000000  1
  Lu  Lu2  1  0.499078  0.500807  0.000000  1
  Th  Th3  1  0.678523  0.178081  0.500000  1
  Th  Th4  1  0.321919  0.821477  0.500000  1
  Th  Th5  1  0.177229  0.322771  0.500000  1
  Si  Si6  1  0.118144  0.618000  0.000000  1
  Si  Si7  1  0.882000  0.381856  0.000000  1
  Si  Si8  1  0.618838  0.881162  0.000000  1
  Si  Si9  1  0.381533  0.118467  0.000000  1
