# generated using pymatgen
data_Hf6Zr4ZnAsPb6
_symmetry_space_group_name_H-M   'P 1'
_cell_length_a   8.80378375
_cell_length_b   8.81409409
_cell_length_c   5.92527710
_cell_angle_alpha   89.96018187
_cell_angle_beta   90.01993579
_cell_angle_gamma   120.03874928
_symmetry_Int_Tables_number   1
_chemical_formula_structural   Hf6Zr4ZnAsPb6
_chemical_formula_sum   'Hf6 Zr4 Zn1 As1 Pb6'
_cell_volume   398.03066470
_cell_formula_units_Z   1
loop_
 _symmetry_equiv_pos_site_id
 _symmetry_equiv_pos_as_xyz
  1  'x, y, z'
loop_
 _atom_site_type_symbol
 _atom_site_label
 _atom_site_symmetry_multiplicity
 _atom_site_fract_x
 _atom_site_fract_y
 _atom_site_fract_z
 _atom_site_occupancy
  Hf  Hf0  1  0.332928  0.666464  0.000000  1
  Hf  Hf1  1  0.666788  0.333394  0.500000  1
  Hf  Hf2  1  0.665527  0.332763  0.000000  1
  Hf  Hf3  1  0.332701  0.666351  0.500000  1
  Hf  Hf4  1  0.262380  0.001133  0.247528  1
  Hf  Hf5  1  0.262380  0.261247  0.752472  1
  Zr  Zr6  1  0.999977  0.737645  0.750986  1
  Zr  Zr7  1  0.999977  0.262331  0.249014  1
  Zr  Zr8  1  0.737775  0.738804  0.248637  1
  Zr  Zr9  1  0.737775  0.998970  0.751363  1
  Zn  Zn10  1  0.002344  0.001171  0.500000  1
  As  As11  1  0.002060  0.001030  0.000000  1
  Pb  Pb12  1  0.607935  0.999972  0.253861  1
  Pb  Pb13  1  0.607935  0.607964  0.746139  1
  Pb  Pb14  1  0.000119  0.390049  0.745824  1
  Pb  Pb15  1  0.000119  0.610069  0.254176  1
  Pb  Pb16  1  0.390641  0.390588  0.255331  1
  Pb  Pb17  1  0.390641  0.000052  0.744669  1
