# generated using pymatgen
data_LaBi3(Rh2O7)2
_symmetry_space_group_name_H-M   'P 1'
_cell_length_a   7.35069214
_cell_length_b   7.35069309
_cell_length_c   7.35069297
_cell_angle_alpha   60.45697907
_cell_angle_beta   60.45697330
_cell_angle_gamma   60.45698132
_symmetry_Int_Tables_number   1
_chemical_formula_structural   LaBi3(Rh2O7)2
_chemical_formula_sum   'La1 Bi3 Rh4 O14'
_cell_volume   283.74831752
_cell_formula_units_Z   1
loop_
 _symmetry_equiv_pos_site_id
 _symmetry_equiv_pos_as_xyz
  1  'x, y, z'
loop_
 _atom_site_type_symbol
 _atom_site_label
 _atom_site_symmetry_multiplicity
 _atom_site_fract_x
 _atom_site_fract_y
 _atom_site_fract_z
 _atom_site_occupancy
  La  La0  1  0.125000  0.125000  0.125000  1
  Bi  Bi1  1  0.625000  0.125000  0.125000  1
  Bi  Bi2  1  0.125000  0.625000  0.125000  1
  Bi  Bi3  1  0.125000  0.125000  0.625000  1
  Rh  Rh4  1  0.625000  0.625000  0.125000  1
  Rh  Rh5  1  0.625000  0.625000  0.625000  1
  Rh  Rh6  1  0.625000  0.125000  0.625000  1
  Rh  Rh7  1  0.125000  0.625000  0.625000  1
  O  O8  1  0.705270  0.292436  0.292436  1
  O  O9  1  0.706318  0.706318  0.294517  1
  O  O10  1  0.292436  0.705270  0.292436  1
  O  O11  1  0.996557  0.996557  0.996557  1
  O  O12  1  0.706318  0.294517  0.706318  1
  O  O13  1  0.955483  0.543682  0.543682  1
  O  O14  1  0.294517  0.706318  0.706318  1
  O  O15  1  0.543682  0.955483  0.543682  1
  O  O16  1  0.253443  0.253443  0.253443  1
  O  O17  1  0.957564  0.544730  0.957564  1
  O  O18  1  0.543682  0.543682  0.955483  1
  O  O19  1  0.957564  0.957564  0.544730  1
  O  O20  1  0.544730  0.957564  0.957564  1
  O  O21  1  0.292436  0.292436  0.705270  1
