# generated using pymatgen
data_La3(YbOs)2
_symmetry_space_group_name_H-M   'P 1'
_cell_length_a   8.83140135
_cell_length_b   8.83140193
_cell_length_c   7.44911274
_cell_angle_alpha   84.49640537
_cell_angle_beta   84.49640593
_cell_angle_gamma   44.33256268
_symmetry_Int_Tables_number   1
_chemical_formula_structural   La3(YbOs)2
_chemical_formula_sum   'La6 Yb4 Os4'
_cell_volume   403.82093281
_cell_formula_units_Z   2
loop_
 _symmetry_equiv_pos_site_id
 _symmetry_equiv_pos_as_xyz
  1  'x, y, z'
loop_
 _atom_site_type_symbol
 _atom_site_label
 _atom_site_symmetry_multiplicity
 _atom_site_fract_x
 _atom_site_fract_y
 _atom_site_fract_z
 _atom_site_occupancy
  La  La0  1  0.353874  0.213420  0.825555  1
  La  La1  1  0.786580  0.646126  0.674445  1
  La  La2  1  0.646126  0.786580  0.174445  1
  La  La3  1  0.213420  0.353874  0.325555  1
  La  La4  1  0.567717  0.432283  0.750000  1
  La  La5  1  0.432283  0.567717  0.250000  1
  Yb  Yb6  1  0.019052  0.803522  0.910658  1
  Yb  Yb7  1  0.196478  0.980948  0.589342  1
  Yb  Yb8  1  0.980948  0.196478  0.089342  1
  Yb  Yb9  1  0.803522  0.019052  0.410658  1
  Os  Os10  1  0.182503  0.590163  0.565141  1
  Os  Os11  1  0.409837  0.817497  0.934859  1
  Os  Os12  1  0.817497  0.409837  0.434859  1
  Os  Os13  1  0.590163  0.182503  0.065141  1
