# generated using pymatgen
data_Tm3Zn2In3Co
_symmetry_space_group_name_H-M   'P 1'
_cell_length_a   7.67372800
_cell_length_b   7.67372853
_cell_length_c   3.74042900
_cell_angle_alpha   90.00000000
_cell_angle_beta   90.00000000
_cell_angle_gamma   119.99999772
_symmetry_Int_Tables_number   1
_chemical_formula_structural   Tm3Zn2In3Co
_chemical_formula_sum   'Tm3 Zn2 In3 Co1'
_cell_volume   190.75015066
_cell_formula_units_Z   1
loop_
 _symmetry_equiv_pos_site_id
 _symmetry_equiv_pos_as_xyz
  1  'x, y, z'
loop_
 _atom_site_type_symbol
 _atom_site_label
 _atom_site_symmetry_multiplicity
 _atom_site_fract_x
 _atom_site_fract_y
 _atom_site_fract_z
 _atom_site_occupancy
  Tm  Tm0  1  0.967304  0.385735  0.500000  1
  Tm  Tm1  1  0.614265  0.581569  0.500000  1
  Tm  Tm2  1  0.418431  0.032696  0.500000  1
  Zn  Zn3  1  0.333333  0.666667  0.000000  1
  Zn  Zn4  1  0.000000  0.000000  0.500000  1
  In  In5  1  0.266910  0.271119  0.000000  1
  In  In6  1  0.004208  0.733090  0.000000  1
  In  In7  1  0.728881  0.995792  0.000000  1
  Co  Co8  1  0.666667  0.333333  0.000000  1
