# generated using pymatgen
data_MnNi2(MoO4)3
_symmetry_space_group_name_H-M   'P 1'
_cell_length_a   7.04396176
_cell_length_b   8.52003451
_cell_length_c   9.74542796
_cell_angle_alpha   96.28152531
_cell_angle_beta   106.75705692
_cell_angle_gamma   101.76880580
_symmetry_Int_Tables_number   1
_chemical_formula_structural   MnNi2(MoO4)3
_chemical_formula_sum   'Mn2 Ni4 Mo6 O24'
_cell_volume   539.36113985
_cell_formula_units_Z   2
loop_
 _symmetry_equiv_pos_site_id
 _symmetry_equiv_pos_as_xyz
  1  'x, y, z'
loop_
 _atom_site_type_symbol
 _atom_site_label
 _atom_site_symmetry_multiplicity
 _atom_site_fract_x
 _atom_site_fract_y
 _atom_site_fract_z
 _atom_site_occupancy
  Mn  Mn0  1  0.965819  0.894799  0.714121  1
  Mn  Mn1  1  0.034181  0.105201  0.285879  1
  Ni  Ni2  1  0.254638  0.701974  0.909299  1
  Ni  Ni3  1  0.745362  0.298026  0.090701  1
  Ni  Ni4  1  0.535122  0.688067  0.492282  1
  Ni  Ni5  1  0.464878  0.311933  0.507718  1
  Mo  Mo6  1  0.506747  0.997243  0.755083  1
  Mo  Mo7  1  0.493253  0.002757  0.244917  1
  Mo  Mo8  1  0.699128  0.600097  0.843877  1
  Mo  Mo9  1  0.300872  0.399903  0.156123  1
  Mo  Mo10  1  0.976554  0.688618  0.375285  1
  Mo  Mo11  1  0.023446  0.311382  0.624715  1
  O  O12  1  0.267854  0.872677  0.764919  1
  O  O13  1  0.732146  0.127323  0.235081  1
  O  O14  1  0.555679  0.707014  0.925965  1
  O  O15  1  0.444321  0.292986  0.074035  1
  O  O16  1  0.557256  0.526451  0.649936  1
  O  O17  1  0.442744  0.473549  0.350064  1
  O  O18  1  0.548276  0.854820  0.353728  1
  O  O19  1  0.451724  0.145180  0.646272  1
  O  O20  1  0.664723  0.097249  0.930765  1
  O  O21  1  0.335277  0.902751  0.069235  1
  O  O22  1  0.644944  0.870287  0.675749  1
  O  O23  1  0.355056  0.129713  0.324251  1
  O  O24  1  0.023964  0.142165  0.719446  1
  O  O25  1  0.976036  0.857835  0.280554  1
  O  O26  1  0.049505  0.268483  0.135352  1
  O  O27  1  0.950495  0.731517  0.864648  1
  O  O28  1  0.150894  0.496333  0.750699  1
  O  O29  1  0.849106  0.503667  0.249301  1
  O  O30  1  0.148474  0.280437  0.484908  1
  O  O31  1  0.851526  0.719563  0.515092  1
  O  O32  1  0.257175  0.565598  0.068970  1
  O  O33  1  0.742825  0.434402  0.931030  1
  O  O34  1  0.235642  0.689791  0.464422  1
  O  O35  1  0.764358  0.310209  0.535578  1
