# generated using pymatgen
data_Tb3Er5(CdRu)2
_symmetry_space_group_name_H-M   'P 1'
_cell_length_a   9.58774461
_cell_length_b   9.58774507
_cell_length_c   9.58774400
_cell_angle_alpha   59.99999680
_cell_angle_beta   59.99999522
_cell_angle_gamma   60.00000039
_symmetry_Int_Tables_number   1
_chemical_formula_structural   Tb3Er5(CdRu)2
_chemical_formula_sum   'Tb6 Er10 Cd4 Ru4'
_cell_volume   623.20989794
_cell_formula_units_Z   2
loop_
 _symmetry_equiv_pos_site_id
 _symmetry_equiv_pos_as_xyz
  1  'x, y, z'
loop_
 _atom_site_type_symbol
 _atom_site_label
 _atom_site_symmetry_multiplicity
 _atom_site_fract_x
 _atom_site_fract_y
 _atom_site_fract_z
 _atom_site_occupancy
  Tb  Tb0  1  0.189539  0.810461  0.810461  1
  Tb  Tb1  1  0.810461  0.189539  0.189539  1
  Tb  Tb2  1  0.810461  0.189539  0.810461  1
  Tb  Tb3  1  0.189539  0.810461  0.189539  1
  Tb  Tb4  1  0.810461  0.810461  0.189539  1
  Tb  Tb5  1  0.189539  0.189539  0.810461  1
  Er  Er6  1  0.596343  0.596343  0.596343  1
  Er  Er7  1  0.596343  0.596343  0.210970  1
  Er  Er8  1  0.596343  0.210970  0.596343  1
  Er  Er9  1  0.210970  0.596343  0.596343  1
  Er  Er10  1  0.062295  0.437705  0.437705  1
  Er  Er11  1  0.437705  0.062295  0.062295  1
  Er  Er12  1  0.437705  0.062295  0.437705  1
  Er  Er13  1  0.062295  0.437705  0.062295  1
  Er  Er14  1  0.437705  0.437705  0.062295  1
  Er  Er15  1  0.062295  0.062295  0.437705  1
  Cd  Cd16  1  0.830184  0.830184  0.830184  1
  Cd  Cd17  1  0.830184  0.830184  0.509448  1
  Cd  Cd18  1  0.830184  0.509448  0.830184  1
  Cd  Cd19  1  0.509448  0.830184  0.830184  1
  Ru  Ru20  1  0.389593  0.389593  0.389593  1
  Ru  Ru21  1  0.389593  0.389593  0.831222  1
  Ru  Ru22  1  0.389593  0.831222  0.389593  1
  Ru  Ru23  1  0.831222  0.389593  0.389593  1
