# generated using pymatgen
data_Np(Si2Ir3)2
_symmetry_space_group_name_H-M   'P 1'
_cell_length_a   7.05414300
_cell_length_b   7.05414148
_cell_length_c   3.84317700
_cell_angle_alpha   90.00000000
_cell_angle_beta   90.00000000
_cell_angle_gamma   120.00001180
_symmetry_Int_Tables_number   1
_chemical_formula_structural   Np(Si2Ir3)2
_chemical_formula_sum   'Np1 Si4 Ir6'
_cell_volume   165.61870786
_cell_formula_units_Z   1
loop_
 _symmetry_equiv_pos_site_id
 _symmetry_equiv_pos_as_xyz
  1  'x, y, z'
loop_
 _atom_site_type_symbol
 _atom_site_label
 _atom_site_symmetry_multiplicity
 _atom_site_fract_x
 _atom_site_fract_y
 _atom_site_fract_z
 _atom_site_occupancy
  Np  Np0  1  0.000000  0.000000  0.000000  1
  Si  Si1  1  0.333333  0.666667  0.000000  1
  Si  Si2  1  0.802185  0.604370  0.500000  1
  Si  Si3  1  0.395630  0.197815  0.500000  1
  Si  Si4  1  0.802185  0.197815  0.500000  1
  Ir  Ir5  1  0.533118  0.066234  0.000000  1
  Ir  Ir6  1  0.933766  0.466882  0.000000  1
  Ir  Ir7  1  0.533118  0.466882  0.000000  1
  Ir  Ir8  1  0.197490  0.394980  0.500000  1
  Ir  Ir9  1  0.605020  0.802510  0.500000  1
  Ir  Ir10  1  0.197490  0.802510  0.500000  1
