# generated using pymatgen
data_Rb8Dy5TmBBr20
_symmetry_space_group_name_H-M   'P 1'
_cell_length_a   12.27849776
_cell_length_b   12.27849849
_cell_length_c   12.27748500
_cell_angle_alpha   60.00272773
_cell_angle_beta   60.00272576
_cell_angle_gamma   59.99454238
_symmetry_Int_Tables_number   1
_chemical_formula_structural   Rb8Dy5TmBBr20
_chemical_formula_sum   'Rb8 Dy5 Tm1 B1 Br20'
_cell_volume   1308.83497341
_cell_formula_units_Z   1
loop_
 _symmetry_equiv_pos_site_id
 _symmetry_equiv_pos_as_xyz
  1  'x, y, z'
loop_
 _atom_site_type_symbol
 _atom_site_label
 _atom_site_symmetry_multiplicity
 _atom_site_fract_x
 _atom_site_fract_y
 _atom_site_fract_z
 _atom_site_occupancy
  Rb  Rb0  1  0.359877  0.359877  0.359213  1
  Rb  Rb1  1  0.640103  0.640103  0.640828  1
  Rb  Rb2  1  0.359877  0.359877  0.921035  1
  Rb  Rb3  1  0.359172  0.921036  0.359897  1
  Rb  Rb4  1  0.640103  0.640103  0.078964  1
  Rb  Rb5  1  0.640787  0.078965  0.640123  1
  Rb  Rb6  1  0.921036  0.359172  0.359897  1
  Rb  Rb7  1  0.078965  0.640787  0.640123  1
  Dy  Dy8  1  0.848721  0.150783  0.151279  1
  Dy  Dy9  1  0.150783  0.848721  0.849217  1
  Dy  Dy10  1  0.150783  0.848721  0.151279  1
  Dy  Dy11  1  0.848721  0.150783  0.849217  1
  Dy  Dy12  1  0.150938  0.150938  0.849062  1
  Tm  Tm13  1  0.850281  0.850281  0.149719  1
  B  B14  1  0.999867  0.999867  0.000133  1
  Br  Br15  1  0.329546  0.999771  0.000229  1
  Br  Br16  1  0.672557  0.997325  0.002675  1
  Br  Br17  1  0.999771  0.329546  0.670454  1
  Br  Br18  1  0.997325  0.672557  0.327443  1
  Br  Br19  1  0.999771  0.329546  0.000229  1
  Br  Br20  1  0.672557  0.997325  0.327443  1
  Br  Br21  1  0.997325  0.672557  0.002675  1
  Br  Br22  1  0.329546  0.999771  0.670454  1
  Br  Br23  1  0.999858  0.999858  0.330238  1
  Br  Br24  1  0.999858  0.999858  0.670046  1
  Br  Br25  1  0.669762  0.329954  0.000142  1
  Br  Br26  1  0.329954  0.669762  0.000142  1
  Br  Br27  1  0.680422  0.318844  0.319578  1
  Br  Br28  1  0.318844  0.680422  0.681156  1
  Br  Br29  1  0.318844  0.680422  0.319578  1
  Br  Br30  1  0.680422  0.318844  0.681156  1
  Br  Br31  1  0.318730  0.318730  0.681270  1
  Br  Br32  1  0.684876  0.684876  0.315124  1
  Br  Br33  1  0.250008  0.250008  0.249992  1
  Br  Br34  1  0.750008  0.750008  0.749992  1
