# generated using pymatgen
data_Ho3Tm2(FeB3)2
_symmetry_space_group_name_H-M   'P 1'
_cell_length_a   5.38642864
_cell_length_b   5.38642849
_cell_length_c   8.18877660
_cell_angle_alpha   70.79852628
_cell_angle_beta   70.79853067
_cell_angle_gamma   59.99999492
_symmetry_Int_Tables_number   1
_chemical_formula_structural   Ho3Tm2(FeB3)2
_chemical_formula_sum   'Ho3 Tm2 Fe2 B6'
_cell_volume   190.34044552
_cell_formula_units_Z   1
loop_
 _symmetry_equiv_pos_site_id
 _symmetry_equiv_pos_as_xyz
  1  'x, y, z'
loop_
 _atom_site_type_symbol
 _atom_site_label
 _atom_site_symmetry_multiplicity
 _atom_site_fract_x
 _atom_site_fract_y
 _atom_site_fract_z
 _atom_site_occupancy
  Ho  Ho0  1  0.000000  0.000000  0.000000  1
  Ho  Ho1  1  0.748047  0.748047  0.755861  1
  Ho  Ho2  1  0.251953  0.251953  0.244139  1
  Tm  Tm3  1  0.582763  0.582763  0.251711  1
  Tm  Tm4  1  0.417237  0.417237  0.748289  1
  Fe  Fe5  1  0.882561  0.882561  0.352317  1
  Fe  Fe6  1  0.117439  0.117439  0.647683  1
  B  B7  1  0.500000  0.168250  0.500000  1
  B  B8  1  0.831750  0.500000  0.500000  1
  B  B9  1  0.168250  0.831750  0.500000  1
  B  B10  1  0.168250  0.500000  0.500000  1
  B  B11  1  0.831750  0.168250  0.500000  1
  B  B12  1  0.500000  0.831750  0.500000  1
