# generated using pymatgen
data_La2Mn2CoN3
_symmetry_space_group_name_H-M   'P 1'
_cell_length_a   6.39649352
_cell_length_b   6.39649437
_cell_length_c   6.22548100
_cell_angle_alpha   87.90720007
_cell_angle_beta   87.90719979
_cell_angle_gamma   117.69619864
_symmetry_Int_Tables_number   1
_chemical_formula_structural   La2Mn2CoN3
_chemical_formula_sum   'La4 Mn4 Co2 N6'
_cell_volume   224.96947762
_cell_formula_units_Z   2
loop_
 _symmetry_equiv_pos_site_id
 _symmetry_equiv_pos_as_xyz
  1  'x, y, z'
loop_
 _atom_site_type_symbol
 _atom_site_label
 _atom_site_symmetry_multiplicity
 _atom_site_fract_x
 _atom_site_fract_y
 _atom_site_fract_z
 _atom_site_occupancy
  La  La0  1  0.835111  0.672707  0.900804  1
  La  La1  1  0.327293  0.164889  0.599196  1
  La  La2  1  0.164889  0.327293  0.099196  1
  La  La3  1  0.672707  0.835111  0.400804  1
  Mn  Mn4  1  0.561289  0.165292  0.107791  1
  Mn  Mn5  1  0.438711  0.834708  0.892209  1
  Mn  Mn6  1  0.834708  0.438711  0.392209  1
  Mn  Mn7  1  0.165292  0.561289  0.607791  1
  Co  Co8  1  0.812988  0.187012  0.750000  1
  Co  Co9  1  0.187012  0.812988  0.250000  1
  N  N10  1  0.420834  0.579166  0.750000  1
  N  N11  1  0.579166  0.420834  0.250000  1
  N  N12  1  0.010605  0.735312  0.511717  1
  N  N13  1  0.735312  0.010605  0.011717  1
  N  N14  1  0.989395  0.264688  0.488283  1
  N  N15  1  0.264688  0.989395  0.988283  1
