# generated using pymatgen
data_Y3Cd3AgHgAu
_symmetry_space_group_name_H-M   'P 1'
_cell_length_a   7.98149900
_cell_length_b   7.98149798
_cell_length_c   3.87380300
_cell_angle_alpha   90.00000000
_cell_angle_beta   90.00000000
_cell_angle_gamma   120.00000010
_symmetry_Int_Tables_number   1
_chemical_formula_structural   Y3Cd3AgHgAu
_chemical_formula_sum   'Y3 Cd3 Ag1 Hg1 Au1'
_cell_volume   213.71599835
_cell_formula_units_Z   1
loop_
 _symmetry_equiv_pos_site_id
 _symmetry_equiv_pos_as_xyz
  1  'x, y, z'
loop_
 _atom_site_type_symbol
 _atom_site_label
 _atom_site_symmetry_multiplicity
 _atom_site_fract_x
 _atom_site_fract_y
 _atom_site_fract_z
 _atom_site_occupancy
  Y  Y0  1  0.599405  0.013476  0.000000  1
  Y  Y1  1  0.986524  0.585929  0.000000  1
  Y  Y2  1  0.414071  0.400595  0.000000  1
  Cd  Cd3  1  0.260462  0.000793  0.500000  1
  Cd  Cd4  1  0.999207  0.259670  0.500000  1
  Cd  Cd5  1  0.740330  0.739538  0.500000  1
  Ag  Ag6  1  0.000000  0.000000  0.000000  1
  Hg  Hg7  1  0.333333  0.666667  0.500000  1
  Au  Au8  1  0.666667  0.333333  0.500000  1
