# generated using pymatgen
data_Ho17Zr2InIr12
_symmetry_space_group_name_H-M   'P 1'
_cell_length_a   10.81504000
_cell_length_b   10.81504000
_cell_length_c   6.27131600
_cell_angle_alpha   90.00000000
_cell_angle_beta   90.00000000
_cell_angle_gamma   90.00000000
_symmetry_Int_Tables_number   1
_chemical_formula_structural   Ho17Zr2InIr12
_chemical_formula_sum   'Ho17 Zr2 In1 Ir12'
_cell_volume   733.52504162
_cell_formula_units_Z   1
loop_
 _symmetry_equiv_pos_site_id
 _symmetry_equiv_pos_as_xyz
  1  'x, y, z'
loop_
 _atom_site_type_symbol
 _atom_site_label
 _atom_site_symmetry_multiplicity
 _atom_site_fract_x
 _atom_site_fract_y
 _atom_site_fract_z
 _atom_site_occupancy
  Ho  Ho0  1  0.285033  0.084515  0.378530  1
  Ho  Ho1  1  0.292064  0.911627  0.878256  1
  Ho  Ho2  1  0.707936  0.088373  0.878256  1
  Ho  Ho3  1  0.714967  0.915485  0.378530  1
  Ho  Ho4  1  0.587611  0.789858  0.878261  1
  Ho  Ho5  1  0.586898  0.209834  0.375015  1
  Ho  Ho6  1  0.413102  0.790166  0.375015  1
  Ho  Ho7  1  0.412389  0.210142  0.878261  1
  Ho  Ho8  1  0.209834  0.413102  0.624985  1
  Ho  Ho9  1  0.210142  0.587611  0.121739  1
  Ho  Ho10  1  0.789858  0.412389  0.121739  1
  Ho  Ho11  1  0.790166  0.586898  0.624985  1
  Ho  Ho12  1  0.911627  0.707936  0.121744  1
  Ho  Ho13  1  0.915485  0.285033  0.621470  1
  Ho  Ho14  1  0.084515  0.714967  0.621470  1
  Ho  Ho15  1  0.088373  0.292064  0.121744  1
  Ho  Ho16  1  0.000000  0.000000  0.000000  1
  Zr  Zr17  1  0.500000  0.500000  0.000000  1
  Zr  Zr18  1  0.500000  0.500000  0.500000  1
  In  In19  1  0.000000  0.000000  0.500000  1
  Ir  Ir20  1  0.844859  0.157451  0.244224  1
  Ir  Ir21  1  0.842549  0.844859  0.755776  1
  Ir  Ir22  1  0.157451  0.155141  0.755776  1
  Ir  Ir23  1  0.155141  0.842549  0.244224  1
  Ir  Ir24  1  0.645699  0.355304  0.747369  1
  Ir  Ir25  1  0.644696  0.645699  0.252631  1
  Ir  Ir26  1  0.355304  0.354301  0.252631  1
  Ir  Ir27  1  0.354301  0.644696  0.747369  1
  Ir  Ir28  1  0.500000  0.000000  0.126114  1
  Ir  Ir29  1  0.500000  0.000000  0.621441  1
  Ir  Ir30  1  0.000000  0.500000  0.873886  1
  Ir  Ir31  1  0.000000  0.500000  0.378559  1
