# generated using pymatgen
data_Dy6Tm4Si5P
_symmetry_space_group_name_H-M   'P 1'
_cell_length_a   8.38136431
_cell_length_b   8.38136382
_cell_length_c   6.23748600
_cell_angle_alpha   90.00000000
_cell_angle_beta   90.00000000
_cell_angle_gamma   120.06397698
_symmetry_Int_Tables_number   1
_chemical_formula_structural   Dy6Tm4Si5P
_chemical_formula_sum   'Dy6 Tm4 Si5 P1'
_cell_volume   379.21829993
_cell_formula_units_Z   1
loop_
 _symmetry_equiv_pos_site_id
 _symmetry_equiv_pos_as_xyz
  1  'x, y, z'
loop_
 _atom_site_type_symbol
 _atom_site_label
 _atom_site_symmetry_multiplicity
 _atom_site_fract_x
 _atom_site_fract_y
 _atom_site_fract_z
 _atom_site_occupancy
  Dy  Dy0  1  0.754275  0.754275  0.250000  1
  Dy  Dy1  1  0.245088  0.001168  0.250000  1
  Dy  Dy2  1  0.001168  0.245088  0.250000  1
  Dy  Dy3  1  0.244814  0.244814  0.750000  1
  Dy  Dy4  1  0.755687  0.000647  0.750000  1
  Dy  Dy5  1  0.000647  0.755687  0.750000  1
  Tm  Tm6  1  0.666282  0.333546  0.500070  1
  Tm  Tm7  1  0.333546  0.666282  0.500070  1
  Tm  Tm8  1  0.333546  0.666282  0.999930  1
  Tm  Tm9  1  0.666282  0.333546  0.999930  1
  Si  Si10  1  0.605255  0.999982  0.250000  1
  Si  Si11  1  0.999982  0.605255  0.250000  1
  Si  Si12  1  0.605808  0.605808  0.750000  1
  Si  Si13  1  0.395084  0.000413  0.750000  1
  Si  Si14  1  0.000413  0.395084  0.750000  1
  P  P15  1  0.392123  0.392123  0.250000  1
