# generated using pymatgen
data_PuCoP3Ru4
_symmetry_space_group_name_H-M   'P 1'
_cell_length_a   3.81760400
_cell_length_b   10.67758600
_cell_length_c   12.32520400
_cell_angle_alpha   90.00000000
_cell_angle_beta   90.00000000
_cell_angle_gamma   90.00000000
_symmetry_Int_Tables_number   1
_chemical_formula_structural   PuCoP3Ru4
_chemical_formula_sum   'Pu4 Co4 P12 Ru16'
_cell_volume   502.40976428
_cell_formula_units_Z   4
loop_
 _symmetry_equiv_pos_site_id
 _symmetry_equiv_pos_as_xyz
  1  'x, y, z'
loop_
 _atom_site_type_symbol
 _atom_site_label
 _atom_site_symmetry_multiplicity
 _atom_site_fract_x
 _atom_site_fract_y
 _atom_site_fract_z
 _atom_site_occupancy
  Pu  Pu0  1  0.250000  0.915940  0.207196  1
  Pu  Pu1  1  0.750000  0.084060  0.792804  1
  Pu  Pu2  1  0.750000  0.415940  0.292804  1
  Pu  Pu3  1  0.250000  0.584060  0.707196  1
  Co  Co4  1  0.250000  0.037331  0.436318  1
  Co  Co5  1  0.750000  0.962669  0.563682  1
  Co  Co6  1  0.750000  0.537331  0.063682  1
  Co  Co7  1  0.250000  0.462669  0.936318  1
  P  P8  1  0.250000  0.076985  0.608681  1
  P  P9  1  0.750000  0.923015  0.391319  1
  P  P10  1  0.750000  0.576985  0.891319  1
  P  P11  1  0.250000  0.423015  0.108681  1
  P  P12  1  0.250000  0.228294  0.367817  1
  P  P13  1  0.750000  0.771706  0.632183  1
  P  P14  1  0.750000  0.728294  0.132183  1
  P  P15  1  0.250000  0.271706  0.867817  1
  P  P16  1  0.250000  0.898847  0.891737  1
  P  P17  1  0.750000  0.101153  0.108263  1
  P  P18  1  0.750000  0.398847  0.608263  1
  P  P19  1  0.250000  0.601153  0.391737  1
  Ru  Ru20  1  0.250000  0.791664  0.486973  1
  Ru  Ru21  1  0.750000  0.208336  0.513027  1
  Ru  Ru22  1  0.750000  0.291664  0.013027  1
  Ru  Ru23  1  0.250000  0.708336  0.986973  1
  Ru  Ru24  1  0.250000  0.095488  0.982986  1
  Ru  Ru25  1  0.750000  0.904512  0.017014  1
  Ru  Ru26  1  0.750000  0.595488  0.517014  1
  Ru  Ru27  1  0.250000  0.404512  0.482986  1
  Ru  Ru28  1  0.250000  0.273770  0.675736  1
  Ru  Ru29  1  0.750000  0.726230  0.324264  1
  Ru  Ru30  1  0.750000  0.773770  0.824264  1
  Ru  Ru31  1  0.250000  0.226230  0.175736  1
  Ru  Ru32  1  0.250000  0.611572  0.198902  1
  Ru  Ru33  1  0.750000  0.388428  0.801098  1
  Ru  Ru34  1  0.750000  0.111572  0.301098  1
  Ru  Ru35  1  0.250000  0.888428  0.698902  1
