# generated using pymatgen
data_Lu9ScCd3Ni
_symmetry_space_group_name_H-M   'P 1'
_cell_length_a   9.38511100
_cell_length_b   9.38511115
_cell_length_c   9.40655500
_cell_angle_alpha   90.00000000
_cell_angle_beta   90.00000000
_cell_angle_gamma   119.99999596
_symmetry_Int_Tables_number   1
_chemical_formula_structural   Lu9ScCd3Ni
_chemical_formula_sum   'Lu18 Sc2 Cd6 Ni2'
_cell_volume   717.53003066
_cell_formula_units_Z   2
loop_
 _symmetry_equiv_pos_site_id
 _symmetry_equiv_pos_as_xyz
  1  'x, y, z'
loop_
 _atom_site_type_symbol
 _atom_site_label
 _atom_site_symmetry_multiplicity
 _atom_site_fract_x
 _atom_site_fract_y
 _atom_site_fract_z
 _atom_site_occupancy
  Lu  Lu0  1  0.542885  0.457115  0.250000  1
  Lu  Lu1  1  0.542885  0.085769  0.250000  1
  Lu  Lu2  1  0.914231  0.457115  0.250000  1
  Lu  Lu3  1  0.457115  0.542885  0.750000  1
  Lu  Lu4  1  0.457115  0.914231  0.750000  1
  Lu  Lu5  1  0.085769  0.542885  0.750000  1
  Lu  Lu6  1  0.210325  0.789675  0.438109  1
  Lu  Lu7  1  0.210325  0.420651  0.438109  1
  Lu  Lu8  1  0.579349  0.789675  0.438109  1
  Lu  Lu9  1  0.789675  0.210325  0.561891  1
  Lu  Lu10  1  0.789675  0.579349  0.561891  1
  Lu  Lu11  1  0.420651  0.210325  0.561891  1
  Lu  Lu12  1  0.789675  0.210325  0.938109  1
  Lu  Lu13  1  0.789675  0.579349  0.938109  1
  Lu  Lu14  1  0.420651  0.210325  0.938109  1
  Lu  Lu15  1  0.210325  0.789675  0.061891  1
  Lu  Lu16  1  0.210325  0.420651  0.061891  1
  Lu  Lu17  1  0.579349  0.789675  0.061891  1
  Sc  Sc18  1  0.000000  0.000000  0.500000  1
  Sc  Sc19  1  0.000000  0.000000  0.000000  1
  Cd  Cd20  1  0.885924  0.114076  0.250000  1
  Cd  Cd21  1  0.885924  0.771848  0.250000  1
  Cd  Cd22  1  0.228152  0.114076  0.250000  1
  Cd  Cd23  1  0.114076  0.885924  0.750000  1
  Cd  Cd24  1  0.114076  0.228152  0.750000  1
  Cd  Cd25  1  0.771848  0.885924  0.750000  1
  Ni  Ni26  1  0.333333  0.666667  0.250000  1
  Ni  Ni27  1  0.666667  0.333333  0.750000  1
