# generated using pymatgen
data_RbMn2VSe4
_symmetry_space_group_name_H-M   'P 1'
_cell_length_a   10.36040854
_cell_length_b   10.36040764
_cell_length_c   7.99727500
_cell_angle_alpha   90.00000000
_cell_angle_beta   90.00000000
_cell_angle_gamma   147.10766553
_symmetry_Int_Tables_number   1
_chemical_formula_structural   RbMn2VSe4
_chemical_formula_sum   'Rb2 Mn4 V2 Se8'
_cell_volume   466.17100797
_cell_formula_units_Z   2
loop_
 _symmetry_equiv_pos_site_id
 _symmetry_equiv_pos_as_xyz
  1  'x, y, z'
loop_
 _atom_site_type_symbol
 _atom_site_label
 _atom_site_symmetry_multiplicity
 _atom_site_fract_x
 _atom_site_fract_y
 _atom_site_fract_z
 _atom_site_occupancy
  Rb  Rb0  1  0.175641  0.542634  0.750000  1
  Rb  Rb1  1  0.542634  0.175641  0.250000  1
  Mn  Mn2  1  0.621610  0.621610  0.500000  1
  Mn  Mn3  1  0.007048  0.214521  0.250000  1
  Mn  Mn4  1  0.214521  0.007048  0.750000  1
  Mn  Mn5  1  0.621610  0.621610  0.000000  1
  V  V6  1  0.706659  0.492722  0.750000  1
  V  V7  1  0.492722  0.706659  0.250000  1
  Se  Se8  1  0.730139  0.945048  0.005474  1
  Se  Se9  1  0.367074  0.362604  0.750000  1
  Se  Se10  1  0.362604  0.367074  0.250000  1
  Se  Se11  1  0.945048  0.730139  0.505474  1
  Se  Se12  1  0.567182  0.162123  0.750000  1
  Se  Se13  1  0.945048  0.730139  0.994526  1
  Se  Se14  1  0.162123  0.567182  0.250000  1
  Se  Se15  1  0.730139  0.945048  0.494526  1
