# generated using pymatgen
data_Dy5TmAl23VOs8
_symmetry_space_group_name_H-M   'P 1'
_cell_length_a   8.83528500
_cell_length_b   8.84442190
_cell_length_c   9.54120814
_cell_angle_alpha   90.01709218
_cell_angle_beta   90.00000000
_cell_angle_gamma   119.96582849
_symmetry_Int_Tables_number   1
_chemical_formula_structural   Dy5TmAl23VOs8
_chemical_formula_sum   'Dy5 Tm1 Al23 V1 Os8'
_cell_volume   645.91211448
_cell_formula_units_Z   1
loop_
 _symmetry_equiv_pos_site_id
 _symmetry_equiv_pos_as_xyz
  1  'x, y, z'
loop_
 _atom_site_type_symbol
 _atom_site_label
 _atom_site_symmetry_multiplicity
 _atom_site_fract_x
 _atom_site_fract_y
 _atom_site_fract_z
 _atom_site_occupancy
  Dy  Dy0  1  0.807116  0.614229  0.750661  1
  Dy  Dy1  1  0.609363  0.804591  0.245991  1
  Dy  Dy2  1  0.385651  0.192870  0.750526  1
  Dy  Dy3  1  0.195226  0.804591  0.245991  1
  Dy  Dy4  1  0.807221  0.192870  0.750526  1
  Tm  Tm5  1  0.196332  0.392666  0.245309  1
  Al  Al6  1  0.666592  0.333183  0.977782  1
  Al  Al7  1  0.666675  0.333349  0.518961  1
  Al  Al8  1  0.333114  0.666229  0.482214  1
  Al  Al9  1  0.162195  0.324391  0.574967  1
  Al  Al10  1  0.837148  0.674296  0.424815  1
  Al  Al11  1  0.675498  0.837744  0.575442  1
  Al  Al12  1  0.835527  0.671053  0.076770  1
  Al  Al13  1  0.325367  0.162966  0.424662  1
  Al  Al14  1  0.160462  0.320925  0.925758  1
  Al  Al15  1  0.162245  0.837744  0.575442  1
  Al  Al16  1  0.328527  0.164471  0.076818  1
  Al  Al17  1  0.837600  0.162966  0.424662  1
  Al  Al18  1  0.678756  0.839385  0.925315  1
  Al  Al19  1  0.835946  0.164471  0.076818  1
  Al  Al20  1  0.160627  0.839385  0.925315  1
  Al  Al21  1  0.562164  0.124327  0.253211  1
  Al  Al22  1  0.441486  0.882971  0.751129  1
  Al  Al23  1  0.876266  0.437688  0.253318  1
  Al  Al24  1  0.117039  0.558418  0.751084  1
  Al  Al25  1  0.561423  0.437688  0.253318  1
  Al  Al26  1  0.441380  0.558418  0.751084  1
  Al  Al27  1  0.000756  0.001512  0.250572  1
  Al  Al28  1  0.999970  0.999940  0.749889  1
  V  V29  1  0.333222  0.666446  0.983242  1
  Os  Os30  1  0.495199  0.990398  0.005580  1
  Os  Os31  1  0.009917  0.504474  0.005984  1
  Os  Os32  1  0.499253  0.998505  0.503494  1
  Os  Os33  1  0.494557  0.504474  0.005984  1
  Os  Os34  1  0.001444  0.500379  0.503316  1
  Os  Os35  1  0.498936  0.500379  0.503316  1
  Os  Os36  1  0.999873  0.999746  0.001056  1
  Os  Os37  1  0.999930  0.999860  0.499675  1
