# generated using pymatgen
data_Li3Er2LuSn3
_symmetry_space_group_name_H-M   'P 1'
_cell_length_a   7.19221250
_cell_length_b   7.19221118
_cell_length_c   4.58995100
_cell_angle_alpha   90.00000000
_cell_angle_beta   90.00000000
_cell_angle_gamma   119.83446041
_symmetry_Int_Tables_number   1
_chemical_formula_structural   Li3Er2LuSn3
_chemical_formula_sum   'Li3 Er2 Lu1 Sn3'
_cell_volume   205.96131189
_cell_formula_units_Z   1
loop_
 _symmetry_equiv_pos_site_id
 _symmetry_equiv_pos_as_xyz
  1  'x, y, z'
loop_
 _atom_site_type_symbol
 _atom_site_label
 _atom_site_symmetry_multiplicity
 _atom_site_fract_x
 _atom_site_fract_y
 _atom_site_fract_z
 _atom_site_occupancy
  Li  Li0  1  0.770421  0.999978  0.500001  1
  Li  Li1  1  0.229670  0.229669  0.500001  1
  Li  Li2  1  0.999978  0.770421  0.500001  1
  Er  Er3  1  0.443977  0.999974  0.000000  1
  Er  Er4  1  0.999974  0.443977  0.000000  1
  Lu  Lu5  1  0.556215  0.556216  0.000000  1
  Sn  Sn6  1  0.999485  0.999485  0.000000  1
  Sn  Sn7  1  0.666427  0.333854  0.500001  1
  Sn  Sn8  1  0.333854  0.666427  0.500001  1
