# generated using pymatgen
data_LaPr9(Bi3Br)2
_symmetry_space_group_name_H-M   'P 1'
_cell_length_a   9.70567518
_cell_length_b   9.70889550
_cell_length_c   6.79554900
_cell_angle_alpha   90.00000000
_cell_angle_beta   90.00000000
_cell_angle_gamma   120.01097599
_symmetry_Int_Tables_number   1
_chemical_formula_structural   LaPr9(Bi3Br)2
_chemical_formula_sum   'La1 Pr9 Bi6 Br2'
_cell_volume   554.50148689
_cell_formula_units_Z   1
loop_
 _symmetry_equiv_pos_site_id
 _symmetry_equiv_pos_as_xyz
  1  'x, y, z'
loop_
 _atom_site_type_symbol
 _atom_site_label
 _atom_site_symmetry_multiplicity
 _atom_site_fract_x
 _atom_site_fract_y
 _atom_site_fract_z
 _atom_site_occupancy
  La  La0  1  0.000000  0.727555  0.750000  1
  Pr  Pr1  1  0.726847  0.000072  0.750000  1
  Pr  Pr2  1  0.000000  0.273448  0.250000  1
  Pr  Pr3  1  0.726234  0.726455  0.250000  1
  Pr  Pr4  1  0.333496  0.666548  0.499787  1
  Pr  Pr5  1  0.333496  0.666548  0.000213  1
  Pr  Pr6  1  0.666504  0.333052  0.499787  1
  Pr  Pr7  1  0.666504  0.333052  0.000213  1
  Pr  Pr8  1  0.273766  0.000221  0.250000  1
  Pr  Pr9  1  0.273153  0.273225  0.750000  1
  Bi  Bi10  1  0.385163  0.000442  0.750000  1
  Bi  Bi11  1  0.615669  0.000046  0.250000  1
  Bi  Bi12  1  0.000000  0.615644  0.250000  1
  Bi  Bi13  1  0.614837  0.615279  0.750000  1
  Bi  Bi14  1  0.000000  0.383382  0.750000  1
  Bi  Bi15  1  0.384331  0.384376  0.250000  1
  Br  Br16  1  0.000000  0.000327  0.499537  1
  Br  Br17  1  0.000000  0.000327  0.000463  1
