# generated using pymatgen
data_MoP4Ru7
_symmetry_space_group_name_H-M   'P 1'
_cell_length_a   3.91219300
_cell_length_b   5.96803896
_cell_length_c   6.93955039
_cell_angle_alpha   91.35631939
_cell_angle_beta   90.00000000
_cell_angle_gamma   90.00000000
_symmetry_Int_Tables_number   1
_chemical_formula_structural   MoP4Ru7
_chemical_formula_sum   'Mo1 P4 Ru7'
_cell_volume   161.98006151
_cell_formula_units_Z   1
loop_
 _symmetry_equiv_pos_site_id
 _symmetry_equiv_pos_as_xyz
  1  'x, y, z'
loop_
 _atom_site_type_symbol
 _atom_site_label
 _atom_site_symmetry_multiplicity
 _atom_site_fract_x
 _atom_site_fract_y
 _atom_site_fract_z
 _atom_site_occupancy
  Mo  Mo0  1  0.750000  0.020468  0.663649  1
  P  P1  1  0.250000  0.742216  0.607210  1
  P  P2  1  0.750000  0.249242  0.391765  1
  P  P3  1  0.250000  0.245256  0.886372  1
  P  P4  1  0.750000  0.756441  0.116413  1
  Ru  Ru5  1  0.250000  0.968287  0.342544  1
  Ru  Ru6  1  0.750000  0.528986  0.842486  1
  Ru  Ru7  1  0.250000  0.491622  0.149349  1
  Ru  Ru8  1  0.250000  0.357077  0.576002  1
  Ru  Ru9  1  0.750000  0.638964  0.426520  1
  Ru  Ru10  1  0.250000  0.861114  0.922969  1
  Ru  Ru11  1  0.750000  0.140326  0.074722  1
