# generated using pymatgen
data_Rb3Ba3ScSb4
_symmetry_space_group_name_H-M   'P 1'
_cell_length_a   11.51427800
_cell_length_b   11.51427778
_cell_length_c   8.54997200
_cell_angle_alpha   90.00000000
_cell_angle_beta   90.00000000
_cell_angle_gamma   120.00000063
_symmetry_Int_Tables_number   1
_chemical_formula_structural   Rb3Ba3ScSb4
_chemical_formula_sum   'Rb6 Ba6 Sc2 Sb8'
_cell_volume   981.67726864
_cell_formula_units_Z   2
loop_
 _symmetry_equiv_pos_site_id
 _symmetry_equiv_pos_as_xyz
  1  'x, y, z'
loop_
 _atom_site_type_symbol
 _atom_site_label
 _atom_site_symmetry_multiplicity
 _atom_site_fract_x
 _atom_site_fract_y
 _atom_site_fract_z
 _atom_site_occupancy
  Rb  Rb0  1  0.862431  0.137569  0.548543  1
  Rb  Rb1  1  0.275137  0.137569  0.548543  1
  Rb  Rb2  1  0.862431  0.724863  0.548543  1
  Rb  Rb3  1  0.137569  0.862431  0.048543  1
  Rb  Rb4  1  0.724863  0.862431  0.048543  1
  Rb  Rb5  1  0.137569  0.275137  0.048543  1
  Ba  Ba6  1  0.472887  0.527113  0.732312  1
  Ba  Ba7  1  0.054226  0.527113  0.732312  1
  Ba  Ba8  1  0.472887  0.945774  0.732312  1
  Ba  Ba9  1  0.527113  0.472887  0.232312  1
  Ba  Ba10  1  0.945774  0.472887  0.232312  1
  Ba  Ba11  1  0.527113  0.054226  0.232312  1
  Sc  Sc12  1  0.666667  0.333333  0.848957  1
  Sc  Sc13  1  0.333333  0.666667  0.348957  1
  Sb  Sb14  1  0.801441  0.198559  0.962204  1
  Sb  Sb15  1  0.397120  0.198559  0.962204  1
  Sb  Sb16  1  0.801441  0.602880  0.962204  1
  Sb  Sb17  1  0.198559  0.801441  0.462204  1
  Sb  Sb18  1  0.602880  0.801441  0.462204  1
  Sb  Sb19  1  0.198559  0.397120  0.462204  1
  Sb  Sb20  1  0.666667  0.333333  0.507228  1
  Sb  Sb21  1  0.333333  0.666667  0.007228  1
