# generated using pymatgen
data_HfZrCo9SnB6
_symmetry_space_group_name_H-M   'P 1'
_cell_length_a   5.70979537
_cell_length_b   5.70979481
_cell_length_c   5.70979466
_cell_angle_alpha   95.20776181
_cell_angle_beta   95.20776071
_cell_angle_gamma   95.20776030
_symmetry_Int_Tables_number   1
_chemical_formula_structural   HfZrCo9SnB6
_chemical_formula_sum   'Hf1 Zr1 Co9 Sn1 B6'
_cell_volume   183.69349797
_cell_formula_units_Z   1
loop_
 _symmetry_equiv_pos_site_id
 _symmetry_equiv_pos_as_xyz
  1  'x, y, z'
loop_
 _atom_site_type_symbol
 _atom_site_label
 _atom_site_symmetry_multiplicity
 _atom_site_fract_x
 _atom_site_fract_y
 _atom_site_fract_z
 _atom_site_occupancy
  Hf  Hf0  1  0.326816  0.326816  0.326816  1
  Zr  Zr1  1  0.672903  0.672903  0.672903  1
  Co  Co2  1  0.499589  0.000686  0.000686  1
  Co  Co3  1  0.000686  0.499589  0.000686  1
  Co  Co4  1  0.000686  0.000686  0.499589  1
  Co  Co5  1  0.699980  0.201800  0.699980  1
  Co  Co6  1  0.699980  0.699980  0.201800  1
  Co  Co7  1  0.201800  0.699980  0.699980  1
  Co  Co8  1  0.300088  0.797473  0.300088  1
  Co  Co9  1  0.300088  0.300088  0.797473  1
  Co  Co10  1  0.797473  0.300088  0.300088  1
  Sn  Sn11  1  0.000228  0.000228  0.000228  1
  B  B12  1  0.384978  0.000580  0.614283  1
  B  B13  1  0.614283  0.384978  0.000580  1
  B  B14  1  0.000580  0.614283  0.384978  1
  B  B15  1  0.614283  0.000580  0.384978  1
  B  B16  1  0.384978  0.614283  0.000580  1
  B  B17  1  0.000580  0.384978  0.614283  1
