# generated using pymatgen
data_Nb2NiTe10Pd
_symmetry_space_group_name_H-M   'P 1'
_cell_length_a   7.13207054
_cell_length_b   7.13207068
_cell_length_c   15.62114710
_cell_angle_alpha   90.78090004
_cell_angle_beta   89.21909956
_cell_angle_gamma   149.93377445
_symmetry_Int_Tables_number   1
_chemical_formula_structural   Nb2NiTe10Pd
_chemical_formula_sum   'Nb2 Ni1 Te10 Pd1'
_cell_volume   398.05148164
_cell_formula_units_Z   1
loop_
 _symmetry_equiv_pos_site_id
 _symmetry_equiv_pos_as_xyz
  1  'x, y, z'
loop_
 _atom_site_type_symbol
 _atom_site_label
 _atom_site_symmetry_multiplicity
 _atom_site_fract_x
 _atom_site_fract_y
 _atom_site_fract_z
 _atom_site_occupancy
  Nb  Nb0  1  0.490204  0.509796  0.246187  1
  Nb  Nb1  1  0.509796  0.490204  0.753813  1
  Ni  Ni2  1  0.000000  0.000000  0.000000  1
  Te  Te3  1  0.393169  0.606831  0.414266  1
  Te  Te4  1  0.606831  0.393169  0.585734  1
  Te  Te5  1  0.600096  0.399904  0.922999  1
  Te  Te6  1  0.399904  0.600096  0.077001  1
  Te  Te7  1  0.833025  0.166975  0.247435  1
  Te  Te8  1  0.166975  0.833025  0.752565  1
  Te  Te9  1  0.901255  0.098745  0.652700  1
  Te  Te10  1  0.098745  0.901255  0.347300  1
  Te  Te11  1  0.098504  0.901496  0.141481  1
  Te  Te12  1  0.901496  0.098504  0.858519  1
  Pd  Pd13  1  0.000000  0.000000  0.500000  1
