# generated using pymatgen
data_CaTb2Er3(Si3Ru)8
_symmetry_space_group_name_H-M   'P 1'
_cell_length_a   10.13468688
_cell_length_b   10.13468675
_cell_length_c   8.14375506
_cell_angle_alpha   89.92163545
_cell_angle_beta   90.07836745
_cell_angle_gamma   132.61626297
_symmetry_Int_Tables_number   1
_chemical_formula_structural   CaTb2Er3(Si3Ru)8
_chemical_formula_sum   'Ca1 Tb2 Er3 Si24 Ru8'
_cell_volume   615.55462185
_cell_formula_units_Z   1
loop_
 _symmetry_equiv_pos_site_id
 _symmetry_equiv_pos_as_xyz
  1  'x, y, z'
loop_
 _atom_site_type_symbol
 _atom_site_label
 _atom_site_symmetry_multiplicity
 _atom_site_fract_x
 _atom_site_fract_y
 _atom_site_fract_z
 _atom_site_occupancy
  Ca  Ca0  1  0.498206  0.998206  0.250000  1
  Tb  Tb1  1  0.001362  0.501362  0.750000  1
  Tb  Tb2  1  0.502939  0.002939  0.750000  1
  Er  Er3  1  0.997351  0.497351  0.250000  1
  Er  Er4  1  0.499732  0.499604  0.499394  1
  Er  Er5  1  0.999604  0.999732  0.000606  1
  Si  Si6  1  0.388373  0.155287  0.002295  1
  Si  Si7  1  0.655287  0.888373  0.497705  1
  Si  Si8  1  0.111759  0.344547  0.504711  1
  Si  Si9  1  0.844547  0.611759  0.995289  1
  Si  Si10  1  0.612202  0.845627  0.993451  1
  Si  Si11  1  0.345627  0.112202  0.506549  1
  Si  Si12  1  0.888133  0.655723  0.494624  1
  Si  Si13  1  0.155723  0.388133  0.005376  1
  Si  Si14  1  0.614458  0.380415  0.228081  1
  Si  Si15  1  0.880415  0.114458  0.271919  1
  Si  Si16  1  0.888315  0.121657  0.727895  1
  Si  Si17  1  0.621657  0.388315  0.772105  1
  Si  Si18  1  0.388368  0.621503  0.771350  1
  Si  Si19  1  0.121503  0.888368  0.728650  1
  Si  Si20  1  0.705309  0.294620  0.001756  1
  Si  Si21  1  0.794620  0.205309  0.498244  1
  Si  Si22  1  0.295209  0.705597  0.000836  1
  Si  Si23  1  0.205597  0.795209  0.499164  1
  Si  Si24  1  0.166288  0.167580  0.332937  1
  Si  Si25  1  0.667580  0.666288  0.167063  1
  Si  Si26  1  0.332750  0.331366  0.832944  1
  Si  Si27  1  0.831366  0.832750  0.667056  1
  Si  Si28  1  0.375813  0.609456  0.228310  1
  Si  Si29  1  0.109456  0.875813  0.271690  1
  Ru  Ru30  1  0.625843  0.626335  0.873050  1
  Ru  Ru31  1  0.126335  0.125843  0.626950  1
  Ru  Ru32  1  0.872990  0.873432  0.372928  1
  Ru  Ru33  1  0.373432  0.372990  0.127072  1
  Ru  Ru34  1  0.329367  0.668110  0.500059  1
  Ru  Ru35  1  0.168110  0.829367  0.999941  1
  Ru  Ru36  1  0.671232  0.333140  0.500996  1
  Ru  Ru37  1  0.833140  0.171232  0.999004  1
