# generated using pymatgen
data_Tb6Al24Ru7Pt
_symmetry_space_group_name_H-M   'P 1'
_cell_length_a   8.83463286
_cell_length_b   8.83463343
_cell_length_c   9.57153905
_cell_angle_alpha   90.16013156
_cell_angle_beta   89.83986962
_cell_angle_gamma   119.83049525
_symmetry_Int_Tables_number   1
_chemical_formula_structural   Tb6Al24Ru7Pt
_chemical_formula_sum   'Tb6 Al24 Ru7 Pt1'
_cell_volume   648.07675497
_cell_formula_units_Z   1
loop_
 _symmetry_equiv_pos_site_id
 _symmetry_equiv_pos_as_xyz
  1  'x, y, z'
loop_
 _atom_site_type_symbol
 _atom_site_label
 _atom_site_symmetry_multiplicity
 _atom_site_fract_x
 _atom_site_fract_y
 _atom_site_fract_z
 _atom_site_occupancy
  Tb  Tb0  1  0.194341  0.805659  0.249808  1
  Tb  Tb1  1  0.191995  0.386429  0.249811  1
  Tb  Tb2  1  0.613571  0.808005  0.249811  1
  Tb  Tb3  1  0.805659  0.194341  0.750192  1
  Tb  Tb4  1  0.808005  0.613571  0.750189  1
  Tb  Tb5  1  0.386429  0.191995  0.750189  1
  Al  Al6  1  0.562041  0.437959  0.247834  1
  Al  Al7  1  0.560856  0.122263  0.251170  1
  Al  Al8  1  0.877737  0.439144  0.251170  1
  Al  Al9  1  0.437959  0.562041  0.752166  1
  Al  Al10  1  0.439144  0.877737  0.748830  1
  Al  Al11  1  0.122263  0.560856  0.748830  1
  Al  Al12  1  0.323650  0.157893  0.422287  1
  Al  Al13  1  0.837487  0.162513  0.422370  1
  Al  Al14  1  0.842107  0.676350  0.422287  1
  Al  Al15  1  0.676350  0.842107  0.577713  1
  Al  Al16  1  0.162513  0.837487  0.577630  1
  Al  Al17  1  0.157893  0.323650  0.577713  1
  Al  Al18  1  0.675834  0.837460  0.921753  1
  Al  Al19  1  0.162647  0.837353  0.922076  1
  Al  Al20  1  0.162540  0.324166  0.921753  1
  Al  Al21  1  0.324166  0.162540  0.078247  1
  Al  Al22  1  0.837353  0.162647  0.077924  1
  Al  Al23  1  0.837460  0.675834  0.078247  1
  Al  Al24  1  0.669119  0.330881  0.519120  1
  Al  Al25  1  0.330881  0.669119  0.480880  1
  Al  Al26  1  0.333126  0.666874  0.016538  1
  Al  Al27  1  0.666874  0.333126  0.983462  1
  Al  Al28  1  0.999690  0.000310  0.249992  1
  Al  Al29  1  0.000310  0.999690  0.750008  1
  Ru  Ru30  1  0.000000  0.000000  0.500000  1
  Ru  Ru31  1  0.000000  0.000000  0.000000  1
  Ru  Ru32  1  0.500000  0.000000  0.500000  1
  Ru  Ru33  1  0.000000  0.500000  0.500000  1
  Ru  Ru34  1  0.500000  0.500000  0.000000  1
  Ru  Ru35  1  0.500000  0.000000  0.000000  1
  Ru  Ru36  1  0.000000  0.500000  0.000000  1
  Pt  Pt37  1  0.500000  0.500000  0.500000  1
