# generated using pymatgen
data_VNiPO5
_symmetry_space_group_name_H-M   'P 1'
_cell_length_a   5.41491815
_cell_length_b   5.41467437
_cell_length_c   7.32843561
_cell_angle_alpha   67.70271235
_cell_angle_beta   67.70097280
_cell_angle_gamma   89.36492605
_symmetry_Int_Tables_number   1
_chemical_formula_structural   VNiPO5
_chemical_formula_sum   'V2 Ni2 P2 O10'
_cell_volume   181.70671147
_cell_formula_units_Z   2
loop_
 _symmetry_equiv_pos_site_id
 _symmetry_equiv_pos_as_xyz
  1  'x, y, z'
loop_
 _atom_site_type_symbol
 _atom_site_label
 _atom_site_symmetry_multiplicity
 _atom_site_fract_x
 _atom_site_fract_y
 _atom_site_fract_z
 _atom_site_occupancy
  V  V0  1  0.500035  0.499963  0.999996  1
  V  V1  1  0.000055  0.000057  0.500023  1
  Ni  Ni2  1  0.500002  0.999967  0.499967  1
  Ni  Ni3  1  0.499975  0.000035  0.000027  1
  P  P4  1  0.875493  0.624488  0.250011  1
  P  P5  1  0.124498  0.375490  0.749983  1
  O  O6  1  0.635952  0.864056  0.749988  1
  O  O7  1  0.364017  0.135973  0.250008  1
  O  O8  1  0.300266  0.312232  0.881032  1
  O  O9  1  0.811712  0.799832  0.381343  1
  O  O10  1  0.699726  0.687782  0.118959  1
  O  O11  1  0.188291  0.200134  0.618663  1
  O  O12  1  0.810060  0.315467  0.389752  1
  O  O13  1  0.815684  0.309573  0.889904  1
  O  O14  1  0.189918  0.684510  0.610249  1
  O  O15  1  0.184318  0.690441  0.110095  1
