# generated using pymatgen
data_Dy4YTm11(CdNi)4
_symmetry_space_group_name_H-M   'P 1'
_cell_length_a   9.46403095
_cell_length_b   9.46403111
_cell_length_c   9.45182800
_cell_angle_alpha   60.04263750
_cell_angle_beta   60.04263697
_cell_angle_gamma   60.05431445
_symmetry_Int_Tables_number   1
_chemical_formula_structural   Dy4YTm11(CdNi)4
_chemical_formula_sum   'Dy4 Y1 Tm11 Cd4 Ni4'
_cell_volume   599.25393048
_cell_formula_units_Z   1
loop_
 _symmetry_equiv_pos_site_id
 _symmetry_equiv_pos_as_xyz
  1  'x, y, z'
loop_
 _atom_site_type_symbol
 _atom_site_label
 _atom_site_symmetry_multiplicity
 _atom_site_fract_x
 _atom_site_fract_y
 _atom_site_fract_z
 _atom_site_occupancy
  Dy  Dy0  1  0.598910  0.598910  0.597356  1
  Dy  Dy1  1  0.598910  0.598910  0.204825  1
  Dy  Dy2  1  0.603140  0.197461  0.599700  1
  Dy  Dy3  1  0.197461  0.603140  0.599700  1
  Y  Y4  1  0.186685  0.186685  0.813315  1
  Tm  Tm5  1  0.062670  0.439047  0.436518  1
  Tm  Tm6  1  0.439047  0.062670  0.061765  1
  Tm  Tm7  1  0.439047  0.062670  0.436518  1
  Tm  Tm8  1  0.062670  0.439047  0.061765  1
  Tm  Tm9  1  0.438961  0.438961  0.061039  1
  Tm  Tm10  1  0.064133  0.064133  0.435867  1
  Tm  Tm11  1  0.186152  0.813260  0.814059  1
  Tm  Tm12  1  0.813260  0.186152  0.186529  1
  Tm  Tm13  1  0.813260  0.186152  0.814059  1
  Tm  Tm14  1  0.186152  0.813260  0.186529  1
  Tm  Tm15  1  0.815968  0.815968  0.184032  1
  Cd  Cd16  1  0.830895  0.830895  0.833068  1
  Cd  Cd17  1  0.830895  0.830895  0.505140  1
  Cd  Cd18  1  0.829294  0.505201  0.832751  1
  Cd  Cd19  1  0.505201  0.829294  0.832751  1
  Ni  Ni20  1  0.391125  0.391125  0.395497  1
  Ni  Ni21  1  0.391125  0.391125  0.822255  1
  Ni  Ni22  1  0.389797  0.825241  0.392482  1
  Ni  Ni23  1  0.825241  0.389797  0.392482  1
