# generated using pymatgen
data_Er12Co6Pt
_symmetry_space_group_name_H-M   'P 1'
_cell_length_a   11.13305800
_cell_length_b   8.23017477
_cell_length_c   10.99167438
_cell_angle_alpha   54.98176419
_cell_angle_beta   90.00000000
_cell_angle_gamma   90.00000000
_symmetry_Int_Tables_number   1
_chemical_formula_structural   Er12Co6Pt
_chemical_formula_sum   'Er24 Co12 Pt2'
_cell_volume   824.81221489
_cell_formula_units_Z   2
loop_
 _symmetry_equiv_pos_site_id
 _symmetry_equiv_pos_as_xyz
  1  'x, y, z'
loop_
 _atom_site_type_symbol
 _atom_site_label
 _atom_site_symmetry_multiplicity
 _atom_site_fract_x
 _atom_site_fract_y
 _atom_site_fract_z
 _atom_site_occupancy
  Er  Er0  1  0.706953  0.233653  0.537777  1
  Er  Er1  1  0.206953  0.766347  0.962223  1
  Er  Er2  1  0.842911  0.500991  0.657179  1
  Er  Er3  1  0.342911  0.499009  0.842821  1
  Er  Er4  1  0.157089  0.499009  0.342821  1
  Er  Er5  1  0.657089  0.500991  0.157179  1
  Er  Er6  1  0.004368  0.844521  0.354787  1
  Er  Er7  1  0.504368  0.155479  0.145213  1
  Er  Er8  1  0.995632  0.155479  0.645213  1
  Er  Er9  1  0.495632  0.844521  0.854787  1
  Er  Er10  1  0.793047  0.233653  0.037777  1
  Er  Er11  1  0.293047  0.766347  0.462223  1
  Er  Er12  1  0.926454  0.772966  0.087373  1
  Er  Er13  1  0.426454  0.227034  0.412627  1
  Er  Er14  1  0.073546  0.227034  0.912627  1
  Er  Er15  1  0.573546  0.772966  0.587373  1
  Er  Er16  1  0.298558  0.243468  0.678919  1
  Er  Er17  1  0.798558  0.756532  0.821081  1
  Er  Er18  1  0.701442  0.756532  0.321081  1
  Er  Er19  1  0.201442  0.243468  0.178919  1
  Er  Er20  1  0.929361  0.262904  0.310173  1
  Er  Er21  1  0.429361  0.737096  0.189827  1
  Er  Er22  1  0.070639  0.737096  0.689827  1
  Er  Er23  1  0.570639  0.262904  0.810173  1
  Co  Co24  1  0.673348  0.910232  0.031491  1
  Co  Co25  1  0.173348  0.089768  0.468509  1
  Co  Co26  1  0.326652  0.089768  0.968509  1
  Co  Co27  1  0.826652  0.910232  0.531491  1
  Co  Co28  1  0.401651  0.491236  0.101095  1
  Co  Co29  1  0.901651  0.508764  0.398905  1
  Co  Co30  1  0.598349  0.508764  0.898905  1
  Co  Co31  1  0.098349  0.491236  0.601095  1
  Co  Co32  1  0.812091  0.098096  0.843502  1
  Co  Co33  1  0.312091  0.901904  0.656498  1
  Co  Co34  1  0.187909  0.901904  0.156498  1
  Co  Co35  1  0.687909  0.098096  0.343502  1
  Pt  Pt36  1  0.500000  0.500000  0.500000  1
  Pt  Pt37  1  0.000000  0.500000  0.000000  1
