# generated using pymatgen
data_HoTm7(Si3Pt)4
_symmetry_space_group_name_H-M   'P 1'
_cell_length_a   8.15191400
_cell_length_b   8.15730544
_cell_length_c   7.76749500
_cell_angle_alpha   90.00000000
_cell_angle_beta   90.00000000
_cell_angle_gamma   119.97813079
_symmetry_Int_Tables_number   1
_chemical_formula_structural   HoTm7(Si3Pt)4
_chemical_formula_sum   'Ho1 Tm7 Si12 Pt4'
_cell_volume   447.41814223
_cell_formula_units_Z   1
loop_
 _symmetry_equiv_pos_site_id
 _symmetry_equiv_pos_as_xyz
  1  'x, y, z'
loop_
 _atom_site_type_symbol
 _atom_site_label
 _atom_site_symmetry_multiplicity
 _atom_site_fract_x
 _atom_site_fract_y
 _atom_site_fract_z
 _atom_site_occupancy
  Ho  Ho0  1  0.512691  0.025382  0.250000  1
  Tm  Tm1  1  0.487511  0.975023  0.750000  1
  Tm  Tm2  1  0.975111  0.487531  0.250000  1
  Tm  Tm3  1  0.025152  0.512448  0.750000  1
  Tm  Tm4  1  0.512421  0.487531  0.250000  1
  Tm  Tm5  1  0.487295  0.512448  0.750000  1
  Tm  Tm6  1  0.000077  0.000154  0.250000  1
  Tm  Tm7  1  0.000083  0.000166  0.750000  1
  Si  Si8  1  0.165104  0.330207  0.002653  1
  Si  Si9  1  0.834832  0.669665  0.997265  1
  Si  Si10  1  0.669688  0.834733  0.002593  1
  Si  Si11  1  0.834832  0.669665  0.502735  1
  Si  Si12  1  0.330227  0.165293  0.997028  1
  Si  Si13  1  0.165104  0.330207  0.497347  1
  Si  Si14  1  0.165046  0.834733  0.002593  1
  Si  Si15  1  0.330227  0.165293  0.502972  1
  Si  Si16  1  0.835065  0.165293  0.997028  1
  Si  Si17  1  0.669688  0.834733  0.497407  1
  Si  Si18  1  0.835065  0.165293  0.502972  1
  Si  Si19  1  0.165046  0.834733  0.497407  1
  Pt  Pt20  1  0.332971  0.665943  0.042550  1
  Pt  Pt21  1  0.666896  0.333791  0.956436  1
  Pt  Pt22  1  0.666896  0.333791  0.543564  1
  Pt  Pt23  1  0.332971  0.665943  0.457450  1
