# generated using pymatgen
data_Gd6Al24Fe3Ir5
_symmetry_space_group_name_H-M   'P 1'
_cell_length_a   8.83874200
_cell_length_b   8.82797350
_cell_length_c   9.51885300
_cell_angle_alpha   90.05092253
_cell_angle_beta   90.00000000
_cell_angle_gamma   120.04037439
_symmetry_Int_Tables_number   1
_chemical_formula_structural   Gd6Al24Fe3Ir5
_chemical_formula_sum   'Gd6 Al24 Fe3 Ir5'
_cell_volume   642.96845882
_cell_formula_units_Z   1
loop_
 _symmetry_equiv_pos_site_id
 _symmetry_equiv_pos_as_xyz
  1  'x, y, z'
loop_
 _atom_site_type_symbol
 _atom_site_label
 _atom_site_symmetry_multiplicity
 _atom_site_fract_x
 _atom_site_fract_y
 _atom_site_fract_z
 _atom_site_occupancy
  Gd  Gd0  1  0.807873  0.191483  0.748303  1
  Gd  Gd1  1  0.192127  0.808517  0.251697  1
  Gd  Gd2  1  0.383611  0.191483  0.748303  1
  Gd  Gd3  1  0.616389  0.808517  0.251697  1
  Gd  Gd4  1  0.807034  0.614066  0.748674  1
  Gd  Gd5  1  0.192966  0.385934  0.251326  1
  Al  Al6  1  0.666305  0.332609  0.978782  1
  Al  Al7  1  0.333695  0.667391  0.021218  1
  Al  Al8  1  0.337522  0.675043  0.479573  1
  Al  Al9  1  0.662478  0.324957  0.520427  1
  Al  Al10  1  0.835293  0.157934  0.426014  1
  Al  Al11  1  0.164707  0.842066  0.573986  1
  Al  Al12  1  0.322642  0.157934  0.426014  1
  Al  Al13  1  0.160836  0.840202  0.925403  1
  Al  Al14  1  0.677358  0.842066  0.573986  1
  Al  Al15  1  0.839164  0.159798  0.074597  1
  Al  Al16  1  0.839439  0.678878  0.425680  1
  Al  Al17  1  0.679365  0.840202  0.925403  1
  Al  Al18  1  0.160561  0.321122  0.574320  1
  Al  Al19  1  0.320635  0.159798  0.074597  1
  Al  Al20  1  0.160032  0.320064  0.924907  1
  Al  Al21  1  0.839968  0.679936  0.075093  1
  Al  Al22  1  0.436944  0.563652  0.749682  1
  Al  Al23  1  0.563056  0.436348  0.250318  1
  Al  Al24  1  0.126708  0.563652  0.749682  1
  Al  Al25  1  0.873292  0.436348  0.250318  1
  Al  Al26  1  0.439789  0.879578  0.743488  1
  Al  Al27  1  0.560211  0.120422  0.256512  1
  Al  Al28  1  0.999310  0.998621  0.750475  1
  Al  Al29  1  0.000690  0.001379  0.249525  1
  Fe  Fe30  1  0.500000  0.000000  0.500000  1
  Fe  Fe31  1  0.000000  0.000000  0.000000  1
  Fe  Fe32  1  0.000000  0.000000  0.500000  1
  Ir  Ir33  1  0.500000  0.500000  0.000000  1
  Ir  Ir34  1  0.000000  0.500000  0.000000  1
  Ir  Ir35  1  0.500000  0.500000  0.500000  1
  Ir  Ir36  1  0.500000  0.000000  0.000000  1
  Ir  Ir37  1  0.000000  0.500000  0.500000  1
