# generated using pymatgen
data_Sr4CdSn3Pd4
_symmetry_space_group_name_H-M   'P 1'
_cell_length_a   4.77258900
_cell_length_b   7.75458624
_cell_length_c   8.27634463
_cell_angle_alpha   89.06140708
_cell_angle_beta   90.00000000
_cell_angle_gamma   90.00000000
_symmetry_Int_Tables_number   1
_chemical_formula_structural   Sr4CdSn3Pd4
_chemical_formula_sum   'Sr4 Cd1 Sn3 Pd4'
_cell_volume   306.26188979
_cell_formula_units_Z   1
loop_
 _symmetry_equiv_pos_site_id
 _symmetry_equiv_pos_as_xyz
  1  'x, y, z'
loop_
 _atom_site_type_symbol
 _atom_site_label
 _atom_site_symmetry_multiplicity
 _atom_site_fract_x
 _atom_site_fract_y
 _atom_site_fract_z
 _atom_site_occupancy
  Sr  Sr0  1  0.250000  0.523496  0.186205  1
  Sr  Sr1  1  0.750000  0.479668  0.817098  1
  Sr  Sr2  1  0.250000  0.017937  0.311621  1
  Sr  Sr3  1  0.750000  0.978149  0.683391  1
  Cd  Cd4  1  0.250000  0.159768  0.921557  1
  Sn  Sn5  1  0.750000  0.338579  0.428377  1
  Sn  Sn6  1  0.250000  0.669929  0.575531  1
  Sn  Sn7  1  0.750000  0.839993  0.072669  1
  Pd  Pd8  1  0.750000  0.200986  0.121150  1
  Pd  Pd9  1  0.250000  0.305829  0.594086  1
  Pd  Pd10  1  0.750000  0.701689  0.395357  1
  Pd  Pd11  1  0.250000  0.783975  0.892958  1
