# generated using pymatgen
data_Y3Ho2InBi2
_symmetry_space_group_name_H-M   'P 1'
_cell_length_a   9.08584325
_cell_length_b   9.08584214
_cell_length_c   6.50630000
_cell_angle_alpha   90.00000000
_cell_angle_beta   90.00000000
_cell_angle_gamma   119.80684828
_symmetry_Int_Tables_number   1
_chemical_formula_structural   Y3Ho2InBi2
_chemical_formula_sum   'Y6 Ho4 In2 Bi4'
_cell_volume   466.05496118
_cell_formula_units_Z   2
loop_
 _symmetry_equiv_pos_site_id
 _symmetry_equiv_pos_as_xyz
  1  'x, y, z'
loop_
 _atom_site_type_symbol
 _atom_site_label
 _atom_site_symmetry_multiplicity
 _atom_site_fract_x
 _atom_site_fract_y
 _atom_site_fract_z
 _atom_site_occupancy
  Y  Y0  1  0.759819  0.759819  0.750000  1
  Y  Y1  1  0.236826  0.998432  0.750000  1
  Y  Y2  1  0.998432  0.236826  0.750000  1
  Y  Y3  1  0.236840  0.236840  0.250000  1
  Y  Y4  1  0.764025  0.007787  0.250000  1
  Y  Y5  1  0.007787  0.764025  0.250000  1
  Ho  Ho6  1  0.668758  0.328987  0.003749  1
  Ho  Ho7  1  0.328987  0.668758  0.003749  1
  Ho  Ho8  1  0.328987  0.668758  0.496251  1
  Ho  Ho9  1  0.668758  0.328987  0.496251  1
  In  In10  1  0.396244  0.001680  0.250000  1
  In  In11  1  0.001680  0.396244  0.250000  1
  Bi  Bi12  1  0.393767  0.393767  0.750000  1
  Bi  Bi13  1  0.603084  0.997047  0.750000  1
  Bi  Bi14  1  0.997047  0.603084  0.750000  1
  Bi  Bi15  1  0.608960  0.608960  0.250000  1
