# generated using pymatgen
data_NiAsN8
_symmetry_space_group_name_H-M   'P 1'
_cell_length_a   3.20230418
_cell_length_b   6.79726841
_cell_length_c   10.20216211
_cell_angle_alpha   105.36145498
_cell_angle_beta   88.66975617
_cell_angle_gamma   85.42234367
_symmetry_Int_Tables_number   1
_chemical_formula_structural   NiAsN8
_chemical_formula_sum   'Ni1 As1 N8'
_cell_volume   213.22547278
_cell_formula_units_Z   1
loop_
 _symmetry_equiv_pos_site_id
 _symmetry_equiv_pos_as_xyz
  1  'x, y, z'
loop_
 _atom_site_type_symbol
 _atom_site_label
 _atom_site_symmetry_multiplicity
 _atom_site_fract_x
 _atom_site_fract_y
 _atom_site_fract_z
 _atom_site_occupancy
  Ni  Ni0  1  0.237716  0.913358  0.626855  1
  As  As1  1  0.733314  0.996972  0.483960  1
  N  N2  1  0.188009  0.116644  0.786557  1
  N  N3  1  0.175693  0.944497  0.098983  1
  N  N4  1  0.796921  0.717821  0.349891  1
  N  N5  1  0.295684  0.469762  0.606884  1
  N  N6  1  0.154110  0.247777  0.881993  1
  N  N7  1  0.830765  0.567168  0.268243  1
  N  N8  1  0.186995  0.795477  0.019666  1
  N  N9  1  0.274120  0.641519  0.622743  1
