# generated using pymatgen
data_CaScCo5Si14Rh
_symmetry_space_group_name_H-M   'P 1'
_cell_length_a   7.69529978
_cell_length_b   7.66150846
_cell_length_c   7.65667145
_cell_angle_alpha   57.43625649
_cell_angle_beta   57.15853104
_cell_angle_gamma   57.19078252
_symmetry_Int_Tables_number   1
_chemical_formula_structural   CaScCo5Si14Rh
_chemical_formula_sum   'Ca1 Sc1 Co5 Si14 Rh1'
_cell_volume   299.07037395
_cell_formula_units_Z   1
loop_
 _symmetry_equiv_pos_site_id
 _symmetry_equiv_pos_as_xyz
  1  'x, y, z'
loop_
 _atom_site_type_symbol
 _atom_site_label
 _atom_site_symmetry_multiplicity
 _atom_site_fract_x
 _atom_site_fract_y
 _atom_site_fract_z
 _atom_site_occupancy
  Ca  Ca0  1  0.000133  0.999580  0.001798  1
  Sc  Sc1  1  0.498113  0.500742  0.500676  1
  Co  Co2  1  0.073553  0.432362  0.746990  1
  Co  Co3  1  0.253854  0.924851  0.568784  1
  Co  Co4  1  0.567176  0.254410  0.925331  1
  Co  Co5  1  0.926816  0.568078  0.253404  1
  Co  Co6  1  0.432913  0.745371  0.074018  1
  Si  Si7  1  0.750623  0.739984  0.759931  1
  Si  Si8  1  0.249570  0.250698  0.248547  1
  Si  Si9  1  0.855541  0.072158  0.673323  1
  Si  Si10  1  0.667057  0.848115  0.073848  1
  Si  Si11  1  0.076496  0.665893  0.848575  1
  Si  Si12  1  0.643894  0.825280  0.430209  1
  Si  Si13  1  0.426583  0.649273  0.832672  1
  Si  Si14  1  0.831794  0.429045  0.649561  1
  Si  Si15  1  0.165345  0.573621  0.351547  1
  Si  Si16  1  0.565296  0.359159  0.160703  1
  Si  Si17  1  0.339009  0.170969  0.572982  1
  Si  Si18  1  0.931467  0.341231  0.142215  1
  Si  Si19  1  0.336770  0.150465  0.922351  1
  Si  Si20  1  0.162010  0.924034  0.330318  1
  Rh  Rh21  1  0.745990  0.074684  0.432216  1
