# generated using pymatgen
data_Dy5Y15(Ir3Os)3
_symmetry_space_group_name_H-M   'P 1'
_cell_length_a   10.90685309
_cell_length_b   10.90616329
_cell_length_c   6.42611313
_cell_angle_alpha   90.02217102
_cell_angle_beta   89.99553082
_cell_angle_gamma   89.98591093
_symmetry_Int_Tables_number   1
_chemical_formula_structural   Dy5Y15(Ir3Os)3
_chemical_formula_sum   'Dy5 Y15 Ir9 Os3'
_cell_volume   764.39841653
_cell_formula_units_Z   1
loop_
 _symmetry_equiv_pos_site_id
 _symmetry_equiv_pos_as_xyz
  1  'x, y, z'
loop_
 _atom_site_type_symbol
 _atom_site_label
 _atom_site_symmetry_multiplicity
 _atom_site_fract_x
 _atom_site_fract_y
 _atom_site_fract_z
 _atom_site_occupancy
  Dy  Dy0  1  0.087270  0.292866  0.119324  1
  Dy  Dy1  1  0.000024  0.999985  0.499637  1
  Dy  Dy2  1  0.000030  0.000050  0.999832  1
  Dy  Dy3  1  0.500017  0.500011  0.999813  1
  Dy  Dy4  1  0.499972  0.499978  0.499558  1
  Y  Y5  1  0.293809  0.086717  0.378069  1
  Y  Y6  1  0.293941  0.913571  0.878140  1
  Y  Y7  1  0.706048  0.086392  0.878156  1
  Y  Y8  1  0.706086  0.913374  0.378021  1
  Y  Y9  1  0.586400  0.793942  0.878161  1
  Y  Y10  1  0.586640  0.206075  0.378049  1
  Y  Y11  1  0.413324  0.793934  0.378039  1
  Y  Y12  1  0.413603  0.206059  0.878154  1
  Y  Y13  1  0.207888  0.412703  0.623637  1
  Y  Y14  1  0.207505  0.587346  0.119696  1
  Y  Y15  1  0.792521  0.412626  0.119681  1
  Y  Y16  1  0.792206  0.587278  0.623531  1
  Y  Y17  1  0.912648  0.707509  0.119709  1
  Y  Y18  1  0.912752  0.292091  0.623648  1
  Y  Y19  1  0.087207  0.707825  0.623546  1
  Ir  Ir20  1  0.849003  0.152758  0.250159  1
  Ir  Ir21  1  0.848580  0.847644  0.749769  1
  Ir  Ir22  1  0.151319  0.152654  0.750479  1
  Ir  Ir23  1  0.151267  0.847451  0.250280  1
  Ir  Ir24  1  0.652403  0.348587  0.749782  1
  Ir  Ir25  1  0.652584  0.651227  0.250294  1
  Ir  Ir26  1  0.347037  0.348721  0.250013  1
  Ir  Ir27  1  0.347595  0.651409  0.749778  1
  Ir  Ir28  1  0.000139  0.499609  0.376617  1
  Os  Os29  1  0.499996  0.000005  0.125235  1
  Os  Os30  1  0.500004  0.000011  0.625093  1
  Os  Os31  1  0.000183  0.499596  0.876097  1
