# generated using pymatgen
data_Tb5Ho7ZnCo4Sn
_symmetry_space_group_name_H-M   'P 1'
_cell_length_a   8.31217834
_cell_length_b   8.31217891
_cell_length_c   8.32154613
_cell_angle_alpha   112.18134584
_cell_angle_beta   109.04947900
_cell_angle_gamma   107.17450444
_symmetry_Int_Tables_number   1
_chemical_formula_structural   Tb5Ho7ZnCo4Sn
_chemical_formula_sum   'Tb5 Ho7 Zn1 Co4 Sn1'
_cell_volume   441.99555017
_cell_formula_units_Z   1
loop_
 _symmetry_equiv_pos_site_id
 _symmetry_equiv_pos_as_xyz
  1  'x, y, z'
loop_
 _atom_site_type_symbol
 _atom_site_label
 _atom_site_symmetry_multiplicity
 _atom_site_fract_x
 _atom_site_fract_y
 _atom_site_fract_z
 _atom_site_occupancy
  Tb  Tb0  1  0.430438  0.229164  0.200609  1
  Tb  Tb1  1  0.571094  0.771805  0.800269  1
  Tb  Tb2  1  0.028464  0.229175  0.800269  1
  Tb  Tb3  1  0.971445  0.770171  0.200609  1
  Tb  Tb4  1  0.180198  0.283858  0.464054  1
  Ho  Ho5  1  0.819802  0.716262  0.536065  1
  Ho  Ho6  1  0.180162  0.716039  0.896202  1
  Ho  Ho7  1  0.819396  0.284020  0.103417  1
  Ho  Ho8  1  0.325248  0.637822  0.312588  1
  Ho  Ho9  1  0.675831  0.362907  0.688188  1
  Ho  Ho10  1  0.325281  0.012356  0.688188  1
  Ho  Ho11  1  0.674766  0.987341  0.312588  1
  Zn  Zn12  1  0.000246  0.998739  0.998985  1
  Co  Co13  1  0.344127  0.998968  0.343094  1
  Co  Co14  1  0.655637  0.999915  0.655552  1
  Co  Co15  1  0.113690  0.615316  0.499667  1
  Co  Co16  1  0.884352  0.385977  0.499667  1
  Sn  Sn17  1  0.499823  0.500165  0.999988  1
