# generated using pymatgen
data_Dy2Ho2Al4Ir3Au
_symmetry_space_group_name_H-M   'P 1'
_cell_length_a   4.33962200
_cell_length_b   6.85019609
_cell_length_c   7.90553301
_cell_angle_alpha   90.01129953
_cell_angle_beta   90.00000000
_cell_angle_gamma   90.00000000
_symmetry_Int_Tables_number   1
_chemical_formula_structural   Dy2Ho2Al4Ir3Au
_chemical_formula_sum   'Dy2 Ho2 Al4 Ir3 Au1'
_cell_volume   235.00984357
_cell_formula_units_Z   1
loop_
 _symmetry_equiv_pos_site_id
 _symmetry_equiv_pos_as_xyz
  1  'x, y, z'
loop_
 _atom_site_type_symbol
 _atom_site_label
 _atom_site_symmetry_multiplicity
 _atom_site_fract_x
 _atom_site_fract_y
 _atom_site_fract_z
 _atom_site_occupancy
  Dy  Dy0  1  0.250000  0.024988  0.326460  1
  Dy  Dy1  1  0.250000  0.541662  0.182322  1
  Ho  Ho2  1  0.750000  0.969196  0.678102  1
  Ho  Ho3  1  0.750000  0.476177  0.813606  1
  Al  Al4  1  0.250000  0.135825  0.931223  1
  Al  Al5  1  0.250000  0.641185  0.562599  1
  Al  Al6  1  0.750000  0.847682  0.059801  1
  Al  Al7  1  0.750000  0.364464  0.445417  1
  Ir  Ir8  1  0.250000  0.268109  0.619883  1
  Ir  Ir9  1  0.250000  0.765883  0.880520  1
  Ir  Ir10  1  0.750000  0.734234  0.378874  1
  Au  Au11  1  0.750000  0.230594  0.121195  1
