# generated using pymatgen
data_Ba6GdDy(BO3)6
_symmetry_space_group_name_H-M   'P 1'
_cell_length_a   8.23830872
_cell_length_b   8.23830860
_cell_length_c   8.23830901
_cell_angle_alpha   105.59590047
_cell_angle_beta   105.59591207
_cell_angle_gamma   105.59591193
_symmetry_Int_Tables_number   1
_chemical_formula_structural   Ba6GdDy(BO3)6
_chemical_formula_sum   'Ba6 Gd1 Dy1 B6 O18'
_cell_volume   482.37613048
_cell_formula_units_Z   1
loop_
 _symmetry_equiv_pos_site_id
 _symmetry_equiv_pos_as_xyz
  1  'x, y, z'
loop_
 _atom_site_type_symbol
 _atom_site_label
 _atom_site_symmetry_multiplicity
 _atom_site_fract_x
 _atom_site_fract_y
 _atom_site_fract_z
 _atom_site_occupancy
  Ba  Ba0  1  0.349141  0.734656  0.841060  1
  Ba  Ba1  1  0.841060  0.349141  0.734656  1
  Ba  Ba2  1  0.734656  0.841060  0.349141  1
  Ba  Ba3  1  0.650859  0.265344  0.158940  1
  Ba  Ba4  1  0.158940  0.650859  0.265344  1
  Ba  Ba5  1  0.265344  0.158940  0.650859  1
  Gd  Gd6  1  0.000000  0.000000  0.000000  1
  Dy  Dy7  1  0.500000  0.500000  0.500000  1
  B  B8  1  0.709153  0.623004  0.956383  1
  B  B9  1  0.956383  0.709153  0.623004  1
  B  B10  1  0.623004  0.956383  0.709153  1
  B  B11  1  0.043617  0.290847  0.376996  1
  B  B12  1  0.376996  0.043617  0.290847  1
  B  B13  1  0.290847  0.376996  0.043617  1
  O  O14  1  0.063996  0.805067  0.551832  1
  O  O15  1  0.551832  0.063996  0.805067  1
  O  O16  1  0.426270  0.491071  0.212771  1
  O  O17  1  0.491071  0.212771  0.426270  1
  O  O18  1  0.212771  0.426270  0.491071  1
  O  O19  1  0.787229  0.573730  0.508929  1
  O  O20  1  0.573730  0.508929  0.787229  1
  O  O21  1  0.508929  0.787229  0.573730  1
  O  O22  1  0.259500  0.191408  0.984563  1
  O  O23  1  0.191408  0.984563  0.259500  1
  O  O24  1  0.984563  0.259500  0.191408  1
  O  O25  1  0.740500  0.808592  0.015437  1
  O  O26  1  0.808592  0.015437  0.740500  1
  O  O27  1  0.015437  0.740500  0.808592  1
  O  O28  1  0.194933  0.448168  0.936004  1
  O  O29  1  0.448168  0.936004  0.194933  1
  O  O30  1  0.936004  0.194933  0.448168  1
  O  O31  1  0.805067  0.551832  0.063996  1
