# generated using pymatgen
data_Er20Sn9Pb7
_symmetry_space_group_name_H-M   'P 1'
_cell_length_a   8.07841510
_cell_length_b   8.12464807
_cell_length_c   15.41353205
_cell_angle_alpha   90.03046422
_cell_angle_beta   89.97051582
_cell_angle_gamma   90.05125824
_symmetry_Int_Tables_number   1
_chemical_formula_structural   Er20Sn9Pb7
_chemical_formula_sum   'Er20 Sn9 Pb7'
_cell_volume   1011.65539238
_cell_formula_units_Z   1
loop_
 _symmetry_equiv_pos_site_id
 _symmetry_equiv_pos_as_xyz
  1  'x, y, z'
loop_
 _atom_site_type_symbol
 _atom_site_label
 _atom_site_symmetry_multiplicity
 _atom_site_fract_x
 _atom_site_fract_y
 _atom_site_fract_z
 _atom_site_occupancy
  Er  Er0  1  0.380186  0.839788  0.878295  1
  Er  Er1  1  0.880300  0.660739  0.623207  1
  Er  Er2  1  0.618909  0.161331  0.376571  1
  Er  Er3  1  0.120679  0.335944  0.122623  1
  Er  Er4  1  0.617331  0.161433  0.122762  1
  Er  Er5  1  0.119070  0.338669  0.376706  1
  Er  Er6  1  0.380221  0.838753  0.622996  1
  Er  Er7  1  0.879869  0.661140  0.876873  1
  Er  Er8  1  0.536154  0.323572  0.897223  1
  Er  Er9  1  0.037509  0.175529  0.603635  1
  Er  Er10  1  0.461775  0.675689  0.395787  1
  Er  Er11  1  0.966195  0.826746  0.102882  1
  Er  Er12  1  0.461690  0.678364  0.103333  1
  Er  Er13  1  0.962172  0.824493  0.395904  1
  Er  Er14  1  0.538206  0.325121  0.603840  1
  Er  Er15  1  0.039778  0.173977  0.897693  1
  Er  Er16  1  0.210557  0.503509  0.750051  1
  Er  Er17  1  0.710751  0.996168  0.750095  1
  Er  Er18  1  0.789508  0.496048  0.249618  1
  Er  Er19  1  0.289076  0.003787  0.248663  1
  Sn  Sn20  1  0.282006  0.031680  0.042062  1
  Sn  Sn21  1  0.576014  0.622575  0.750579  1
  Sn  Sn22  1  0.076249  0.877205  0.750135  1
  Sn  Sn23  1  0.423285  0.378188  0.250026  1
  Sn  Sn24  1  0.922973  0.122192  0.250019  1
  Sn  Sn25  1  0.345727  0.149199  0.750158  1
  Sn  Sn26  1  0.845936  0.350155  0.750667  1
  Sn  Sn27  1  0.655106  0.851481  0.249691  1
  Sn  Sn28  1  0.154326  0.648620  0.249649  1
  Pb  Pb29  1  0.780644  0.468532  0.458538  1
  Pb  Pb30  1  0.718882  0.967898  0.541118  1
  Pb  Pb31  1  0.218499  0.532235  0.959149  1
  Pb  Pb32  1  0.719584  0.967526  0.958731  1
  Pb  Pb33  1  0.219085  0.531913  0.541387  1
  Pb  Pb34  1  0.280517  0.031753  0.458186  1
  Pb  Pb35  1  0.781231  0.468045  0.041149  1
