# generated using pymatgen
data_Sr3MnRhO6
_symmetry_space_group_name_H-M   'P 1'
_cell_length_a   6.75729044
_cell_length_b   6.75768743
_cell_length_c   6.75710311
_cell_angle_alpha   92.02140268
_cell_angle_beta   92.01464385
_cell_angle_gamma   92.02023389
_symmetry_Int_Tables_number   1
_chemical_formula_structural   Sr3MnRhO6
_chemical_formula_sum   'Sr6 Mn2 Rh2 O12'
_cell_volume   307.96564925
_cell_formula_units_Z   2
loop_
 _symmetry_equiv_pos_site_id
 _symmetry_equiv_pos_as_xyz
  1  'x, y, z'
loop_
 _atom_site_type_symbol
 _atom_site_label
 _atom_site_symmetry_multiplicity
 _atom_site_fract_x
 _atom_site_fract_y
 _atom_site_fract_z
 _atom_site_occupancy
  Sr  Sr0  1  0.615480  0.884481  0.250055  1
  Sr  Sr1  1  0.250040  0.615491  0.884491  1
  Sr  Sr2  1  0.884495  0.250049  0.615487  1
  Sr  Sr3  1  0.384503  0.115549  0.749950  1
  Sr  Sr4  1  0.749960  0.384483  0.115537  1
  Sr  Sr5  1  0.115532  0.749963  0.384488  1
  Mn  Mn6  1  0.250027  0.250006  0.249983  1
  Mn  Mn7  1  0.749978  0.749986  0.750008  1
  Rh  Rh8  1  0.999964  0.999952  0.999967  1
  Rh  Rh9  1  0.500056  0.500042  0.500049  1
  O  O10  1  0.288317  0.962212  0.090568  1
  O  O11  1  0.090620  0.288345  0.962232  1
  O  O12  1  0.962231  0.090594  0.288303  1
  O  O13  1  0.537760  0.211590  0.409380  1
  O  O14  1  0.409390  0.537791  0.211629  1
  O  O15  1  0.211629  0.409413  0.537781  1
  O  O16  1  0.711717  0.037754  0.909430  1
  O  O17  1  0.909367  0.711693  0.037720  1
  O  O18  1  0.037720  0.909401  0.711736  1
  O  O19  1  0.462275  0.788362  0.590627  1
  O  O20  1  0.590612  0.462248  0.788326  1
  O  O21  1  0.788327  0.590594  0.462256  1
