# generated using pymatgen
data_NdTh7(Si3Pd)4
_symmetry_space_group_name_H-M   'P 1'
_cell_length_a   8.24561900
_cell_length_b   8.24561916
_cell_length_c   8.52038000
_cell_angle_alpha   90.00000000
_cell_angle_beta   90.00000000
_cell_angle_gamma   119.99999534
_symmetry_Int_Tables_number   1
_chemical_formula_structural   NdTh7(Si3Pd)4
_chemical_formula_sum   'Nd1 Th7 Si12 Pd4'
_cell_volume   501.69081784
_cell_formula_units_Z   1
loop_
 _symmetry_equiv_pos_site_id
 _symmetry_equiv_pos_as_xyz
  1  'x, y, z'
loop_
 _atom_site_type_symbol
 _atom_site_label
 _atom_site_symmetry_multiplicity
 _atom_site_fract_x
 _atom_site_fract_y
 _atom_site_fract_z
 _atom_site_occupancy
  Nd  Nd0  1  0.000000  0.000000  0.250000  1
  Th  Th1  1  0.499334  0.500666  0.750000  1
  Th  Th2  1  0.500663  0.499337  0.250000  1
  Th  Th3  1  0.001331  0.500666  0.750000  1
  Th  Th4  1  0.998674  0.499337  0.250000  1
  Th  Th5  1  0.499334  0.998669  0.750000  1
  Th  Th6  1  0.500663  0.001326  0.250000  1
  Th  Th7  1  0.000000  0.000000  0.750000  1
  Si  Si8  1  0.834260  0.165740  0.999904  1
  Si  Si9  1  0.165731  0.834269  0.000815  1
  Si  Si10  1  0.331480  0.165740  0.999904  1
  Si  Si11  1  0.165731  0.834269  0.499185  1
  Si  Si12  1  0.668537  0.834269  0.000815  1
  Si  Si13  1  0.834260  0.165740  0.500096  1
  Si  Si14  1  0.834260  0.668520  0.999904  1
  Si  Si15  1  0.668537  0.834269  0.499185  1
  Si  Si16  1  0.165731  0.331463  0.000815  1
  Si  Si17  1  0.331480  0.165740  0.500096  1
  Si  Si18  1  0.165731  0.331463  0.499185  1
  Si  Si19  1  0.834260  0.668520  0.500096  1
  Pd  Pd20  1  0.666667  0.333333  0.996583  1
  Pd  Pd21  1  0.333333  0.666667  0.001809  1
  Pd  Pd22  1  0.333333  0.666667  0.498191  1
  Pd  Pd23  1  0.666667  0.333333  0.503417  1
