# generated using pymatgen
data_Lu12InGa4Hg
_symmetry_space_group_name_H-M   'P 1'
_cell_length_a   8.44241931
_cell_length_b   8.44242085
_cell_length_c   8.44241962
_cell_angle_alpha   112.09565217
_cell_angle_beta   112.42809393
_cell_angle_gamma   104.02364967
_symmetry_Int_Tables_number   1
_chemical_formula_structural   Lu12InGa4Hg
_chemical_formula_sum   'Lu12 In1 Ga4 Hg1'
_cell_volume   460.10646482
_cell_formula_units_Z   1
loop_
 _symmetry_equiv_pos_site_id
 _symmetry_equiv_pos_as_xyz
  1  'x, y, z'
loop_
 _atom_site_type_symbol
 _atom_site_label
 _atom_site_symmetry_multiplicity
 _atom_site_fract_x
 _atom_site_fract_y
 _atom_site_fract_z
 _atom_site_occupancy
  Lu  Lu0  1  0.444119  0.241203  0.202916  1
  Lu  Lu1  1  0.555881  0.758797  0.797084  1
  Lu  Lu2  1  0.038287  0.241203  0.797084  1
  Lu  Lu3  1  0.961713  0.758797  0.202916  1
  Lu  Lu4  1  0.186089  0.277705  0.463794  1
  Lu  Lu5  1  0.813911  0.722295  0.536206  1
  Lu  Lu6  1  0.186089  0.722295  0.908386  1
  Lu  Lu7  1  0.813911  0.277705  0.091614  1
  Lu  Lu8  1  0.321149  0.617621  0.296471  1
  Lu  Lu9  1  0.678851  0.382379  0.703529  1
  Lu  Lu10  1  0.321149  0.024679  0.703529  1
  Lu  Lu11  1  0.678851  0.975321  0.296471  1
  In  In12  1  0.500000  0.500000  0.000000  1
  Ga  Ga13  1  0.351991  0.000000  0.351991  1
  Ga  Ga14  1  0.648009  0.000000  0.648009  1
  Ga  Ga15  1  0.121410  0.621410  0.500000  1
  Ga  Ga16  1  0.878590  0.378590  0.500000  1
  Hg  Hg17  1  0.000000  0.000000  0.000000  1
