# generated using pymatgen
data_Rb5Tc3Se7
_symmetry_space_group_name_H-M   'P 1'
_cell_length_a   11.24732979
_cell_length_b   11.25125845
_cell_length_c   11.18685651
_cell_angle_alpha   60.46944496
_cell_angle_beta   60.98620485
_cell_angle_gamma   60.91341645
_symmetry_Int_Tables_number   1
_chemical_formula_structural   Rb5Tc3Se7
_chemical_formula_sum   'Rb10 Tc6 Se14'
_cell_volume   1018.80565391
_cell_formula_units_Z   2
loop_
 _symmetry_equiv_pos_site_id
 _symmetry_equiv_pos_as_xyz
  1  'x, y, z'
loop_
 _atom_site_type_symbol
 _atom_site_label
 _atom_site_symmetry_multiplicity
 _atom_site_fract_x
 _atom_site_fract_y
 _atom_site_fract_z
 _atom_site_occupancy
  Rb  Rb0  1  0.018353  0.988490  0.989530  1
  Rb  Rb1  1  0.408857  0.580969  0.006696  1
  Rb  Rb2  1  0.396426  0.005446  0.003569  1
  Rb  Rb3  1  0.589294  0.127218  0.123656  1
  Rb  Rb4  1  0.007090  0.576689  0.018085  1
  Rb  Rb5  1  0.419300  0.003377  0.581676  1
  Rb  Rb6  1  0.030289  0.434634  0.505556  1
  Rb  Rb7  1  0.994786  0.014197  0.575381  1
  Rb  Rb8  1  0.865545  0.856573  0.425480  1
  Rb  Rb9  1  0.855116  0.416982  0.901651  1
  Tc  Tc10  1  0.613689  0.380260  0.385434  1
  Tc  Tc11  1  0.617607  0.617772  0.382897  1
  Tc  Tc12  1  0.617500  0.385085  0.619641  1
  Tc  Tc13  1  0.381316  0.616190  0.381033  1
  Tc  Tc14  1  0.380035  0.382625  0.618500  1
  Tc  Tc15  1  0.383238  0.618668  0.617020  1
  Se  Se16  1  0.768693  0.204562  0.235362  1
  Se  Se17  1  0.784519  0.778188  0.227529  1
  Se  Se18  1  0.611442  0.610848  0.161333  1
  Se  Se19  1  0.832763  0.387426  0.387698  1
  Se  Se20  1  0.608735  0.163395  0.618858  1
  Se  Se21  1  0.791794  0.235848  0.775827  1
  Se  Se22  1  0.387946  0.384441  0.385560  1
  Se  Se23  1  0.613473  0.615309  0.613326  1
  Se  Se24  1  0.210797  0.775005  0.224177  1
  Se  Se25  1  0.390535  0.836133  0.384166  1
  Se  Se26  1  0.164078  0.611476  0.610256  1
  Se  Se27  1  0.389129  0.387518  0.839403  1
  Se  Se28  1  0.205862  0.228722  0.774695  1
  Se  Se29  1  0.218292  0.785252  0.777307  1
