# generated using pymatgen
data_YbTh2(GeIr)3
_symmetry_space_group_name_H-M   'P 1'
_cell_length_a   7.23470800
_cell_length_b   7.21238084
_cell_length_c   4.01879300
_cell_angle_alpha   90.00000000
_cell_angle_beta   90.00000000
_cell_angle_gamma   120.10244773
_symmetry_Int_Tables_number   1
_chemical_formula_structural   YbTh2(GeIr)3
_chemical_formula_sum   'Yb1 Th2 Ge3 Ir3'
_cell_volume   181.41645033
_cell_formula_units_Z   1
loop_
 _symmetry_equiv_pos_site_id
 _symmetry_equiv_pos_as_xyz
  1  'x, y, z'
loop_
 _atom_site_type_symbol
 _atom_site_label
 _atom_site_symmetry_multiplicity
 _atom_site_fract_x
 _atom_site_fract_y
 _atom_site_fract_z
 _atom_site_occupancy
  Yb  Yb0  1  0.407835  0.000000  0.500000  1
  Th  Th1  1  0.000387  0.415496  0.500000  1
  Th  Th2  1  0.584891  0.584504  0.500000  1
  Ge  Ge3  1  0.014393  0.767340  0.000000  1
  Ge  Ge4  1  0.247053  0.232660  0.000000  1
  Ge  Ge5  1  0.738831  0.000000  0.000000  1
  Ir  Ir6  1  0.333519  0.651442  0.000000  1
  Ir  Ir7  1  0.682079  0.348558  0.000000  1
  Ir  Ir8  1  0.991013  0.000000  0.500000  1
