# generated using pymatgen
data_K4ErPaTe6
_symmetry_space_group_name_H-M   'P 1'
_cell_length_a   14.70430200
_cell_length_b   7.40825056
_cell_length_c   9.41401600
_cell_angle_alpha   72.59367899
_cell_angle_beta   90.00000000
_cell_angle_gamma   90.00000000
_symmetry_Int_Tables_number   1
_chemical_formula_structural   K4ErPaTe6
_chemical_formula_sum   'K8 Er2 Pa2 Te12'
_cell_volume   978.53813993
_cell_formula_units_Z   2
loop_
 _symmetry_equiv_pos_site_id
 _symmetry_equiv_pos_as_xyz
  1  'x, y, z'
loop_
 _atom_site_type_symbol
 _atom_site_label
 _atom_site_symmetry_multiplicity
 _atom_site_fract_x
 _atom_site_fract_y
 _atom_site_fract_z
 _atom_site_occupancy
  K  K0  1  0.962355  0.659482  0.669450  1
  K  K1  1  0.462355  0.840518  0.330550  1
  K  K2  1  0.038173  0.340981  0.329354  1
  K  K3  1  0.538173  0.159019  0.670646  1
  K  K4  1  0.870686  0.076136  0.896124  1
  K  K5  1  0.370686  0.423864  0.103876  1
  K  K6  1  0.129162  0.922107  0.104176  1
  K  K7  1  0.629162  0.577893  0.895824  1
  Er  Er8  1  0.750390  0.665678  0.289600  1
  Er  Er9  1  0.250390  0.834322  0.710400  1
  Pa  Pa10  1  0.249474  0.334021  0.709296  1
  Pa  Pa11  1  0.749474  0.165979  0.290704  1
  Te  Te12  1  0.915060  0.921795  0.283765  1
  Te  Te13  1  0.415060  0.578205  0.716235  1
  Te  Te14  1  0.084639  0.084695  0.716919  1
  Te  Te15  1  0.584639  0.415305  0.283081  1
  Te  Te16  1  0.823672  0.322373  0.527402  1
  Te  Te17  1  0.323672  0.177627  0.472598  1
  Te  Te18  1  0.176714  0.669296  0.471744  1
  Te  Te19  1  0.676714  0.830704  0.528256  1
  Te  Te20  1  0.842967  0.496992  0.061836  1
  Te  Te21  1  0.342967  0.003008  0.938164  1
  Te  Te22  1  0.156708  0.492335  0.937912  1
  Te  Te23  1  0.656708  0.007665  0.062088  1
