# generated using pymatgen
data_Sm10BiP2Pb5
_symmetry_space_group_name_H-M   'P 1'
_cell_length_a   9.39438330
_cell_length_b   9.39438425
_cell_length_c   6.93601600
_cell_angle_alpha   90.00000000
_cell_angle_beta   90.00000000
_cell_angle_gamma   120.10964294
_symmetry_Int_Tables_number   1
_chemical_formula_structural   Sm10BiP2Pb5
_chemical_formula_sum   'Sm10 Bi1 P2 Pb5'
_cell_volume   529.53714396
_cell_formula_units_Z   1
loop_
 _symmetry_equiv_pos_site_id
 _symmetry_equiv_pos_as_xyz
  1  'x, y, z'
loop_
 _atom_site_type_symbol
 _atom_site_label
 _atom_site_symmetry_multiplicity
 _atom_site_fract_x
 _atom_site_fract_y
 _atom_site_fract_z
 _atom_site_occupancy
  Sm  Sm0  1  0.762884  0.762884  0.750000  1
  Sm  Sm1  1  0.236029  0.998118  0.750000  1
  Sm  Sm2  1  0.998118  0.236029  0.750000  1
  Sm  Sm3  1  0.237551  0.237551  0.250000  1
  Sm  Sm4  1  0.762762  0.999305  0.250000  1
  Sm  Sm5  1  0.999305  0.762762  0.250000  1
  Sm  Sm6  1  0.668279  0.332727  0.001360  1
  Sm  Sm7  1  0.332727  0.668279  0.001360  1
  Sm  Sm8  1  0.332727  0.668279  0.498640  1
  Sm  Sm9  1  0.668279  0.332727  0.498640  1
  Bi  Bi10  1  0.399036  0.399036  0.750000  1
  P  P11  1  0.000495  0.000495  0.999585  1
  P  P12  1  0.000495  0.000495  0.500415  1
  Pb  Pb13  1  0.599977  0.000236  0.750000  1
  Pb  Pb14  1  0.000236  0.599977  0.750000  1
  Pb  Pb15  1  0.600899  0.600899  0.250000  1
  Pb  Pb16  1  0.399941  0.000261  0.250000  1
  Pb  Pb17  1  0.000261  0.399941  0.250000  1
