# generated using pymatgen
data_TbPr19Si15Os
_symmetry_space_group_name_H-M   'P 1'
_cell_length_a   7.91854596
_cell_length_b   7.92006236
_cell_length_c   15.28235196
_cell_angle_alpha   90.20531070
_cell_angle_beta   89.84375997
_cell_angle_gamma   89.94813550
_symmetry_Int_Tables_number   1
_chemical_formula_structural   TbPr19Si15Os
_chemical_formula_sum   'Tb1 Pr19 Si15 Os1'
_cell_volume   958.42836004
_cell_formula_units_Z   1
loop_
 _symmetry_equiv_pos_site_id
 _symmetry_equiv_pos_as_xyz
  1  'x, y, z'
loop_
 _atom_site_type_symbol
 _atom_site_label
 _atom_site_symmetry_multiplicity
 _atom_site_fract_x
 _atom_site_fract_y
 _atom_site_fract_z
 _atom_site_occupancy
  Tb  Tb0  1  0.307996  0.307723  0.998662  1
  Pr  Pr1  1  0.191737  0.808499  0.249819  1
  Pr  Pr2  1  0.825183  0.188869  0.749097  1
  Pr  Pr3  1  0.695275  0.688740  0.501826  1
  Pr  Pr4  1  0.371191  0.012113  0.450490  1
  Pr  Pr5  1  0.485170  0.880740  0.697512  1
  Pr  Pr6  1  0.510465  0.124286  0.197799  1
  Pr  Pr7  1  0.876026  0.488508  0.300458  1
  Pr  Pr8  1  0.127750  0.503576  0.799225  1
  Pr  Pr9  1  0.625667  0.988447  0.948411  1
  Pr  Pr10  1  0.008295  0.375022  0.552238  1
  Pr  Pr11  1  0.987976  0.625228  0.050542  1
  Pr  Pr12  1  0.133551  0.984414  0.872705  1
  Pr  Pr13  1  0.516850  0.630290  0.125735  1
  Pr  Pr14  1  0.472225  0.361060  0.629315  1
  Pr  Pr15  1  0.627175  0.514663  0.874076  1
  Pr  Pr16  1  0.374906  0.483147  0.373102  1
  Pr  Pr17  1  0.872830  0.020386  0.376474  1
  Pr  Pr18  1  0.982206  0.127279  0.123996  1
  Pr  Pr19  1  0.026301  0.880921  0.626483  1
  Si  Si20  1  0.332513  0.692385  0.951678  1
  Si  Si21  1  0.664001  0.302481  0.452134  1
  Si  Si22  1  0.694148  0.332973  0.048688  1
  Si  Si23  1  0.304505  0.668221  0.547308  1
  Si  Si24  1  0.805075  0.832495  0.202785  1
  Si  Si25  1  0.167739  0.197665  0.297755  1
  Si  Si26  1  0.831789  0.801926  0.800031  1
  Si  Si27  1  0.288761  0.925341  0.057684  1
  Si  Si28  1  0.579896  0.787294  0.310580  1
  Si  Si29  1  0.420161  0.210192  0.814424  1
  Si  Si30  1  0.779298  0.582939  0.691427  1
  Si  Si31  1  0.212895  0.420097  0.187638  1
  Si  Si32  1  0.704241  0.074036  0.558586  1
  Si  Si33  1  0.923429  0.288421  0.942177  1
  Si  Si34  1  0.079721  0.715232  0.441032  1
  Os  Os35  1  0.193052  0.174396  0.698108  1
