# generated using pymatgen
data_Zr8Ta11NbGe16
_symmetry_space_group_name_H-M   'P 1'
_cell_length_a   6.86561009
_cell_length_b   6.97398608
_cell_length_c   13.33245702
_cell_angle_alpha   90.00016766
_cell_angle_beta   89.99406787
_cell_angle_gamma   89.98295980
_symmetry_Int_Tables_number   1
_chemical_formula_structural   Zr8Ta11NbGe16
_chemical_formula_sum   'Zr8 Ta11 Nb1 Ge16'
_cell_volume   638.36693170
_cell_formula_units_Z   1
loop_
 _symmetry_equiv_pos_site_id
 _symmetry_equiv_pos_as_xyz
  1  'x, y, z'
loop_
 _atom_site_type_symbol
 _atom_site_label
 _atom_site_symmetry_multiplicity
 _atom_site_fract_x
 _atom_site_fract_y
 _atom_site_fract_z
 _atom_site_occupancy
  Zr  Zr0  1  0.488891  0.673388  0.591395  1
  Zr  Zr1  1  0.988839  0.826628  0.908617  1
  Zr  Zr2  1  0.511242  0.326683  0.091395  1
  Zr  Zr3  1  0.011050  0.173275  0.408574  1
  Zr  Zr4  1  0.511155  0.326707  0.408414  1
  Zr  Zr5  1  0.011181  0.173401  0.091400  1
  Zr  Zr6  1  0.488787  0.673408  0.908580  1
  Zr  Zr7  1  0.989001  0.826419  0.591359  1
  Ta  Ta8  1  0.159355  0.334751  0.875289  1
  Ta  Ta9  1  0.340685  0.834798  0.124760  1
  Ta  Ta10  1  0.840618  0.665290  0.375264  1
  Ta  Ta11  1  0.340595  0.834762  0.375282  1
  Ta  Ta12  1  0.840605  0.665252  0.124735  1
  Ta  Ta13  1  0.659386  0.165236  0.875241  1
  Ta  Ta14  1  0.159277  0.334667  0.624798  1
  Ta  Ta15  1  0.836145  0.490046  0.750123  1
  Ta  Ta16  1  0.335722  0.010128  0.750199  1
  Ta  Ta17  1  0.164044  0.510179  0.250013  1
  Ta  Ta18  1  0.663977  0.989764  0.250042  1
  Nb  Nb19  1  0.659392  0.165142  0.624615  1
  Ge  Ge20  1  0.681736  0.960857  0.459651  1
  Ge  Ge21  1  0.181737  0.539137  0.040191  1
  Ge  Ge22  1  0.318205  0.039098  0.959755  1
  Ge  Ge23  1  0.818447  0.460957  0.540194  1
  Ge  Ge24  1  0.318111  0.039185  0.540169  1
  Ge  Ge25  1  0.818168  0.460862  0.959786  1
  Ge  Ge26  1  0.681809  0.960807  0.040209  1
  Ge  Ge27  1  0.181764  0.539167  0.459809  1
  Ge  Ge28  1  0.461846  0.386927  0.750022  1
  Ge  Ge29  1  0.961827  0.113122  0.750063  1
  Ge  Ge30  1  0.538139  0.613064  0.249999  1
  Ge  Ge31  1  0.038226  0.886884  0.250013  1
  Ge  Ge32  1  0.692883  0.849790  0.750041  1
  Ge  Ge33  1  0.192821  0.650235  0.750009  1
  Ge  Ge34  1  0.307171  0.150207  0.249993  1
  Ge  Ge35  1  0.807162  0.349776  0.249999  1
