# generated using pymatgen
data_Li4CaPr3Si8
_symmetry_space_group_name_H-M   'P 1'
_cell_length_a   3.87101200
_cell_length_b   7.83973385
_cell_length_c   10.57118812
_cell_angle_alpha   89.94689413
_cell_angle_beta   90.00000000
_cell_angle_gamma   90.00000000
_symmetry_Int_Tables_number   1
_chemical_formula_structural   Li4CaPr3Si8
_chemical_formula_sum   'Li4 Ca1 Pr3 Si8'
_cell_volume   320.81114832
_cell_formula_units_Z   1
loop_
 _symmetry_equiv_pos_site_id
 _symmetry_equiv_pos_as_xyz
  1  'x, y, z'
loop_
 _atom_site_type_symbol
 _atom_site_label
 _atom_site_symmetry_multiplicity
 _atom_site_fract_x
 _atom_site_fract_y
 _atom_site_fract_z
 _atom_site_occupancy
  Li  Li0  1  0.250000  0.997775  0.390863  1
  Li  Li1  1  0.750000  0.004994  0.609700  1
  Li  Li2  1  0.250000  0.494170  0.112135  1
  Li  Li3  1  0.750000  0.504250  0.890033  1
  Ca  Ca4  1  0.750000  0.365348  0.365321  1
  Pr  Pr5  1  0.250000  0.134000  0.863834  1
  Pr  Pr6  1  0.750000  0.866316  0.134894  1
  Pr  Pr7  1  0.250000  0.633151  0.634353  1
  Si  Si8  1  0.750000  0.271501  0.069761  1
  Si  Si9  1  0.250000  0.727066  0.930456  1
  Si  Si10  1  0.750000  0.773030  0.430535  1
  Si  Si11  1  0.250000  0.231648  0.568261  1
  Si  Si12  1  0.750000  0.832031  0.821834  1
  Si  Si13  1  0.250000  0.165331  0.175613  1
  Si  Si14  1  0.750000  0.332832  0.678050  1
  Si  Si15  1  0.250000  0.666557  0.324357  1
