# generated using pymatgen
data_Dy8Os3RuC8
_symmetry_space_group_name_H-M   'P 1'
_cell_length_a   5.13926100
_cell_length_b   6.44434754
_cell_length_c   9.80184537
_cell_angle_alpha   89.92058193
_cell_angle_beta   90.00000000
_cell_angle_gamma   90.00000000
_symmetry_Int_Tables_number   1
_chemical_formula_structural   Dy8Os3RuC8
_chemical_formula_sum   'Dy8 Os3 Ru1 C8'
_cell_volume   324.62880819
_cell_formula_units_Z   1
loop_
 _symmetry_equiv_pos_site_id
 _symmetry_equiv_pos_as_xyz
  1  'x, y, z'
loop_
 _atom_site_type_symbol
 _atom_site_label
 _atom_site_symmetry_multiplicity
 _atom_site_fract_x
 _atom_site_fract_y
 _atom_site_fract_z
 _atom_site_occupancy
  Dy  Dy0  1  0.250000  0.685226  0.552590  1
  Dy  Dy1  1  0.750000  0.315014  0.447910  1
  Dy  Dy2  1  0.750000  0.816004  0.052881  1
  Dy  Dy3  1  0.250000  0.181962  0.947921  1
  Dy  Dy4  1  0.250000  0.525199  0.218849  1
  Dy  Dy5  1  0.750000  0.475099  0.781346  1
  Dy  Dy6  1  0.750000  0.975625  0.719351  1
  Dy  Dy7  1  0.250000  0.024630  0.279774  1
  Os  Os8  1  0.750000  0.274966  0.134892  1
  Os  Os9  1  0.750000  0.774169  0.365282  1
  Os  Os10  1  0.250000  0.225024  0.635186  1
  Ru  Ru11  1  0.250000  0.724622  0.865290  1
  C  C12  1  0.250000  0.460509  0.756135  1
  C  C13  1  0.750000  0.538094  0.242593  1
  C  C14  1  0.750000  0.038447  0.257948  1
  C  C15  1  0.250000  0.962318  0.741418  1
  C  C16  1  0.250000  0.826131  0.053294  1
  C  C17  1  0.750000  0.176119  0.947376  1
  C  C18  1  0.750000  0.676578  0.552830  1
  C  C19  1  0.250000  0.324265  0.447135  1
