# generated using pymatgen
data_CaPrSnRh2
_symmetry_space_group_name_H-M   'P 1'
_cell_length_a   5.85820286
_cell_length_b   5.85820323
_cell_length_c   8.13469403
_cell_angle_alpha   102.52706279
_cell_angle_beta   102.52707127
_cell_angle_gamma   58.39336005
_symmetry_Int_Tables_number   1
_chemical_formula_structural   CaPrSnRh2
_chemical_formula_sum   'Ca2 Pr2 Sn2 Rh4'
_cell_volume   230.30419426
_cell_formula_units_Z   2
loop_
 _symmetry_equiv_pos_site_id
 _symmetry_equiv_pos_as_xyz
  1  'x, y, z'
loop_
 _atom_site_type_symbol
 _atom_site_label
 _atom_site_symmetry_multiplicity
 _atom_site_fract_x
 _atom_site_fract_y
 _atom_site_fract_z
 _atom_site_occupancy
  Ca  Ca0  1  0.793872  0.504091  0.652962  1
  Ca  Ca1  1  0.495909  0.206128  0.847038  1
  Pr  Pr2  1  0.496962  0.793317  0.141723  1
  Pr  Pr3  1  0.206684  0.503038  0.358276  1
  Sn  Sn4  1  0.856189  0.143811  0.250000  1
  Sn  Sn5  1  0.128754  0.871245  0.749999  1
  Rh  Rh6  1  0.005512  0.276781  0.011649  1
  Rh  Rh7  1  0.723219  0.994489  0.488351  1
  Rh  Rh8  1  0.277435  0.984535  0.497518  1
  Rh  Rh9  1  0.015465  0.722565  0.002482  1
