# generated using pymatgen
data_NdCr3BiO12
_symmetry_space_group_name_H-M   'P 1'
_cell_length_a   10.18594085
_cell_length_b   10.18594201
_cell_length_c   10.18594300
_cell_angle_alpha   57.95430740
_cell_angle_beta   57.95430331
_cell_angle_gamma   57.95431088
_symmetry_Int_Tables_number   1
_chemical_formula_structural   NdCr3BiO12
_chemical_formula_sum   'Nd2 Cr6 Bi2 O24'
_cell_volume   712.21321205
_cell_formula_units_Z   2
loop_
 _symmetry_equiv_pos_site_id
 _symmetry_equiv_pos_as_xyz
  1  'x, y, z'
loop_
 _atom_site_type_symbol
 _atom_site_label
 _atom_site_symmetry_multiplicity
 _atom_site_fract_x
 _atom_site_fract_y
 _atom_site_fract_z
 _atom_site_occupancy
  Nd  Nd0  1  0.640606  0.640606  0.640606  1
  Nd  Nd1  1  0.359394  0.359394  0.359394  1
  Cr  Cr2  1  0.755413  0.030051  0.464758  1
  Cr  Cr3  1  0.969948  0.535243  0.244587  1
  Cr  Cr4  1  0.535243  0.244587  0.969949  1
  Cr  Cr5  1  0.464757  0.755413  0.030052  1
  Cr  Cr6  1  0.030052  0.464757  0.755413  1
  Cr  Cr7  1  0.244587  0.969948  0.535243  1
  Bi  Bi8  1  0.142963  0.142963  0.142963  1
  Bi  Bi9  1  0.857037  0.857037  0.857037  1
  O  O10  1  0.917084  0.060884  0.294455  1
  O  O11  1  0.781378  0.003318  0.626285  1
  O  O12  1  0.996682  0.373715  0.218622  1
  O  O13  1  0.705545  0.082916  0.939116  1
  O  O14  1  0.587000  0.193839  0.442794  1
  O  O15  1  0.865123  0.494542  0.733962  1
  O  O16  1  0.505458  0.266038  0.134877  1
  O  O17  1  0.806161  0.557206  0.413000  1
  O  O18  1  0.939116  0.705545  0.082916  1
  O  O19  1  0.557206  0.413000  0.806161  1
  O  O20  1  0.373715  0.218622  0.996682  1
  O  O21  1  0.266038  0.134877  0.505458  1
  O  O22  1  0.733962  0.865123  0.494542  1
  O  O23  1  0.626285  0.781378  0.003318  1
  O  O24  1  0.442794  0.587000  0.193839  1
  O  O25  1  0.060884  0.294455  0.917084  1
  O  O26  1  0.193839  0.442794  0.587000  1
  O  O27  1  0.494542  0.733962  0.865123  1
  O  O28  1  0.134877  0.505458  0.266038  1
  O  O29  1  0.413000  0.806161  0.557206  1
  O  O30  1  0.294455  0.917084  0.060884  1
  O  O31  1  0.003318  0.626285  0.781378  1
  O  O32  1  0.218622  0.996682  0.373715  1
  O  O33  1  0.082916  0.939116  0.705545  1
