# generated using pymatgen
data_ZrMn3Rh4
_symmetry_space_group_name_H-M   'P 1'
_cell_length_a   7.63834616
_cell_length_b   7.63834626
_cell_length_c   7.63834553
_cell_angle_alpha   33.62124322
_cell_angle_beta   33.62125609
_cell_angle_gamma   33.62124867
_symmetry_Int_Tables_number   1
_chemical_formula_structural   ZrMn3Rh4
_chemical_formula_sum   'Zr1 Mn3 Rh4'
_cell_volume   121.71281758
_cell_formula_units_Z   1
loop_
 _symmetry_equiv_pos_site_id
 _symmetry_equiv_pos_as_xyz
  1  'x, y, z'
loop_
 _atom_site_type_symbol
 _atom_site_label
 _atom_site_symmetry_multiplicity
 _atom_site_fract_x
 _atom_site_fract_y
 _atom_site_fract_z
 _atom_site_occupancy
  Zr  Zr0  1  0.000000  0.000000  0.000000  1
  Mn  Mn1  1  0.247833  0.247833  0.247833  1
  Mn  Mn2  1  0.752167  0.752167  0.752167  1
  Mn  Mn3  1  0.500000  0.500000  0.500000  1
  Rh  Rh4  1  0.622315  0.622315  0.622315  1
  Rh  Rh5  1  0.126955  0.126955  0.126955  1
  Rh  Rh6  1  0.873045  0.873045  0.873045  1
  Rh  Rh7  1  0.377685  0.377685  0.377685  1
