# generated using pymatgen
data_Ag3Ir3RhPbO14
_symmetry_space_group_name_H-M   'P 1'
_cell_length_a   7.27088775
_cell_length_b   7.21637667
_cell_length_c   7.24029400
_cell_angle_alpha   59.89031188
_cell_angle_beta   60.13910150
_cell_angle_gamma   60.20041235
_symmetry_Int_Tables_number   1
_chemical_formula_structural   Ag3Ir3RhPbO14
_chemical_formula_sum   'Ag3 Ir3 Rh1 Pb1 O14'
_cell_volume   269.08781977
_cell_formula_units_Z   1
loop_
 _symmetry_equiv_pos_site_id
 _symmetry_equiv_pos_as_xyz
  1  'x, y, z'
loop_
 _atom_site_type_symbol
 _atom_site_label
 _atom_site_symmetry_multiplicity
 _atom_site_fract_x
 _atom_site_fract_y
 _atom_site_fract_z
 _atom_site_occupancy
  Ag  Ag0  1  0.125000  0.625000  0.125000  1
  Ag  Ag1  1  0.125000  0.125000  0.625000  1
  Ag  Ag2  1  0.125000  0.125000  0.125000  1
  Ir  Ir3  1  0.125000  0.625000  0.625000  1
  Ir  Ir4  1  0.625000  0.625000  0.125000  1
  Ir  Ir5  1  0.625000  0.625000  0.625000  1
  Rh  Rh6  1  0.625000  0.125000  0.625000  1
  Pb  Pb7  1  0.625000  0.125000  0.125000  1
  O  O8  1  0.696149  0.707507  0.298172  1
  O  O9  1  0.298606  0.304995  0.698200  1
  O  O10  1  0.696954  0.299334  0.709825  1
  O  O11  1  0.307843  0.691281  0.303385  1
  O  O12  1  0.307843  0.691281  0.697493  1
  O  O13  1  0.696954  0.299334  0.293888  1
  O  O14  1  0.553851  0.542493  0.951828  1
  O  O15  1  0.951394  0.945005  0.551800  1
  O  O16  1  0.553046  0.950666  0.540175  1
  O  O17  1  0.942157  0.558719  0.946615  1
  O  O18  1  0.942157  0.558719  0.552507  1
  O  O19  1  0.553046  0.950666  0.956112  1
  O  O20  1  0.226892  0.257714  0.257697  1
  O  O21  1  0.023108  0.992286  0.992303  1
