# generated using pymatgen
data_La20ZnBi8Ru3
_symmetry_space_group_name_H-M   'P 1'
_cell_length_a   8.54067866
_cell_length_b   9.40760800
_cell_length_c   13.03694370
_cell_angle_alpha   90.00000000
_cell_angle_beta   90.07362899
_cell_angle_gamma   90.00000000
_symmetry_Int_Tables_number   1
_chemical_formula_structural   La20ZnBi8Ru3
_chemical_formula_sum   'La20 Zn1 Bi8 Ru3'
_cell_volume   1047.48310368
_cell_formula_units_Z   1
loop_
 _symmetry_equiv_pos_site_id
 _symmetry_equiv_pos_as_xyz
  1  'x, y, z'
loop_
 _atom_site_type_symbol
 _atom_site_label
 _atom_site_symmetry_multiplicity
 _atom_site_fract_x
 _atom_site_fract_y
 _atom_site_fract_z
 _atom_site_occupancy
  La  La0  1  0.334044  0.750000  0.716512  1
  La  La1  1  0.649261  0.250000  0.294744  1
  La  La2  1  0.848386  0.250000  0.798331  1
  La  La3  1  0.148694  0.750000  0.200952  1
  La  La4  1  0.875705  0.750000  0.804693  1
  La  La5  1  0.122945  0.250000  0.194184  1
  La  La6  1  0.376683  0.250000  0.696189  1
  La  La7  1  0.636369  0.750000  0.292844  1
  La  La8  1  0.684934  0.522076  0.562679  1
  La  La9  1  0.315572  0.447209  0.436535  1
  La  La10  1  0.180289  0.464232  0.938560  1
  La  La11  1  0.315572  0.052791  0.436535  1
  La  La12  1  0.820643  0.537060  0.062741  1
  La  La13  1  0.684934  0.977924  0.562679  1
  La  La14  1  0.820643  0.962940  0.062741  1
  La  La15  1  0.180289  0.035768  0.938560  1
  La  La16  1  0.045190  0.750000  0.497314  1
  La  La17  1  0.953534  0.250000  0.502988  1
  La  La18  1  0.556685  0.250000  0.004176  1
  La  La19  1  0.454141  0.750000  0.997728  1
  Zn  Zn20  1  0.427914  0.750000  0.487109  1
  Bi  Bi21  1  0.571510  0.506451  0.827467  1
  Bi  Bi22  1  0.422974  0.493724  0.174130  1
  Bi  Bi23  1  0.073793  0.492711  0.672190  1
  Bi  Bi24  1  0.422974  0.006276  0.174130  1
  Bi  Bi25  1  0.925740  0.505551  0.326867  1
  Bi  Bi26  1  0.571510  0.993549  0.827467  1
  Bi  Bi27  1  0.925740  0.994449  0.326867  1
  Bi  Bi28  1  0.073793  0.007289  0.672190  1
  Ru  Ru29  1  0.082212  0.750000  0.982335  1
  Ru  Ru30  1  0.916660  0.250000  0.013674  1
  Ru  Ru31  1  0.580665  0.250000  0.513890  1
