# generated using pymatgen
data_Li4Sc4Hg7Pb
_symmetry_space_group_name_H-M   'P 1'
_cell_length_a   7.05522423
_cell_length_b   7.05208724
_cell_length_c   6.82179612
_cell_angle_alpha   89.98390553
_cell_angle_beta   90.01450423
_cell_angle_gamma   89.97467397
_symmetry_Int_Tables_number   1
_chemical_formula_structural   Li4Sc4Hg7Pb
_chemical_formula_sum   'Li4 Sc4 Hg7 Pb1'
_cell_volume   339.41197411
_cell_formula_units_Z   1
loop_
 _symmetry_equiv_pos_site_id
 _symmetry_equiv_pos_as_xyz
  1  'x, y, z'
loop_
 _atom_site_type_symbol
 _atom_site_label
 _atom_site_symmetry_multiplicity
 _atom_site_fract_x
 _atom_site_fract_y
 _atom_site_fract_z
 _atom_site_occupancy
  Li  Li0  1  0.754551  0.254440  0.991581  1
  Li  Li1  1  0.245491  0.745516  0.991538  1
  Li  Li2  1  0.754443  0.254483  0.508400  1
  Li  Li3  1  0.245595  0.745507  0.508484  1
  Sc  Sc4  1  0.247674  0.252284  0.996122  1
  Sc  Sc5  1  0.752354  0.747683  0.996114  1
  Sc  Sc6  1  0.752233  0.747723  0.503832  1
  Sc  Sc7  1  0.247711  0.252321  0.503974  1
  Hg  Hg8  1  0.499938  0.500044  0.249916  1
  Hg  Hg9  1  0.000000  0.999979  0.250083  1
  Hg  Hg10  1  0.000000  0.499972  0.250076  1
  Hg  Hg11  1  0.999999  0.999996  0.749921  1
  Hg  Hg12  1  0.000036  0.500010  0.749927  1
  Hg  Hg13  1  0.500073  0.499947  0.750062  1
  Hg  Hg14  1  0.500061  0.999999  0.750050  1
  Pb  Pb15  1  0.499841  0.000099  0.249920  1
