# generated using pymatgen
data_Ca2YCoSn6
_symmetry_space_group_name_H-M   'P 1'
_cell_length_a   8.41672008
_cell_length_b   8.41672081
_cell_length_c   13.37371800
_cell_angle_alpha   90.00000000
_cell_angle_beta   90.00000000
_cell_angle_gamma   147.57836901
_symmetry_Int_Tables_number   1
_chemical_formula_structural   Ca2YCoSn6
_chemical_formula_sum   'Ca4 Y2 Co2 Sn12'
_cell_volume   507.94962714
_cell_formula_units_Z   2
loop_
 _symmetry_equiv_pos_site_id
 _symmetry_equiv_pos_as_xyz
  1  'x, y, z'
loop_
 _atom_site_type_symbol
 _atom_site_label
 _atom_site_symmetry_multiplicity
 _atom_site_fract_x
 _atom_site_fract_y
 _atom_site_fract_z
 _atom_site_occupancy
  Ca  Ca0  1  0.901303  0.098697  0.096777  1
  Ca  Ca1  1  0.098697  0.901303  0.596777  1
  Ca  Ca2  1  0.098697  0.901303  0.903223  1
  Ca  Ca3  1  0.901303  0.098697  0.403223  1
  Y  Y4  1  0.901203  0.098797  0.750000  1
  Y  Y5  1  0.098797  0.901203  0.250000  1
  Co  Co6  1  0.294508  0.705492  0.250000  1
  Co  Co7  1  0.705492  0.294508  0.750000  1
  Sn  Sn8  1  0.756426  0.243574  0.571352  1
  Sn  Sn9  1  0.425746  0.574254  0.578591  1
  Sn  Sn10  1  0.574254  0.425746  0.421409  1
  Sn  Sn11  1  0.731644  0.268356  0.250000  1
  Sn  Sn12  1  0.268356  0.731644  0.750000  1
  Sn  Sn13  1  0.243574  0.756426  0.071352  1
  Sn  Sn14  1  0.243574  0.756426  0.428648  1
  Sn  Sn15  1  0.574254  0.425746  0.078591  1
  Sn  Sn16  1  0.453726  0.546274  0.250000  1
  Sn  Sn17  1  0.546274  0.453726  0.750000  1
  Sn  Sn18  1  0.756426  0.243574  0.928648  1
  Sn  Sn19  1  0.425746  0.574254  0.921409  1
