# generated using pymatgen
data_Lu20Sn12C
_symmetry_space_group_name_H-M   'P 1'
_cell_length_a   15.23160100
_cell_length_b   6.41140628
_cell_length_c   8.74887124
_cell_angle_alpha   89.92037634
_cell_angle_beta   90.00000000
_cell_angle_gamma   90.00000000
_symmetry_Int_Tables_number   1
_chemical_formula_structural   Lu20Sn12C
_chemical_formula_sum   'Lu20 Sn12 C1'
_cell_volume   854.37879046
_cell_formula_units_Z   1
loop_
 _symmetry_equiv_pos_site_id
 _symmetry_equiv_pos_as_xyz
  1  'x, y, z'
loop_
 _atom_site_type_symbol
 _atom_site_label
 _atom_site_symmetry_multiplicity
 _atom_site_fract_x
 _atom_site_fract_y
 _atom_site_fract_z
 _atom_site_occupancy
  Lu  Lu0  1  0.664238  0.500000  0.500000  1
  Lu  Lu1  1  0.169495  0.500000  0.000000  1
  Lu  Lu2  1  0.830505  0.500000  0.000000  1
  Lu  Lu3  1  0.335762  0.500000  0.500000  1
  Lu  Lu4  1  0.837156  0.000000  0.000000  1
  Lu  Lu5  1  0.330025  0.000000  0.500000  1
  Lu  Lu6  1  0.669975  0.000000  0.500000  1
  Lu  Lu7  1  0.162844  0.000000  0.000000  1
  Lu  Lu8  1  0.500000  0.248289  0.760817  1
  Lu  Lu9  1  0.000000  0.279467  0.274408  1
  Lu  Lu10  1  0.617765  0.249047  0.118561  1
  Lu  Lu11  1  0.113664  0.277176  0.615085  1
  Lu  Lu12  1  0.886336  0.277176  0.615085  1
  Lu  Lu13  1  0.382235  0.249047  0.118561  1
  Lu  Lu14  1  0.000000  0.720533  0.725592  1
  Lu  Lu15  1  0.500000  0.751711  0.239183  1
  Lu  Lu16  1  0.886336  0.722824  0.384915  1
  Lu  Lu17  1  0.382235  0.750953  0.881439  1
  Lu  Lu18  1  0.617765  0.750953  0.881439  1
  Lu  Lu19  1  0.113664  0.722824  0.384915  1
  Sn  Sn20  1  0.000000  0.258393  0.901485  1
  Sn  Sn21  1  0.500000  0.243772  0.396236  1
  Sn  Sn22  1  0.800539  0.253723  0.300675  1
  Sn  Sn23  1  0.301903  0.246571  0.801795  1
  Sn  Sn24  1  0.698097  0.246571  0.801795  1
  Sn  Sn25  1  0.199461  0.253723  0.300675  1
  Sn  Sn26  1  0.500000  0.756228  0.603764  1
  Sn  Sn27  1  0.000000  0.741607  0.098515  1
  Sn  Sn28  1  0.698097  0.753429  0.198205  1
  Sn  Sn29  1  0.199461  0.746277  0.699325  1
  Sn  Sn30  1  0.800539  0.746277  0.699325  1
  Sn  Sn31  1  0.301903  0.753429  0.198205  1
  C  C32  1  0.000000  0.500000  0.500000  1
