# generated using pymatgen
data_Eu2P4Pd7
_symmetry_space_group_name_H-M   'P 1'
_cell_length_a   4.06943100
_cell_length_b   9.93241100
_cell_length_c   11.17565600
_cell_angle_alpha   90.00000000
_cell_angle_beta   90.00000000
_cell_angle_gamma   90.00000000
_symmetry_Int_Tables_number   1
_chemical_formula_structural   Eu2P4Pd7
_chemical_formula_sum   'Eu4 P8 Pd14'
_cell_volume   451.71175926
_cell_formula_units_Z   2
loop_
 _symmetry_equiv_pos_site_id
 _symmetry_equiv_pos_as_xyz
  1  'x, y, z'
loop_
 _atom_site_type_symbol
 _atom_site_label
 _atom_site_symmetry_multiplicity
 _atom_site_fract_x
 _atom_site_fract_y
 _atom_site_fract_z
 _atom_site_occupancy
  Eu  Eu0  1  0.000000  0.440090  0.518066  1
  Eu  Eu1  1  0.500000  0.559910  0.018066  1
  Eu  Eu2  1  0.000000  0.065817  0.729284  1
  Eu  Eu3  1  0.500000  0.934183  0.229284  1
  P  P4  1  0.000000  0.691679  0.196917  1
  P  P5  1  0.500000  0.308321  0.696917  1
  P  P6  1  0.000000  0.017132  0.454276  1
  P  P7  1  0.500000  0.982868  0.954276  1
  P  P8  1  0.000000  0.322864  0.025443  1
  P  P9  1  0.500000  0.677136  0.525443  1
  P  P10  1  0.000000  0.655684  0.837449  1
  P  P11  1  0.500000  0.344316  0.337449  1
  Pd  Pd12  1  0.000000  0.775875  0.397955  1
  Pd  Pd13  1  0.500000  0.224125  0.897955  1
  Pd  Pd14  1  0.000000  0.745287  0.645056  1
  Pd  Pd15  1  0.500000  0.254713  0.145056  1
  Pd  Pd16  1  0.000000  0.810482  0.006258  1
  Pd  Pd17  1  0.500000  0.189518  0.506258  1
  Pd  Pd18  1  0.000000  0.448691  0.209556  1
  Pd  Pd19  1  0.500000  0.551309  0.709556  1
  Pd  Pd20  1  0.000000  0.406769  0.825502  1
  Pd  Pd21  1  0.500000  0.593231  0.325502  1
  Pd  Pd22  1  0.000000  0.193589  0.319730  1
  Pd  Pd23  1  0.500000  0.806411  0.819730  1
  Pd  Pd24  1  0.000000  0.087856  0.039307  1
  Pd  Pd25  1  0.500000  0.912144  0.539307  1
