# generated using pymatgen
data_BaLiZnBi2
_symmetry_space_group_name_H-M   'P 1'
_cell_length_a   4.98378800
_cell_length_b   4.98378800
_cell_length_c   11.76525500
_cell_angle_alpha   90.00000000
_cell_angle_beta   90.00000000
_cell_angle_gamma   90.00000000
_symmetry_Int_Tables_number   1
_chemical_formula_structural   BaLiZnBi2
_chemical_formula_sum   'Ba2 Li2 Zn2 Bi4'
_cell_volume   292.22708411
_cell_formula_units_Z   2
loop_
 _symmetry_equiv_pos_site_id
 _symmetry_equiv_pos_as_xyz
  1  'x, y, z'
loop_
 _atom_site_type_symbol
 _atom_site_label
 _atom_site_symmetry_multiplicity
 _atom_site_fract_x
 _atom_site_fract_y
 _atom_site_fract_z
 _atom_site_occupancy
  Ba  Ba0  1  0.000000  0.500000  0.750388  1
  Ba  Ba1  1  0.500000  0.000000  0.249612  1
  Li  Li2  1  0.000000  0.000000  0.000000  1
  Li  Li3  1  0.500000  0.500000  0.000000  1
  Zn  Zn4  1  0.000000  0.500000  0.367774  1
  Zn  Zn5  1  0.500000  0.000000  0.632226  1
  Bi  Bi6  1  0.000000  0.000000  0.500000  1
  Bi  Bi7  1  0.500000  0.500000  0.500000  1
  Bi  Bi8  1  0.000000  0.500000  0.135336  1
  Bi  Bi9  1  0.500000  0.000000  0.864664  1
