# generated using pymatgen
data_Nd2SiGePd2
_symmetry_space_group_name_H-M   'P 1'
_cell_length_a   4.47747900
_cell_length_b   7.61384131
_cell_length_c   21.96050223
_cell_angle_alpha   89.87859083
_cell_angle_beta   90.00000000
_cell_angle_gamma   90.00000000
_symmetry_Int_Tables_number   1
_chemical_formula_structural   Nd2SiGePd2
_chemical_formula_sum   'Nd12 Si6 Ge6 Pd12'
_cell_volume   748.64972840
_cell_formula_units_Z   6
loop_
 _symmetry_equiv_pos_site_id
 _symmetry_equiv_pos_as_xyz
  1  'x, y, z'
loop_
 _atom_site_type_symbol
 _atom_site_label
 _atom_site_symmetry_multiplicity
 _atom_site_fract_x
 _atom_site_fract_y
 _atom_site_fract_z
 _atom_site_occupancy
  Nd  Nd0  1  0.250000  0.706218  0.332908  1
  Nd  Nd1  1  0.750000  0.293782  0.667092  1
  Nd  Nd2  1  0.750000  0.206723  0.166984  1
  Nd  Nd3  1  0.250000  0.793277  0.833016  1
  Nd  Nd4  1  0.250000  0.794124  0.166360  1
  Nd  Nd5  1  0.750000  0.205876  0.833640  1
  Nd  Nd6  1  0.750000  0.294788  0.333459  1
  Nd  Nd7  1  0.250000  0.705212  0.666541  1
  Nd  Nd8  1  0.250000  0.711149  0.001643  1
  Nd  Nd9  1  0.750000  0.288851  0.998357  1
  Nd  Nd10  1  0.750000  0.211548  0.498514  1
  Nd  Nd11  1  0.250000  0.788452  0.501486  1
  Si  Si12  1  0.750000  0.583561  0.227418  1
  Si  Si13  1  0.250000  0.416439  0.772582  1
  Si  Si14  1  0.250000  0.085890  0.395392  1
  Si  Si15  1  0.750000  0.914110  0.604608  1
  Si  Si16  1  0.750000  0.585094  0.106401  1
  Si  Si17  1  0.250000  0.414906  0.893599  1
  Ge  Ge18  1  0.250000  0.091083  0.070796  1
  Ge  Ge19  1  0.750000  0.908917  0.929204  1
  Ge  Ge20  1  0.750000  0.591412  0.429364  1
  Ge  Ge21  1  0.250000  0.408588  0.570636  1
  Ge  Ge22  1  0.250000  0.085252  0.271339  1
  Ge  Ge23  1  0.750000  0.914748  0.728661  1
  Pd  Pd24  1  0.250000  0.425356  0.236287  1
  Pd  Pd25  1  0.750000  0.574644  0.763713  1
  Pd  Pd26  1  0.750000  0.908584  0.262737  1
  Pd  Pd27  1  0.250000  0.091416  0.737263  1
  Pd  Pd28  1  0.250000  0.408159  0.435355  1
  Pd  Pd29  1  0.750000  0.591841  0.564645  1
  Pd  Pd30  1  0.750000  0.908252  0.064728  1
  Pd  Pd31  1  0.250000  0.091748  0.935272  1
  Pd  Pd32  1  0.250000  0.427392  0.095416  1
  Pd  Pd33  1  0.750000  0.572608  0.904584  1
  Pd  Pd34  1  0.750000  0.928159  0.404568  1
  Pd  Pd35  1  0.250000  0.071841  0.595432  1
