# generated using pymatgen
data_TbLuTcC2
_symmetry_space_group_name_H-M   'P 1'
_cell_length_a   5.05233900
_cell_length_b   6.56470000
_cell_length_c   9.76140400
_cell_angle_alpha   90.00000000
_cell_angle_beta   90.00000000
_cell_angle_gamma   90.00000000
_symmetry_Int_Tables_number   1
_chemical_formula_structural   TbLuTcC2
_chemical_formula_sum   'Tb4 Lu4 Tc4 C8'
_cell_volume   323.75736337
_cell_formula_units_Z   4
loop_
 _symmetry_equiv_pos_site_id
 _symmetry_equiv_pos_as_xyz
  1  'x, y, z'
loop_
 _atom_site_type_symbol
 _atom_site_label
 _atom_site_symmetry_multiplicity
 _atom_site_fract_x
 _atom_site_fract_y
 _atom_site_fract_z
 _atom_site_occupancy
  Tb  Tb0  1  0.750000  0.466759  0.786064  1
  Tb  Tb1  1  0.250000  0.033241  0.286064  1
  Tb  Tb2  1  0.750000  0.966759  0.713936  1
  Tb  Tb3  1  0.250000  0.533241  0.213936  1
  Lu  Lu4  1  0.750000  0.827761  0.058703  1
  Lu  Lu5  1  0.250000  0.672239  0.558703  1
  Lu  Lu6  1  0.750000  0.327761  0.441297  1
  Lu  Lu7  1  0.250000  0.172239  0.941297  1
  Tc  Tc8  1  0.750000  0.279293  0.133339  1
  Tc  Tc9  1  0.250000  0.220707  0.633339  1
  Tc  Tc10  1  0.750000  0.779293  0.366661  1
  Tc  Tc11  1  0.250000  0.720707  0.866661  1
  C  C12  1  0.750000  0.171720  0.950244  1
  C  C13  1  0.250000  0.828280  0.049756  1
  C  C14  1  0.750000  0.671720  0.549756  1
  C  C15  1  0.250000  0.328280  0.450244  1
  C  C16  1  0.750000  0.048613  0.260371  1
  C  C17  1  0.250000  0.451387  0.760371  1
  C  C18  1  0.750000  0.548613  0.239629  1
  C  C19  1  0.250000  0.951387  0.739629  1
