# generated using pymatgen
data_La2CeS5
_symmetry_space_group_name_H-M   'P 1'
_cell_length_a   7.59568000
_cell_length_b   8.28155400
_cell_length_c   12.03381300
_cell_angle_alpha   90.00000000
_cell_angle_beta   90.00000000
_cell_angle_gamma   90.00000000
_symmetry_Int_Tables_number   1
_chemical_formula_structural   La2CeS5
_chemical_formula_sum   'La8 Ce4 S20'
_cell_volume   756.97538315
_cell_formula_units_Z   4
loop_
 _symmetry_equiv_pos_site_id
 _symmetry_equiv_pos_as_xyz
  1  'x, y, z'
loop_
 _atom_site_type_symbol
 _atom_site_label
 _atom_site_symmetry_multiplicity
 _atom_site_fract_x
 _atom_site_fract_y
 _atom_site_fract_z
 _atom_site_occupancy
  La  La0  1  0.527979  0.501527  0.323731  1
  La  La1  1  0.972021  0.998473  0.823731  1
  La  La2  1  0.472021  0.001527  0.676269  1
  La  La3  1  0.027979  0.498473  0.176269  1
  La  La4  1  0.472021  0.498473  0.676269  1
  La  La5  1  0.027979  0.001527  0.176269  1
  La  La6  1  0.527979  0.998473  0.323731  1
  La  La7  1  0.972021  0.501527  0.823731  1
  Ce  Ce8  1  0.069854  0.750000  0.491235  1
  Ce  Ce9  1  0.430146  0.750000  0.991235  1
  Ce  Ce10  1  0.930146  0.250000  0.508765  1
  Ce  Ce11  1  0.569854  0.250000  0.008765  1
  S  S12  1  0.835379  0.959671  0.593040  1
  S  S13  1  0.664621  0.540329  0.093040  1
  S  S14  1  0.164621  0.459671  0.406960  1
  S  S15  1  0.335379  0.040329  0.906960  1
  S  S16  1  0.164621  0.040329  0.406960  1
  S  S17  1  0.335379  0.459671  0.906960  1
  S  S18  1  0.835379  0.540329  0.593040  1
  S  S19  1  0.664621  0.959671  0.093040  1
  S  S20  1  0.836163  0.750000  0.310507  1
  S  S21  1  0.663837  0.750000  0.810507  1
  S  S22  1  0.163837  0.250000  0.689493  1
  S  S23  1  0.336163  0.250000  0.189493  1
  S  S24  1  0.454174  0.750000  0.498103  1
  S  S25  1  0.045826  0.750000  0.998103  1
  S  S26  1  0.545826  0.250000  0.501897  1
  S  S27  1  0.954174  0.250000  0.001897  1
  S  S28  1  0.191185  0.750000  0.714690  1
  S  S29  1  0.308815  0.750000  0.214690  1
  S  S30  1  0.808815  0.250000  0.285310  1
  S  S31  1  0.691185  0.250000  0.785310  1
