# generated using pymatgen
data_Ho6Er6Cd2Fe2Os
_symmetry_space_group_name_H-M   'P 1'
_cell_length_a   8.32291083
_cell_length_b   8.32577385
_cell_length_c   8.32557181
_cell_angle_alpha   108.41950087
_cell_angle_beta   108.43449122
_cell_angle_gamma   111.59340103
_symmetry_Int_Tables_number   1
_chemical_formula_structural   Ho6Er6Cd2Fe2Os
_chemical_formula_sum   'Ho6 Er6 Cd2 Fe2 Os1'
_cell_volume   443.58466977
_cell_formula_units_Z   1
loop_
 _symmetry_equiv_pos_site_id
 _symmetry_equiv_pos_as_xyz
  1  'x, y, z'
loop_
 _atom_site_type_symbol
 _atom_site_label
 _atom_site_symmetry_multiplicity
 _atom_site_fract_x
 _atom_site_fract_y
 _atom_site_fract_z
 _atom_site_occupancy
  Ho  Ho0  1  0.308785  0.308491  0.617945  1
  Ho  Ho1  1  0.691215  0.691509  0.382055  1
  Ho  Ho2  1  0.308796  0.690852  0.000293  1
  Ho  Ho3  1  0.691204  0.309148  0.999707  1
  Ho  Ho4  1  0.429175  0.191077  0.238094  1
  Ho  Ho5  1  0.570825  0.808923  0.761906  1
  Er  Er6  1  0.953330  0.190949  0.762362  1
  Er  Er7  1  0.190082  0.952898  0.762225  1
  Er  Er8  1  0.046670  0.809051  0.237638  1
  Er  Er9  1  0.809918  0.047102  0.237775  1
  Er  Er10  1  0.190065  0.427835  0.237168  1
  Er  Er11  1  0.809935  0.572165  0.762832  1
  Cd  Cd12  1  0.500000  0.000000  0.500000  1
  Cd  Cd13  1  0.000000  0.500000  0.500000  1
  Fe  Fe14  1  0.384341  0.384553  0.999873  1
  Fe  Fe15  1  0.615659  0.615447  0.000127  1
  Os  Os16  1  0.000000  0.000000  0.000000  1
