# generated using pymatgen
data_Pr3HoMg2Ir3
_symmetry_space_group_name_H-M   'P 1'
_cell_length_a   7.63350200
_cell_length_b   7.60762024
_cell_length_c   4.19566100
_cell_angle_alpha   90.00000000
_cell_angle_beta   90.00000000
_cell_angle_gamma   120.11260399
_symmetry_Int_Tables_number   1
_chemical_formula_structural   Pr3HoMg2Ir3
_chemical_formula_sum   'Pr3 Ho1 Mg2 Ir3'
_cell_volume   210.77047300
_cell_formula_units_Z   1
loop_
 _symmetry_equiv_pos_site_id
 _symmetry_equiv_pos_as_xyz
  1  'x, y, z'
loop_
 _atom_site_type_symbol
 _atom_site_label
 _atom_site_symmetry_multiplicity
 _atom_site_fract_x
 _atom_site_fract_y
 _atom_site_fract_z
 _atom_site_occupancy
  Pr  Pr0  1  0.393208  0.000000  0.500000  1
  Pr  Pr1  1  0.019648  0.434626  0.500000  1
  Pr  Pr2  1  0.585021  0.565374  0.500000  1
  Ho  Ho3  1  0.753469  0.000000  0.000000  1
  Mg  Mg4  1  0.241606  0.244223  0.000000  1
  Mg  Mg5  1  0.997384  0.755776  0.000000  1
  Ir  Ir6  1  0.670038  0.328707  0.000000  1
  Ir  Ir7  1  0.341331  0.671293  0.000000  1
  Ir  Ir8  1  0.998297  0.000000  0.500000  1
