# generated using pymatgen
data_Yb3C3O
_symmetry_space_group_name_H-M   'P 1'
_cell_length_a   3.63362950
_cell_length_b   3.63430890
_cell_length_c   7.55085182
_cell_angle_alpha   83.43664790
_cell_angle_beta   83.48605687
_cell_angle_gamma   89.12544783
_symmetry_Int_Tables_number   1
_chemical_formula_structural   Yb3C3O
_chemical_formula_sum   'Yb3 C3 O1'
_cell_volume   98.42122793
_cell_formula_units_Z   1
loop_
 _symmetry_equiv_pos_site_id
 _symmetry_equiv_pos_as_xyz
  1  'x, y, z'
loop_
 _atom_site_type_symbol
 _atom_site_label
 _atom_site_symmetry_multiplicity
 _atom_site_fract_x
 _atom_site_fract_y
 _atom_site_fract_z
 _atom_site_occupancy
  Yb  Yb0  1  0.865656  0.432379  0.145200  1
  Yb  Yb1  1  0.301842  0.868084  0.449832  1
  Yb  Yb2  1  0.424069  0.991245  0.841045  1
  C  C3  1  0.780923  0.347230  0.487011  1
  C  C4  1  0.862856  0.429538  0.645907  1
  C  C5  1  0.944059  0.511282  0.805011  1
  O  O6  1  0.359247  0.925813  0.145631  1
