# generated using pymatgen
data_Hf8Si4Pt9Rh5
_symmetry_space_group_name_H-M   'P 1'
_cell_length_a   3.96757400
_cell_length_b   6.48554162
_cell_length_c   16.53391213
_cell_angle_alpha   90.08066828
_cell_angle_beta   90.00000000
_cell_angle_gamma   90.00000000
_symmetry_Int_Tables_number   1
_chemical_formula_structural   Hf8Si4Pt9Rh5
_chemical_formula_sum   'Hf8 Si4 Pt9 Rh5'
_cell_volume   425.44799457
_cell_formula_units_Z   1
loop_
 _symmetry_equiv_pos_site_id
 _symmetry_equiv_pos_as_xyz
  1  'x, y, z'
loop_
 _atom_site_type_symbol
 _atom_site_label
 _atom_site_symmetry_multiplicity
 _atom_site_fract_x
 _atom_site_fract_y
 _atom_site_fract_z
 _atom_site_occupancy
  Hf  Hf0  1  0.000000  0.279710  0.461364  1
  Hf  Hf1  1  0.000000  0.720290  0.538636  1
  Hf  Hf2  1  0.000000  0.773661  0.036639  1
  Hf  Hf3  1  0.000000  0.226339  0.963361  1
  Hf  Hf4  1  0.000000  0.526615  0.287545  1
  Hf  Hf5  1  0.000000  0.473385  0.712455  1
  Hf  Hf6  1  0.000000  0.024845  0.209640  1
  Hf  Hf7  1  0.000000  0.975155  0.790360  1
  Si  Si8  1  0.500000  0.840856  0.309454  1
  Si  Si9  1  0.500000  0.159144  0.690546  1
  Si  Si10  1  0.500000  0.339712  0.189364  1
  Si  Si11  1  0.500000  0.660288  0.810636  1
  Pt  Pt12  1  0.500000  0.589420  0.420385  1
  Pt  Pt13  1  0.500000  0.410580  0.579615  1
  Pt  Pt14  1  0.500000  0.088307  0.079616  1
  Pt  Pt15  1  0.500000  0.911693  0.920384  1
  Pt  Pt16  1  0.500000  0.000000  0.500000  1
  Pt  Pt17  1  0.500000  0.218824  0.329399  1
  Pt  Pt18  1  0.500000  0.781176  0.670601  1
  Pt  Pt19  1  0.500000  0.715978  0.169493  1
  Pt  Pt20  1  0.500000  0.284022  0.830507  1
  Rh  Rh21  1  0.000000  0.909526  0.382440  1
  Rh  Rh22  1  0.000000  0.090474  0.617560  1
  Rh  Rh23  1  0.000000  0.408257  0.117583  1
  Rh  Rh24  1  0.000000  0.591743  0.882417  1
  Rh  Rh25  1  0.500000  0.500000  0.000000  1
