# generated using pymatgen
data_Tb3SnGeRh2
_symmetry_space_group_name_H-M   'P 1'
_cell_length_a   5.67500200
_cell_length_b   8.14863000
_cell_length_c   13.42258400
_cell_angle_alpha   90.00000000
_cell_angle_beta   90.00000000
_cell_angle_gamma   90.00000000
_symmetry_Int_Tables_number   1
_chemical_formula_structural   Tb3SnGeRh2
_chemical_formula_sum   'Tb12 Sn4 Ge4 Rh8'
_cell_volume   620.70714975
_cell_formula_units_Z   4
loop_
 _symmetry_equiv_pos_site_id
 _symmetry_equiv_pos_as_xyz
  1  'x, y, z'
loop_
 _atom_site_type_symbol
 _atom_site_label
 _atom_site_symmetry_multiplicity
 _atom_site_fract_x
 _atom_site_fract_y
 _atom_site_fract_z
 _atom_site_occupancy
  Tb  Tb0  1  0.633534  0.255320  0.250000  1
  Tb  Tb1  1  0.366466  0.744680  0.750000  1
  Tb  Tb2  1  0.366466  0.755320  0.250000  1
  Tb  Tb3  1  0.633534  0.244680  0.750000  1
  Tb  Tb4  1  0.157012  0.395932  0.101187  1
  Tb  Tb5  1  0.842988  0.604068  0.898813  1
  Tb  Tb6  1  0.842988  0.604068  0.601187  1
  Tb  Tb7  1  0.842988  0.895932  0.398813  1
  Tb  Tb8  1  0.157012  0.395932  0.398813  1
  Tb  Tb9  1  0.157012  0.104068  0.601187  1
  Tb  Tb10  1  0.157012  0.104068  0.898813  1
  Tb  Tb11  1  0.842988  0.895932  0.101187  1
  Sn  Sn12  1  0.668118  0.250000  0.000000  1
  Sn  Sn13  1  0.331882  0.750000  0.000000  1
  Sn  Sn14  1  0.331882  0.750000  0.500000  1
  Sn  Sn15  1  0.668118  0.250000  0.500000  1
  Ge  Ge16  1  0.124343  0.110804  0.250000  1
  Ge  Ge17  1  0.875657  0.889196  0.750000  1
  Ge  Ge18  1  0.875657  0.610804  0.250000  1
  Ge  Ge19  1  0.124343  0.389196  0.750000  1
  Rh  Rh20  1  0.368145  0.042471  0.098646  1
  Rh  Rh21  1  0.631855  0.957529  0.901354  1
  Rh  Rh22  1  0.631855  0.957529  0.598646  1
  Rh  Rh23  1  0.631855  0.542471  0.401354  1
  Rh  Rh24  1  0.368145  0.042471  0.401354  1
  Rh  Rh25  1  0.368145  0.457529  0.598646  1
  Rh  Rh26  1  0.368145  0.457529  0.901354  1
  Rh  Rh27  1  0.631855  0.542471  0.098646  1
