# generated using pymatgen
data_Eu3Si2(B3O8)2
_symmetry_space_group_name_H-M   'P 1'
_cell_length_a   4.97988535
_cell_length_b   7.40742850
_cell_length_c   8.40332050
_cell_angle_alpha   103.05783161
_cell_angle_beta   102.42970305
_cell_angle_gamma   88.71655610
_symmetry_Int_Tables_number   1
_chemical_formula_structural   Eu3Si2(B3O8)2
_chemical_formula_sum   'Eu3 Si2 B6 O16'
_cell_volume   294.77752097
_cell_formula_units_Z   1
loop_
 _symmetry_equiv_pos_site_id
 _symmetry_equiv_pos_as_xyz
  1  'x, y, z'
loop_
 _atom_site_type_symbol
 _atom_site_label
 _atom_site_symmetry_multiplicity
 _atom_site_fract_x
 _atom_site_fract_y
 _atom_site_fract_z
 _atom_site_occupancy
  Eu  Eu0  1  0.500000  0.000000  0.500000  1
  Eu  Eu1  1  0.400402  0.411575  0.251722  1
  Eu  Eu2  1  0.599598  0.588425  0.748278  1
  Si  Si3  1  0.787623  0.185407  0.944691  1
  Si  Si4  1  0.212377  0.814593  0.055309  1
  B  B5  1  0.219086  0.254940  0.805076  1
  B  B6  1  0.780914  0.745060  0.194924  1
  B  B7  1  0.039816  0.690599  0.465858  1
  B  B8  1  0.960184  0.309401  0.534142  1
  B  B9  1  0.963823  0.085848  0.251995  1
  B  B10  1  0.036177  0.914152  0.748005  1
  O  O11  1  0.771681  0.178476  0.135611  1
  O  O12  1  0.228319  0.821524  0.864389  1
  O  O13  1  0.870155  0.614306  0.307682  1
  O  O14  1  0.129845  0.385694  0.692318  1
  O  O15  1  0.074801  0.292911  0.946526  1
  O  O16  1  0.925199  0.707089  0.053474  1
  O  O17  1  0.091869  0.224750  0.406524  1
  O  O18  1  0.908131  0.775250  0.593476  1
  O  O19  1  0.316159  0.677396  0.489962  1
  O  O20  1  0.683841  0.322604  0.510038  1
  O  O21  1  0.479820  0.699525  0.125676  1
  O  O22  1  0.520180  0.300475  0.874324  1
  O  O23  1  0.169322  0.064101  0.705266  1
  O  O24  1  0.830678  0.935899  0.294734  1
  O  O25  1  0.211263  0.020003  0.181737  1
  O  O26  1  0.788737  0.979997  0.818263  1
