# generated using pymatgen
data_BaNa(PIr)4
_symmetry_space_group_name_H-M   'P 1'
_cell_length_a   6.89200516
_cell_length_b   6.89200438
_cell_length_c   5.60117400
_cell_angle_alpha   90.00000000
_cell_angle_beta   90.00000000
_cell_angle_gamma   132.11595332
_symmetry_Int_Tables_number   1
_chemical_formula_structural   BaNa(PIr)4
_chemical_formula_sum   'Ba1 Na1 P4 Ir4'
_cell_volume   197.35615428
_cell_formula_units_Z   1
loop_
 _symmetry_equiv_pos_site_id
 _symmetry_equiv_pos_as_xyz
  1  'x, y, z'
loop_
 _atom_site_type_symbol
 _atom_site_label
 _atom_site_symmetry_multiplicity
 _atom_site_fract_x
 _atom_site_fract_y
 _atom_site_fract_z
 _atom_site_occupancy
  Ba  Ba0  1  0.500000  0.500000  0.500000  1
  Na  Na1  1  0.000000  0.000000  0.000000  1
  P  P2  1  0.355264  0.644736  0.000000  1
  P  P3  1  0.851703  0.148297  0.500000  1
  P  P4  1  0.148297  0.851703  0.500000  1
  P  P5  1  0.644736  0.355264  0.000000  1
  Ir  Ir6  1  0.500000  0.000000  0.751716  1
  Ir  Ir7  1  0.000000  0.500000  0.248284  1
  Ir  Ir8  1  0.000000  0.500000  0.751716  1
  Ir  Ir9  1  0.500000  0.000000  0.248284  1
