# generated using pymatgen
data_U2Tl3Ge2O11
_symmetry_space_group_name_H-M   'P 1'
_cell_length_a   12.40711800
_cell_length_b   7.06285501
_cell_length_c   15.91191900
_cell_angle_alpha   74.62540445
_cell_angle_beta   90.00000000
_cell_angle_gamma   90.00000000
_symmetry_Int_Tables_number   1
_chemical_formula_structural   U2Tl3Ge2O11
_chemical_formula_sum   'U8 Tl12 Ge8 O44'
_cell_volume   1344.45654556
_cell_formula_units_Z   4
loop_
 _symmetry_equiv_pos_site_id
 _symmetry_equiv_pos_as_xyz
  1  'x, y, z'
loop_
 _atom_site_type_symbol
 _atom_site_label
 _atom_site_symmetry_multiplicity
 _atom_site_fract_x
 _atom_site_fract_y
 _atom_site_fract_z
 _atom_site_occupancy
  U  U0  1  0.556761  0.155225  0.743833  1
  U  U1  1  0.443239  0.844775  0.256167  1
  U  U2  1  0.056761  0.844775  0.756167  1
  U  U3  1  0.500000  0.000000  0.000000  1
  U  U4  1  0.000000  0.500000  0.000000  1
  U  U5  1  0.943239  0.155225  0.243833  1
  U  U6  1  0.000000  0.000000  0.500000  1
  U  U7  1  0.500000  0.500000  0.500000  1
  Tl  Tl8  1  0.646913  0.505738  0.913866  1
  Tl  Tl9  1  0.839450  0.455653  0.662118  1
  Tl  Tl10  1  0.853087  0.505738  0.413866  1
  Tl  Tl11  1  0.830652  0.989107  0.925178  1
  Tl  Tl12  1  0.669348  0.989107  0.425178  1
  Tl  Tl13  1  0.660550  0.455653  0.162118  1
  Tl  Tl14  1  0.169348  0.010893  0.074822  1
  Tl  Tl15  1  0.353087  0.494262  0.086134  1
  Tl  Tl16  1  0.339450  0.544347  0.837882  1
  Tl  Tl17  1  0.146913  0.494262  0.586134  1
  Tl  Tl18  1  0.160550  0.544347  0.337882  1
  Tl  Tl19  1  0.330652  0.010893  0.574822  1
  Ge  Ge20  1  0.427478  0.297052  0.324493  1
  Ge  Ge21  1  0.792570  0.956611  0.658844  1
  Ge  Ge22  1  0.707430  0.956611  0.158844  1
  Ge  Ge23  1  0.572522  0.702948  0.675507  1
  Ge  Ge24  1  0.207430  0.043389  0.341156  1
  Ge  Ge25  1  0.292570  0.043389  0.841156  1
  Ge  Ge26  1  0.927478  0.702948  0.175507  1
  Ge  Ge27  1  0.072522  0.297052  0.824493  1
  O  O28  1  0.020505  0.695412  0.092760  1
  O  O29  1  0.025888  0.155773  0.755080  1
  O  O30  1  0.271426  0.896587  0.281832  1
  O  O31  1  0.895227  0.463787  0.240815  1
  O  O32  1  0.886218  0.796202  0.726144  1
  O  O33  1  0.979495  0.304588  0.907240  1
  O  O34  1  0.474112  0.155773  0.255080  1
  O  O35  1  0.477860  0.761754  0.386230  1
  O  O36  1  0.228574  0.896587  0.781832  1
  O  O37  1  0.977860  0.238246  0.113770  1
  O  O38  1  0.525888  0.844227  0.744920  1
  O  O39  1  0.386218  0.203798  0.773856  1
  O  O40  1  0.613782  0.796202  0.226144  1
  O  O41  1  0.395227  0.536213  0.259185  1
  O  O42  1  0.949217  0.736669  0.524482  1
  O  O43  1  0.304614  0.192118  0.378657  1
  O  O44  1  0.520505  0.304588  0.407240  1
  O  O45  1  0.590528  0.076604  0.875713  1
  O  O46  1  0.522140  0.238246  0.613770  1
  O  O47  1  0.642535  0.099721  0.064534  1
  O  O48  1  0.851106  0.546520  0.995335  1
  O  O49  1  0.142535  0.900279  0.435466  1
  O  O50  1  0.804614  0.807882  0.121343  1
  O  O51  1  0.113782  0.203798  0.273856  1
  O  O52  1  0.695386  0.807882  0.621343  1
  O  O53  1  0.351106  0.453480  0.504665  1
  O  O54  1  0.974112  0.844227  0.244920  1
  O  O55  1  0.022140  0.761754  0.886230  1
  O  O56  1  0.909472  0.076604  0.375713  1
  O  O57  1  0.449217  0.263331  0.975518  1
  O  O58  1  0.728574  0.103413  0.718168  1
  O  O59  1  0.648894  0.546520  0.495335  1
  O  O60  1  0.050783  0.263331  0.475518  1
  O  O61  1  0.148894  0.453480  0.004665  1
  O  O62  1  0.771426  0.103413  0.218168  1
  O  O63  1  0.090528  0.923396  0.624287  1
  O  O64  1  0.409472  0.923396  0.124287  1
  O  O65  1  0.857465  0.099721  0.564534  1
  O  O66  1  0.550783  0.736669  0.024482  1
  O  O67  1  0.104773  0.536213  0.759185  1
  O  O68  1  0.195386  0.192118  0.878657  1
  O  O69  1  0.604773  0.463787  0.740815  1
  O  O70  1  0.479495  0.695412  0.592760  1
  O  O71  1  0.357465  0.900279  0.935466  1
