# generated using pymatgen
data_DyTmFe2(P3Rh4)2
_symmetry_space_group_name_H-M   'P 1'
_cell_length_a   3.84797300
_cell_length_b   10.75231200
_cell_length_c   12.41603600
_cell_angle_alpha   90.00000000
_cell_angle_beta   90.00000000
_cell_angle_gamma   90.00000000
_symmetry_Int_Tables_number   1
_chemical_formula_structural   DyTmFe2(P3Rh4)2
_chemical_formula_sum   'Dy2 Tm2 Fe4 P12 Rh16'
_cell_volume   513.70860085
_cell_formula_units_Z   2
loop_
 _symmetry_equiv_pos_site_id
 _symmetry_equiv_pos_as_xyz
  1  'x, y, z'
loop_
 _atom_site_type_symbol
 _atom_site_label
 _atom_site_symmetry_multiplicity
 _atom_site_fract_x
 _atom_site_fract_y
 _atom_site_fract_z
 _atom_site_occupancy
  Dy  Dy0  1  0.750000  0.417307  0.290416  1
  Dy  Dy1  1  0.750000  0.082693  0.790416  1
  Tm  Tm2  1  0.250000  0.582591  0.709566  1
  Tm  Tm3  1  0.250000  0.917409  0.209566  1
  Fe  Fe4  1  0.250000  0.462357  0.932732  1
  Fe  Fe5  1  0.250000  0.037643  0.432732  1
  Fe  Fe6  1  0.750000  0.538391  0.066612  1
  Fe  Fe7  1  0.750000  0.961609  0.566612  1
  P  P8  1  0.250000  0.430292  0.105353  1
  P  P9  1  0.250000  0.069708  0.605353  1
  P  P10  1  0.750000  0.570106  0.893973  1
  P  P11  1  0.750000  0.929894  0.393973  1
  P  P12  1  0.250000  0.270874  0.870375  1
  P  P13  1  0.250000  0.229126  0.370375  1
  P  P14  1  0.750000  0.729850  0.130244  1
  P  P15  1  0.750000  0.770150  0.630244  1
  P  P16  1  0.250000  0.601004  0.388782  1
  P  P17  1  0.250000  0.898996  0.888782  1
  P  P18  1  0.750000  0.399581  0.611402  1
  P  P19  1  0.750000  0.100419  0.111402  1
  Rh  Rh20  1  0.250000  0.716534  0.990471  1
  Rh  Rh21  1  0.250000  0.783466  0.490471  1
  Rh  Rh22  1  0.750000  0.283513  0.009460  1
  Rh  Rh23  1  0.750000  0.216487  0.509460  1
  Rh  Rh24  1  0.250000  0.408710  0.479755  1
  Rh  Rh25  1  0.250000  0.091290  0.979755  1
  Rh  Rh26  1  0.750000  0.591731  0.521649  1
  Rh  Rh27  1  0.750000  0.908269  0.021649  1
  Rh  Rh28  1  0.250000  0.230613  0.175477  1
  Rh  Rh29  1  0.250000  0.269387  0.675477  1
  Rh  Rh30  1  0.750000  0.768669  0.824319  1
  Rh  Rh31  1  0.750000  0.731331  0.324319  1
  Rh  Rh32  1  0.250000  0.881678  0.700405  1
  Rh  Rh33  1  0.250000  0.618322  0.200405  1
  Rh  Rh34  1  0.750000  0.116793  0.299007  1
  Rh  Rh35  1  0.750000  0.383207  0.799007  1
