# generated using pymatgen
data_ErTm2Fe9
_symmetry_space_group_name_H-M   'P 1'
_cell_length_a   5.06276565
_cell_length_b   5.06276601
_cell_length_c   8.53188301
_cell_angle_alpha   72.74068264
_cell_angle_beta   72.74068357
_cell_angle_gamma   60.00000201
_symmetry_Int_Tables_number   1
_chemical_formula_structural   ErTm2Fe9
_chemical_formula_sum   'Er1 Tm2 Fe9'
_cell_volume   177.92626079
_cell_formula_units_Z   1
loop_
 _symmetry_equiv_pos_site_id
 _symmetry_equiv_pos_as_xyz
  1  'x, y, z'
loop_
 _atom_site_type_symbol
 _atom_site_label
 _atom_site_symmetry_multiplicity
 _atom_site_fract_x
 _atom_site_fract_y
 _atom_site_fract_z
 _atom_site_occupancy
  Er  Er0  1  0.000000  0.000000  0.000000  1
  Tm  Tm1  1  0.141916  0.141916  0.574250  1
  Tm  Tm2  1  0.858084  0.858084  0.425750  1
  Fe  Fe3  1  0.082043  0.581807  0.754341  1
  Fe  Fe4  1  0.581807  0.581807  0.754341  1
  Fe  Fe5  1  0.581807  0.082043  0.754341  1
  Fe  Fe6  1  0.917957  0.418193  0.245659  1
  Fe  Fe7  1  0.418193  0.418193  0.245659  1
  Fe  Fe8  1  0.418193  0.917957  0.245659  1
  Fe  Fe9  1  0.332718  0.332718  0.001846  1
  Fe  Fe10  1  0.667282  0.667282  0.998154  1
  Fe  Fe11  1  0.500000  0.500000  0.500000  1
