# generated using pymatgen
data_La2TbY(Zn5Sn)2
_symmetry_space_group_name_H-M   'P 1'
_cell_length_a   8.53148193
_cell_length_b   8.53148277
_cell_length_c   9.10977700
_cell_angle_alpha   90.00000000
_cell_angle_beta   90.00000000
_cell_angle_gamma   149.63312545
_symmetry_Int_Tables_number   1
_chemical_formula_structural   La2TbY(Zn5Sn)2
_chemical_formula_sum   'La2 Tb1 Y1 Zn10 Sn2'
_cell_volume   335.20306718
_cell_formula_units_Z   1
loop_
 _symmetry_equiv_pos_site_id
 _symmetry_equiv_pos_as_xyz
  1  'x, y, z'
loop_
 _atom_site_type_symbol
 _atom_site_label
 _atom_site_symmetry_multiplicity
 _atom_site_fract_x
 _atom_site_fract_y
 _atom_site_fract_z
 _atom_site_occupancy
  La  La0  1  0.999981  0.000019  0.500012  1
  La  La1  1  0.999981  0.000019  0.999988  1
  Tb  Tb2  1  0.205808  0.794192  0.250000  1
  Y  Y3  1  0.794278  0.205722  0.750000  1
  Zn  Zn4  1  0.812312  0.187688  0.389436  1
  Zn  Zn5  1  0.187670  0.812330  0.610583  1
  Zn  Zn6  1  0.812312  0.187688  0.110564  1
  Zn  Zn7  1  0.187670  0.812330  0.889417  1
  Zn  Zn8  1  0.658950  0.341050  0.484101  1
  Zn  Zn9  1  0.341069  0.658931  0.515897  1
  Zn  Zn10  1  0.658950  0.341050  0.015899  1
  Zn  Zn11  1  0.341069  0.658931  0.984103  1
  Zn  Zn12  1  0.395177  0.604823  0.250000  1
  Zn  Zn13  1  0.604844  0.395156  0.750000  1
  Sn  Sn14  1  0.559561  0.440439  0.250000  1
  Sn  Sn15  1  0.440368  0.559632  0.750000  1
