# generated using pymatgen
data_HfZr3Nb4(GeP)2
_symmetry_space_group_name_H-M   'P 1'
_cell_length_a   3.61958800
_cell_length_b   7.00534706
_cell_length_c   8.50535950
_cell_angle_alpha   89.91218105
_cell_angle_beta   90.00000000
_cell_angle_gamma   90.00000000
_symmetry_Int_Tables_number   1
_chemical_formula_structural   HfZr3Nb4(GeP)2
_chemical_formula_sum   'Hf1 Zr3 Nb4 Ge2 P2'
_cell_volume   215.66564084
_cell_formula_units_Z   1
loop_
 _symmetry_equiv_pos_site_id
 _symmetry_equiv_pos_as_xyz
  1  'x, y, z'
loop_
 _atom_site_type_symbol
 _atom_site_label
 _atom_site_symmetry_multiplicity
 _atom_site_fract_x
 _atom_site_fract_y
 _atom_site_fract_z
 _atom_site_occupancy
  Hf  Hf0  1  0.250000  0.536561  0.829767  1
  Zr  Zr1  1  0.250000  0.036585  0.670802  1
  Zr  Zr2  1  0.750000  0.458137  0.160819  1
  Zr  Zr3  1  0.750000  0.957735  0.337426  1
  Nb  Nb4  1  0.750000  0.865961  0.932981  1
  Nb  Nb5  1  0.250000  0.637255  0.447689  1
  Nb  Nb6  1  0.750000  0.367820  0.567092  1
  Nb  Nb7  1  0.250000  0.137507  0.052230  1
  Ge  Ge8  1  0.250000  0.258367  0.358131  1
  Ge  Ge9  1  0.250000  0.758675  0.142004  1
  P  P10  1  0.750000  0.741075  0.642414  1
  P  P11  1  0.750000  0.244321  0.858645  1
