# generated using pymatgen
data_Tb5PrIr17Rh
_symmetry_space_group_name_H-M   'P 1'
_cell_length_a   5.32485400
_cell_length_b   5.32476339
_cell_length_c   17.53319600
_cell_angle_alpha   90.00000000
_cell_angle_beta   90.00000000
_cell_angle_gamma   119.99891038
_symmetry_Int_Tables_number   1
_chemical_formula_structural   Tb5PrIr17Rh
_chemical_formula_sum   'Tb5 Pr1 Ir17 Rh1'
_cell_volume   430.53107842
_cell_formula_units_Z   1
loop_
 _symmetry_equiv_pos_site_id
 _symmetry_equiv_pos_as_xyz
  1  'x, y, z'
loop_
 _atom_site_type_symbol
 _atom_site_label
 _atom_site_symmetry_multiplicity
 _atom_site_fract_x
 _atom_site_fract_y
 _atom_site_fract_z
 _atom_site_occupancy
  Tb  Tb0  1  0.333380  0.666667  0.959415  1
  Tb  Tb1  1  0.666718  0.333358  0.041099  1
  Tb  Tb2  1  0.666718  0.333358  0.458901  1
  Tb  Tb3  1  0.333380  0.666667  0.540585  1
  Tb  Tb4  1  0.666546  0.333257  0.250000  1
  Pr  Pr5  1  0.333067  0.666633  0.750000  1
  Ir  Ir6  1  0.167632  0.832431  0.373619  1
  Ir  Ir7  1  0.167629  0.335225  0.373627  1
  Ir  Ir8  1  0.664810  0.832424  0.373606  1
  Ir  Ir9  1  0.833043  0.166974  0.626057  1
  Ir  Ir10  1  0.833020  0.666006  0.626078  1
  Ir  Ir11  1  0.334008  0.166995  0.626065  1
  Ir  Ir12  1  0.833043  0.166974  0.873943  1
  Ir  Ir13  1  0.833020  0.666006  0.873922  1
  Ir  Ir14  1  0.334008  0.166995  0.873935  1
  Ir  Ir15  1  0.167632  0.832431  0.126381  1
  Ir  Ir16  1  0.167629  0.335225  0.126373  1
  Ir  Ir17  1  0.664810  0.832424  0.126394  1
  Ir  Ir18  1  0.666635  0.333242  0.750000  1
  Ir  Ir19  1  0.000045  0.000057  0.250000  1
  Ir  Ir20  1  0.999945  0.000064  0.750000  1
  Ir  Ir21  1  0.000033  0.999996  0.499463  1
  Ir  Ir22  1  0.000033  0.999996  0.000537  1
  Rh  Rh23  1  0.333215  0.666592  0.250000  1
