# generated using pymatgen
data_ThCI
_symmetry_space_group_name_H-M   'P 1'
_cell_length_a   4.34705569
_cell_length_b   4.34705608
_cell_length_c   11.28231693
_cell_angle_alpha   87.83801158
_cell_angle_beta   87.83801220
_cell_angle_gamma   53.63693097
_symmetry_Int_Tables_number   1
_chemical_formula_structural   ThCI
_chemical_formula_sum   'Th2 C2 I2'
_cell_volume   171.53202036
_cell_formula_units_Z   2
loop_
 _symmetry_equiv_pos_site_id
 _symmetry_equiv_pos_as_xyz
  1  'x, y, z'
loop_
 _atom_site_type_symbol
 _atom_site_label
 _atom_site_symmetry_multiplicity
 _atom_site_fract_x
 _atom_site_fract_y
 _atom_site_fract_z
 _atom_site_occupancy
  Th  Th0  1  0.852008  0.852008  0.118194  1
  Th  Th1  1  0.147992  0.147992  0.881806  1
  C  C2  1  0.580536  0.580536  0.027896  1
  C  C3  1  0.419464  0.419464  0.972104  1
  I  I4  1  0.827336  0.827336  0.680892  1
  I  I5  1  0.172664  0.172664  0.319108  1
