# generated using pymatgen
data_Ti3GaCN
_symmetry_space_group_name_H-M   'P 1'
_cell_length_a   3.06837500
_cell_length_b   3.06837465
_cell_length_c   18.08605300
_cell_angle_alpha   90.00000000
_cell_angle_beta   90.00000000
_cell_angle_gamma   120.00001461
_symmetry_Int_Tables_number   1
_chemical_formula_structural   Ti3GaCN
_chemical_formula_sum   'Ti6 Ga2 C2 N2'
_cell_volume   147.46575816
_cell_formula_units_Z   2
loop_
 _symmetry_equiv_pos_site_id
 _symmetry_equiv_pos_as_xyz
  1  'x, y, z'
loop_
 _atom_site_type_symbol
 _atom_site_label
 _atom_site_symmetry_multiplicity
 _atom_site_fract_x
 _atom_site_fract_y
 _atom_site_fract_z
 _atom_site_occupancy
  Ti  Ti0  1  0.666667  0.333333  0.371481  1
  Ti  Ti1  1  0.333333  0.666667  0.871481  1
  Ti  Ti2  1  0.333333  0.666667  0.629138  1
  Ti  Ti3  1  0.666667  0.333333  0.129138  1
  Ti  Ti4  1  0.000000  0.000000  0.499407  1
  Ti  Ti5  1  0.000000  0.000000  0.999407  1
  Ga  Ga6  1  0.000000  0.000000  0.750889  1
  Ga  Ga7  1  0.000000  0.000000  0.250889  1
  C  C8  1  0.333333  0.666667  0.069522  1
  C  C9  1  0.666667  0.333333  0.569522  1
  N  N10  1  0.333333  0.666667  0.429564  1
  N  N11  1  0.666667  0.333333  0.929564  1
