# generated using pymatgen
data_HoLu(Si7Ir3)2
_symmetry_space_group_name_H-M   'P 1'
_cell_length_a   8.03974123
_cell_length_b   8.03974033
_cell_length_c   8.03974148
_cell_angle_alpha   56.46274520
_cell_angle_beta   56.46275105
_cell_angle_gamma   56.46274510
_symmetry_Int_Tables_number   1
_chemical_formula_structural   HoLu(Si7Ir3)2
_chemical_formula_sum   'Ho1 Lu1 Si14 Ir6'
_cell_volume   337.41258397
_cell_formula_units_Z   1
loop_
 _symmetry_equiv_pos_site_id
 _symmetry_equiv_pos_as_xyz
  1  'x, y, z'
loop_
 _atom_site_type_symbol
 _atom_site_label
 _atom_site_symmetry_multiplicity
 _atom_site_fract_x
 _atom_site_fract_y
 _atom_site_fract_z
 _atom_site_occupancy
  Ho  Ho0  1  0.500000  0.500000  0.500000  1
  Lu  Lu1  1  0.000000  0.000000  0.000000  1
  Si  Si2  1  0.850394  0.063923  0.672847  1
  Si  Si3  1  0.672847  0.850394  0.063923  1
  Si  Si4  1  0.063923  0.672847  0.850394  1
  Si  Si5  1  0.649654  0.827637  0.435589  1
  Si  Si6  1  0.249961  0.249961  0.249961  1
  Si  Si7  1  0.750039  0.750039  0.750039  1
  Si  Si8  1  0.172363  0.564411  0.350346  1
  Si  Si9  1  0.564411  0.350346  0.172363  1
  Si  Si10  1  0.350346  0.172363  0.564411  1
  Si  Si11  1  0.936077  0.327153  0.149606  1
  Si  Si12  1  0.327153  0.149606  0.936077  1
  Si  Si13  1  0.149606  0.936077  0.327153  1
  Si  Si14  1  0.827637  0.435589  0.649654  1
  Si  Si15  1  0.435589  0.649654  0.827637  1
  Ir  Ir16  1  0.750825  0.070873  0.427821  1
  Ir  Ir17  1  0.427821  0.750825  0.070873  1
  Ir  Ir18  1  0.070873  0.427821  0.750825  1
  Ir  Ir19  1  0.249175  0.929127  0.572179  1
  Ir  Ir20  1  0.572179  0.249175  0.929127  1
  Ir  Ir21  1  0.929127  0.572179  0.249175  1
