# generated using pymatgen
data_YbIn3(Pt2O7)2
_symmetry_space_group_name_H-M   'P 1'
_cell_length_a   7.21637811
_cell_length_b   7.15968045
_cell_length_c   7.15968000
_cell_angle_alpha   60.00000208
_cell_angle_beta   60.25956442
_cell_angle_gamma   60.25957408
_symmetry_Int_Tables_number   1
_chemical_formula_structural   YbIn3(Pt2O7)2
_chemical_formula_sum   'Yb1 In3 Pt4 O14'
_cell_volume   262.59372924
_cell_formula_units_Z   1
loop_
 _symmetry_equiv_pos_site_id
 _symmetry_equiv_pos_as_xyz
  1  'x, y, z'
loop_
 _atom_site_type_symbol
 _atom_site_label
 _atom_site_symmetry_multiplicity
 _atom_site_fract_x
 _atom_site_fract_y
 _atom_site_fract_z
 _atom_site_occupancy
  Yb  Yb0  1  0.625000  0.125000  0.125000  1
  In  In1  1  0.125000  0.125000  0.125000  1
  In  In2  1  0.125000  0.625000  0.125000  1
  In  In3  1  0.125000  0.125000  0.625000  1
  Pt  Pt4  1  0.625000  0.625000  0.125000  1
  Pt  Pt5  1  0.625000  0.125000  0.625000  1
  Pt  Pt6  1  0.125000  0.625000  0.625000  1
  Pt  Pt7  1  0.625000  0.625000  0.625000  1
  O  O8  1  0.234332  0.255223  0.255223  1
  O  O9  1  0.719742  0.286758  0.286758  1
  O  O10  1  0.719742  0.286758  0.706742  1
  O  O11  1  0.284847  0.715038  0.285078  1
  O  O12  1  0.719742  0.706742  0.286758  1
  O  O13  1  0.284847  0.285078  0.715038  1
  O  O14  1  0.965153  0.534962  0.534962  1
  O  O15  1  0.284847  0.715038  0.715038  1
  O  O16  1  0.965153  0.964922  0.534962  1
  O  O17  1  0.530258  0.963242  0.543258  1
  O  O18  1  0.530258  0.543258  0.963242  1
  O  O19  1  0.965153  0.534962  0.964922  1
  O  O20  1  0.530258  0.963242  0.963242  1
  O  O21  1  0.015668  0.994777  0.994777  1
