# generated using pymatgen
data_Dy20Cd6RuPt
_symmetry_space_group_name_H-M   'P 1'
_cell_length_a   9.63877900
_cell_length_b   9.63877970
_cell_length_c   9.83925200
_cell_angle_alpha   90.00000000
_cell_angle_beta   90.00000000
_cell_angle_gamma   120.00000101
_symmetry_Int_Tables_number   1
_chemical_formula_structural   Dy20Cd6RuPt
_chemical_formula_sum   'Dy20 Cd6 Ru1 Pt1'
_cell_volume   791.65651157
_cell_formula_units_Z   1
loop_
 _symmetry_equiv_pos_site_id
 _symmetry_equiv_pos_as_xyz
  1  'x, y, z'
loop_
 _atom_site_type_symbol
 _atom_site_label
 _atom_site_symmetry_multiplicity
 _atom_site_fract_x
 _atom_site_fract_y
 _atom_site_fract_z
 _atom_site_occupancy
  Dy  Dy0  1  0.000000  0.000000  0.499515  1
  Dy  Dy1  1  0.000000  0.000000  0.000485  1
  Dy  Dy2  1  0.208337  0.791663  0.442216  1
  Dy  Dy3  1  0.208337  0.416674  0.442216  1
  Dy  Dy4  1  0.583326  0.791663  0.442216  1
  Dy  Dy5  1  0.790139  0.209861  0.560385  1
  Dy  Dy6  1  0.790139  0.580276  0.560385  1
  Dy  Dy7  1  0.419724  0.209861  0.560385  1
  Dy  Dy8  1  0.790139  0.209861  0.939615  1
  Dy  Dy9  1  0.790139  0.580276  0.939615  1
  Dy  Dy10  1  0.419724  0.209861  0.939615  1
  Dy  Dy11  1  0.208337  0.791663  0.057784  1
  Dy  Dy12  1  0.208337  0.416674  0.057784  1
  Dy  Dy13  1  0.583326  0.791663  0.057784  1
  Dy  Dy14  1  0.542545  0.457455  0.250000  1
  Dy  Dy15  1  0.542545  0.085089  0.250000  1
  Dy  Dy16  1  0.914911  0.457455  0.250000  1
  Dy  Dy17  1  0.458677  0.541323  0.750000  1
  Dy  Dy18  1  0.458677  0.917355  0.750000  1
  Dy  Dy19  1  0.082645  0.541323  0.750000  1
  Cd  Cd20  1  0.885212  0.114788  0.250000  1
  Cd  Cd21  1  0.885212  0.770425  0.250000  1
  Cd  Cd22  1  0.229575  0.114788  0.250000  1
  Cd  Cd23  1  0.114696  0.885304  0.750000  1
  Cd  Cd24  1  0.114696  0.229390  0.750000  1
  Cd  Cd25  1  0.770610  0.885304  0.750000  1
  Ru  Ru26  1  0.666667  0.333333  0.750000  1
  Pt  Pt27  1  0.333333  0.666667  0.250000  1
