# generated using pymatgen
data_CrGa12FeIr2
_symmetry_space_group_name_H-M   'P 1'
_cell_length_a   6.44200266
_cell_length_b   6.44283652
_cell_length_c   6.76887100
_cell_angle_alpha   90.00000000
_cell_angle_beta   90.00000000
_cell_angle_gamma   89.73495620
_symmetry_Int_Tables_number   1
_chemical_formula_structural   CrGa12FeIr2
_chemical_formula_sum   'Cr1 Ga12 Fe1 Ir2'
_cell_volume   280.93742842
_cell_formula_units_Z   1
loop_
 _symmetry_equiv_pos_site_id
 _symmetry_equiv_pos_as_xyz
  1  'x, y, z'
loop_
 _atom_site_type_symbol
 _atom_site_label
 _atom_site_symmetry_multiplicity
 _atom_site_fract_x
 _atom_site_fract_y
 _atom_site_fract_z
 _atom_site_occupancy
  Cr  Cr0  1  0.156444  0.847813  0.500000  1
  Ga  Ga1  1  0.009257  0.508564  0.500000  1
  Ga  Ga2  1  0.492394  0.009068  0.000000  1
  Ga  Ga3  1  0.495050  0.988222  0.500000  1
  Ga  Ga4  1  0.007132  0.485989  0.000000  1
  Ga  Ga5  1  0.335188  0.653311  0.239317  1
  Ga  Ga6  1  0.640853  0.344645  0.232851  1
  Ga  Ga7  1  0.169352  0.154004  0.737583  1
  Ga  Ga8  1  0.856563  0.839546  0.732389  1
  Ga  Ga9  1  0.640853  0.344645  0.767149  1
  Ga  Ga10  1  0.335188  0.653311  0.760683  1
  Ga  Ga11  1  0.856563  0.839546  0.267611  1
  Ga  Ga12  1  0.169352  0.154004  0.262417  1
  Fe  Fe13  1  0.342289  0.345534  0.000000  1
  Ir  Ir14  1  0.835034  0.168914  0.500000  1
  Ir  Ir15  1  0.658487  0.662886  0.000000  1
