# generated using pymatgen
data_Ac5Y(SnRh)6
_symmetry_space_group_name_H-M   'P 1'
_cell_length_a   7.75066300
_cell_length_b   7.72664345
_cell_length_c   8.46156800
_cell_angle_alpha   90.00000000
_cell_angle_beta   90.00000000
_cell_angle_gamma   119.89436290
_symmetry_Int_Tables_number   1
_chemical_formula_structural   Ac5Y(SnRh)6
_chemical_formula_sum   'Ac5 Y1 Sn6 Rh6'
_cell_volume   439.31144359
_cell_formula_units_Z   1
loop_
 _symmetry_equiv_pos_site_id
 _symmetry_equiv_pos_as_xyz
  1  'x, y, z'
loop_
 _atom_site_type_symbol
 _atom_site_label
 _atom_site_symmetry_multiplicity
 _atom_site_fract_x
 _atom_site_fract_y
 _atom_site_fract_z
 _atom_site_occupancy
  Ac  Ac0  1  0.999980  0.419193  0.750000  1
  Ac  Ac1  1  0.583550  0.586486  0.750000  1
  Ac  Ac2  1  0.416327  0.002795  0.750000  1
  Ac  Ac3  1  0.581793  0.582245  0.250000  1
  Ac  Ac4  1  0.418395  0.000803  0.250000  1
  Y  Y5  1  0.000253  0.406349  0.250000  1
  Sn  Sn6  1  0.236975  0.244531  0.497807  1
  Sn  Sn7  1  0.000020  0.749728  0.490599  1
  Sn  Sn8  1  0.000020  0.749728  0.009401  1
  Sn  Sn9  1  0.762994  0.007548  0.497746  1
  Sn  Sn10  1  0.762994  0.007548  0.002254  1
  Sn  Sn11  1  0.236975  0.244531  0.002193  1
  Rh  Rh12  1  0.330043  0.665034  0.493286  1
  Rh  Rh13  1  0.669852  0.334999  0.493244  1
  Rh  Rh14  1  0.330043  0.665034  0.006714  1
  Rh  Rh15  1  0.999937  0.994092  0.750000  1
  Rh  Rh16  1  0.000003  0.004360  0.250000  1
  Rh  Rh17  1  0.669852  0.334999  0.006756  1
