# generated using pymatgen
data_Dy16HoTm3Sn16
_symmetry_space_group_name_H-M   'P 1'
_cell_length_a   8.00942711
_cell_length_b   8.15326610
_cell_length_c   15.42523306
_cell_angle_alpha   90.00698332
_cell_angle_beta   89.99982042
_cell_angle_gamma   89.98846749
_symmetry_Int_Tables_number   1
_chemical_formula_structural   Dy16HoTm3Sn16
_chemical_formula_sum   'Dy16 Ho1 Tm3 Sn16'
_cell_volume   1007.31382112
_cell_formula_units_Z   1
loop_
 _symmetry_equiv_pos_site_id
 _symmetry_equiv_pos_as_xyz
  1  'x, y, z'
loop_
 _atom_site_type_symbol
 _atom_site_label
 _atom_site_symmetry_multiplicity
 _atom_site_fract_x
 _atom_site_fract_y
 _atom_site_fract_z
 _atom_site_occupancy
  Dy  Dy0  1  0.867528  0.663270  0.622397  1
  Dy  Dy1  1  0.632603  0.163445  0.377924  1
  Dy  Dy2  1  0.132375  0.336758  0.121510  1
  Dy  Dy3  1  0.632674  0.163591  0.122128  1
  Dy  Dy4  1  0.132072  0.336814  0.377972  1
  Dy  Dy5  1  0.367745  0.836725  0.622498  1
  Dy  Dy6  1  0.867871  0.663129  0.878052  1
  Dy  Dy7  1  0.520717  0.320443  0.902630  1
  Dy  Dy8  1  0.021076  0.179294  0.597754  1
  Dy  Dy9  1  0.479375  0.679279  0.402652  1
  Dy  Dy10  1  0.978724  0.820246  0.097440  1
  Dy  Dy11  1  0.479334  0.679428  0.096954  1
  Dy  Dy12  1  0.979026  0.820386  0.402563  1
  Dy  Dy13  1  0.520762  0.320583  0.597676  1
  Dy  Dy14  1  0.020935  0.179131  0.902287  1
  Dy  Dy15  1  0.301430  0.002418  0.249774  1
  Ho  Ho16  1  0.367386  0.837122  0.877067  1
  Tm  Tm17  1  0.199224  0.502858  0.750279  1
  Tm  Tm18  1  0.698864  0.997125  0.750163  1
  Tm  Tm19  1  0.801002  0.497141  0.250031  1
  Sn  Sn20  1  0.292772  0.035722  0.040818  1
  Sn  Sn21  1  0.792589  0.464261  0.458020  1
  Sn  Sn22  1  0.707542  0.964180  0.542277  1
  Sn  Sn23  1  0.208151  0.537320  0.957704  1
  Sn  Sn24  1  0.705575  0.963694  0.957702  1
  Sn  Sn25  1  0.207465  0.536009  0.542321  1
  Sn  Sn26  1  0.292632  0.036147  0.458414  1
  Sn  Sn27  1  0.792490  0.464140  0.042142  1
  Sn  Sn28  1  0.564831  0.618827  0.750431  1
  Sn  Sn29  1  0.064847  0.881325  0.750422  1
  Sn  Sn30  1  0.435357  0.381858  0.249919  1
  Sn  Sn31  1  0.934466  0.119240  0.249852  1
  Sn  Sn32  1  0.330045  0.148283  0.750250  1
  Sn  Sn33  1  0.829746  0.351699  0.750085  1
  Sn  Sn34  1  0.670774  0.851268  0.249940  1
  Sn  Sn35  1  0.169999  0.646840  0.249952  1
