# generated using pymatgen
data_Pa3Co6Sn
_symmetry_space_group_name_H-M   'P 1'
_cell_length_a   5.35580600
_cell_length_b   7.24441700
_cell_length_c   8.36006400
_cell_angle_alpha   90.00000000
_cell_angle_beta   90.00000000
_cell_angle_gamma   90.00000000
_symmetry_Int_Tables_number   1
_chemical_formula_structural   Pa3Co6Sn
_chemical_formula_sum   'Pa6 Co12 Sn2'
_cell_volume   324.36790859
_cell_formula_units_Z   2
loop_
 _symmetry_equiv_pos_site_id
 _symmetry_equiv_pos_as_xyz
  1  'x, y, z'
loop_
 _atom_site_type_symbol
 _atom_site_label
 _atom_site_symmetry_multiplicity
 _atom_site_fract_x
 _atom_site_fract_y
 _atom_site_fract_z
 _atom_site_occupancy
  Pa  Pa0  1  0.750000  0.894210  0.850953  1
  Pa  Pa1  1  0.750000  0.394210  0.649047  1
  Pa  Pa2  1  0.250000  0.101960  0.145961  1
  Pa  Pa3  1  0.250000  0.601960  0.354039  1
  Pa  Pa4  1  0.750000  0.943690  0.411730  1
  Pa  Pa5  1  0.750000  0.443690  0.088270  1
  Co  Co6  1  0.750000  0.583702  0.368950  1
  Co  Co7  1  0.750000  0.083702  0.131050  1
  Co  Co8  1  0.250000  0.418953  0.610765  1
  Co  Co9  1  0.250000  0.918953  0.889235  1
  Co  Co10  1  0.997600  0.262351  0.373908  1
  Co  Co11  1  0.502400  0.762351  0.126092  1
  Co  Co12  1  0.496480  0.734316  0.615197  1
  Co  Co13  1  0.003520  0.234316  0.884803  1
  Co  Co14  1  0.003520  0.734316  0.615197  1
  Co  Co15  1  0.496480  0.234316  0.884803  1
  Co  Co16  1  0.502400  0.262351  0.373908  1
  Co  Co17  1  0.997600  0.762351  0.126092  1
  Sn  Sn18  1  0.250000  0.064152  0.608482  1
  Sn  Sn19  1  0.250000  0.564152  0.891518  1
