# generated using pymatgen
data_LiCaEr3Al17Pd6
_symmetry_space_group_name_H-M   'P 1'
_cell_length_a   7.62191240
_cell_length_b   7.61421203
_cell_length_c   9.46797000
_cell_angle_alpha   90.00000000
_cell_angle_beta   90.00000000
_cell_angle_gamma   119.26527161
_symmetry_Int_Tables_number   1
_chemical_formula_structural   LiCaEr3Al17Pd6
_chemical_formula_sum   'Li1 Ca1 Er3 Al17 Pd6'
_cell_volume   479.34079679
_cell_formula_units_Z   1
loop_
 _symmetry_equiv_pos_site_id
 _symmetry_equiv_pos_as_xyz
  1  'x, y, z'
loop_
 _atom_site_type_symbol
 _atom_site_label
 _atom_site_symmetry_multiplicity
 _atom_site_fract_x
 _atom_site_fract_y
 _atom_site_fract_z
 _atom_site_occupancy
  Li  Li0  1  0.128141  0.129028  0.250000  1
  Ca  Ca1  1  0.995482  0.667411  0.250000  1
  Er  Er2  1  0.005915  0.329139  0.750000  1
  Er  Er3  1  0.665324  0.995729  0.250000  1
  Er  Er4  1  0.327556  0.005298  0.750000  1
  Al  Al5  1  0.866824  0.867398  0.750000  1
  Al  Al6  1  0.001344  0.328027  0.082274  1
  Al  Al7  1  0.000251  0.664646  0.923414  1
  Al  Al8  1  0.000251  0.664646  0.576586  1
  Al  Al9  1  0.330166  0.002041  0.418902  1
  Al  Al10  1  0.001344  0.328027  0.417726  1
  Al  Al11  1  0.664896  0.000804  0.576128  1
  Al  Al12  1  0.664896  0.000804  0.923872  1
  Al  Al13  1  0.330166  0.002041  0.081098  1
  Al  Al14  1  0.334506  0.334493  0.547305  1
  Al  Al15  1  0.671310  0.672279  0.440311  1
  Al  Al16  1  0.671310  0.672279  0.059689  1
  Al  Al17  1  0.334506  0.334493  0.952695  1
  Al  Al18  1  0.343042  0.542942  0.250000  1
  Al  Al19  1  0.658941  0.451536  0.750000  1
  Al  Al20  1  0.539988  0.336745  0.250000  1
  Al  Al21  1  0.452987  0.659116  0.750000  1
  Pd  Pd22  1  0.674990  0.329195  0.999457  1
  Pd  Pd23  1  0.329721  0.675189  0.999280  1
  Pd  Pd24  1  0.329721  0.675189  0.500720  1
  Pd  Pd25  1  0.674990  0.329195  0.500543  1
  Pd  Pd26  1  0.000716  0.001156  0.992382  1
  Pd  Pd27  1  0.000716  0.001156  0.507618  1
