# generated using pymatgen
data_Dy2P7(IrRu5)2
_symmetry_space_group_name_H-M   'P 1'
_cell_length_a   9.40077243
_cell_length_b   9.46490083
_cell_length_c   3.95844100
_cell_angle_alpha   90.00000000
_cell_angle_beta   90.00000000
_cell_angle_gamma   120.02500813
_symmetry_Int_Tables_number   1
_chemical_formula_structural   Dy2P7(IrRu5)2
_chemical_formula_sum   'Dy2 P7 Ir2 Ru10'
_cell_volume   304.94738882
_cell_formula_units_Z   1
loop_
 _symmetry_equiv_pos_site_id
 _symmetry_equiv_pos_as_xyz
  1  'x, y, z'
loop_
 _atom_site_type_symbol
 _atom_site_label
 _atom_site_symmetry_multiplicity
 _atom_site_fract_x
 _atom_site_fract_y
 _atom_site_fract_z
 _atom_site_occupancy
  Dy  Dy0  1  0.668337  0.333662  0.500000  1
  Dy  Dy1  1  0.330643  0.665392  0.000000  1
  P  P2  1  0.600670  0.716424  0.500000  1
  P  P3  1  0.000342  0.000496  0.000000  1
  P  P4  1  0.278319  0.880028  0.500000  1
  P  P5  1  0.113109  0.401729  0.500000  1
  P  P6  1  0.885565  0.576341  0.000000  1
  P  P7  1  0.425139  0.304184  0.000000  1
  P  P8  1  0.697148  0.118855  0.000000  1
  Ir  Ir9  1  0.551646  0.942498  0.500000  1
  Ir  Ir10  1  0.389480  0.445640  0.500000  1
  Ru  Ru11  1  0.913598  0.125628  0.500000  1
  Ru  Ru12  1  0.213912  0.087638  0.500000  1
  Ru  Ru13  1  0.875125  0.791849  0.500000  1
  Ru  Ru14  1  0.726610  0.891957  0.000000  1
  Ru  Ru15  1  0.109518  0.838177  0.000000  1
  Ru  Ru16  1  0.165993  0.271513  0.000000  1
  Ru  Ru17  1  0.430948  0.066533  0.000000  1
  Ru  Ru18  1  0.936033  0.361574  0.000000  1
  Ru  Ru19  1  0.638347  0.571021  0.000000  1
  Ru  Ru20  1  0.049516  0.608860  0.500000  1
