# generated using pymatgen
data_Tm12InGaFe4
_symmetry_space_group_name_H-M   'P 1'
_cell_length_a   8.24598720
_cell_length_b   8.24598508
_cell_length_c   8.24598640
_cell_angle_alpha   111.33942766
_cell_angle_beta   110.83651669
_cell_angle_gamma   106.28437956
_symmetry_Int_Tables_number   1
_chemical_formula_structural   Tm12InGaFe4
_chemical_formula_sum   'Tm12 In1 Ga1 Fe4'
_cell_volume   430.62115883
_cell_formula_units_Z   1
loop_
 _symmetry_equiv_pos_site_id
 _symmetry_equiv_pos_as_xyz
  1  'x, y, z'
loop_
 _atom_site_type_symbol
 _atom_site_label
 _atom_site_symmetry_multiplicity
 _atom_site_fract_x
 _atom_site_fract_y
 _atom_site_fract_z
 _atom_site_occupancy
  Tm  Tm0  1  0.564320  0.271272  0.293048  1
  Tm  Tm1  1  0.186436  0.215044  0.401480  1
  Tm  Tm2  1  0.186436  0.784956  0.971394  1
  Tm  Tm3  1  0.686670  0.486866  0.800196  1
  Tm  Tm4  1  0.686670  0.886475  0.199804  1
  Tm  Tm5  1  0.978224  0.271272  0.706952  1
  Tm  Tm6  1  0.021776  0.728728  0.293048  1
  Tm  Tm7  1  0.313330  0.113525  0.800196  1
  Tm  Tm8  1  0.313330  0.513134  0.199804  1
  Tm  Tm9  1  0.813564  0.215044  0.028606  1
  Tm  Tm10  1  0.813564  0.784956  0.598520  1
  Tm  Tm11  1  0.435680  0.728728  0.706952  1
  In  In12  1  0.500000  0.000000  0.500000  1
  Ga  Ga13  1  0.000000  0.500000  0.500000  1
  Fe  Fe14  1  0.890689  0.890689  0.000000  1
  Fe  Fe15  1  0.381897  0.500000  0.881897  1
  Fe  Fe16  1  0.618103  0.500000  0.118103  1
  Fe  Fe17  1  0.109311  0.109311  0.000000  1
