# generated using pymatgen
data_K(CrSe)3
_symmetry_space_group_name_H-M   'P 1'
_cell_length_a   9.11636400
_cell_length_b   9.11636503
_cell_length_c   4.17156400
_cell_angle_alpha   90.00000000
_cell_angle_beta   90.00000000
_cell_angle_gamma   119.99999627
_symmetry_Int_Tables_number   1
_chemical_formula_structural   K(CrSe)3
_chemical_formula_sum   'K2 Cr6 Se6'
_cell_volume   300.24302204
_cell_formula_units_Z   2
loop_
 _symmetry_equiv_pos_site_id
 _symmetry_equiv_pos_as_xyz
  1  'x, y, z'
loop_
 _atom_site_type_symbol
 _atom_site_label
 _atom_site_symmetry_multiplicity
 _atom_site_fract_x
 _atom_site_fract_y
 _atom_site_fract_z
 _atom_site_occupancy
  K  K0  1  0.333333  0.666667  0.250000  1
  K  K1  1  0.666667  0.333333  0.750000  1
  Cr  Cr2  1  0.139169  0.165111  0.250000  1
  Cr  Cr3  1  0.860831  0.834889  0.750000  1
  Cr  Cr4  1  0.834889  0.974058  0.250000  1
  Cr  Cr5  1  0.025942  0.860831  0.250000  1
  Cr  Cr6  1  0.974058  0.139169  0.750000  1
  Cr  Cr7  1  0.165111  0.025942  0.750000  1
  Se  Se8  1  0.947557  0.286404  0.250000  1
  Se  Se9  1  0.052443  0.713596  0.750000  1
  Se  Se10  1  0.713596  0.661153  0.250000  1
  Se  Se11  1  0.338847  0.052443  0.250000  1
  Se  Se12  1  0.661153  0.947557  0.750000  1
  Se  Se13  1  0.286404  0.338847  0.750000  1
