# generated using pymatgen
data_Gd3Dy(InAu2)2
_symmetry_space_group_name_H-M   'P 1'
_cell_length_a   7.85348600
_cell_length_b   7.85348642
_cell_length_c   3.83226300
_cell_angle_alpha   90.00000000
_cell_angle_beta   90.00000000
_cell_angle_gamma   89.87931634
_symmetry_Int_Tables_number   1
_chemical_formula_structural   Gd3Dy(InAu2)2
_chemical_formula_sum   'Gd3 Dy1 In2 Au4'
_cell_volume   236.36290217
_cell_formula_units_Z   1
loop_
 _symmetry_equiv_pos_site_id
 _symmetry_equiv_pos_as_xyz
  1  'x, y, z'
loop_
 _atom_site_type_symbol
 _atom_site_label
 _atom_site_symmetry_multiplicity
 _atom_site_fract_x
 _atom_site_fract_y
 _atom_site_fract_z
 _atom_site_occupancy
  Gd  Gd0  1  0.327495  0.829304  0.500000  1
  Gd  Gd1  1  0.828949  0.671051  0.500000  1
  Gd  Gd2  1  0.670696  0.172505  0.500000  1
  Dy  Dy3  1  0.171823  0.328177  0.500000  1
  In  In4  1  0.499706  0.499516  0.000000  1
  In  In5  1  0.000484  0.000294  0.000000  1
  Au  Au6  1  0.130380  0.626639  0.000000  1
  Au  Au7  1  0.628491  0.871509  0.000000  1
  Au  Au8  1  0.368615  0.131385  0.000000  1
  Au  Au9  1  0.873361  0.369620  0.000000  1
