# generated using pymatgen
data_HoEr9(IrRh2)2
_symmetry_space_group_name_H-M   'P 1'
_cell_length_a   10.80343503
_cell_length_b   10.80258400
_cell_length_c   6.32576702
_cell_angle_alpha   90.00000000
_cell_angle_beta   90.00892558
_cell_angle_gamma   90.00000000
_symmetry_Int_Tables_number   1
_chemical_formula_structural   HoEr9(IrRh2)2
_chemical_formula_sum   'Ho2 Er18 Ir4 Rh8'
_cell_volume   738.24872230
_cell_formula_units_Z   2
loop_
 _symmetry_equiv_pos_site_id
 _symmetry_equiv_pos_as_xyz
  1  'x, y, z'
loop_
 _atom_site_type_symbol
 _atom_site_label
 _atom_site_symmetry_multiplicity
 _atom_site_fract_x
 _atom_site_fract_y
 _atom_site_fract_z
 _atom_site_occupancy
  Ho  Ho0  1  0.291129  0.089682  0.377847  1
  Ho  Ho1  1  0.291129  0.910318  0.877847  1
  Er  Er2  1  0.708666  0.089580  0.877900  1
  Er  Er3  1  0.708666  0.910420  0.377900  1
  Er  Er4  1  0.587362  0.789931  0.878568  1
  Er  Er5  1  0.587362  0.210069  0.378568  1
  Er  Er6  1  0.412837  0.789799  0.378653  1
  Er  Er7  1  0.412837  0.210201  0.878653  1
  Er  Er8  1  0.210040  0.412723  0.621383  1
  Er  Er9  1  0.210040  0.587277  0.121383  1
  Er  Er10  1  0.789963  0.412728  0.121327  1
  Er  Er11  1  0.789963  0.587272  0.621327  1
  Er  Er12  1  0.910486  0.708701  0.122111  1
  Er  Er13  1  0.910486  0.291299  0.622111  1
  Er  Er14  1  0.089460  0.708603  0.622012  1
  Er  Er15  1  0.089460  0.291397  0.122012  1
  Er  Er16  1  0.999924  0.999961  0.499993  1
  Er  Er17  1  0.999924  0.000039  0.999993  1
  Er  Er18  1  0.499948  0.499984  0.000055  1
  Er  Er19  1  0.499948  0.500016  0.500055  1
  Ir  Ir20  1  0.654590  0.345383  0.749996  1
  Ir  Ir21  1  0.654590  0.654617  0.249996  1
  Ir  Ir22  1  0.345432  0.345615  0.249880  1
  Ir  Ir23  1  0.345432  0.654385  0.749880  1
  Rh  Rh24  1  0.846529  0.153473  0.249998  1
  Rh  Rh25  1  0.846529  0.846527  0.749998  1
  Rh  Rh26  1  0.153313  0.153722  0.750243  1
  Rh  Rh27  1  0.153313  0.846278  0.250243  1
  Rh  Rh28  1  0.500336  0.999990  0.122643  1
  Rh  Rh29  1  0.500336  0.000010  0.622643  1
  Rh  Rh30  1  0.999985  0.499983  0.877391  1
  Rh  Rh31  1  0.999985  0.500017  0.377391  1
