# generated using pymatgen
data_Dy3Sc3MnSb2
_symmetry_space_group_name_H-M   'P 1'
_cell_length_a   7.82334400
_cell_length_b   7.82334431
_cell_length_c   4.22071800
_cell_angle_alpha   90.00000000
_cell_angle_beta   90.00000000
_cell_angle_gamma   119.99999871
_symmetry_Int_Tables_number   1
_chemical_formula_structural   Dy3Sc3MnSb2
_chemical_formula_sum   'Dy3 Sc3 Mn1 Sb2'
_cell_volume   223.71847223
_cell_formula_units_Z   1
loop_
 _symmetry_equiv_pos_site_id
 _symmetry_equiv_pos_as_xyz
  1  'x, y, z'
loop_
 _atom_site_type_symbol
 _atom_site_label
 _atom_site_symmetry_multiplicity
 _atom_site_fract_x
 _atom_site_fract_y
 _atom_site_fract_z
 _atom_site_occupancy
  Dy  Dy0  1  0.605226  0.000000  0.000000  1
  Dy  Dy1  1  0.000000  0.605226  0.000000  1
  Dy  Dy2  1  0.394774  0.394774  0.000000  1
  Sc  Sc3  1  0.227565  0.000000  0.500000  1
  Sc  Sc4  1  0.000000  0.227565  0.500000  1
  Sc  Sc5  1  0.772435  0.772435  0.500000  1
  Mn  Mn6  1  0.000000  0.000000  0.000000  1
  Sb  Sb7  1  0.333333  0.666667  0.500000  1
  Sb  Sb8  1  0.666667  0.333333  0.500000  1
