# generated using pymatgen
data_Pr16Y4Sn11Sb5
_symmetry_space_group_name_H-M   'P 1'
_cell_length_a   8.38691852
_cell_length_b   8.44764603
_cell_length_c   16.20133500
_cell_angle_alpha   90.09341479
_cell_angle_beta   90.34212681
_cell_angle_gamma   89.91673161
_symmetry_Int_Tables_number   1
_chemical_formula_structural   Pr16Y4Sn11Sb5
_chemical_formula_sum   'Pr16 Y4 Sn11 Sb5'
_cell_volume   1147.83684580
_cell_formula_units_Z   1
loop_
 _symmetry_equiv_pos_site_id
 _symmetry_equiv_pos_as_xyz
  1  'x, y, z'
loop_
 _atom_site_type_symbol
 _atom_site_label
 _atom_site_symmetry_multiplicity
 _atom_site_fract_x
 _atom_site_fract_y
 _atom_site_fract_z
 _atom_site_occupancy
  Pr  Pr0  1  0.393307  0.838411  0.883560  1
  Pr  Pr1  1  0.889885  0.661434  0.617081  1
  Pr  Pr2  1  0.609628  0.160546  0.382670  1
  Pr  Pr3  1  0.106824  0.337259  0.116742  1
  Pr  Pr4  1  0.608023  0.161882  0.116947  1
  Pr  Pr5  1  0.110811  0.337777  0.383253  1
  Pr  Pr6  1  0.387924  0.839666  0.617666  1
  Pr  Pr7  1  0.891093  0.660899  0.883076  1
  Pr  Pr8  1  0.556682  0.331505  0.892379  1
  Pr  Pr9  1  0.052590  0.172991  0.606384  1
  Pr  Pr10  1  0.448129  0.672710  0.394024  1
  Pr  Pr11  1  0.945440  0.826493  0.107791  1
  Pr  Pr12  1  0.447230  0.669170  0.107367  1
  Pr  Pr13  1  0.955056  0.825306  0.395536  1
  Pr  Pr14  1  0.545014  0.326599  0.604260  1
  Pr  Pr15  1  0.051255  0.174416  0.893635  1
  Y  Y16  1  0.221858  0.500147  0.747500  1
  Y  Y17  1  0.722509  0.002168  0.749049  1
  Y  Y18  1  0.778005  0.499560  0.249432  1
  Y  Y19  1  0.277893  0.998235  0.252270  1
  Sn  Sn20  1  0.227767  0.523652  0.547720  1
  Sn  Sn21  1  0.272341  0.022312  0.452289  1
  Sn  Sn22  1  0.768197  0.481543  0.048801  1
  Sn  Sn23  1  0.587898  0.627127  0.749124  1
  Sn  Sn24  1  0.087777  0.874364  0.751231  1
  Sn  Sn25  1  0.410701  0.373070  0.250198  1
  Sn  Sn26  1  0.911956  0.124803  0.250736  1
  Sn  Sn27  1  0.355205  0.142877  0.750823  1
  Sn  Sn28  1  0.854158  0.358700  0.748595  1
  Sn  Sn29  1  0.646431  0.857211  0.251171  1
  Sn  Sn30  1  0.146150  0.639541  0.250179  1
  Sb  Sb31  1  0.266149  0.013501  0.050983  1
  Sb  Sb32  1  0.768472  0.481181  0.450240  1
  Sb  Sb33  1  0.731268  0.981807  0.549736  1
  Sb  Sb34  1  0.233162  0.516150  0.948885  1
  Sb  Sb35  1  0.733208  0.984989  0.948670  1
