# generated using pymatgen
data_Dy4HoTa3(P3Ir4)4
_symmetry_space_group_name_H-M   'P 1'
_cell_length_a   12.75714700
_cell_length_b   12.75714729
_cell_length_c   3.99074400
_cell_angle_alpha   90.00000000
_cell_angle_beta   90.00000000
_cell_angle_gamma   119.99999667
_symmetry_Int_Tables_number   1
_chemical_formula_structural   Dy4HoTa3(P3Ir4)4
_chemical_formula_sum   'Dy4 Ho1 Ta3 P12 Ir16'
_cell_volume   562.46000344
_cell_formula_units_Z   1
loop_
 _symmetry_equiv_pos_site_id
 _symmetry_equiv_pos_as_xyz
  1  'x, y, z'
loop_
 _atom_site_type_symbol
 _atom_site_label
 _atom_site_symmetry_multiplicity
 _atom_site_fract_x
 _atom_site_fract_y
 _atom_site_fract_z
 _atom_site_occupancy
  Dy  Dy0  1  0.666667  0.333333  0.500000  1
  Dy  Dy1  1  0.999999  0.813699  0.000000  1
  Dy  Dy2  1  0.186301  0.186300  0.000000  1
  Dy  Dy3  1  0.813700  0.000001  0.000000  1
  Ho  Ho4  1  0.333333  0.666667  0.500000  1
  Ta  Ta5  1  0.000005  0.452974  0.500000  1
  Ta  Ta6  1  0.547026  0.547031  0.500000  1
  Ta  Ta7  1  0.452969  0.999995  0.500000  1
  P  P8  1  0.999994  0.643322  0.500000  1
  P  P9  1  0.356678  0.356672  0.500000  1
  P  P10  1  0.643328  0.000006  0.500000  1
  P  P11  1  0.517215  0.684989  0.000000  1
  P  P12  1  0.315011  0.832227  0.000000  1
  P  P13  1  0.167773  0.482785  0.000000  1
  P  P14  1  0.482728  0.167720  0.000000  1
  P  P15  1  0.684992  0.517272  0.000000  1
  P  P16  1  0.832280  0.315008  0.000000  1
  P  P17  1  0.000002  0.176352  0.500000  1
  P  P18  1  0.823648  0.823650  0.500000  1
  P  P19  1  0.176350  0.999998  0.500000  1
  Ir  Ir20  1  0.506694  0.863810  0.000000  1
  Ir  Ir21  1  0.136190  0.642886  0.000000  1
  Ir  Ir22  1  0.357114  0.493306  0.000000  1
  Ir  Ir23  1  0.493213  0.357130  0.000000  1
  Ir  Ir24  1  0.863919  0.506787  0.000000  1
  Ir  Ir25  1  0.642870  0.136081  0.000000  1
  Ir  Ir26  1  0.000006  0.283725  0.000000  1
  Ir  Ir27  1  0.716275  0.716281  0.000000  1
  Ir  Ir28  1  0.283719  0.999994  0.000000  1
  Ir  Ir29  1  0.626856  0.804555  0.500000  1
  Ir  Ir30  1  0.195445  0.822301  0.500000  1
  Ir  Ir31  1  0.177699  0.373144  0.500000  1
  Ir  Ir32  1  0.373116  0.177681  0.500000  1
  Ir  Ir33  1  0.804566  0.626884  0.500000  1
  Ir  Ir34  1  0.822319  0.195434  0.500000  1
  Ir  Ir35  1  0.000000  0.000000  0.500000  1
