# generated using pymatgen
data_Er4CoNi2Ru5
_symmetry_space_group_name_H-M   'P 1'
_cell_length_a   5.16457162
_cell_length_b   5.08914748
_cell_length_c   8.69329200
_cell_angle_alpha   90.00000000
_cell_angle_beta   90.00000000
_cell_angle_gamma   118.97298380
_symmetry_Int_Tables_number   1
_chemical_formula_structural   Er4CoNi2Ru5
_chemical_formula_sum   'Er4 Co1 Ni2 Ru5'
_cell_volume   199.89241485
_cell_formula_units_Z   1
loop_
 _symmetry_equiv_pos_site_id
 _symmetry_equiv_pos_as_xyz
  1  'x, y, z'
loop_
 _atom_site_type_symbol
 _atom_site_label
 _atom_site_symmetry_multiplicity
 _atom_site_fract_x
 _atom_site_fract_y
 _atom_site_fract_z
 _atom_site_occupancy
  Er  Er0  1  0.328294  0.664175  0.436184  1
  Er  Er1  1  0.663513  0.330638  0.567482  1
  Er  Er2  1  0.663513  0.330638  0.932518  1
  Er  Er3  1  0.328294  0.664175  0.063816  1
  Co  Co4  1  0.178490  0.836654  0.750000  1
  Ni  Ni5  1  0.173334  0.342692  0.750000  1
  Ni  Ni6  1  0.338153  0.169129  0.250000  1
  Ru  Ru7  1  0.834192  0.663166  0.250000  1
  Ru  Ru8  1  0.666559  0.835857  0.750000  1
  Ru  Ru9  1  0.996412  0.994801  0.996488  1
  Ru  Ru10  1  0.832831  0.173277  0.250000  1
  Ru  Ru11  1  0.996412  0.994801  0.503512  1
