# generated using pymatgen
data_Tb8In2RuRh
_symmetry_space_group_name_H-M   'P 1'
_cell_length_a   9.70624140
_cell_length_b   9.72967306
_cell_length_c   9.70624098
_cell_angle_alpha   59.92011417
_cell_angle_beta   59.84224523
_cell_angle_gamma   59.92011234
_symmetry_Int_Tables_number   1
_chemical_formula_structural   Tb8In2RuRh
_chemical_formula_sum   'Tb16 In4 Ru2 Rh2'
_cell_volume   646.60750333
_cell_formula_units_Z   2
loop_
 _symmetry_equiv_pos_site_id
 _symmetry_equiv_pos_as_xyz
  1  'x, y, z'
loop_
 _atom_site_type_symbol
 _atom_site_label
 _atom_site_symmetry_multiplicity
 _atom_site_fract_x
 _atom_site_fract_y
 _atom_site_fract_z
 _atom_site_occupancy
  Tb  Tb0  1  0.810413  0.807423  0.189640  1
  Tb  Tb1  1  0.809401  0.190599  0.809401  1
  Tb  Tb2  1  0.189640  0.192524  0.810413  1
  Tb  Tb3  1  0.651801  0.045185  0.651801  1
  Tb  Tb4  1  0.061149  0.059978  0.441544  1
  Tb  Tb5  1  0.441544  0.437329  0.061149  1
  Tb  Tb6  1  0.651801  0.651214  0.651801  1
  Tb  Tb7  1  0.810413  0.192524  0.189640  1
  Tb  Tb8  1  0.189640  0.807423  0.810413  1
  Tb  Tb9  1  0.044383  0.651846  0.651925  1
  Tb  Tb10  1  0.441544  0.059978  0.061149  1
  Tb  Tb11  1  0.437133  0.062867  0.437133  1
  Tb  Tb12  1  0.057887  0.442113  0.057887  1
  Tb  Tb13  1  0.651925  0.651846  0.044383  1
  Tb  Tb14  1  0.192334  0.807666  0.192334  1
  Tb  Tb15  1  0.061149  0.437329  0.441544  1
  In  In16  1  0.418206  0.417605  0.418206  1
  In  In17  1  0.417821  0.417459  0.747259  1
  In  In18  1  0.418206  0.745982  0.418206  1
  In  In19  1  0.747259  0.417459  0.417821  1
  Ru  Ru20  1  0.858290  0.421145  0.858290  1
  Ru  Ru21  1  0.858290  0.862276  0.858290  1
  Rh  Rh22  1  0.857923  0.860114  0.421849  1
  Rh  Rh23  1  0.421849  0.860114  0.857923  1
