# generated using pymatgen
data_LiLa8(IrPt)3
_symmetry_space_group_name_H-M   'P 1'
_cell_length_a   7.82325339
_cell_length_b   7.82325283
_cell_length_c   7.82325332
_cell_angle_alpha   69.39449476
_cell_angle_beta   69.39449746
_cell_angle_gamma   69.39448378
_symmetry_Int_Tables_number   1
_chemical_formula_structural   LiLa8(IrPt)3
_chemical_formula_sum   'Li1 La8 Ir3 Pt3'
_cell_volume   405.04227151
_cell_formula_units_Z   1
loop_
 _symmetry_equiv_pos_site_id
 _symmetry_equiv_pos_as_xyz
  1  'x, y, z'
loop_
 _atom_site_type_symbol
 _atom_site_label
 _atom_site_symmetry_multiplicity
 _atom_site_fract_x
 _atom_site_fract_y
 _atom_site_fract_z
 _atom_site_occupancy
  Li  Li0  1  0.000596  0.000596  0.000596  1
  La  La1  1  0.810113  0.810113  0.810113  1
  La  La2  1  0.181220  0.181220  0.181220  1
  La  La3  1  0.139235  0.381836  0.687616  1
  La  La4  1  0.687616  0.139235  0.381836  1
  La  La5  1  0.381836  0.687616  0.139235  1
  La  La6  1  0.865661  0.617961  0.315368  1
  La  La7  1  0.315368  0.865661  0.617961  1
  La  La8  1  0.617961  0.315368  0.865661  1
  Ir  Ir9  1  0.053097  0.812421  0.426839  1
  Ir  Ir10  1  0.426839  0.053097  0.812421  1
  Ir  Ir11  1  0.812421  0.426839  0.053097  1
  Pt  Pt12  1  0.949422  0.185341  0.573274  1
  Pt  Pt13  1  0.573274  0.949422  0.185341  1
  Pt  Pt14  1  0.185341  0.573274  0.949422  1
