# generated using pymatgen
data_UPt5Rh3
_symmetry_space_group_name_H-M   'P 1'
_cell_length_a   6.39391254
_cell_length_b   6.39391252
_cell_length_c   6.29472643
_cell_angle_alpha   95.66698726
_cell_angle_beta   95.66698892
_cell_angle_gamma   143.66540396
_symmetry_Int_Tables_number   1
_chemical_formula_structural   UPt5Rh3
_chemical_formula_sum   'U1 Pt5 Rh3'
_cell_volume   144.62610288
_cell_formula_units_Z   1
loop_
 _symmetry_equiv_pos_site_id
 _symmetry_equiv_pos_as_xyz
  1  'x, y, z'
loop_
 _atom_site_type_symbol
 _atom_site_label
 _atom_site_symmetry_multiplicity
 _atom_site_fract_x
 _atom_site_fract_y
 _atom_site_fract_z
 _atom_site_occupancy
  U  U0  1  0.004222  0.995778  0.000000  1
  Pt  Pt1  1  0.332927  0.667073  0.000000  1
  Pt  Pt2  1  0.001592  0.330602  0.332194  1
  Pt  Pt3  1  0.998067  0.668076  0.666143  1
  Pt  Pt4  1  0.669398  0.998408  0.667806  1
  Pt  Pt5  1  0.331924  0.001933  0.333857  1
  Rh  Rh6  1  0.337812  0.337692  0.675504  1
  Rh  Rh7  1  0.662308  0.662188  0.324496  1
  Rh  Rh8  1  0.661751  0.338249  0.000000  1
