# generated using pymatgen
data_TbMnFeSi2
_symmetry_space_group_name_H-M   'P 1'
_cell_length_a   5.77893029
_cell_length_b   5.77893063
_cell_length_c   5.77893053
_cell_angle_alpha   140.58979355
_cell_angle_beta   140.58979496
_cell_angle_gamma   56.95887203
_symmetry_Int_Tables_number   1
_chemical_formula_structural   TbMnFeSi2
_chemical_formula_sum   'Tb1 Mn1 Fe1 Si2'
_cell_volume   77.14482775
_cell_formula_units_Z   1
loop_
 _symmetry_equiv_pos_site_id
 _symmetry_equiv_pos_as_xyz
  1  'x, y, z'
loop_
 _atom_site_type_symbol
 _atom_site_label
 _atom_site_symmetry_multiplicity
 _atom_site_fract_x
 _atom_site_fract_y
 _atom_site_fract_z
 _atom_site_occupancy
  Tb  Tb0  1  0.000000  0.000000  0.000000  1
  Mn  Mn1  1  0.750000  0.250000  0.500000  1
  Fe  Fe2  1  0.250000  0.750000  0.500000  1
  Si  Si3  1  0.623083  0.623083  0.000000  1
  Si  Si4  1  0.376917  0.376917  0.000000  1
