# generated using pymatgen
data_ThAl3CdCo
_symmetry_space_group_name_H-M   'P 1'
_cell_length_a   8.29558749
_cell_length_b   8.29558659
_cell_length_c   6.79483400
_cell_angle_alpha   90.00000000
_cell_angle_beta   90.00000000
_cell_angle_gamma   150.92962673
_symmetry_Int_Tables_number   1
_chemical_formula_structural   ThAl3CdCo
_chemical_formula_sum   'Th2 Al6 Cd2 Co2'
_cell_volume   227.19839192
_cell_formula_units_Z   2
loop_
 _symmetry_equiv_pos_site_id
 _symmetry_equiv_pos_as_xyz
  1  'x, y, z'
loop_
 _atom_site_type_symbol
 _atom_site_label
 _atom_site_symmetry_multiplicity
 _atom_site_fract_x
 _atom_site_fract_y
 _atom_site_fract_z
 _atom_site_occupancy
  Th  Th0  1  0.373989  0.626011  0.750000  1
  Th  Th1  1  0.626011  0.373989  0.250000  1
  Al  Al2  1  0.806092  0.193908  0.058396  1
  Al  Al3  1  0.193908  0.806092  0.941604  1
  Al  Al4  1  0.193908  0.806092  0.558396  1
  Al  Al5  1  0.806092  0.193908  0.441604  1
  Al  Al6  1  0.417052  0.582948  0.250000  1
  Al  Al7  1  0.582948  0.417052  0.750000  1
  Cd  Cd8  1  0.000000  0.000000  0.000000  1
  Cd  Cd9  1  0.000000  0.000000  0.500000  1
  Co  Co10  1  0.728400  0.271600  0.750000  1
  Co  Co11  1  0.271600  0.728400  0.250000  1
