# generated using pymatgen
data_Tb3Er17(HgBi5)2
_symmetry_space_group_name_H-M   'P 1'
_cell_length_a   8.16767500
_cell_length_b   9.43313000
_cell_length_c   11.97603000
_cell_angle_alpha   90.00000000
_cell_angle_beta   90.00084881
_cell_angle_gamma   90.00000000
_symmetry_Int_Tables_number   1
_chemical_formula_structural   Tb3Er17(HgBi5)2
_chemical_formula_sum   'Tb3 Er17 Hg2 Bi10'
_cell_volume   922.71407051
_cell_formula_units_Z   1
loop_
 _symmetry_equiv_pos_site_id
 _symmetry_equiv_pos_as_xyz
  1  'x, y, z'
loop_
 _atom_site_type_symbol
 _atom_site_label
 _atom_site_symmetry_multiplicity
 _atom_site_fract_x
 _atom_site_fract_y
 _atom_site_fract_z
 _atom_site_occupancy
  Tb  Tb0  1  0.817462  0.250001  0.283719  1
  Tb  Tb1  1  0.687864  0.750000  0.781607  1
  Tb  Tb2  1  0.187723  0.749999  0.718362  1
  Er  Er3  1  0.348851  0.749992  0.216084  1
  Er  Er4  1  0.848662  0.749994  0.283583  1
  Er  Er5  1  0.646676  0.249997  0.790404  1
  Er  Er6  1  0.146354  0.249991  0.709889  1
  Er  Er7  1  0.693678  0.554373  0.059268  1
  Er  Er8  1  0.193242  0.945970  0.440440  1
  Er  Er9  1  0.312640  0.068592  0.942499  1
  Er  Er10  1  0.812422  0.431443  0.557977  1
  Er  Er11  1  0.312626  0.431414  0.942502  1
  Er  Er12  1  0.812435  0.068552  0.557983  1
  Er  Er13  1  0.693684  0.945630  0.059257  1
  Er  Er14  1  0.193234  0.554028  0.440430  1
  Er  Er15  1  0.467868  0.250005  0.490745  1
  Er  Er16  1  0.968119  0.250002  0.009359  1
  Er  Er17  1  0.521506  0.750000  0.510317  1
  Er  Er18  1  0.021920  0.750001  0.989771  1
  Er  Er19  1  0.317115  0.249999  0.215576  1
  Hg  Hg20  1  0.592805  0.250083  0.042304  1
  Hg  Hg21  1  0.094336  0.249911  0.458166  1
  Bi  Bi22  1  0.405442  0.750000  0.958266  1
  Bi  Bi23  1  0.905360  0.749997  0.541634  1
  Bi  Bi24  1  0.560783  0.997074  0.323719  1
  Bi  Bi25  1  0.062349  0.502991  0.176101  1
  Bi  Bi26  1  0.437900  0.495784  0.675073  1
  Bi  Bi27  1  0.937954  0.004222  0.825036  1
  Bi  Bi28  1  0.437901  0.004218  0.675073  1
  Bi  Bi29  1  0.937953  0.495783  0.825035  1
  Bi  Bi30  1  0.560783  0.502936  0.323719  1
  Bi  Bi31  1  0.062350  0.997018  0.176098  1
