# generated using pymatgen
data_Cs3CrH7
_symmetry_space_group_name_H-M   'P 1'
_cell_length_a   6.45682223
_cell_length_b   6.42803792
_cell_length_c   6.69736144
_cell_angle_alpha   60.59373379
_cell_angle_beta   119.48785810
_cell_angle_gamma   91.16235852
_symmetry_Int_Tables_number   1
_chemical_formula_structural   Cs3CrH7
_chemical_formula_sum   'Cs3 Cr1 H7'
_cell_volume   201.60437081
_cell_formula_units_Z   1
loop_
 _symmetry_equiv_pos_site_id
 _symmetry_equiv_pos_as_xyz
  1  'x, y, z'
loop_
 _atom_site_type_symbol
 _atom_site_label
 _atom_site_symmetry_multiplicity
 _atom_site_fract_x
 _atom_site_fract_y
 _atom_site_fract_z
 _atom_site_occupancy
  Cs  Cs0  1  0.543153  0.400853  0.641374  1
  Cs  Cs1  1  0.781284  0.639679  0.143095  1
  Cs  Cs2  1  0.044335  0.898157  0.644575  1
  Cr  Cr3  1  0.301591  0.153521  0.145160  1
  H  H4  1  0.108606  0.343221  0.780051  1
  H  H5  1  0.408990  0.928958  0.128389  1
  H  H6  1  0.088856  0.278641  0.164576  1
  H  H7  1  0.554448  0.194640  0.139329  1
  H  H8  1  0.108815  0.969022  0.149107  1
  H  H9  1  0.493314  0.963241  0.509590  1
  H  H10  1  0.362750  0.406162  0.146533  1
