# generated using pymatgen
data_ScTa5(NbTc2)6
_symmetry_space_group_name_H-M   'P 1'
_cell_length_a   4.50069701
_cell_length_b   6.40133401
_cell_length_c   13.62026300
_cell_angle_alpha   89.99946229
_cell_angle_beta   90.00103094
_cell_angle_gamma   89.99255927
_symmetry_Int_Tables_number   1
_chemical_formula_structural   ScTa5(NbTc2)6
_chemical_formula_sum   'Sc1 Ta5 Nb6 Tc12'
_cell_volume   392.40610508
_cell_formula_units_Z   1
loop_
 _symmetry_equiv_pos_site_id
 _symmetry_equiv_pos_as_xyz
  1  'x, y, z'
loop_
 _atom_site_type_symbol
 _atom_site_label
 _atom_site_symmetry_multiplicity
 _atom_site_fract_x
 _atom_site_fract_y
 _atom_site_fract_z
 _atom_site_occupancy
  Sc  Sc0  1  0.500010  0.500003  0.833338  1
  Ta  Ta1  1  0.000000  0.999998  0.998542  1
  Ta  Ta2  1  0.499976  0.499999  0.166270  1
  Ta  Ta3  1  0.999976  0.000001  0.333344  1
  Ta  Ta4  1  0.499997  0.499999  0.500406  1
  Ta  Ta5  1  0.000027  0.000001  0.668112  1
  Nb  Nb6  1  0.999996  0.499999  0.998712  1
  Nb  Nb7  1  0.499972  0.000003  0.165528  1
  Nb  Nb8  1  0.999984  0.500001  0.333347  1
  Nb  Nb9  1  0.500001  0.000000  0.501151  1
  Nb  Nb10  1  0.000028  0.500001  0.667935  1
  Nb  Nb11  1  0.500030  0.999999  0.833318  1
  Tc  Tc12  1  0.500067  0.247890  0.002733  1
  Tc  Tc13  1  0.499934  0.752110  0.002734  1
  Tc  Tc14  1  0.999929  0.249947  0.167288  1
  Tc  Tc15  1  0.000016  0.750053  0.167286  1
  Tc  Tc16  1  0.500003  0.250401  0.333331  1
  Tc  Tc17  1  0.499950  0.749601  0.333330  1
  Tc  Tc18  1  0.999959  0.249949  0.499377  1
  Tc  Tc19  1  0.000050  0.750049  0.499377  1
  Tc  Tc20  1  0.500092  0.247881  0.663931  1
  Tc  Tc21  1  0.499955  0.752115  0.663932  1
  Tc  Tc22  1  0.999932  0.245955  0.833340  1
  Tc  Tc23  1  0.000117  0.754039  0.833339  1
