# generated using pymatgen
data_AlGaSi2PbO8
_symmetry_space_group_name_H-M   'P 1'
_cell_length_a   13.35563700
_cell_length_b   8.56422484
_cell_length_c   14.57691427
_cell_angle_alpha   64.74450836
_cell_angle_beta   90.00000000
_cell_angle_gamma   90.00000000
_symmetry_Int_Tables_number   1
_chemical_formula_structural   AlGaSi2PbO8
_chemical_formula_sum   'Al8 Ga8 Si16 Pb8 O64'
_cell_volume   1507.94557003
_cell_formula_units_Z   8
loop_
 _symmetry_equiv_pos_site_id
 _symmetry_equiv_pos_as_xyz
  1  'x, y, z'
loop_
 _atom_site_type_symbol
 _atom_site_label
 _atom_site_symmetry_multiplicity
 _atom_site_fract_x
 _atom_site_fract_y
 _atom_site_fract_z
 _atom_site_occupancy
  Al  Al0  1  0.372395  0.053415  0.920206  1
  Al  Al1  1  0.872395  0.946585  0.579794  1
  Al  Al2  1  0.627605  0.946585  0.079794  1
  Al  Al3  1  0.127605  0.053415  0.420206  1
  Al  Al4  1  0.870355  0.554742  0.421361  1
  Al  Al5  1  0.370355  0.445258  0.078639  1
  Al  Al6  1  0.129645  0.445258  0.578639  1
  Al  Al7  1  0.629645  0.554742  0.921361  1
  Ga  Ga8  1  0.430951  0.747460  0.367403  1
  Ga  Ga9  1  0.930951  0.252540  0.132597  1
  Ga  Ga10  1  0.569049  0.252540  0.632597  1
  Ga  Ga11  1  0.069049  0.747460  0.867403  1
  Ga  Ga12  1  0.933587  0.250051  0.867992  1
  Ga  Ga13  1  0.433587  0.749949  0.632008  1
  Ga  Ga14  1  0.066413  0.749949  0.132008  1
  Ga  Ga15  1  0.566413  0.250051  0.367992  1
  Si  Si16  1  0.422618  0.737938  0.860684  1
  Si  Si17  1  0.922618  0.262062  0.639316  1
  Si  Si18  1  0.577382  0.262062  0.139316  1
  Si  Si19  1  0.077382  0.737938  0.360684  1
  Si  Si20  1  0.923732  0.240893  0.360518  1
  Si  Si21  1  0.423732  0.759107  0.139482  1
  Si  Si22  1  0.076268  0.759107  0.639482  1
  Si  Si23  1  0.576268  0.240893  0.860518  1
  Si  Si24  1  0.358441  0.064741  0.423632  1
  Si  Si25  1  0.858441  0.935259  0.076368  1
  Si  Si26  1  0.641559  0.935259  0.576368  1
  Si  Si27  1  0.141559  0.064741  0.923632  1
  Si  Si28  1  0.860855  0.569798  0.924249  1
  Si  Si29  1  0.360855  0.430202  0.575751  1
  Si  Si30  1  0.139145  0.430202  0.075751  1
  Si  Si31  1  0.639145  0.569798  0.424249  1
  Pb  Pb32  1  0.241053  0.480176  0.825385  1
  Pb  Pb33  1  0.741053  0.519824  0.674615  1
  Pb  Pb34  1  0.758947  0.519824  0.174615  1
  Pb  Pb35  1  0.258947  0.480176  0.325385  1
  Pb  Pb36  1  0.739332  0.987166  0.322743  1
  Pb  Pb37  1  0.239332  0.012834  0.177257  1
  Pb  Pb38  1  0.260668  0.012834  0.677257  1
  Pb  Pb39  1  0.760668  0.987166  0.822743  1
  O  O40  1  0.377552  0.754530  0.247220  1
  O  O41  1  0.877552  0.245470  0.252780  1
  O  O42  1  0.622448  0.245470  0.752780  1
  O  O43  1  0.122448  0.754530  0.747220  1
  O  O44  1  0.879363  0.257442  0.747998  1
  O  O45  1  0.379363  0.742558  0.752002  1
  O  O46  1  0.120637  0.742558  0.252002  1
  O  O47  1  0.620637  0.257442  0.247998  1
  O  O48  1  0.246803  0.154885  0.397526  1
  O  O49  1  0.746803  0.845115  0.102474  1
  O  O50  1  0.753197  0.845115  0.602474  1
  O  O51  1  0.253197  0.154885  0.897526  1
  O  O52  1  0.748673  0.657798  0.895203  1
  O  O53  1  0.248673  0.342202  0.604797  1
  O  O54  1  0.251327  0.342202  0.104797  1
  O  O55  1  0.751327  0.657798  0.395203  1
  O  O56  1  0.372487  0.940862  0.365765  1
  O  O57  1  0.872487  0.059138  0.134235  1
  O  O58  1  0.627513  0.059138  0.634235  1
  O  O59  1  0.127513  0.940862  0.865765  1
  O  O60  1  0.880197  0.445171  0.867998  1
  O  O61  1  0.380197  0.554829  0.632002  1
  O  O62  1  0.119803  0.554829  0.132002  1
  O  O63  1  0.619803  0.445171  0.367998  1
  O  O64  1  0.378937  0.918399  0.857301  1
  O  O65  1  0.878937  0.081601  0.642699  1
  O  O66  1  0.621063  0.081601  0.142699  1
  O  O67  1  0.121063  0.918399  0.357301  1
  O  O68  1  0.880144  0.419379  0.359411  1
  O  O69  1  0.380144  0.580621  0.140589  1
  O  O70  1  0.119856  0.580621  0.640589  1
  O  O71  1  0.619856  0.419379  0.859411  1
  O  O72  1  0.566211  0.740359  0.383199  1
  O  O73  1  0.066211  0.259641  0.116801  1
  O  O74  1  0.433789  0.259641  0.616801  1
  O  O75  1  0.933789  0.740359  0.883199  1
  O  O76  1  0.068916  0.235400  0.880427  1
  O  O77  1  0.568916  0.764600  0.619573  1
  O  O78  1  0.931084  0.764600  0.119573  1
  O  O79  1  0.431084  0.235400  0.380427  1
  O  O80  1  0.542826  0.723540  0.874305  1
  O  O81  1  0.042826  0.276460  0.625695  1
  O  O82  1  0.457174  0.276460  0.125695  1
  O  O83  1  0.957174  0.723540  0.374305  1
  O  O84  1  0.044516  0.227676  0.369205  1
  O  O85  1  0.544516  0.772324  0.130795  1
  O  O86  1  0.955484  0.772324  0.630795  1
  O  O87  1  0.455484  0.227676  0.869205  1
  O  O88  1  0.367685  0.539426  0.451011  1
  O  O89  1  0.867685  0.460574  0.048989  1
  O  O90  1  0.632315  0.460574  0.548989  1
  O  O91  1  0.132315  0.539426  0.951011  1
  O  O92  1  0.867910  0.045637  0.952146  1
  O  O93  1  0.367910  0.954363  0.547854  1
  O  O94  1  0.132090  0.954363  0.047854  1
  O  O95  1  0.632090  0.045637  0.452146  1
  O  O96  1  0.368046  0.563986  0.945189  1
  O  O97  1  0.868046  0.436014  0.554811  1
  O  O98  1  0.631954  0.436014  0.054811  1
  O  O99  1  0.131954  0.563986  0.445189  1
  O  O100  1  0.872883  0.065353  0.446774  1
  O  O101  1  0.372883  0.934647  0.053226  1
  O  O102  1  0.127117  0.934647  0.553226  1
  O  O103  1  0.627117  0.065353  0.946774  1
