# generated using pymatgen
data_KRbCoO4
_symmetry_space_group_name_H-M   'P 1'
_cell_length_a   6.02110200
_cell_length_b   8.00271100
_cell_length_c   10.60295700
_cell_angle_alpha   90.00000000
_cell_angle_beta   90.00000000
_cell_angle_gamma   90.00000000
_symmetry_Int_Tables_number   1
_chemical_formula_structural   KRbCoO4
_chemical_formula_sum   'K4 Rb4 Co4 O16'
_cell_volume   510.90495906
_cell_formula_units_Z   4
loop_
 _symmetry_equiv_pos_site_id
 _symmetry_equiv_pos_as_xyz
  1  'x, y, z'
loop_
 _atom_site_type_symbol
 _atom_site_label
 _atom_site_symmetry_multiplicity
 _atom_site_fract_x
 _atom_site_fract_y
 _atom_site_fract_z
 _atom_site_occupancy
  K  K0  1  0.749999  0.002783  0.692088  1
  K  K1  1  0.250000  0.997217  0.307911  1
  K  K2  1  0.749999  0.502782  0.807912  1
  K  K3  1  0.250000  0.497217  0.192088  1
  Rb  Rb4  1  0.250000  0.657242  0.584489  1
  Rb  Rb5  1  0.749999  0.342758  0.415511  1
  Rb  Rb6  1  0.749999  0.842759  0.084490  1
  Rb  Rb7  1  0.250000  0.157242  0.915511  1
  Co  Co8  1  0.749999  0.774846  0.415216  1
  Co  Co9  1  0.250000  0.225153  0.584784  1
  Co  Co10  1  0.749999  0.274847  0.084784  1
  Co  Co11  1  0.250000  0.725154  0.915217  1
  O  O12  1  0.525388  0.706997  0.339918  1
  O  O13  1  0.025389  0.293002  0.660081  1
  O  O14  1  0.974612  0.206998  0.160081  1
  O  O15  1  0.474612  0.793002  0.839918  1
  O  O16  1  0.474612  0.293002  0.660081  1
  O  O17  1  0.974612  0.706997  0.339918  1
  O  O18  1  0.025389  0.793002  0.839918  1
  O  O19  1  0.525388  0.206998  0.160081  1
  O  O20  1  0.250000  0.519199  0.921893  1
  O  O21  1  0.749999  0.480801  0.078107  1
  O  O22  1  0.250000  0.019199  0.578107  1
  O  O23  1  0.749999  0.980802  0.421894  1
  O  O24  1  0.749999  0.197054  0.938751  1
  O  O25  1  0.250000  0.802946  0.061249  1
  O  O26  1  0.250000  0.302946  0.438752  1
  O  O27  1  0.749999  0.697053  0.561249  1
