# generated using pymatgen
data_Ca3Lu(TcB4)4
_symmetry_space_group_name_H-M   'P 1'
_cell_length_a   3.56447200
_cell_length_b   5.98273985
_cell_length_c   11.56677856
_cell_angle_alpha   89.90999340
_cell_angle_beta   90.00000000
_cell_angle_gamma   90.00000000
_symmetry_Int_Tables_number   1
_chemical_formula_structural   Ca3Lu(TcB4)4
_chemical_formula_sum   'Ca3 Lu1 Tc4 B16'
_cell_volume   246.66481884
_cell_formula_units_Z   1
loop_
 _symmetry_equiv_pos_site_id
 _symmetry_equiv_pos_as_xyz
  1  'x, y, z'
loop_
 _atom_site_type_symbol
 _atom_site_label
 _atom_site_symmetry_multiplicity
 _atom_site_fract_x
 _atom_site_fract_y
 _atom_site_fract_z
 _atom_site_occupancy
  Ca  Ca0  1  0.500000  0.372587  0.149696  1
  Ca  Ca1  1  0.500000  0.628187  0.849724  1
  Ca  Ca2  1  0.500000  0.128084  0.651580  1
  Lu  Lu3  1  0.500000  0.870879  0.349272  1
  Tc  Tc4  1  0.500000  0.370064  0.415156  1
  Tc  Tc5  1  0.500000  0.631742  0.581511  1
  Tc  Tc6  1  0.500000  0.130190  0.917562  1
  Tc  Tc7  1  0.500000  0.870806  0.084951  1
  B  B8  1  0.000000  0.112767  0.048244  1
  B  B9  1  0.000000  0.886006  0.953385  1
  B  B10  1  0.000000  0.386609  0.546891  1
  B  B11  1  0.000000  0.613789  0.451342  1
  B  B12  1  0.000000  0.134226  0.467506  1
  B  B13  1  0.000000  0.865252  0.530443  1
  B  B14  1  0.000000  0.365564  0.968221  1
  B  B15  1  0.000000  0.634456  0.032475  1
  B  B16  1  0.000000  0.021390  0.194188  1
  B  B17  1  0.000000  0.977819  0.807498  1
  B  B18  1  0.000000  0.478228  0.692135  1
  B  B19  1  0.000000  0.524347  0.307031  1
  B  B20  1  0.000000  0.212223  0.315327  1
  B  B21  1  0.000000  0.784797  0.684645  1
  B  B22  1  0.000000  0.285819  0.815261  1
  B  B23  1  0.000000  0.714171  0.185956  1
