# generated using pymatgen
data_SmHo2Ag3SnGe2
_symmetry_space_group_name_H-M   'P 1'
_cell_length_a   7.30191664
_cell_length_b   7.30191663
_cell_length_c   4.31875000
_cell_angle_alpha   90.00000000
_cell_angle_beta   90.00000000
_cell_angle_gamma   120.26981031
_symmetry_Int_Tables_number   1
_chemical_formula_structural   SmHo2Ag3SnGe2
_chemical_formula_sum   'Sm1 Ho2 Ag3 Sn1 Ge2'
_cell_volume   198.87273682
_cell_formula_units_Z   1
loop_
 _symmetry_equiv_pos_site_id
 _symmetry_equiv_pos_as_xyz
  1  'x, y, z'
loop_
 _atom_site_type_symbol
 _atom_site_label
 _atom_site_symmetry_multiplicity
 _atom_site_fract_x
 _atom_site_fract_y
 _atom_site_fract_z
 _atom_site_occupancy
  Sm  Sm0  1  0.430822  0.430822  0.000000  1
  Ho  Ho1  1  0.569716  0.001115  0.000000  1
  Ho  Ho2  1  0.001115  0.569716  0.000000  1
  Ag  Ag3  1  0.259906  0.999461  0.500000  1
  Ag  Ag4  1  0.999461  0.259906  0.500000  1
  Ag  Ag5  1  0.741358  0.741358  0.500000  1
  Sn  Sn6  1  0.996428  0.996428  0.000000  1
  Ge  Ge7  1  0.331808  0.669388  0.500000  1
  Ge  Ge8  1  0.669388  0.331808  0.500000  1
