# generated using pymatgen
data_Sr5Sb3Br
_symmetry_space_group_name_H-M   'P 1'
_cell_length_a   9.68618600
_cell_length_b   9.68618588
_cell_length_c   7.64960100
_cell_angle_alpha   90.00000000
_cell_angle_beta   90.00000000
_cell_angle_gamma   120.00000042
_symmetry_Int_Tables_number   1
_chemical_formula_structural   Sr5Sb3Br
_chemical_formula_sum   'Sr10 Sb6 Br2'
_cell_volume   621.54849075
_cell_formula_units_Z   2
loop_
 _symmetry_equiv_pos_site_id
 _symmetry_equiv_pos_as_xyz
  1  'x, y, z'
loop_
 _atom_site_type_symbol
 _atom_site_label
 _atom_site_symmetry_multiplicity
 _atom_site_fract_x
 _atom_site_fract_y
 _atom_site_fract_z
 _atom_site_occupancy
  Sr  Sr0  1  0.738018  0.000000  0.750000  1
  Sr  Sr1  1  0.000000  0.261982  0.250000  1
  Sr  Sr2  1  0.738018  0.738018  0.250000  1
  Sr  Sr3  1  0.333333  0.666667  0.500000  1
  Sr  Sr4  1  0.333333  0.666667  0.000000  1
  Sr  Sr5  1  0.666667  0.333333  0.500000  1
  Sr  Sr6  1  0.666667  0.333333  0.000000  1
  Sr  Sr7  1  0.261982  0.000000  0.250000  1
  Sr  Sr8  1  0.261982  0.261982  0.750000  1
  Sr  Sr9  1  0.000000  0.738018  0.750000  1
  Sb  Sb10  1  0.391522  0.000000  0.750000  1
  Sb  Sb11  1  0.608478  0.000000  0.250000  1
  Sb  Sb12  1  0.000000  0.608478  0.250000  1
  Sb  Sb13  1  0.608478  0.608478  0.750000  1
  Sb  Sb14  1  0.000000  0.391522  0.750000  1
  Sb  Sb15  1  0.391522  0.391522  0.250000  1
  Br  Br16  1  0.000000  0.000000  0.500000  1
  Br  Br17  1  0.000000  0.000000  0.000000  1
