# generated using pymatgen
data_Pu3IrF20
_symmetry_space_group_name_H-M   'P 1'
_cell_length_a   10.23646592
_cell_length_b   5.65967636
_cell_length_c   8.31153700
_cell_angle_alpha   68.35537177
_cell_angle_beta   90.26792324
_cell_angle_gamma   90.15146461
_symmetry_Int_Tables_number   1
_chemical_formula_structural   Pu3IrF20
_chemical_formula_sum   'Pu3 Ir1 F20'
_cell_volume   447.57157564
_cell_formula_units_Z   1
loop_
 _symmetry_equiv_pos_site_id
 _symmetry_equiv_pos_as_xyz
  1  'x, y, z'
loop_
 _atom_site_type_symbol
 _atom_site_label
 _atom_site_symmetry_multiplicity
 _atom_site_fract_x
 _atom_site_fract_y
 _atom_site_fract_z
 _atom_site_occupancy
  Pu  Pu0  1  0.750702  0.121248  0.597188  1
  Pu  Pu1  1  0.253307  0.879087  0.902428  1
  Pu  Pu2  1  0.247838  0.880592  0.401726  1
  Ir  Ir3  1  0.748522  0.119483  0.097200  1
  F  F4  1  0.870600  0.415149  0.560866  1
  F  F5  1  0.366193  0.578348  0.927174  1
  F  F6  1  0.133766  0.580850  0.424192  1
  F  F7  1  0.637849  0.400789  0.066119  1
  F  F8  1  0.606482  0.362585  0.491105  1
  F  F9  1  0.111108  0.644147  0.030805  1
  F  F10  1  0.388617  0.643084  0.532581  1
  F  F11  1  0.881182  0.355373  0.986126  1
  F  F12  1  0.398657  0.113017  0.778065  1
  F  F13  1  0.897854  0.880863  0.697823  1
  F  F14  1  0.614178  0.884400  0.206833  1
  F  F15  1  0.102903  0.116833  0.279457  1
  F  F16  1  0.139207  0.179989  0.875690  1
  F  F17  1  0.631096  0.826227  0.636275  1
  F  F18  1  0.858611  0.837154  0.129180  1
  F  F19  1  0.362391  0.179981  0.379144  1
  F  F20  1  0.693841  0.116977  0.869694  1
  F  F21  1  0.174546  0.880938  0.652347  1
  F  F22  1  0.326846  0.883021  0.152730  1
  F  F23  1  0.803705  0.119868  0.325250  1
