# generated using pymatgen
data_Yb10Ga2Cu3Ru
_symmetry_space_group_name_H-M   'P 1'
_cell_length_a   8.79595636
_cell_length_b   8.79595652
_cell_length_c   8.77902065
_cell_angle_alpha   128.40647348
_cell_angle_beta   128.40647406
_cell_angle_gamma   76.10871137
_symmetry_Int_Tables_number   1
_chemical_formula_structural   Yb10Ga2Cu3Ru
_chemical_formula_sum   'Yb10 Ga2 Cu3 Ru1'
_cell_volume   405.15104961
_cell_formula_units_Z   1
loop_
 _symmetry_equiv_pos_site_id
 _symmetry_equiv_pos_as_xyz
  1  'x, y, z'
loop_
 _atom_site_type_symbol
 _atom_site_label
 _atom_site_symmetry_multiplicity
 _atom_site_fract_x
 _atom_site_fract_y
 _atom_site_fract_z
 _atom_site_occupancy
  Yb  Yb0  1  0.493970  0.501094  0.995065  1
  Yb  Yb1  1  0.001094  0.993970  0.995065  1
  Yb  Yb2  1  0.529950  0.029950  0.840894  1
  Yb  Yb3  1  0.182961  0.682961  0.141945  1
  Yb  Yb4  1  0.032194  0.198926  0.510217  1
  Yb  Yb5  1  0.698926  0.532194  0.510217  1
  Yb  Yb6  1  0.458984  0.958984  0.141945  1
  Yb  Yb7  1  0.810943  0.310943  0.840894  1
  Yb  Yb8  1  0.978023  0.811291  0.510217  1
  Yb  Yb9  1  0.311291  0.478023  0.510217  1
  Ga  Ga10  1  0.251944  0.251944  0.003888  1
  Ga  Ga11  1  0.751944  0.751944  0.003888  1
  Cu  Cu12  1  0.881633  0.381633  0.263267  1
  Cu  Cu13  1  0.614315  0.882986  0.497301  1
  Cu  Cu14  1  0.382986  0.114315  0.497301  1
  Ru  Ru15  1  0.118840  0.618840  0.737679  1
