# generated using pymatgen
data_Nb12Sn3Pt5N4
_symmetry_space_group_name_H-M   'P 1'
_cell_length_a   7.17442487
_cell_length_b   7.17442663
_cell_length_c   7.17442451
_cell_angle_alpha   90.15895085
_cell_angle_beta   89.84104820
_cell_angle_gamma   89.84100688
_symmetry_Int_Tables_number   1
_chemical_formula_structural   Nb12Sn3Pt5N4
_chemical_formula_sum   'Nb12 Sn3 Pt5 N4'
_cell_volume   369.28046791
_cell_formula_units_Z   1
loop_
 _symmetry_equiv_pos_site_id
 _symmetry_equiv_pos_as_xyz
  1  'x, y, z'
loop_
 _atom_site_type_symbol
 _atom_site_label
 _atom_site_symmetry_multiplicity
 _atom_site_fract_x
 _atom_site_fract_y
 _atom_site_fract_z
 _atom_site_occupancy
  Nb  Nb0  1  0.789750  0.959923  0.377051  1
  Nb  Nb1  1  0.706475  0.049620  0.880183  1
  Nb  Nb2  1  0.217120  0.455758  0.121877  1
  Nb  Nb3  1  0.298230  0.536038  0.633676  1
  Nb  Nb4  1  0.950380  0.380183  0.793525  1
  Nb  Nb5  1  0.040077  0.877051  0.710250  1
  Nb  Nb6  1  0.463963  0.133676  0.201770  1
  Nb  Nb7  1  0.544241  0.621877  0.282878  1
  Nb  Nb8  1  0.378122  0.782880  0.955759  1
  Nb  Nb9  1  0.866324  0.701770  0.036037  1
  Nb  Nb10  1  0.122950  0.210250  0.459923  1
  Nb  Nb11  1  0.619816  0.293526  0.549620  1
  Sn  Sn12  1  0.429279  0.928594  0.566302  1
  Sn  Sn13  1  0.933698  0.570721  0.428594  1
  Sn  Sn14  1  0.071406  0.066302  0.070721  1
  Pt  Pt15  1  0.183455  0.816546  0.316546  1
  Pt  Pt16  1  0.315261  0.180639  0.814918  1
  Pt  Pt17  1  0.819363  0.314919  0.184739  1
  Pt  Pt18  1  0.685082  0.684738  0.680638  1
  Pt  Pt19  1  0.566724  0.433275  0.933275  1
  N  N20  1  0.872201  0.127800  0.627800  1
  N  N21  1  0.622735  0.875009  0.121641  1
  N  N22  1  0.124991  0.621640  0.877264  1
  N  N23  1  0.378358  0.377265  0.375010  1
