# generated using pymatgen
data_Np4Sb4As3Se
_symmetry_space_group_name_H-M   'P 1'
_cell_length_a   4.13802002
_cell_length_b   4.19378503
_cell_length_c   16.96849317
_cell_angle_alpha   90.00191474
_cell_angle_beta   89.99872005
_cell_angle_gamma   90.00151384
_symmetry_Int_Tables_number   1
_chemical_formula_structural   Np4Sb4As3Se
_chemical_formula_sum   'Np4 Sb4 As3 Se1'
_cell_volume   294.47066015
_cell_formula_units_Z   1
loop_
 _symmetry_equiv_pos_site_id
 _symmetry_equiv_pos_as_xyz
  1  'x, y, z'
loop_
 _atom_site_type_symbol
 _atom_site_label
 _atom_site_symmetry_multiplicity
 _atom_site_fract_x
 _atom_site_fract_y
 _atom_site_fract_z
 _atom_site_occupancy
  Np  Np0  1  0.749978  0.246356  0.848369  1
  Np  Np1  1  0.750089  0.253294  0.347427  1
  Np  Np2  1  0.250029  0.753317  0.153452  1
  Np  Np3  1  0.249994  0.747030  0.649762  1
  Sb  Sb4  1  0.249946  0.249955  0.498958  1
  Sb  Sb5  1  0.249925  0.250227  0.002968  1
  Sb  Sb6  1  0.749950  0.750354  0.497768  1
  Sb  Sb7  1  0.749918  0.749802  0.002310  1
  As  As8  1  0.749992  0.246894  0.677869  1
  As  As9  1  0.750029  0.253388  0.179633  1
  As  As10  1  0.250176  0.753529  0.321996  1
  Se  Se11  1  0.249973  0.745854  0.819488  1
