# generated using pymatgen
data_CaY6FeCl12
_symmetry_space_group_name_H-M   'P 1'
_cell_length_a   8.64488306
_cell_length_b   8.94944115
_cell_length_c   8.90705696
_cell_angle_alpha   107.31790904
_cell_angle_beta   106.34393209
_cell_angle_gamma   106.39676007
_symmetry_Int_Tables_number   1
_chemical_formula_structural   CaY6FeCl12
_chemical_formula_sum   'Ca1 Y6 Fe1 Cl12'
_cell_volume   578.69950815
_cell_formula_units_Z   1
loop_
 _symmetry_equiv_pos_site_id
 _symmetry_equiv_pos_as_xyz
  1  'x, y, z'
loop_
 _atom_site_type_symbol
 _atom_site_label
 _atom_site_symmetry_multiplicity
 _atom_site_fract_x
 _atom_site_fract_y
 _atom_site_fract_z
 _atom_site_occupancy
  Ca  Ca0  1  0.500000  0.500000  0.500000  1
  Y  Y1  1  0.296689  0.099410  0.022367  1
  Y  Y2  1  0.019917  0.321245  0.110846  1
  Y  Y3  1  0.111323  0.025255  0.321565  1
  Y  Y4  1  0.888676  0.974745  0.678435  1
  Y  Y5  1  0.980083  0.678755  0.889153  1
  Y  Y6  1  0.703311  0.900590  0.977632  1
  Fe  Fe7  1  0.000000  0.000000  0.000000  1
  Cl  Cl8  1  0.676912  0.211509  0.068688  1
  Cl  Cl9  1  0.370099  0.447639  0.160419  1
  Cl  Cl10  1  0.072411  0.680791  0.213338  1
  Cl  Cl11  1  0.784593  0.928361  0.317140  1
  Cl  Cl12  1  0.455223  0.162051  0.371880  1
  Cl  Cl13  1  0.155455  0.372504  0.454995  1
  Cl  Cl14  1  0.844546  0.627496  0.545006  1
  Cl  Cl15  1  0.544777  0.837950  0.628120  1
  Cl  Cl16  1  0.215406  0.071639  0.682860  1
  Cl  Cl17  1  0.927589  0.319209  0.786661  1
  Cl  Cl18  1  0.629902  0.552362  0.839581  1
  Cl  Cl19  1  0.323088  0.788490  0.931312  1
