# generated using pymatgen
data_Zr5Tl2InP
_symmetry_space_group_name_H-M   'P 1'
_cell_length_a   8.70028300
_cell_length_b   8.70028288
_cell_length_c   6.04728000
_cell_angle_alpha   90.00000000
_cell_angle_beta   90.00000000
_cell_angle_gamma   119.72533615
_symmetry_Int_Tables_number   1
_chemical_formula_structural   Zr5Tl2InP
_chemical_formula_sum   'Zr10 Tl4 In2 P2'
_cell_volume   397.51435441
_cell_formula_units_Z   2
loop_
 _symmetry_equiv_pos_site_id
 _symmetry_equiv_pos_as_xyz
  1  'x, y, z'
loop_
 _atom_site_type_symbol
 _atom_site_label
 _atom_site_symmetry_multiplicity
 _atom_site_fract_x
 _atom_site_fract_y
 _atom_site_fract_z
 _atom_site_occupancy
  Zr  Zr0  1  0.754876  0.002730  0.250000  1
  Zr  Zr1  1  0.002730  0.754876  0.250000  1
  Zr  Zr2  1  0.245016  0.245016  0.250000  1
  Zr  Zr3  1  0.241223  0.998918  0.750000  1
  Zr  Zr4  1  0.998918  0.241223  0.750000  1
  Zr  Zr5  1  0.758724  0.758724  0.750000  1
  Zr  Zr6  1  0.332739  0.667037  0.497270  1
  Zr  Zr7  1  0.667037  0.332739  0.497270  1
  Zr  Zr8  1  0.667037  0.332739  0.002730  1
  Zr  Zr9  1  0.332739  0.667037  0.002730  1
  Tl  Tl10  1  0.604892  0.604892  0.250000  1
  Tl  Tl11  1  0.600627  0.999194  0.750000  1
  Tl  Tl12  1  0.999194  0.600627  0.750000  1
  Tl  Tl13  1  0.396752  0.396752  0.750000  1
  In  In14  1  0.397375  0.000944  0.250000  1
  In  In15  1  0.000944  0.397375  0.250000  1
  P  P16  1  0.999587  0.999587  0.497936  1
  P  P17  1  0.999587  0.999587  0.002064  1
