# generated using pymatgen
data_Tm16Cd4CoRu3
_symmetry_space_group_name_H-M   'P 1'
_cell_length_a   9.43297656
_cell_length_b   9.50907308
_cell_length_c   9.50907200
_cell_angle_alpha   60.00000376
_cell_angle_beta   59.73278642
_cell_angle_gamma   59.73279637
_symmetry_Int_Tables_number   1
_chemical_formula_structural   Tm16Cd4CoRu3
_chemical_formula_sum   'Tm16 Cd4 Co1 Ru3'
_cell_volume   600.68139283
_cell_formula_units_Z   1
loop_
 _symmetry_equiv_pos_site_id
 _symmetry_equiv_pos_as_xyz
  1  'x, y, z'
loop_
 _atom_site_type_symbol
 _atom_site_label
 _atom_site_symmetry_multiplicity
 _atom_site_fract_x
 _atom_site_fract_y
 _atom_site_fract_z
 _atom_site_occupancy
  Tm  Tm0  1  0.351903  0.343618  0.343618  1
  Tm  Tm1  1  0.351903  0.343618  0.960862  1
  Tm  Tm2  1  0.351903  0.960862  0.343618  1
  Tm  Tm3  1  0.961420  0.346193  0.346193  1
  Tm  Tm4  1  0.807760  0.187956  0.187956  1
  Tm  Tm5  1  0.185831  0.812446  0.812446  1
  Tm  Tm6  1  0.185831  0.812446  0.189276  1
  Tm  Tm7  1  0.807760  0.187956  0.816328  1
  Tm  Tm8  1  0.185831  0.189276  0.812446  1
  Tm  Tm9  1  0.807760  0.816328  0.187956  1
  Tm  Tm10  1  0.938276  0.561491  0.561491  1
  Tm  Tm11  1  0.561014  0.937583  0.937583  1
  Tm  Tm12  1  0.561014  0.937583  0.563819  1
  Tm  Tm13  1  0.938276  0.561491  0.938742  1
  Tm  Tm14  1  0.561014  0.563819  0.937583  1
  Tm  Tm15  1  0.938276  0.938742  0.561491  1
  Cd  Cd16  1  0.579490  0.580447  0.580447  1
  Cd  Cd17  1  0.579490  0.580447  0.259617  1
  Cd  Cd18  1  0.579490  0.259617  0.580447  1
  Cd  Cd19  1  0.257031  0.580990  0.580990  1
  Co  Co20  1  0.578957  0.140348  0.140348  1
  Ru  Ru21  1  0.143257  0.139131  0.139131  1
  Ru  Ru22  1  0.143257  0.139131  0.578482  1
  Ru  Ru23  1  0.143257  0.578482  0.139131  1
