# generated using pymatgen
data_Tb8Be(Si4Pd)3
_symmetry_space_group_name_H-M   'P 1'
_cell_length_a   8.10572400
_cell_length_b   8.10572372
_cell_length_c   8.15552900
_cell_angle_alpha   90.00000000
_cell_angle_beta   90.00000000
_cell_angle_gamma   120.00000930
_symmetry_Int_Tables_number   1
_chemical_formula_structural   Tb8Be(Si4Pd)3
_chemical_formula_sum   'Tb8 Be1 Si12 Pd3'
_cell_volume   464.05166604
_cell_formula_units_Z   1
loop_
 _symmetry_equiv_pos_site_id
 _symmetry_equiv_pos_as_xyz
  1  'x, y, z'
loop_
 _atom_site_type_symbol
 _atom_site_label
 _atom_site_symmetry_multiplicity
 _atom_site_fract_x
 _atom_site_fract_y
 _atom_site_fract_z
 _atom_site_occupancy
  Tb  Tb0  1  0.498773  0.997544  0.248758  1
  Tb  Tb1  1  0.497985  0.995971  0.751251  1
  Tb  Tb2  1  0.002456  0.501227  0.248758  1
  Tb  Tb3  1  0.004029  0.502015  0.751251  1
  Tb  Tb4  1  0.498773  0.501227  0.248758  1
  Tb  Tb5  1  0.497985  0.502015  0.751251  1
  Tb  Tb6  1  0.000000  0.000000  0.249649  1
  Tb  Tb7  1  0.000000  0.000000  0.751448  1
  Be  Be8  1  0.333333  0.666667  0.997739  1
  Si  Si9  1  0.172083  0.344166  0.000110  1
  Si  Si10  1  0.834077  0.668154  0.001638  1
  Si  Si11  1  0.655834  0.827917  0.000110  1
  Si  Si12  1  0.833921  0.667842  0.501693  1
  Si  Si13  1  0.331846  0.165923  0.001638  1
  Si  Si14  1  0.165490  0.330981  0.497845  1
  Si  Si15  1  0.172083  0.827917  0.000110  1
  Si  Si16  1  0.332158  0.166079  0.501693  1
  Si  Si17  1  0.834077  0.165923  0.001638  1
  Si  Si18  1  0.669019  0.834510  0.497845  1
  Si  Si19  1  0.833921  0.166079  0.501693  1
  Si  Si20  1  0.165490  0.834510  0.497845  1
  Pd  Pd21  1  0.666667  0.333333  0.995551  1
  Pd  Pd22  1  0.666667  0.333333  0.500586  1
  Pd  Pd23  1  0.333333  0.666667  0.501144  1
