# generated using pymatgen
data_NaCaEr(B3Rh4)2
_symmetry_space_group_name_H-M   'P 1'
_cell_length_a   9.85104205
_cell_length_b   9.00052985
_cell_length_c   5.59063110
_cell_angle_alpha   81.30045895
_cell_angle_beta   64.57542351
_cell_angle_gamma   34.12412001
_symmetry_Int_Tables_number   1
_chemical_formula_structural   NaCaEr(B3Rh4)2
_chemical_formula_sum   'Na1 Ca1 Er1 B6 Rh8'
_cell_volume   229.85497912
_cell_formula_units_Z   1
loop_
 _symmetry_equiv_pos_site_id
 _symmetry_equiv_pos_as_xyz
  1  'x, y, z'
loop_
 _atom_site_type_symbol
 _atom_site_label
 _atom_site_symmetry_multiplicity
 _atom_site_fract_x
 _atom_site_fract_y
 _atom_site_fract_z
 _atom_site_occupancy
  Na  Na0  1  0.314168  0.314168  0.685832  1
  Ca  Ca1  1  0.686371  0.686371  0.313629  1
  Er  Er2  1  0.494768  0.494768  0.505232  1
  B  B3  1  0.669168  0.988361  0.011639  1
  B  B4  1  0.988361  0.669168  0.330832  1
  B  B5  1  0.330592  0.015409  0.984591  1
  B  B6  1  0.015409  0.330592  0.669408  1
  B  B7  1  0.167381  0.832989  0.167011  1
  B  B8  1  0.832989  0.167381  0.832619  1
  Rh  Rh9  1  0.584884  0.584884  0.915116  1
  Rh  Rh10  1  0.913402  0.913402  0.086598  1
  Rh  Rh11  1  0.415192  0.415192  0.084808  1
  Rh  Rh12  1  0.084884  0.084884  0.415116  1
  Rh  Rh13  1  0.915192  0.915192  0.584808  1
  Rh  Rh14  1  0.250794  0.250794  0.249206  1
  Rh  Rh15  1  0.085650  0.085650  0.914350  1
  Rh  Rh16  1  0.750794  0.750794  0.749206  1
