# generated using pymatgen
data_BSeI
_symmetry_space_group_name_H-M   'P 1'
_cell_length_a   5.19845600
_cell_length_b   15.90486308
_cell_length_c   20.34820120
_cell_angle_alpha   64.84395842
_cell_angle_beta   90.00000000
_cell_angle_gamma   90.00000000
_symmetry_Int_Tables_number   1
_chemical_formula_structural   BSeI
_chemical_formula_sum   'B12 Se12 I12'
_cell_volume   1522.83392277
_cell_formula_units_Z   12
loop_
 _symmetry_equiv_pos_site_id
 _symmetry_equiv_pos_as_xyz
  1  'x, y, z'
loop_
 _atom_site_type_symbol
 _atom_site_label
 _atom_site_symmetry_multiplicity
 _atom_site_fract_x
 _atom_site_fract_y
 _atom_site_fract_z
 _atom_site_occupancy
  B  B0  1  0.751977  0.369483  0.166933  1
  B  B1  1  0.251977  0.630517  0.333067  1
  B  B2  1  0.248023  0.630517  0.833067  1
  B  B3  1  0.748023  0.369483  0.666933  1
  B  B4  1  0.978833  0.173944  0.269268  1
  B  B5  1  0.478833  0.826056  0.230732  1
  B  B6  1  0.021167  0.826056  0.730732  1
  B  B7  1  0.521167  0.173944  0.769268  1
  B  B8  1  0.971102  0.238702  0.100023  1
  B  B9  1  0.471102  0.761298  0.399977  1
  B  B10  1  0.028898  0.761298  0.899977  1
  B  B11  1  0.528898  0.238702  0.600023  1
  Se  Se12  1  0.681126  0.285204  0.768047  1
  Se  Se13  1  0.181126  0.714796  0.731953  1
  Se  Se14  1  0.318874  0.714796  0.231953  1
  Se  Se15  1  0.818874  0.285204  0.268047  1
  Se  Se16  1  0.686684  0.359111  0.576158  1
  Se  Se17  1  0.186684  0.640889  0.923842  1
  Se  Se18  1  0.313316  0.640889  0.423842  1
  Se  Se19  1  0.813316  0.359111  0.076158  1
  Se  Se20  1  0.429479  0.137529  0.692144  1
  Se  Se21  1  0.929479  0.862471  0.807856  1
  Se  Se22  1  0.570521  0.862471  0.307856  1
  Se  Se23  1  0.070521  0.137529  0.192144  1
  I  I24  1  0.574679  0.497749  0.152981  1
  I  I25  1  0.074679  0.502251  0.347019  1
  I  I26  1  0.425321  0.502251  0.847019  1
  I  I27  1  0.925321  0.497749  0.652981  1
  I  I28  1  0.071617  0.070820  0.376307  1
  I  I29  1  0.571617  0.929180  0.123693  1
  I  I30  1  0.928383  0.929180  0.623693  1
  I  I31  1  0.428383  0.070820  0.876307  1
  I  I32  1  0.051987  0.211982  0.007048  1
  I  I33  1  0.551987  0.788018  0.492952  1
  I  I34  1  0.948013  0.788018  0.992952  1
  I  I35  1  0.448013  0.211982  0.507048  1
