# generated using pymatgen
data_TbTm5NiI10
_symmetry_space_group_name_H-M   'P 1'
_cell_length_a   7.61910894
_cell_length_b   9.56908981
_cell_length_c   9.61485708
_cell_angle_alpha   107.02192767
_cell_angle_beta   96.89964176
_cell_angle_gamma   104.55768886
_symmetry_Int_Tables_number   1
_chemical_formula_structural   TbTm5NiI10
_chemical_formula_sum   'Tb1 Tm5 Ni1 I10'
_cell_volume   634.40076316
_cell_formula_units_Z   1
loop_
 _symmetry_equiv_pos_site_id
 _symmetry_equiv_pos_as_xyz
  1  'x, y, z'
loop_
 _atom_site_type_symbol
 _atom_site_label
 _atom_site_symmetry_multiplicity
 _atom_site_fract_x
 _atom_site_fract_y
 _atom_site_fract_z
 _atom_site_occupancy
  Tb  Tb0  1  0.112885  0.041095  0.763075  1
  Tm  Tm1  1  0.335911  0.118912  0.159784  1
  Tm  Tm2  1  0.663475  0.880715  0.841172  1
  Tm  Tm3  1  0.969514  0.276837  0.083621  1
  Tm  Tm4  1  0.030089  0.723255  0.918083  1
  Tm  Tm5  1  0.889064  0.959888  0.233049  1
  Ni  Ni6  1  0.999664  0.000042  0.000467  1
  I  I7  1  0.351407  0.450075  0.272194  1
  I  I8  1  0.648826  0.549861  0.728032  1
  I  I9  1  0.771171  0.255113  0.342858  1
  I  I10  1  0.229319  0.742124  0.657599  1
  I  I11  1  0.547455  0.185674  0.908006  1
  I  I12  1  0.454256  0.815190  0.093424  1
  I  I13  1  0.738927  0.911401  0.535288  1
  I  I14  1  0.258468  0.087481  0.461544  1
  I  I15  1  0.915224  0.626048  0.179831  1
  I  I16  1  0.084345  0.376289  0.821972  1
