# generated using pymatgen
data_Nd3AlHg2Au3
_symmetry_space_group_name_H-M   'P 1'
_cell_length_a   7.95732341
_cell_length_b   7.72224426
_cell_length_c   4.03555000
_cell_angle_alpha   90.00000000
_cell_angle_beta   90.00000000
_cell_angle_gamma   119.02746228
_symmetry_Int_Tables_number   1
_chemical_formula_structural   Nd3AlHg2Au3
_chemical_formula_sum   'Nd3 Al1 Hg2 Au3'
_cell_volume   216.82885908
_cell_formula_units_Z   1
loop_
 _symmetry_equiv_pos_site_id
 _symmetry_equiv_pos_as_xyz
  1  'x, y, z'
loop_
 _atom_site_type_symbol
 _atom_site_label
 _atom_site_symmetry_multiplicity
 _atom_site_fract_x
 _atom_site_fract_y
 _atom_site_fract_z
 _atom_site_occupancy
  Nd  Nd0  1  0.412556  0.400245  0.500000  1
  Nd  Nd1  1  0.587444  0.987689  0.500000  1
  Nd  Nd2  1  0.000000  0.606458  0.500000  1
  Al  Al3  1  0.000000  0.256336  0.000000  1
  Hg  Hg4  1  0.735126  0.738891  0.000000  1
  Hg  Hg5  1  0.264874  0.003765  0.000000  1
  Au  Au6  1  0.690297  0.327651  0.000000  1
  Au  Au7  1  0.309703  0.637355  0.000000  1
  Au  Au8  1  0.000000  0.041608  0.500000  1
