# generated using pymatgen
data_YbTmLu2(Al8Pt3)3
_symmetry_space_group_name_H-M   'P 1'
_cell_length_a   7.51482525
_cell_length_b   7.53458554
_cell_length_c   13.15889610
_cell_angle_alpha   84.62408160
_cell_angle_beta   79.12509681
_cell_angle_gamma   59.92384281
_symmetry_Int_Tables_number   1
_chemical_formula_structural   YbTmLu2(Al8Pt3)3
_chemical_formula_sum   'Yb1 Tm1 Lu2 Al24 Pt9'
_cell_volume   633.17556107
_cell_formula_units_Z   1
loop_
 _symmetry_equiv_pos_site_id
 _symmetry_equiv_pos_as_xyz
  1  'x, y, z'
loop_
 _atom_site_type_symbol
 _atom_site_label
 _atom_site_symmetry_multiplicity
 _atom_site_fract_x
 _atom_site_fract_y
 _atom_site_fract_z
 _atom_site_occupancy
  Yb  Yb0  1  0.393956  0.168523  0.807735  1
  Tm  Tm1  1  0.605202  0.831718  0.192698  1
  Lu  Lu2  1  0.734141  0.498828  0.807083  1
  Lu  Lu3  1  0.266092  0.500797  0.192885  1
  Al  Al4  1  0.684138  0.833149  0.944506  1
  Al  Al5  1  0.315871  0.166427  0.056306  1
  Al  Al6  1  0.146879  0.832111  0.560920  1
  Al  Al7  1  0.853399  0.167955  0.438055  1
  Al  Al8  1  0.479656  0.166589  0.558642  1
  Al  Al9  1  0.520507  0.833529  0.440775  1
  Al  Al10  1  0.218408  0.165415  0.327300  1
  Al  Al11  1  0.781791  0.835087  0.671700  1
  Al  Al12  1  0.437031  0.506006  0.671448  1
  Al  Al13  1  0.563386  0.493316  0.327461  1
  Al  Al14  1  0.109521  0.160329  0.670143  1
  Al  Al15  1  0.891139  0.839761  0.328830  1
  Al  Al16  1  0.353532  0.499251  0.944751  1
  Al  Al17  1  0.645605  0.501481  0.056825  1
  Al  Al18  1  0.015123  0.168730  0.953110  1
  Al  Al19  1  0.983693  0.831099  0.048713  1
  Al  Al20  1  0.186765  0.499366  0.440750  1
  Al  Al21  1  0.813569  0.500420  0.558385  1
  Al  Al22  1  0.733116  0.164645  0.183200  1
  Al  Al23  1  0.268178  0.832139  0.817093  1
  Al  Al24  1  0.058345  0.632404  0.816164  1
  Al  Al25  1  0.938447  0.369870  0.184302  1
  Al  Al26  1  0.856289  0.043737  0.816644  1
  Al  Al27  1  0.145909  0.957424  0.183782  1
  Pt  Pt28  1  0.119181  0.492345  0.638622  1
  Pt  Pt29  1  0.880502  0.509101  0.360330  1
  Pt  Pt30  1  0.656909  0.171274  0.000660  1
  Pt  Pt31  1  0.342301  0.828391  0.001264  1
  Pt  Pt32  1  0.537485  0.166798  0.360426  1
  Pt  Pt33  1  0.462695  0.832145  0.638540  1
  Pt  Pt34  1  0.779187  0.175267  0.637149  1
  Pt  Pt35  1  0.222428  0.824131  0.361683  1
  Pt  Pt36  1  0.999626  0.500442  0.001118  1
