# generated using pymatgen
data_TlCd2Ir4PbO14
_symmetry_space_group_name_H-M   'P 1'
_cell_length_a   7.31011591
_cell_length_b   7.31011501
_cell_length_c   7.32189807
_cell_angle_alpha   59.66635517
_cell_angle_beta   59.66636366
_cell_angle_gamma   59.80152023
_symmetry_Int_Tables_number   1
_chemical_formula_structural   TlCd2Ir4PbO14
_chemical_formula_sum   'Tl1 Cd2 Ir4 Pb1 O14'
_cell_volume   274.85235300
_cell_formula_units_Z   1
loop_
 _symmetry_equiv_pos_site_id
 _symmetry_equiv_pos_as_xyz
  1  'x, y, z'
loop_
 _atom_site_type_symbol
 _atom_site_label
 _atom_site_symmetry_multiplicity
 _atom_site_fract_x
 _atom_site_fract_y
 _atom_site_fract_z
 _atom_site_occupancy
  Tl  Tl0  1  0.125000  0.125000  0.625000  1
  Cd  Cd1  1  0.625000  0.125000  0.125000  1
  Cd  Cd2  1  0.125000  0.625000  0.125000  1
  Ir  Ir3  1  0.125000  0.625000  0.625000  1
  Ir  Ir4  1  0.625000  0.125000  0.625000  1
  Ir  Ir5  1  0.625000  0.625000  0.125000  1
  Ir  Ir6  1  0.625000  0.625000  0.625000  1
  Pb  Pb7  1  0.125000  0.125000  0.125000  1
  O  O8  1  0.696145  0.696145  0.303594  1
  O  O9  1  0.295931  0.295931  0.706369  1
  O  O10  1  0.707835  0.299090  0.690736  1
  O  O11  1  0.298218  0.709662  0.300401  1
  O  O12  1  0.299090  0.707835  0.690736  1
  O  O13  1  0.709662  0.298218  0.300401  1
  O  O14  1  0.553855  0.553855  0.946406  1
  O  O15  1  0.954069  0.954069  0.543631  1
  O  O16  1  0.542165  0.950910  0.559264  1
  O  O17  1  0.951782  0.540338  0.949599  1
  O  O18  1  0.950910  0.542165  0.559264  1
  O  O19  1  0.540338  0.951782  0.949599  1
  O  O20  1  0.260303  0.260303  0.240868  1
  O  O21  1  0.989697  0.989697  0.009132  1
