# generated using pymatgen
data_Sc4Fe9Co(P6Ir5)2
_symmetry_space_group_name_H-M   'P 1'
_cell_length_a   3.76730400
_cell_length_b   10.31953092
_cell_length_c   12.17882083
_cell_angle_alpha   89.83679588
_cell_angle_beta   90.00000000
_cell_angle_gamma   90.00000000
_symmetry_Int_Tables_number   1
_chemical_formula_structural   Sc4Fe9Co(P6Ir5)2
_chemical_formula_sum   'Sc4 Fe9 Co1 P12 Ir10'
_cell_volume   473.47178391
_cell_formula_units_Z   1
loop_
 _symmetry_equiv_pos_site_id
 _symmetry_equiv_pos_as_xyz
  1  'x, y, z'
loop_
 _atom_site_type_symbol
 _atom_site_label
 _atom_site_symmetry_multiplicity
 _atom_site_fract_x
 _atom_site_fract_y
 _atom_site_fract_z
 _atom_site_occupancy
  Sc  Sc0  1  0.250000  0.584257  0.715785  1
  Sc  Sc1  1  0.250000  0.914568  0.215112  1
  Sc  Sc2  1  0.750000  0.426093  0.287896  1
  Sc  Sc3  1  0.750000  0.074360  0.787521  1
  Fe  Fe4  1  0.750000  0.774015  0.828441  1
  Fe  Fe5  1  0.750000  0.725257  0.328132  1
  Fe  Fe6  1  0.250000  0.872602  0.695706  1
  Fe  Fe7  1  0.250000  0.627298  0.196090  1
  Fe  Fe8  1  0.750000  0.116131  0.303034  1
  Fe  Fe9  1  0.750000  0.381405  0.802396  1
  Fe  Fe10  1  0.250000  0.458047  0.936621  1
  Fe  Fe11  1  0.750000  0.542445  0.064438  1
  Fe  Fe12  1  0.750000  0.958555  0.564296  1
  Co  Co13  1  0.250000  0.041795  0.434991  1
  P  P14  1  0.250000  0.439830  0.114862  1
  P  P15  1  0.250000  0.060336  0.614801  1
  P  P16  1  0.750000  0.571156  0.885139  1
  P  P17  1  0.750000  0.925590  0.385815  1
  P  P18  1  0.250000  0.269666  0.862258  1
  P  P19  1  0.250000  0.231436  0.363202  1
  P  P20  1  0.750000  0.729876  0.147737  1
  P  P21  1  0.750000  0.770111  0.647758  1
  P  P22  1  0.250000  0.607108  0.372465  1
  P  P23  1  0.250000  0.893227  0.872437  1
  P  P24  1  0.750000  0.407552  0.623907  1
  P  P25  1  0.750000  0.092507  0.123598  1
  Ir  Ir26  1  0.250000  0.709287  0.983235  1
  Ir  Ir27  1  0.250000  0.790251  0.482777  1
  Ir  Ir28  1  0.750000  0.282500  0.009499  1
  Ir  Ir29  1  0.750000  0.221441  0.507095  1
  Ir  Ir30  1  0.250000  0.414986  0.470651  1
  Ir  Ir31  1  0.250000  0.086567  0.970933  1
  Ir  Ir32  1  0.750000  0.598434  0.526053  1
  Ir  Ir33  1  0.750000  0.901906  0.025398  1
  Ir  Ir34  1  0.250000  0.229550  0.175512  1
  Ir  Ir35  1  0.250000  0.269859  0.674407  1
