# generated using pymatgen
data_Y2Co9Si6AsRu3
_symmetry_space_group_name_H-M   'P 1'
_cell_length_a   3.74429500
_cell_length_b   9.19708086
_cell_length_c   9.18326425
_cell_angle_alpha   119.81675936
_cell_angle_beta   90.00000000
_cell_angle_gamma   90.00000000
_symmetry_Int_Tables_number   1
_chemical_formula_structural   Y2Co9Si6AsRu3
_chemical_formula_sum   'Y2 Co9 Si6 As1 Ru3'
_cell_volume   274.37638080
_cell_formula_units_Z   1
loop_
 _symmetry_equiv_pos_site_id
 _symmetry_equiv_pos_as_xyz
  1  'x, y, z'
loop_
 _atom_site_type_symbol
 _atom_site_label
 _atom_site_symmetry_multiplicity
 _atom_site_fract_x
 _atom_site_fract_y
 _atom_site_fract_z
 _atom_site_occupancy
  Y  Y0  1  0.000000  0.667745  0.335071  1
  Y  Y1  1  0.500000  0.333360  0.661761  1
  Co  Co2  1  0.000000  0.573302  0.946563  1
  Co  Co3  1  0.000000  0.376126  0.431245  1
  Co  Co4  1  0.000000  0.052461  0.622313  1
  Co  Co5  1  0.000000  0.873237  0.155652  1
  Co  Co6  1  0.000000  0.283037  0.128084  1
  Co  Co7  1  0.000000  0.843751  0.717646  1
  Co  Co8  1  0.500000  0.948115  0.383696  1
  Co  Co9  1  0.500000  0.437607  0.054993  1
  Co  Co10  1  0.500000  0.616173  0.565417  1
  Si  Si11  1  0.000000  0.000144  0.000961  1
  Si  Si12  1  0.500000  0.710209  0.114098  1
  Si  Si13  1  0.500000  0.404795  0.292887  1
  Si  Si14  1  0.500000  0.884842  0.593851  1
  Si  Si15  1  0.000000  0.594181  0.704423  1
  Si  Si16  1  0.000000  0.109948  0.404816  1
  As  As17  1  0.000000  0.296795  0.885928  1
  Ru  Ru18  1  0.500000  0.783196  0.898162  1
  Ru  Ru19  1  0.500000  0.117787  0.220187  1
  Ru  Ru20  1  0.500000  0.093189  0.882247  1
