# generated using pymatgen
data_Tb2TmIn3HgPt2
_symmetry_space_group_name_H-M   'P 1'
_cell_length_a   7.78384897
_cell_length_b   7.80803696
_cell_length_c   3.90291400
_cell_angle_alpha   90.00000000
_cell_angle_beta   90.00000000
_cell_angle_gamma   119.95459588
_symmetry_Int_Tables_number   1
_chemical_formula_structural   Tb2TmIn3HgPt2
_chemical_formula_sum   'Tb2 Tm1 In3 Hg1 Pt2'
_cell_volume   205.52014236
_cell_formula_units_Z   1
loop_
 _symmetry_equiv_pos_site_id
 _symmetry_equiv_pos_as_xyz
  1  'x, y, z'
loop_
 _atom_site_type_symbol
 _atom_site_label
 _atom_site_symmetry_multiplicity
 _atom_site_fract_x
 _atom_site_fract_y
 _atom_site_fract_z
 _atom_site_occupancy
  Tb  Tb0  1  0.389163  0.411352  0.500000  1
  Tb  Tb1  1  0.588131  0.978202  0.500000  1
  Tm  Tm2  1  0.024575  0.612832  0.500000  1
  In  In3  1  0.000494  0.256141  0.000000  1
  In  In4  1  0.744235  0.744009  0.000000  1
  In  In5  1  0.254981  0.998401  0.000000  1
  Hg  Hg6  1  0.669302  0.335204  0.000000  1
  Pt  Pt7  1  0.999936  0.998282  0.500000  1
  Pt  Pt8  1  0.329183  0.665576  0.000000  1
