# generated using pymatgen
data_NdMn2Ni2(AgO4)3
_symmetry_space_group_name_H-M   'P 1'
_cell_length_a   6.56712526
_cell_length_b   6.57914804
_cell_length_c   6.57914856
_cell_angle_alpha   110.21154220
_cell_angle_beta   109.26156619
_cell_angle_gamma   109.01586246
_symmetry_Int_Tables_number   1
_chemical_formula_structural   NdMn2Ni2(AgO4)3
_chemical_formula_sum   'Nd1 Mn2 Ni2 Ag3 O12'
_cell_volume   218.59932274
_cell_formula_units_Z   1
loop_
 _symmetry_equiv_pos_site_id
 _symmetry_equiv_pos_as_xyz
  1  'x, y, z'
loop_
 _atom_site_type_symbol
 _atom_site_label
 _atom_site_symmetry_multiplicity
 _atom_site_fract_x
 _atom_site_fract_y
 _atom_site_fract_z
 _atom_site_occupancy
  Nd  Nd0  1  0.000000  0.000000  0.000000  1
  Mn  Mn1  1  0.500000  0.000000  0.000000  1
  Mn  Mn2  1  0.500000  0.500000  0.500000  1
  Ni  Ni3  1  0.000000  0.000000  0.500000  1
  Ni  Ni4  1  0.000000  0.500000  0.000000  1
  Ag  Ag5  1  0.000000  0.500000  0.500000  1
  Ag  Ag6  1  0.500000  0.000000  0.500000  1
  Ag  Ag7  1  0.500000  0.500000  0.000000  1
  O  O8  1  0.306904  0.117340  0.831784  1
  O  O9  1  0.693096  0.882660  0.168216  1
  O  O10  1  0.693096  0.524880  0.810434  1
  O  O11  1  0.472752  0.177281  0.295471  1
  O  O12  1  0.189228  0.307160  0.473672  1
  O  O13  1  0.810772  0.284444  0.117933  1
  O  O14  1  0.880958  0.174783  0.706176  1
  O  O15  1  0.810772  0.692840  0.526328  1
  O  O16  1  0.306904  0.475120  0.189566  1
  O  O17  1  0.527248  0.822719  0.704529  1
  O  O18  1  0.189228  0.715556  0.882067  1
  O  O19  1  0.119042  0.825217  0.293824  1
