# generated using pymatgen
data_LiTm(ThSi)4
_symmetry_space_group_name_H-M   'P 1'
_cell_length_a   7.53239300
_cell_length_b   7.53239300
_cell_length_c   4.24848300
_cell_angle_alpha   90.00000000
_cell_angle_beta   90.00000000
_cell_angle_gamma   90.00000000
_symmetry_Int_Tables_number   1
_chemical_formula_structural   LiTm(ThSi)4
_chemical_formula_sum   'Li1 Tm1 Th4 Si4'
_cell_volume   241.04594336
_cell_formula_units_Z   1
loop_
 _symmetry_equiv_pos_site_id
 _symmetry_equiv_pos_as_xyz
  1  'x, y, z'
loop_
 _atom_site_type_symbol
 _atom_site_label
 _atom_site_symmetry_multiplicity
 _atom_site_fract_x
 _atom_site_fract_y
 _atom_site_fract_z
 _atom_site_occupancy
  Li  Li0  1  0.000000  0.000000  0.000000  1
  Tm  Tm1  1  0.500000  0.500000  0.000000  1
  Th  Th2  1  0.689614  0.169476  0.500000  1
  Th  Th3  1  0.310386  0.830524  0.500000  1
  Th  Th4  1  0.169476  0.310386  0.500000  1
  Th  Th5  1  0.830524  0.689614  0.500000  1
  Si  Si6  1  0.123060  0.606507  0.000000  1
  Si  Si7  1  0.876940  0.393493  0.000000  1
  Si  Si8  1  0.606507  0.876940  0.000000  1
  Si  Si9  1  0.393493  0.123060  0.000000  1
