# generated using pymatgen
data_Y7U(Si4W3)4
_symmetry_space_group_name_H-M   'P 1'
_cell_length_a   6.77415268
_cell_length_b   6.93065492
_cell_length_c   12.94753458
_cell_angle_alpha   89.96700859
_cell_angle_beta   90.08106165
_cell_angle_gamma   90.23208591
_symmetry_Int_Tables_number   1
_chemical_formula_structural   Y7U(Si4W3)4
_chemical_formula_sum   'Y7 U1 Si16 W12'
_cell_volume   607.87218058
_cell_formula_units_Z   1
loop_
 _symmetry_equiv_pos_site_id
 _symmetry_equiv_pos_as_xyz
  1  'x, y, z'
loop_
 _atom_site_type_symbol
 _atom_site_label
 _atom_site_symmetry_multiplicity
 _atom_site_fract_x
 _atom_site_fract_y
 _atom_site_fract_z
 _atom_site_occupancy
  Y  Y0  1  0.496612  0.667873  0.592859  1
  Y  Y1  1  0.994885  0.833715  0.906633  1
  Y  Y2  1  0.503230  0.333467  0.093794  1
  Y  Y3  1  0.004499  0.165079  0.407143  1
  Y  Y4  1  0.502465  0.331974  0.405910  1
  Y  Y5  1  0.002939  0.168040  0.094045  1
  Y  Y6  1  0.495675  0.667723  0.906633  1
  U  U7  1  0.993390  0.829273  0.598136  1
  Si  Si8  1  0.661537  0.956837  0.454746  1
  Si  Si9  1  0.160788  0.542787  0.045784  1
  Si  Si10  1  0.338460  0.042907  0.953146  1
  Si  Si11  1  0.839570  0.454747  0.545825  1
  Si  Si12  1  0.336375  0.042210  0.545061  1
  Si  Si13  1  0.839832  0.457848  0.953281  1
  Si  Si14  1  0.660194  0.957675  0.045891  1
  Si  Si15  1  0.162195  0.544228  0.455736  1
  Si  Si16  1  0.464484  0.368985  0.748060  1
  Si  Si17  1  0.963424  0.129833  0.749759  1
  Si  Si18  1  0.537010  0.630037  0.250170  1
  Si  Si19  1  0.037220  0.870398  0.249701  1
  Si  Si20  1  0.696257  0.868220  0.750833  1
  Si  Si21  1  0.197567  0.632878  0.749953  1
  Si  Si22  1  0.303123  0.132622  0.249951  1
  Si  Si23  1  0.803024  0.367966  0.250812  1
  W  W24  1  0.671489  0.156788  0.625426  1
  W  W25  1  0.166813  0.335448  0.873981  1
  W  W26  1  0.332852  0.836203  0.125012  1
  W  W27  1  0.835303  0.667766  0.377084  1
  W  W28  1  0.334071  0.836411  0.374355  1
  W  W29  1  0.834053  0.665020  0.125481  1
  W  W30  1  0.665221  0.165547  0.874014  1
  W  W31  1  0.169212  0.337997  0.625200  1
  W  W32  1  0.835402  0.503620  0.747082  1
  W  W33  1  0.330566  0.998529  0.747134  1
  W  W34  1  0.164468  0.502663  0.251299  1
  W  W35  1  0.665796  0.996687  0.250066  1
