# generated using pymatgen
data_HfZr9Sn5Sb2
_symmetry_space_group_name_H-M   'P 1'
_cell_length_a   5.93184305
_cell_length_b   8.68734665
_cell_length_c   8.68091826
_cell_angle_alpha   119.99960251
_cell_angle_beta   89.91239941
_cell_angle_gamma   90.13724326
_symmetry_Int_Tables_number   1
_chemical_formula_structural   HfZr9Sn5Sb2
_chemical_formula_sum   'Hf1 Zr9 Sn5 Sb2'
_cell_volume   387.41244135
_cell_formula_units_Z   1
loop_
 _symmetry_equiv_pos_site_id
 _symmetry_equiv_pos_as_xyz
  1  'x, y, z'
loop_
 _atom_site_type_symbol
 _atom_site_label
 _atom_site_symmetry_multiplicity
 _atom_site_fract_x
 _atom_site_fract_y
 _atom_site_fract_z
 _atom_site_occupancy
  Hf  Hf0  1  0.499653  0.334218  0.667688  1
  Zr  Zr1  1  0.499998  0.666528  0.332032  1
  Zr  Zr2  1  0.000746  0.666558  0.332886  1
  Zr  Zr3  1  0.000614  0.333863  0.667307  1
  Zr  Zr4  1  0.771773  0.267174  0.999704  1
  Zr  Zr5  1  0.771703  0.733914  0.734577  1
  Zr  Zr6  1  0.771775  0.999944  0.265732  1
  Zr  Zr7  1  0.230064  0.732018  0.999763  1
  Zr  Zr8  1  0.227290  0.266234  0.266713  1
  Zr  Zr9  1  0.227288  0.999994  0.733546  1
  Sn  Sn10  1  0.742246  0.388565  0.389368  1
  Sn  Sn11  1  0.742297  0.000670  0.611377  1
  Sn  Sn12  1  0.257039  0.386405  0.999279  1
  Sn  Sn13  1  0.256838  0.611135  0.611144  1
  Sn  Sn14  1  0.256754  0.001368  0.389585  1
  Sb  Sb15  1  0.744992  0.610695  0.999277  1
  Sb  Sb16  1  0.498928  0.000722  0.000023  1
