# generated using pymatgen
data_Dy12In2Tc2NiRh
_symmetry_space_group_name_H-M   'P 1'
_cell_length_a   8.50714587
_cell_length_b   8.50661025
_cell_length_c   8.50714501
_cell_angle_alpha   113.24297372
_cell_angle_beta   111.57578519
_cell_angle_gamma   103.74947916
_symmetry_Int_Tables_number   1
_chemical_formula_structural   Dy12In2Tc2NiRh
_chemical_formula_sum   'Dy12 In2 Tc2 Ni1 Rh1'
_cell_volume   470.29408252
_cell_formula_units_Z   1
loop_
 _symmetry_equiv_pos_site_id
 _symmetry_equiv_pos_as_xyz
  1  'x, y, z'
loop_
 _atom_site_type_symbol
 _atom_site_label
 _atom_site_symmetry_multiplicity
 _atom_site_fract_x
 _atom_site_fract_y
 _atom_site_fract_z
 _atom_site_occupancy
  Dy  Dy0  1  0.439730  0.240815  0.198957  1
  Dy  Dy1  1  0.559138  0.758452  0.800732  1
  Dy  Dy2  1  0.041859  0.240815  0.801082  1
  Dy  Dy3  1  0.957720  0.758452  0.199316  1
  Dy  Dy4  1  0.184622  0.285011  0.470253  1
  Dy  Dy5  1  0.814748  0.714413  0.529811  1
  Dy  Dy6  1  0.184601  0.714413  0.899664  1
  Dy  Dy7  1  0.814758  0.285011  0.100388  1
  Dy  Dy8  1  0.333099  0.650319  0.317221  1
  Dy  Dy9  1  0.667025  0.350270  0.683246  1
  Dy  Dy10  1  0.333091  0.015883  0.682792  1
  Dy  Dy11  1  0.667014  0.983852  0.316837  1
  In  In12  1  0.498859  0.498786  0.999926  1
  In  In13  1  0.000578  0.000559  0.999981  1
  Tc  Tc14  1  0.319460  0.998807  0.320737  1
  Tc  Tc15  1  0.678070  0.998807  0.679347  1
  Ni  Ni16  1  0.123667  0.623369  0.499701  1
  Rh  Rh17  1  0.881957  0.381966  0.500009  1
