# generated using pymatgen
data_Sc8B24Ir3Rh
_symmetry_space_group_name_H-M   'P 1'
_cell_length_a   3.46921800
_cell_length_b   8.91853253
_cell_length_c   11.21600966
_cell_angle_alpha   90.03939649
_cell_angle_beta   90.00000000
_cell_angle_gamma   90.00000000
_symmetry_Int_Tables_number   1
_chemical_formula_structural   Sc8B24Ir3Rh
_chemical_formula_sum   'Sc8 B24 Ir3 Rh1'
_cell_volume   347.02699833
_cell_formula_units_Z   1
loop_
 _symmetry_equiv_pos_site_id
 _symmetry_equiv_pos_as_xyz
  1  'x, y, z'
loop_
 _atom_site_type_symbol
 _atom_site_label
 _atom_site_symmetry_multiplicity
 _atom_site_fract_x
 _atom_site_fract_y
 _atom_site_fract_z
 _atom_site_occupancy
  Sc  Sc0  1  0.000000  0.944470  0.374428  1
  Sc  Sc1  1  0.000000  0.055143  0.625302  1
  Sc  Sc2  1  0.000000  0.555123  0.874633  1
  Sc  Sc3  1  0.000000  0.181618  0.914376  1
  Sc  Sc4  1  0.000000  0.818274  0.086200  1
  Sc  Sc5  1  0.000000  0.681360  0.585096  1
  Sc  Sc6  1  0.000000  0.319107  0.414246  1
  Sc  Sc7  1  0.000000  0.445065  0.125799  1
  B  B8  1  0.500000  0.368391  0.819158  1
  B  B9  1  0.500000  0.980083  0.212912  1
  B  B10  1  0.500000  0.554254  0.436479  1
  B  B11  1  0.500000  0.296617  0.237805  1
  B  B12  1  0.500000  0.203492  0.737754  1
  B  B13  1  0.500000  0.102335  0.472242  1
  B  B14  1  0.500000  0.796404  0.262043  1
  B  B15  1  0.500000  0.445817  0.563403  1
  B  B16  1  0.500000  0.247014  0.577923  1
  B  B17  1  0.500000  0.480504  0.287320  1
  B  B18  1  0.500000  0.703645  0.762252  1
  B  B19  1  0.500000  0.752873  0.421955  1
  B  B20  1  0.500000  0.519570  0.712807  1
  B  B21  1  0.500000  0.897449  0.527667  1
  B  B22  1  0.500000  0.054176  0.063661  1
  B  B23  1  0.500000  0.602536  0.027827  1
  B  B24  1  0.500000  0.746697  0.921998  1
  B  B25  1  0.500000  0.019747  0.787097  1
  B  B26  1  0.500000  0.397579  0.972336  1
  B  B27  1  0.500000  0.945754  0.936466  1
  B  B28  1  0.500000  0.631766  0.180929  1
  B  B29  1  0.500000  0.253378  0.078030  1
  B  B30  1  0.500000  0.868425  0.680782  1
  B  B31  1  0.500000  0.131522  0.319011  1
  Ir  Ir32  1  0.000000  0.141064  0.179802  1
  Ir  Ir33  1  0.000000  0.358591  0.680509  1
  Ir  Ir34  1  0.000000  0.859121  0.820013  1
  Rh  Rh35  1  0.000000  0.641034  0.319738  1
