# generated using pymatgen
data_CaPr4Sn3N
_symmetry_space_group_name_H-M   'P 1'
_cell_length_a   9.64697476
_cell_length_b   9.64697442
_cell_length_c   9.64697476
_cell_angle_alpha   128.93484893
_cell_angle_beta   128.93485298
_cell_angle_gamma   75.11542529
_symmetry_Int_Tables_number   1
_chemical_formula_structural   CaPr4Sn3N
_chemical_formula_sum   'Ca2 Pr8 Sn6 N2'
_cell_volume   528.89236530
_cell_formula_units_Z   2
loop_
 _symmetry_equiv_pos_site_id
 _symmetry_equiv_pos_as_xyz
  1  'x, y, z'
loop_
 _atom_site_type_symbol
 _atom_site_label
 _atom_site_symmetry_multiplicity
 _atom_site_fract_x
 _atom_site_fract_y
 _atom_site_fract_z
 _atom_site_occupancy
  Ca  Ca0  1  0.500000  0.500000  0.000000  1
  Ca  Ca1  1  0.000000  0.000000  0.000000  1
  Pr  Pr2  1  0.500998  0.000998  0.810558  1
  Pr  Pr3  1  0.190440  0.690440  0.189442  1
  Pr  Pr4  1  0.000998  0.190440  0.500000  1
  Pr  Pr5  1  0.690440  0.500998  0.500000  1
  Pr  Pr6  1  0.499002  0.999002  0.189442  1
  Pr  Pr7  1  0.809560  0.309560  0.810558  1
  Pr  Pr8  1  0.999002  0.809560  0.500000  1
  Pr  Pr9  1  0.309560  0.499002  0.500000  1
  Sn  Sn10  1  0.250000  0.250000  0.000000  1
  Sn  Sn11  1  0.750000  0.750000  0.000000  1
  Sn  Sn12  1  0.872097  0.372097  0.244195  1
  Sn  Sn13  1  0.127903  0.627903  0.755805  1
  Sn  Sn14  1  0.372097  0.127903  0.500000  1
  Sn  Sn15  1  0.627903  0.872097  0.500000  1
  N  N16  1  0.250000  0.750000  0.500000  1
  N  N17  1  0.750000  0.250000  0.500000  1
