# generated using pymatgen
data_PrSiNiN
_symmetry_space_group_name_H-M   'P 1'
_cell_length_a   3.85961300
_cell_length_b   3.85961300
_cell_length_c   8.23621700
_cell_angle_alpha   90.00000000
_cell_angle_beta   90.00000000
_cell_angle_gamma   90.00000000
_symmetry_Int_Tables_number   1
_chemical_formula_structural   PrSiNiN
_chemical_formula_sum   'Pr2 Si2 Ni2 N2'
_cell_volume   122.69173320
_cell_formula_units_Z   2
loop_
 _symmetry_equiv_pos_site_id
 _symmetry_equiv_pos_as_xyz
  1  'x, y, z'
loop_
 _atom_site_type_symbol
 _atom_site_label
 _atom_site_symmetry_multiplicity
 _atom_site_fract_x
 _atom_site_fract_y
 _atom_site_fract_z
 _atom_site_occupancy
  Pr  Pr0  1  0.500000  0.000000  0.161089  1
  Pr  Pr1  1  0.000000  0.500000  0.838911  1
  Si  Si2  1  0.000000  0.500000  0.347775  1
  Si  Si3  1  0.500000  0.000000  0.652225  1
  Ni  Ni4  1  0.000000  0.000000  0.500000  1
  Ni  Ni5  1  0.500000  0.500000  0.500000  1
  N  N6  1  0.000000  0.500000  0.133651  1
  N  N7  1  0.500000  0.000000  0.866349  1
