# generated using pymatgen
data_NaTcNiAs2
_symmetry_space_group_name_H-M   'P 1'
_cell_length_a   6.74057113
_cell_length_b   6.74057165
_cell_length_c   6.74057135
_cell_angle_alpha   146.02658591
_cell_angle_beta   146.02659899
_cell_angle_gamma   48.80726807
_symmetry_Int_Tables_number   1
_chemical_formula_structural   NaTcNiAs2
_chemical_formula_sum   'Na1 Tc1 Ni1 As2'
_cell_volume   95.21739256
_cell_formula_units_Z   1
loop_
 _symmetry_equiv_pos_site_id
 _symmetry_equiv_pos_as_xyz
  1  'x, y, z'
loop_
 _atom_site_type_symbol
 _atom_site_label
 _atom_site_symmetry_multiplicity
 _atom_site_fract_x
 _atom_site_fract_y
 _atom_site_fract_z
 _atom_site_occupancy
  Na  Na0  1  0.000000  0.000000  0.000000  1
  Tc  Tc1  1  0.250000  0.750000  0.500000  1
  Ni  Ni2  1  0.750000  0.250000  0.500000  1
  As  As3  1  0.636702  0.636702  0.000000  1
  As  As4  1  0.363298  0.363298  0.000000  1
