# generated using pymatgen
data_Ho16Tm4Ir5Rh7
_symmetry_space_group_name_H-M   'P 1'
_cell_length_a   10.81667281
_cell_length_b   10.81667281
_cell_length_c   6.33725903
_cell_angle_alpha   89.99257733
_cell_angle_beta   89.99257733
_cell_angle_gamma   90.08221960
_symmetry_Int_Tables_number   1
_chemical_formula_structural   Ho16Tm4Ir5Rh7
_chemical_formula_sum   'Ho16 Tm4 Ir5 Rh7'
_cell_volume   741.46113239
_cell_formula_units_Z   1
loop_
 _symmetry_equiv_pos_site_id
 _symmetry_equiv_pos_as_xyz
  1  'x, y, z'
loop_
 _atom_site_type_symbol
 _atom_site_label
 _atom_site_symmetry_multiplicity
 _atom_site_fract_x
 _atom_site_fract_y
 _atom_site_fract_z
 _atom_site_occupancy
  Ho  Ho0  1  0.290381  0.087859  0.377306  1
  Ho  Ho1  1  0.290280  0.910445  0.878606  1
  Ho  Ho2  1  0.709038  0.089242  0.878165  1
  Ho  Ho3  1  0.708894  0.910707  0.377597  1
  Ho  Ho4  1  0.587039  0.789664  0.878649  1
  Ho  Ho5  1  0.586886  0.210309  0.378531  1
  Ho  Ho6  1  0.411594  0.789885  0.378541  1
  Ho  Ho7  1  0.412932  0.210273  0.878454  1
  Ho  Ho8  1  0.210336  0.412961  0.621351  1
  Ho  Ho9  1  0.210115  0.588406  0.121459  1
  Ho  Ho10  1  0.789691  0.413114  0.121469  1
  Ho  Ho11  1  0.789727  0.587068  0.621546  1
  Ho  Ho12  1  0.912141  0.709619  0.122694  1
  Ho  Ho13  1  0.910758  0.290962  0.621835  1
  Ho  Ho14  1  0.089555  0.709720  0.621394  1
  Ho  Ho15  1  0.089293  0.291106  0.122403  1
  Tm  Tm16  1  0.000207  0.999768  0.500112  1
  Tm  Tm17  1  0.000232  0.999793  0.999888  1
  Tm  Tm18  1  0.499920  0.499856  0.000206  1
  Tm  Tm19  1  0.500144  0.500080  0.499794  1
  Ir  Ir20  1  0.152369  0.847631  0.250000  1
  Ir  Ir21  1  0.653664  0.346336  0.750000  1
  Ir  Ir22  1  0.653712  0.653573  0.249906  1
  Ir  Ir23  1  0.346427  0.346288  0.250094  1
  Ir  Ir24  1  0.346968  0.653032  0.750000  1
  Rh  Rh25  1  0.847623  0.152377  0.250000  1
  Rh  Rh26  1  0.847169  0.847566  0.749856  1
  Rh  Rh27  1  0.152434  0.152831  0.750144  1
  Rh  Rh28  1  0.500506  0.000211  0.122736  1
  Rh  Rh29  1  0.500377  0.000200  0.623152  1
  Rh  Rh30  1  0.999800  0.499623  0.876848  1
  Rh  Rh31  1  0.999789  0.499494  0.377264  1
