# generated using pymatgen
data_Hf4Ga2Ir3Rh7
_symmetry_space_group_name_H-M   'P 1'
_cell_length_a   4.09174500
_cell_length_b   5.54571878
_cell_length_c   10.98476355
_cell_angle_alpha   90.06081499
_cell_angle_beta   90.00000000
_cell_angle_gamma   90.00000000
_symmetry_Int_Tables_number   1
_chemical_formula_structural   Hf4Ga2Ir3Rh7
_chemical_formula_sum   'Hf4 Ga2 Ir3 Rh7'
_cell_volume   249.26245710
_cell_formula_units_Z   1
loop_
 _symmetry_equiv_pos_site_id
 _symmetry_equiv_pos_as_xyz
  1  'x, y, z'
loop_
 _atom_site_type_symbol
 _atom_site_label
 _atom_site_symmetry_multiplicity
 _atom_site_fract_x
 _atom_site_fract_y
 _atom_site_fract_z
 _atom_site_occupancy
  Hf  Hf0  1  0.500000  0.188002  0.638121  1
  Hf  Hf1  1  0.500000  0.811014  0.362507  1
  Hf  Hf2  1  0.500000  0.688030  0.861194  1
  Hf  Hf3  1  0.500000  0.311149  0.137664  1
  Ga  Ga4  1  0.000000  0.500408  0.500754  1
  Ga  Ga5  1  0.000000  0.000616  0.000093  1
  Ir  Ir6  1  0.000000  0.439059  0.748243  1
  Ir  Ir7  1  0.000000  0.559517  0.250709  1
  Ir  Ir8  1  0.000000  0.059169  0.249052  1
  Rh  Rh9  1  0.500000  0.193409  0.889589  1
  Rh  Rh10  1  0.500000  0.806469  0.111084  1
  Rh  Rh11  1  0.500000  0.693026  0.610953  1
  Rh  Rh12  1  0.500000  0.306469  0.388433  1
  Rh  Rh13  1  0.000000  0.001877  0.500189  1
  Rh  Rh14  1  0.000000  0.502085  0.998967  1
  Rh  Rh15  1  0.000000  0.939702  0.752448  1
