# generated using pymatgen
data_Ho3In4CoRh
_symmetry_space_group_name_H-M   'P 1'
_cell_length_a   7.91468000
_cell_length_b   7.91468005
_cell_length_c   3.63764100
_cell_angle_alpha   90.00000000
_cell_angle_beta   90.00000000
_cell_angle_gamma   119.99999979
_symmetry_Int_Tables_number   1
_chemical_formula_structural   Ho3In4CoRh
_chemical_formula_sum   'Ho3 In4 Co1 Rh1'
_cell_volume   197.34093998
_cell_formula_units_Z   1
loop_
 _symmetry_equiv_pos_site_id
 _symmetry_equiv_pos_as_xyz
  1  'x, y, z'
loop_
 _atom_site_type_symbol
 _atom_site_label
 _atom_site_symmetry_multiplicity
 _atom_site_fract_x
 _atom_site_fract_y
 _atom_site_fract_z
 _atom_site_occupancy
  Ho  Ho0  1  0.702528  0.957593  0.500000  1
  Ho  Ho1  1  0.255066  0.297472  0.500000  1
  Ho  Ho2  1  0.042407  0.744934  0.500000  1
  In  In3  1  0.920823  0.338028  0.000000  1
  In  In4  1  0.417206  0.079177  0.000000  1
  In  In5  1  0.661972  0.582794  0.000000  1
  In  In6  1  0.333333  0.666667  0.000000  1
  Co  Co7  1  0.666667  0.333333  0.500000  1
  Rh  Rh8  1  0.000000  0.000000  0.000000  1
