# generated using pymatgen
data_Sc12Ga8CoNi3C4
_symmetry_space_group_name_H-M   'P 1'
_cell_length_a   8.51944039
_cell_length_b   8.51740633
_cell_length_c   8.51740600
_cell_angle_alpha   60.00000129
_cell_angle_beta   60.00789891
_cell_angle_gamma   60.00789556
_symmetry_Int_Tables_number   1
_chemical_formula_structural   Sc12Ga8CoNi3C4
_chemical_formula_sum   'Sc12 Ga8 Co1 Ni3 C4'
_cell_volume   437.08169678
_cell_formula_units_Z   1
loop_
 _symmetry_equiv_pos_site_id
 _symmetry_equiv_pos_as_xyz
  1  'x, y, z'
loop_
 _atom_site_type_symbol
 _atom_site_label
 _atom_site_symmetry_multiplicity
 _atom_site_fract_x
 _atom_site_fract_y
 _atom_site_fract_z
 _atom_site_occupancy
  Sc  Sc0  1  0.699290  0.299678  0.701353  1
  Sc  Sc1  1  0.950200  0.549977  0.549977  1
  Sc  Sc2  1  0.550710  0.950322  0.950322  1
  Sc  Sc3  1  0.950200  0.549977  0.949848  1
  Sc  Sc4  1  0.550710  0.548647  0.950322  1
  Sc  Sc5  1  0.950200  0.949848  0.549977  1
  Sc  Sc6  1  0.699290  0.701353  0.299678  1
  Sc  Sc7  1  0.299800  0.700023  0.700023  1
  Sc  Sc8  1  0.699290  0.299678  0.299678  1
  Sc  Sc9  1  0.299800  0.300152  0.700023  1
  Sc  Sc10  1  0.550710  0.950322  0.548647  1
  Sc  Sc11  1  0.299800  0.700023  0.300152  1
  Ga  Ga12  1  0.331875  0.329901  0.329901  1
  Ga  Ga13  1  0.242692  0.919103  0.919103  1
  Ga  Ga14  1  0.918125  0.241675  0.920099  1
  Ga  Ga15  1  0.918125  0.920099  0.241675  1
  Ga  Ga16  1  0.331875  0.008325  0.329901  1
  Ga  Ga17  1  0.331875  0.329901  0.008325  1
  Ga  Ga18  1  0.007308  0.330897  0.330897  1
  Ga  Ga19  1  0.918125  0.920099  0.920099  1
  Co  Co20  1  0.625000  0.125000  0.125000  1
  Ni  Ni21  1  0.125000  0.125000  0.125000  1
  Ni  Ni22  1  0.125000  0.625000  0.125000  1
  Ni  Ni23  1  0.125000  0.125000  0.625000  1
  C  C24  1  0.625000  0.625000  0.625000  1
  C  C25  1  0.125000  0.625000  0.625000  1
  C  C26  1  0.625000  0.125000  0.625000  1
  C  C27  1  0.625000  0.625000  0.125000  1
