# generated using pymatgen
data_HoTm7(RuI4)2
_symmetry_space_group_name_H-M   'P 1'
_cell_length_a   11.26098527
_cell_length_b   11.25718702
_cell_length_c   6.11614300
_cell_angle_alpha   89.22240638
_cell_angle_beta   89.25135730
_cell_angle_gamma   88.68066117
_symmetry_Int_Tables_number   1
_chemical_formula_structural   HoTm7(RuI4)2
_chemical_formula_sum   'Ho1 Tm7 Ru2 I8'
_cell_volume   774.98520076
_cell_formula_units_Z   1
loop_
 _symmetry_equiv_pos_site_id
 _symmetry_equiv_pos_as_xyz
  1  'x, y, z'
loop_
 _atom_site_type_symbol
 _atom_site_label
 _atom_site_symmetry_multiplicity
 _atom_site_fract_x
 _atom_site_fract_y
 _atom_site_fract_z
 _atom_site_occupancy
  Ho  Ho0  1  0.198289  0.916465  0.995956  1
  Tm  Tm1  1  0.804051  0.082577  0.004302  1
  Tm  Tm2  1  0.082160  0.804200  0.504376  1
  Tm  Tm3  1  0.917319  0.195892  0.495665  1
  Tm  Tm4  1  0.805761  0.922221  0.506985  1
  Tm  Tm5  1  0.193817  0.078080  0.493052  1
  Tm  Tm6  1  0.077642  0.194240  0.993055  1
  Tm  Tm7  1  0.921883  0.805967  0.007016  1
  Ru  Ru8  1  0.000011  0.999835  0.250089  1
  Ru  Ru9  1  0.999497  0.000371  0.749963  1
  I  I10  1  0.356742  0.848483  0.511977  1
  I  I11  1  0.643147  0.151550  0.487590  1
  I  I12  1  0.151159  0.642574  0.987595  1
  I  I13  1  0.848451  0.356877  0.012369  1
  I  I14  1  0.352120  0.145707  0.995772  1
  I  I15  1  0.647945  0.854978  0.004237  1
  I  I16  1  0.855025  0.648020  0.504241  1
  I  I17  1  0.144979  0.351965  0.495761  1
