# generated using pymatgen
data_Hf12Th8Si7Ge9
_symmetry_space_group_name_H-M   'P 1'
_cell_length_a   7.44843306
_cell_length_b   7.44429881
_cell_length_c   13.75696639
_cell_angle_alpha   90.05311560
_cell_angle_beta   89.93907332
_cell_angle_gamma   90.00021431
_symmetry_Int_Tables_number   1
_chemical_formula_structural   Hf12Th8Si7Ge9
_chemical_formula_sum   'Hf12 Th8 Si7 Ge9'
_cell_volume   762.80048464
_cell_formula_units_Z   1
loop_
 _symmetry_equiv_pos_site_id
 _symmetry_equiv_pos_as_xyz
  1  'x, y, z'
loop_
 _atom_site_type_symbol
 _atom_site_label
 _atom_site_symmetry_multiplicity
 _atom_site_fract_x
 _atom_site_fract_y
 _atom_site_fract_z
 _atom_site_occupancy
  Hf  Hf0  1  0.674918  0.327174  0.748347  1
  Hf  Hf1  1  0.326225  0.673810  0.250177  1
  Hf  Hf2  1  0.826058  0.825832  0.499946  1
  Hf  Hf3  1  0.170926  0.174295  0.000494  1
  Hf  Hf4  1  0.493730  0.339439  0.125083  1
  Hf  Hf5  1  0.507089  0.660220  0.623293  1
  Hf  Hf6  1  0.840663  0.006800  0.873197  1
  Hf  Hf7  1  0.160623  0.992392  0.373452  1
  Hf  Hf8  1  0.660653  0.507491  0.376742  1
  Hf  Hf9  1  0.335909  0.496762  0.875087  1
  Hf  Hf10  1  0.008490  0.838440  0.127115  1
  Hf  Hf11  1  0.992025  0.160552  0.626485  1
  Th  Th12  1  0.501815  0.159553  0.532525  1
  Th  Th13  1  0.498986  0.838814  0.033230  1
  Th  Th14  1  0.659996  0.998335  0.282585  1
  Th  Th15  1  0.338015  0.999621  0.780897  1
  Th  Th16  1  0.841827  0.498890  0.967749  1
  Th  Th17  1  0.159372  0.501805  0.467361  1
  Th  Th18  1  0.997970  0.659472  0.717294  1
  Th  Th19  1  0.002534  0.340834  0.218061  1
  Si  Si20  1  0.461175  0.790842  0.433310  1
  Si  Si21  1  0.708534  0.961115  0.683286  1
  Si  Si22  1  0.291430  0.038580  0.183269  1
  Si  Si23  1  0.790983  0.461533  0.566415  1
  Si  Si24  1  0.210459  0.537502  0.066805  1
  Si  Si25  1  0.961472  0.709114  0.316982  1
  Si  Si26  1  0.037993  0.291105  0.816588  1
  Ge  Ge27  1  0.802816  0.124866  0.070699  1
  Ge  Ge28  1  0.199873  0.873865  0.568699  1
  Ge  Ge29  1  0.626076  0.700372  0.819305  1
  Ge  Ge30  1  0.374242  0.299537  0.319485  1
  Ge  Ge31  1  0.873837  0.200146  0.430947  1
  Ge  Ge32  1  0.126441  0.801045  0.931229  1
  Ge  Ge33  1  0.701098  0.625889  0.181133  1
  Ge  Ge34  1  0.299446  0.373400  0.680525  1
  Ge  Ge35  1  0.536301  0.210558  0.932204  1
