# generated using pymatgen
data_CsRbUBr6
_symmetry_space_group_name_H-M   'P 1'
_cell_length_a   8.03402304
_cell_length_b   8.03402304
_cell_length_c   11.47572200
_cell_angle_alpha   90.00000000
_cell_angle_beta   90.00000000
_cell_angle_gamma   89.98915990
_symmetry_Int_Tables_number   1
_chemical_formula_structural   CsRbUBr6
_chemical_formula_sum   'Cs2 Rb2 U2 Br12'
_cell_volume   740.70650109
_cell_formula_units_Z   2
loop_
 _symmetry_equiv_pos_site_id
 _symmetry_equiv_pos_as_xyz
  1  'x, y, z'
loop_
 _atom_site_type_symbol
 _atom_site_label
 _atom_site_symmetry_multiplicity
 _atom_site_fract_x
 _atom_site_fract_y
 _atom_site_fract_z
 _atom_site_occupancy
  Cs  Cs0  1  0.500000  0.000000  0.750000  1
  Cs  Cs1  1  0.500000  0.000000  0.250000  1
  Rb  Rb2  1  0.000000  0.500000  0.250000  1
  Rb  Rb3  1  0.000000  0.500000  0.750000  1
  U  U4  1  0.000000  0.000000  0.000000  1
  U  U5  1  0.500000  0.500000  0.500000  1
  Br  Br6  1  0.789748  0.276323  0.000000  1
  Br  Br7  1  0.210252  0.723677  0.000000  1
  Br  Br8  1  0.500000  0.500000  0.256326  1
  Br  Br9  1  0.286280  0.226823  0.500000  1
  Br  Br10  1  0.273177  0.213720  0.000000  1
  Br  Br11  1  0.776323  0.289748  0.500000  1
  Br  Br12  1  0.000000  0.000000  0.243674  1
  Br  Br13  1  0.713720  0.773177  0.500000  1
  Br  Br14  1  0.223677  0.710252  0.500000  1
  Br  Br15  1  0.500000  0.500000  0.743674  1
  Br  Br16  1  0.726823  0.786280  0.000000  1
  Br  Br17  1  0.000000  0.000000  0.756326  1
