# generated using pymatgen
data_Dy2Er10Co4BiOs
_symmetry_space_group_name_H-M   'P 1'
_cell_length_a   8.25890607
_cell_length_b   8.25890540
_cell_length_c   8.25198706
_cell_angle_alpha   110.48275625
_cell_angle_beta   111.45731211
_cell_angle_gamma   106.55083749
_symmetry_Int_Tables_number   1
_chemical_formula_structural   Dy2Er10Co4BiOs
_chemical_formula_sum   'Dy2 Er10 Co4 Bi1 Os1'
_cell_volume   432.21927051
_cell_formula_units_Z   1
loop_
 _symmetry_equiv_pos_site_id
 _symmetry_equiv_pos_as_xyz
  1  'x, y, z'
loop_
 _atom_site_type_symbol
 _atom_site_label
 _atom_site_symmetry_multiplicity
 _atom_site_fract_x
 _atom_site_fract_y
 _atom_site_fract_z
 _atom_site_occupancy
  Dy  Dy0  1  0.281240  0.181009  0.462249  1
  Dy  Dy1  1  0.718760  0.818991  0.537751  1
  Er  Er2  1  0.280490  0.818328  0.098818  1
  Er  Er3  1  0.719510  0.181672  0.901182  1
  Er  Er4  1  0.620726  0.311090  0.308427  1
  Er  Er5  1  0.379274  0.688910  0.691573  1
  Er  Er6  1  0.002665  0.312299  0.691573  1
  Er  Er7  1  0.997335  0.687701  0.308427  1
  Er  Er8  1  0.214252  0.411643  0.196412  1
  Er  Er9  1  0.785748  0.588357  0.803588  1
  Er  Er10  1  0.215231  0.017840  0.803588  1
  Er  Er11  1  0.784769  0.982160  0.196412  1
  Co  Co12  1  0.999779  0.375717  0.375496  1
  Co  Co13  1  0.000221  0.624283  0.624504  1
  Co  Co14  1  0.388758  0.888758  0.500000  1
  Co  Co15  1  0.611242  0.111242  0.500000  1
  Bi  Bi16  1  0.500000  0.500000  0.000000  1
  Os  Os17  1  0.000000  0.000000  0.000000  1
