# generated using pymatgen
data_Na2Mn2Ni10As7
_symmetry_space_group_name_H-M   'P 1'
_cell_length_a   3.76337400
_cell_length_b   9.44111856
_cell_length_c   9.47224657
_cell_angle_alpha   119.76538635
_cell_angle_beta   90.00000000
_cell_angle_gamma   90.00000000
_symmetry_Int_Tables_number   1
_chemical_formula_structural   Na2Mn2Ni10As7
_chemical_formula_sum   'Na2 Mn2 Ni10 As7'
_cell_volume   292.15029984
_cell_formula_units_Z   1
loop_
 _symmetry_equiv_pos_site_id
 _symmetry_equiv_pos_as_xyz
  1  'x, y, z'
loop_
 _atom_site_type_symbol
 _atom_site_label
 _atom_site_symmetry_multiplicity
 _atom_site_fract_x
 _atom_site_fract_y
 _atom_site_fract_z
 _atom_site_occupancy
  Na  Na0  1  0.000000  0.669290  0.335977  1
  Na  Na1  1  0.500000  0.331890  0.666172  1
  Mn  Mn2  1  0.500000  0.781785  0.902405  1
  Mn  Mn3  1  0.500000  0.122261  0.215615  1
  Ni  Ni4  1  0.000000  0.567258  0.945967  1
  Ni  Ni5  1  0.000000  0.376297  0.430732  1
  Ni  Ni6  1  0.000000  0.053711  0.621942  1
  Ni  Ni7  1  0.500000  0.096404  0.879182  1
  Ni  Ni8  1  0.000000  0.876763  0.157425  1
  Ni  Ni9  1  0.000000  0.282502  0.122153  1
  Ni  Ni10  1  0.000000  0.842735  0.721226  1
  Ni  Ni11  1  0.500000  0.951243  0.381414  1
  Ni  Ni12  1  0.500000  0.426433  0.044764  1
  Ni  Ni13  1  0.500000  0.619407  0.570727  1
  As  As14  1  0.000000  0.002094  0.000104  1
  As  As15  1  0.500000  0.705222  0.118538  1
  As  As16  1  0.500000  0.413931  0.294910  1
  As  As17  1  0.500000  0.886205  0.593668  1
  As  As18  1  0.000000  0.585695  0.706626  1
  As  As19  1  0.000000  0.119858  0.412550  1
  As  As20  1  0.000000  0.289014  0.877904  1
