# generated using pymatgen
data_ErZrGa8Fe9
_symmetry_space_group_name_H-M   'P 1'
_cell_length_a   6.52421501
_cell_length_b   6.51909378
_cell_length_c   6.51747497
_cell_angle_alpha   83.54897785
_cell_angle_beta   96.37991899
_cell_angle_gamma   96.33234210
_symmetry_Int_Tables_number   1
_chemical_formula_structural   ErZrGa8Fe9
_chemical_formula_sum   'Er1 Zr1 Ga8 Fe9'
_cell_volume   272.39397343
_cell_formula_units_Z   1
loop_
 _symmetry_equiv_pos_site_id
 _symmetry_equiv_pos_as_xyz
  1  'x, y, z'
loop_
 _atom_site_type_symbol
 _atom_site_label
 _atom_site_symmetry_multiplicity
 _atom_site_fract_x
 _atom_site_fract_y
 _atom_site_fract_z
 _atom_site_occupancy
  Er  Er0  1  0.363245  0.636714  0.636771  1
  Zr  Zr1  1  0.626436  0.373388  0.373496  1
  Ga  Ga2  1  0.323254  0.319252  0.001040  1
  Ga  Ga3  1  0.680661  0.676710  0.000965  1
  Ga  Ga4  1  0.864492  0.135731  0.135742  1
  Ga  Ga5  1  0.323111  0.001175  0.319320  1
  Ga  Ga6  1  0.999111  0.676512  0.319335  1
  Ga  Ga7  1  0.680675  0.001064  0.676809  1
  Ga  Ga8  1  0.999161  0.319291  0.676465  1
  Ga  Ga9  1  0.129699  0.870570  0.870408  1
  Fe  Fe10  1  0.500702  0.998852  0.999192  1
  Fe  Fe11  1  0.000837  0.499368  0.998663  1
  Fe  Fe12  1  0.339637  0.660734  0.166070  1
  Fe  Fe13  1  0.168425  0.336880  0.337055  1
  Fe  Fe14  1  0.662936  0.831505  0.336712  1
  Fe  Fe15  1  0.001050  0.998878  0.499343  1
  Fe  Fe16  1  0.339702  0.165858  0.660883  1
  Fe  Fe17  1  0.833922  0.660741  0.660256  1
  Fe  Fe18  1  0.662946  0.336774  0.831472  1
