# generated using pymatgen
data_Rb12GeW3S16
_symmetry_space_group_name_H-M   'P 1'
_cell_length_a   9.56840200
_cell_length_b   9.66036787
_cell_length_c   11.23323600
_cell_angle_alpha   90.00000000
_cell_angle_beta   90.00000000
_cell_angle_gamma   89.83537854
_symmetry_Int_Tables_number   1
_chemical_formula_structural   Rb12GeW3S16
_chemical_formula_sum   'Rb12 Ge1 W3 S16'
_cell_volume   1038.33183282
_cell_formula_units_Z   1
loop_
 _symmetry_equiv_pos_site_id
 _symmetry_equiv_pos_as_xyz
  1  'x, y, z'
loop_
 _atom_site_type_symbol
 _atom_site_label
 _atom_site_symmetry_multiplicity
 _atom_site_fract_x
 _atom_site_fract_y
 _atom_site_fract_z
 _atom_site_occupancy
  Rb  Rb0  1  0.547074  0.715092  0.038642  1
  Rb  Rb1  1  0.055487  0.797398  0.465165  1
  Rb  Rb2  1  0.439166  0.281603  0.547489  1
  Rb  Rb3  1  0.959870  0.197249  0.947935  1
  Rb  Rb4  1  0.439166  0.281603  0.952511  1
  Rb  Rb5  1  0.959870  0.197249  0.552065  1
  Rb  Rb6  1  0.547074  0.715092  0.461358  1
  Rb  Rb7  1  0.055487  0.797398  0.034835  1
  Rb  Rb8  1  0.354153  0.079978  0.250000  1
  Rb  Rb9  1  0.855229  0.413727  0.250000  1
  Rb  Rb10  1  0.632649  0.925093  0.750000  1
  Rb  Rb11  1  0.148298  0.587325  0.750000  1
  Ge  Ge12  1  0.220439  0.016271  0.750000  1
  W  W13  1  0.278010  0.514808  0.250000  1
  W  W14  1  0.782301  0.985154  0.250000  1
  W  W15  1  0.722052  0.485046  0.750000  1
  S  S16  1  0.297470  0.745607  0.250000  1
  S  S17  1  0.798195  0.753742  0.250000  1
  S  S18  1  0.701121  0.255234  0.750000  1
  S  S19  1  0.200392  0.249469  0.750000  1
  S  S20  1  0.491865  0.418789  0.250000  1
  S  S21  1  0.997737  0.076144  0.250000  1
  S  S22  1  0.508809  0.580738  0.750000  1
  S  S23  1  0.005372  0.920850  0.750000  1
  S  S24  1  0.163649  0.452083  0.085324  1
  S  S25  1  0.668883  0.053232  0.413463  1
  S  S26  1  0.835010  0.546310  0.584392  1
  S  S27  1  0.333815  0.953046  0.916686  1
  S  S28  1  0.835010  0.546310  0.915608  1
  S  S29  1  0.333815  0.953046  0.583314  1
  S  S30  1  0.163649  0.452083  0.414676  1
  S  S31  1  0.668883  0.053232  0.086537  1
