# generated using pymatgen
data_YEr5(Al3Ru)8
_symmetry_space_group_name_H-M   'P 1'
_cell_length_a   8.77591700
_cell_length_b   8.77067084
_cell_length_c   9.58938600
_cell_angle_alpha   90.00000000
_cell_angle_beta   90.00000000
_cell_angle_gamma   120.01978480
_symmetry_Int_Tables_number   1
_chemical_formula_structural   YEr5(Al3Ru)8
_chemical_formula_sum   'Y1 Er5 Al24 Ru8'
_cell_volume   639.08722172
_cell_formula_units_Z   1
loop_
 _symmetry_equiv_pos_site_id
 _symmetry_equiv_pos_as_xyz
  1  'x, y, z'
loop_
 _atom_site_type_symbol
 _atom_site_label
 _atom_site_symmetry_multiplicity
 _atom_site_fract_x
 _atom_site_fract_y
 _atom_site_fract_z
 _atom_site_occupancy
  Y  Y0  1  0.192501  0.385001  0.250000  1
  Er  Er1  1  0.806379  0.612758  0.750000  1
  Er  Er2  1  0.612248  0.806172  0.250000  1
  Er  Er3  1  0.387666  0.194034  0.750000  1
  Er  Er4  1  0.193923  0.806172  0.250000  1
  Er  Er5  1  0.806367  0.194034  0.750000  1
  Al  Al6  1  0.333376  0.666752  0.018751  1
  Al  Al7  1  0.666779  0.333558  0.980245  1
  Al  Al8  1  0.666779  0.333558  0.519755  1
  Al  Al9  1  0.333376  0.666752  0.481249  1
  Al  Al10  1  0.162926  0.325852  0.577978  1
  Al  Al11  1  0.837154  0.674307  0.423000  1
  Al  Al12  1  0.674461  0.837300  0.577347  1
  Al  Al13  1  0.837154  0.674307  0.077000  1
  Al  Al14  1  0.326092  0.162681  0.423286  1
  Al  Al15  1  0.162926  0.325852  0.922022  1
  Al  Al16  1  0.162838  0.837300  0.577347  1
  Al  Al17  1  0.326092  0.162681  0.076714  1
  Al  Al18  1  0.836589  0.162681  0.423286  1
  Al  Al19  1  0.674461  0.837300  0.922653  1
  Al  Al20  1  0.836589  0.162681  0.076714  1
  Al  Al21  1  0.162838  0.837300  0.922653  1
  Al  Al22  1  0.561417  0.122834  0.250000  1
  Al  Al23  1  0.438723  0.877445  0.750000  1
  Al  Al24  1  0.876727  0.438646  0.250000  1
  Al  Al25  1  0.122835  0.561705  0.750000  1
  Al  Al26  1  0.561920  0.438646  0.250000  1
  Al  Al27  1  0.438870  0.561705  0.750000  1
  Al  Al28  1  0.998652  0.997304  0.250000  1
  Al  Al29  1  0.000174  0.000348  0.750000  1
  Ru  Ru30  1  0.500099  0.000198  0.000028  1
  Ru  Ru31  1  0.999755  0.500297  0.999610  1
  Ru  Ru32  1  0.500099  0.000198  0.499972  1
  Ru  Ru33  1  0.500542  0.500297  0.999610  1
  Ru  Ru34  1  0.999755  0.500297  0.500390  1
  Ru  Ru35  1  0.500542  0.500297  0.500390  1
  Ru  Ru36  1  0.000188  0.000377  0.000021  1
  Ru  Ru37  1  0.000188  0.000377  0.499979  1
