# generated using pymatgen
data_Ac2Pr2Zn10SiSn
_symmetry_space_group_name_H-M   'P 1'
_cell_length_a   8.62414595
_cell_length_b   8.62414598
_cell_length_c   9.11397300
_cell_angle_alpha   90.00000000
_cell_angle_beta   90.00000000
_cell_angle_gamma   149.21230836
_symmetry_Int_Tables_number   1
_chemical_formula_structural   Ac2Pr2Zn10SiSn
_chemical_formula_sum   'Ac2 Pr2 Zn10 Si1 Sn1'
_cell_volume   346.96822914
_cell_formula_units_Z   1
loop_
 _symmetry_equiv_pos_site_id
 _symmetry_equiv_pos_as_xyz
  1  'x, y, z'
loop_
 _atom_site_type_symbol
 _atom_site_label
 _atom_site_symmetry_multiplicity
 _atom_site_fract_x
 _atom_site_fract_y
 _atom_site_fract_z
 _atom_site_occupancy
  Ac  Ac0  1  0.001011  0.998989  0.488544  1
  Ac  Ac1  1  0.001011  0.998989  0.011456  1
  Pr  Pr2  1  0.205112  0.794888  0.250000  1
  Pr  Pr3  1  0.792016  0.207984  0.750000  1
  Zn  Zn4  1  0.812000  0.188000  0.389747  1
  Zn  Zn5  1  0.187016  0.812984  0.609137  1
  Zn  Zn6  1  0.812000  0.188000  0.110253  1
  Zn  Zn7  1  0.187016  0.812984  0.890863  1
  Zn  Zn8  1  0.654766  0.345234  0.476813  1
  Zn  Zn9  1  0.340915  0.659085  0.512340  1
  Zn  Zn10  1  0.654766  0.345234  0.023187  1
  Zn  Zn11  1  0.340915  0.659085  0.987660  1
  Zn  Zn12  1  0.405450  0.594550  0.250000  1
  Zn  Zn13  1  0.602554  0.397446  0.750000  1
  Si  Si14  1  0.564219  0.435781  0.250000  1
  Sn  Sn15  1  0.439235  0.560765  0.750000  1
