# generated using pymatgen
data_ErZn3AgIr
_symmetry_space_group_name_H-M   'P 1'
_cell_length_a   5.24193377
_cell_length_b   5.24193442
_cell_length_c   5.21917700
_cell_angle_alpha   59.85566255
_cell_angle_beta   59.85564579
_cell_angle_gamma   59.99998652
_symmetry_Int_Tables_number   1
_chemical_formula_structural   ErZn3AgIr
_chemical_formula_sum   'Er1 Zn3 Ag1 Ir1'
_cell_volume   101.18569184
_cell_formula_units_Z   1
loop_
 _symmetry_equiv_pos_site_id
 _symmetry_equiv_pos_as_xyz
  1  'x, y, z'
loop_
 _atom_site_type_symbol
 _atom_site_label
 _atom_site_symmetry_multiplicity
 _atom_site_fract_x
 _atom_site_fract_y
 _atom_site_fract_z
 _atom_site_occupancy
  Er  Er0  1  0.998059  0.998059  0.005823  1
  Zn  Zn1  1  0.623555  0.130401  0.622486  1
  Zn  Zn2  1  0.130401  0.623555  0.622486  1
  Zn  Zn3  1  0.623555  0.623555  0.622486  1
  Ag  Ag4  1  0.247159  0.247159  0.258521  1
  Ir  Ir5  1  0.627267  0.627267  0.118196  1
