# generated using pymatgen
data_Na4P3Pt4
_symmetry_space_group_name_H-M   'P 1'
_cell_length_a   10.26561204
_cell_length_b   10.26561270
_cell_length_c   7.52685737
_cell_angle_alpha   71.85562108
_cell_angle_beta   71.85561976
_cell_angle_gamma   32.89139073
_symmetry_Int_Tables_number   1
_chemical_formula_structural   Na4P3Pt4
_chemical_formula_sum   'Na8 P6 Pt8'
_cell_volume   407.40801103
_cell_formula_units_Z   2
loop_
 _symmetry_equiv_pos_site_id
 _symmetry_equiv_pos_as_xyz
  1  'x, y, z'
loop_
 _atom_site_type_symbol
 _atom_site_label
 _atom_site_symmetry_multiplicity
 _atom_site_fract_x
 _atom_site_fract_y
 _atom_site_fract_z
 _atom_site_occupancy
  Na  Na0  1  0.946053  0.185635  0.319843  1
  Na  Na1  1  0.053947  0.814365  0.680157  1
  Na  Na2  1  0.814365  0.053947  0.180157  1
  Na  Na3  1  0.475323  0.188881  0.925433  1
  Na  Na4  1  0.811119  0.524677  0.574567  1
  Na  Na5  1  0.188881  0.475323  0.425433  1
  Na  Na6  1  0.185635  0.946053  0.819843  1
  Na  Na7  1  0.524677  0.811119  0.074567  1
  P  P8  1  0.323588  0.021811  0.412204  1
  P  P9  1  0.432101  0.567899  0.250000  1
  P  P10  1  0.021811  0.323588  0.912204  1
  P  P11  1  0.676412  0.978189  0.587796  1
  P  P12  1  0.978189  0.676412  0.087796  1
  P  P13  1  0.567899  0.432101  0.750000  1
  Pt  Pt14  1  0.578439  0.297756  0.534065  1
  Pt  Pt15  1  0.702244  0.421561  0.965935  1
  Pt  Pt16  1  0.297756  0.578439  0.034065  1
  Pt  Pt17  1  0.421561  0.702244  0.465935  1
  Pt  Pt18  1  0.660317  0.900043  0.335623  1
  Pt  Pt19  1  0.900043  0.660317  0.835623  1
  Pt  Pt20  1  0.339683  0.099957  0.664377  1
  Pt  Pt21  1  0.099957  0.339683  0.164377  1
