# generated using pymatgen
data_BaLiZn12
_symmetry_space_group_name_H-M   'P 1'
_cell_length_a   8.70381757
_cell_length_b   8.70381753
_cell_length_c   8.70381800
_cell_angle_alpha   59.99999820
_cell_angle_beta   59.99999836
_cell_angle_gamma   59.99999656
_symmetry_Int_Tables_number   1
_chemical_formula_structural   BaLiZn12
_chemical_formula_sum   'Ba2 Li2 Zn24'
_cell_volume   466.24516167
_cell_formula_units_Z   2
loop_
 _symmetry_equiv_pos_site_id
 _symmetry_equiv_pos_as_xyz
  1  'x, y, z'
loop_
 _atom_site_type_symbol
 _atom_site_label
 _atom_site_symmetry_multiplicity
 _atom_site_fract_x
 _atom_site_fract_y
 _atom_site_fract_z
 _atom_site_occupancy
  Ba  Ba0  1  0.750000  0.750000  0.750000  1
  Ba  Ba1  1  0.250000  0.250000  0.250000  1
  Li  Li2  1  0.000000  0.000000  0.000000  1
  Li  Li3  1  0.500000  0.500000  0.500000  1
  Zn  Zn4  1  0.703099  0.941843  0.296901  1
  Zn  Zn5  1  0.941843  0.703099  0.058157  1
  Zn  Zn6  1  0.058157  0.296901  0.941843  1
  Zn  Zn7  1  0.796901  0.558157  0.441843  1
  Zn  Zn8  1  0.558157  0.796901  0.203099  1
  Zn  Zn9  1  0.203099  0.558157  0.796901  1
  Zn  Zn10  1  0.796901  0.441843  0.203099  1
  Zn  Zn11  1  0.558157  0.441843  0.796901  1
  Zn  Zn12  1  0.203099  0.796901  0.441843  1
  Zn  Zn13  1  0.941843  0.058157  0.296901  1
  Zn  Zn14  1  0.296901  0.941843  0.058157  1
  Zn  Zn15  1  0.058157  0.703099  0.296901  1
  Zn  Zn16  1  0.058157  0.941843  0.703099  1
  Zn  Zn17  1  0.296901  0.703099  0.941843  1
  Zn  Zn18  1  0.703099  0.058157  0.941843  1
  Zn  Zn19  1  0.703099  0.296901  0.058157  1
  Zn  Zn20  1  0.941843  0.296901  0.703099  1
  Zn  Zn21  1  0.441843  0.796901  0.558157  1
  Zn  Zn22  1  0.441843  0.203099  0.796901  1
  Zn  Zn23  1  0.796901  0.203099  0.558157  1
  Zn  Zn24  1  0.441843  0.558157  0.203099  1
  Zn  Zn25  1  0.203099  0.441843  0.558157  1
  Zn  Zn26  1  0.558157  0.203099  0.441843  1
  Zn  Zn27  1  0.296901  0.058157  0.703099  1
