# generated using pymatgen
data_La7Yb3Os4
_symmetry_space_group_name_H-M   'P 1'
_cell_length_a   8.89960718
_cell_length_b   8.89624170
_cell_length_c   7.43999553
_cell_angle_alpha   83.99912014
_cell_angle_beta   84.38624019
_cell_angle_gamma   44.05353223
_symmetry_Int_Tables_number   1
_chemical_formula_structural   La7Yb3Os4
_chemical_formula_sum   'La7 Yb3 Os4'
_cell_volume   407.11860008
_cell_formula_units_Z   1
loop_
 _symmetry_equiv_pos_site_id
 _symmetry_equiv_pos_as_xyz
  1  'x, y, z'
loop_
 _atom_site_type_symbol
 _atom_site_label
 _atom_site_symmetry_multiplicity
 _atom_site_fract_x
 _atom_site_fract_y
 _atom_site_fract_z
 _atom_site_occupancy
  La  La0  1  0.801120  0.015455  0.404690  1
  La  La1  1  0.353725  0.215466  0.819753  1
  La  La2  1  0.782920  0.646783  0.679989  1
  La  La3  1  0.647930  0.783588  0.177168  1
  La  La4  1  0.211000  0.353815  0.319959  1
  La  La5  1  0.569116  0.432438  0.751481  1
  La  La6  1  0.429720  0.573426  0.248320  1
  Yb  Yb7  1  0.016396  0.804785  0.907163  1
  Yb  Yb8  1  0.198116  0.985356  0.591515  1
  Yb  Yb9  1  0.984331  0.198827  0.088844  1
  Os  Os10  1  0.177860  0.593598  0.561391  1
  Os  Os11  1  0.413246  0.815626  0.936981  1
  Os  Os12  1  0.812231  0.406812  0.439628  1
  Os  Os13  1  0.602287  0.174025  0.073122  1
