# generated using pymatgen
data_Y2Fe3Co9As7
_symmetry_space_group_name_H-M   'P 1'
_cell_length_a   3.75901000
_cell_length_b   9.35674637
_cell_length_c   9.35674700
_cell_angle_alpha   120.00000060
_cell_angle_beta   90.00000000
_cell_angle_gamma   90.00000000
_symmetry_Int_Tables_number   1
_chemical_formula_structural   Y2Fe3Co9As7
_chemical_formula_sum   'Y2 Fe3 Co9 As7'
_cell_volume   285.00590217
_cell_formula_units_Z   1
loop_
 _symmetry_equiv_pos_site_id
 _symmetry_equiv_pos_as_xyz
  1  'x, y, z'
loop_
 _atom_site_type_symbol
 _atom_site_label
 _atom_site_symmetry_multiplicity
 _atom_site_fract_x
 _atom_site_fract_y
 _atom_site_fract_z
 _atom_site_occupancy
  Y  Y0  1  0.000000  0.666667  0.333333  1
  Y  Y1  1  0.500000  0.333333  0.666667  1
  Fe  Fe2  1  0.500000  0.782802  0.903522  1
  Fe  Fe3  1  0.500000  0.120720  0.217198  1
  Fe  Fe4  1  0.500000  0.096478  0.879280  1
  Co  Co5  1  0.000000  0.568485  0.942322  1
  Co  Co6  1  0.000000  0.373837  0.431515  1
  Co  Co7  1  0.000000  0.057678  0.626163  1
  Co  Co8  1  0.000000  0.879971  0.156964  1
  Co  Co9  1  0.000000  0.276992  0.120029  1
  Co  Co10  1  0.000000  0.843036  0.723008  1
  Co  Co11  1  0.500000  0.950155  0.382081  1
  Co  Co12  1  0.500000  0.431926  0.049845  1
  Co  Co13  1  0.500000  0.617919  0.568074  1
  As  As14  1  0.000000  0.000000  0.000000  1
  As  As15  1  0.500000  0.708679  0.113540  1
  As  As16  1  0.500000  0.404861  0.291321  1
  As  As17  1  0.500000  0.886460  0.595139  1
  As  As18  1  0.000000  0.589835  0.705625  1
  As  As19  1  0.000000  0.115790  0.410165  1
  As  As20  1  0.000000  0.294375  0.884210  1
