# generated using pymatgen
data_Tb6DyTm9(InIr)4
_symmetry_space_group_name_H-M   'P 1'
_cell_length_a   9.61045167
_cell_length_b   9.61045216
_cell_length_c   9.61677800
_cell_angle_alpha   59.97822371
_cell_angle_beta   59.97822203
_cell_angle_gamma   60.05217500
_symmetry_Int_Tables_number   1
_chemical_formula_structural   Tb6DyTm9(InIr)4
_chemical_formula_sum   'Tb6 Dy1 Tm9 In4 Ir4'
_cell_volume   628.10177983
_cell_formula_units_Z   1
loop_
 _symmetry_equiv_pos_site_id
 _symmetry_equiv_pos_as_xyz
  1  'x, y, z'
loop_
 _atom_site_type_symbol
 _atom_site_label
 _atom_site_symmetry_multiplicity
 _atom_site_fract_x
 _atom_site_fract_y
 _atom_site_fract_z
 _atom_site_occupancy
  Tb  Tb0  1  0.059715  0.059715  0.440285  1
  Tb  Tb1  1  0.191288  0.809079  0.809558  1
  Tb  Tb2  1  0.809079  0.191288  0.190074  1
  Tb  Tb3  1  0.809079  0.191288  0.809558  1
  Tb  Tb4  1  0.191288  0.809079  0.190074  1
  Tb  Tb5  1  0.809597  0.809597  0.190403  1
  Dy  Dy6  1  0.191470  0.191470  0.808530  1
  Tm  Tm7  1  0.598332  0.598332  0.597581  1
  Tm  Tm8  1  0.598332  0.598332  0.205757  1
  Tm  Tm9  1  0.598315  0.205060  0.598312  1
  Tm  Tm10  1  0.205060  0.598315  0.598312  1
  Tm  Tm11  1  0.059250  0.440099  0.441042  1
  Tm  Tm12  1  0.440099  0.059250  0.059609  1
  Tm  Tm13  1  0.440099  0.059250  0.441042  1
  Tm  Tm14  1  0.059250  0.440099  0.059609  1
  Tm  Tm15  1  0.439847  0.439847  0.060153  1
  In  In16  1  0.832373  0.832373  0.833067  1
  In  In17  1  0.832373  0.832373  0.502187  1
  In  In18  1  0.832380  0.502709  0.832455  1
  In  In19  1  0.502709  0.832380  0.832455  1
  Ir  Ir20  1  0.390537  0.390537  0.391336  1
  Ir  Ir21  1  0.390537  0.390537  0.827591  1
  Ir  Ir22  1  0.393097  0.825894  0.390505  1
  Ir  Ir23  1  0.825894  0.393097  0.390505  1
