# generated using pymatgen
data_La7Ag(TeO6)4
_symmetry_space_group_name_H-M   'P 1'
_cell_length_a   5.54414490
_cell_length_b   9.44879758
_cell_length_c   10.47497337
_cell_angle_alpha   90.51316741
_cell_angle_beta   90.93238203
_cell_angle_gamma   89.85386340
_symmetry_Int_Tables_number   1
_chemical_formula_structural   La7Ag(TeO6)4
_chemical_formula_sum   'La7 Ag1 Te4 O24'
_cell_volume   548.64049938
_cell_formula_units_Z   1
loop_
 _symmetry_equiv_pos_site_id
 _symmetry_equiv_pos_as_xyz
  1  'x, y, z'
loop_
 _atom_site_type_symbol
 _atom_site_label
 _atom_site_symmetry_multiplicity
 _atom_site_fract_x
 _atom_site_fract_y
 _atom_site_fract_z
 _atom_site_occupancy
  La  La0  1  0.036034  0.378616  0.046358  1
  La  La1  1  0.478177  0.600981  0.544766  1
  La  La2  1  0.973095  0.894043  0.453836  1
  La  La3  1  0.517755  0.212708  0.346966  1
  La  La4  1  0.028869  0.287095  0.634865  1
  La  La5  1  0.471644  0.724252  0.141619  1
  La  La6  1  0.983415  0.780706  0.869289  1
  Ag  Ag7  1  0.570444  0.135250  0.903922  1
  Te  Te8  1  0.460452  0.995454  0.643763  1
  Te  Te9  1  0.957080  0.503891  0.356033  1
  Te  Te10  1  0.553319  0.494170  0.858887  1
  Te  Te11  1  0.027830  0.001976  0.139083  1
  O  O12  1  0.228458  0.165693  0.177538  1
  O  O13  1  0.826156  0.371930  0.817883  1
  O  O14  1  0.700118  0.643978  0.328536  1
  O  O15  1  0.199216  0.865290  0.678961  1
  O  O16  1  0.718067  0.110527  0.569633  1
  O  O17  1  0.216500  0.385050  0.432429  1
  O  O18  1  0.284987  0.597005  0.940820  1
  O  O19  1  0.806853  0.857981  0.073533  1
  O  O20  1  0.670537  0.644618  0.752534  1
  O  O21  1  0.203558  0.883577  0.261362  1
  O  O22  1  0.323282  0.138796  0.760000  1
  O  O23  1  0.804284  0.366974  0.243309  1
  O  O24  1  0.666247  0.958238  0.796826  1
  O  O25  1  0.164196  0.550762  0.216566  1
  O  O26  1  0.348018  0.442957  0.714663  1
  O  O27  1  0.805179  0.038585  0.280221  1
  O  O28  1  0.253106  0.086033  0.514586  1
  O  O29  1  0.754559  0.414034  0.488371  1
  O  O30  1  0.751782  0.575885  0.996398  1
  O  O31  1  0.242397  0.922664  0.011125  1
  O  O32  1  0.076772  0.647078  0.477901  1
  O  O33  1  0.580622  0.847987  0.533980  1
  O  O34  1  0.865364  0.142211  0.024036  1
  O  O35  1  0.451632  0.333003  0.969401  1
