# generated using pymatgen
data_NaPrNd5RuBr12
_symmetry_space_group_name_H-M   'P 1'
_cell_length_a   9.57310618
_cell_length_b   9.57744474
_cell_length_c   9.58104440
_cell_angle_alpha   107.07551096
_cell_angle_beta   107.22599258
_cell_angle_gamma   107.23013208
_symmetry_Int_Tables_number   1
_chemical_formula_structural   NaPrNd5RuBr12
_chemical_formula_sum   'Na1 Pr1 Nd5 Ru1 Br12'
_cell_volume   728.01193020
_cell_formula_units_Z   1
loop_
 _symmetry_equiv_pos_site_id
 _symmetry_equiv_pos_as_xyz
  1  'x, y, z'
loop_
 _atom_site_type_symbol
 _atom_site_label
 _atom_site_symmetry_multiplicity
 _atom_site_fract_x
 _atom_site_fract_y
 _atom_site_fract_z
 _atom_site_occupancy
  Na  Na0  1  0.499982  0.500011  0.499973  1
  Pr  Pr1  1  0.886846  0.680455  0.969306  1
  Nd  Nd2  1  0.112835  0.318150  0.031047  1
  Nd  Nd3  1  0.318077  0.031071  0.112519  1
  Nd  Nd4  1  0.030854  0.112813  0.318531  1
  Nd  Nd5  1  0.969411  0.888015  0.681613  1
  Nd  Nd6  1  0.682056  0.969347  0.887418  1
  Ru  Ru7  1  0.000332  0.000681  0.000258  1
  Br  Br8  1  0.218287  0.684774  0.072994  1
  Br  Br9  1  0.454270  0.371335  0.155853  1
  Br  Br10  1  0.684830  0.073101  0.215854  1
  Br  Br11  1  0.927531  0.784625  0.317065  1
  Br  Br12  1  0.155549  0.454041  0.371230  1
  Br  Br13  1  0.371161  0.155548  0.454002  1
  Br  Br14  1  0.628843  0.844450  0.546017  1
  Br  Br15  1  0.844269  0.545483  0.626591  1
  Br  Br16  1  0.072811  0.216324  0.684878  1
  Br  Br17  1  0.315184  0.926911  0.784148  1
  Br  Br18  1  0.543308  0.628601  0.843177  1
  Br  Br19  1  0.783569  0.314268  0.927533  1
