# generated using pymatgen
data_Yb4(IO4)3
_symmetry_space_group_name_H-M   'P 1'
_cell_length_a   6.64031904
_cell_length_b   6.41376704
_cell_length_c   13.26256636
_cell_angle_alpha   99.05529319
_cell_angle_beta   102.03345849
_cell_angle_gamma   98.97061295
_symmetry_Int_Tables_number   1
_chemical_formula_structural   Yb4(IO4)3
_chemical_formula_sum   'Yb8 I6 O24'
_cell_volume   535.03060866
_cell_formula_units_Z   2
loop_
 _symmetry_equiv_pos_site_id
 _symmetry_equiv_pos_as_xyz
  1  'x, y, z'
loop_
 _atom_site_type_symbol
 _atom_site_label
 _atom_site_symmetry_multiplicity
 _atom_site_fract_x
 _atom_site_fract_y
 _atom_site_fract_z
 _atom_site_occupancy
  Yb  Yb0  1  0.381066  0.848661  0.104903  1
  Yb  Yb1  1  0.300685  0.619191  0.815112  1
  Yb  Yb2  1  0.277927  0.597330  0.319996  1
  Yb  Yb3  1  0.867465  0.702980  0.448161  1
  Yb  Yb4  1  0.699315  0.380809  0.184888  1
  Yb  Yb5  1  0.132535  0.297020  0.551839  1
  Yb  Yb6  1  0.618934  0.151339  0.895097  1
  Yb  Yb7  1  0.722073  0.402670  0.680004  1
  I  I8  1  0.980902  0.991353  0.258445  1
  I  I9  1  0.412245  0.825333  0.588750  1
  I  I10  1  0.019098  0.008647  0.741555  1
  I  I11  1  0.821364  0.683524  0.957334  1
  I  I12  1  0.178636  0.316476  0.042666  1
  I  I13  1  0.587755  0.174667  0.411250  1
  O  O14  1  0.306287  0.989546  0.789789  1
  O  O15  1  0.020077  0.875717  0.088816  1
  O  O16  1  0.321867  0.968956  0.296694  1
  O  O17  1  0.599663  0.828222  0.968409  1
  O  O18  1  0.028933  0.945311  0.599618  1
  O  O19  1  0.959071  0.707946  0.751940  1
  O  O20  1  0.573432  0.792035  0.490663  1
  O  O21  1  0.209818  0.534168  0.965070  1
  O  O22  1  0.380142  0.529993  0.159347  1
  O  O23  1  0.924749  0.684209  0.276874  1
  O  O24  1  0.190745  0.619699  0.483140  1
  O  O25  1  0.619858  0.470007  0.840653  1
  O  O26  1  0.439077  0.600218  0.661279  1
  O  O27  1  0.790182  0.465832  0.034930  1
  O  O28  1  0.040929  0.292054  0.248060  1
  O  O29  1  0.560923  0.399782  0.338721  1
  O  O30  1  0.809255  0.380301  0.516860  1
  O  O31  1  0.400337  0.171778  0.031591  1
  O  O32  1  0.075251  0.315791  0.723126  1
  O  O33  1  0.979923  0.124283  0.911184  1
  O  O34  1  0.426568  0.207965  0.509337  1
  O  O35  1  0.693713  0.010454  0.210211  1
  O  O36  1  0.971067  0.054689  0.400382  1
  O  O37  1  0.678133  0.031044  0.703306  1
