# generated using pymatgen
data_La2Nd4IrI10
_symmetry_space_group_name_H-M   'P 1'
_cell_length_a   8.06026491
_cell_length_b   10.13032728
_cell_length_c   10.02619972
_cell_angle_alpha   107.32626165
_cell_angle_beta   96.43710162
_cell_angle_gamma   105.61140080
_symmetry_Int_Tables_number   1
_chemical_formula_structural   La2Nd4IrI10
_chemical_formula_sum   'La2 Nd4 Ir1 I10'
_cell_volume   736.05131212
_cell_formula_units_Z   1
loop_
 _symmetry_equiv_pos_site_id
 _symmetry_equiv_pos_as_xyz
  1  'x, y, z'
loop_
 _atom_site_type_symbol
 _atom_site_label
 _atom_site_symmetry_multiplicity
 _atom_site_fract_x
 _atom_site_fract_y
 _atom_site_fract_z
 _atom_site_occupancy
  La  La0  1  0.383797  0.957301  0.733928  1
  La  La1  1  0.616203  0.042699  0.266072  1
  Nd  Nd2  1  0.470138  0.292046  0.589280  1
  Nd  Nd3  1  0.529862  0.707954  0.410720  1
  Nd  Nd4  1  0.856047  0.131780  0.673503  1
  Nd  Nd5  1  0.143953  0.868220  0.326497  1
  Ir  Ir6  1  0.500000  0.000000  0.500000  1
  I  I7  1  0.416199  0.628379  0.678455  1
  I  I8  1  0.583801  0.371621  0.321545  1
  I  I9  1  0.287271  0.261993  0.849659  1
  I  I10  1  0.712729  0.738007  0.150341  1
  I  I11  1  0.854928  0.454466  0.771108  1
  I  I12  1  0.145072  0.545534  0.228892  1
  I  I13  1  0.049372  0.180048  0.412210  1
  I  I14  1  0.237795  0.913212  0.039259  1
  I  I15  1  0.762205  0.086788  0.960741  1
  I  I16  1  0.950628  0.819952  0.587790  1
