# generated using pymatgen
data_Tb4ErMo2C7
_symmetry_space_group_name_H-M   'P 1'
_cell_length_a   8.44046547
_cell_length_b   8.44046504
_cell_length_c   3.44763700
_cell_angle_alpha   90.00000000
_cell_angle_beta   90.00000000
_cell_angle_gamma   122.94596988
_symmetry_Int_Tables_number   1
_chemical_formula_structural   Tb4ErMo2C7
_chemical_formula_sum   'Tb4 Er1 Mo2 C7'
_cell_volume   206.11585143
_cell_formula_units_Z   1
loop_
 _symmetry_equiv_pos_site_id
 _symmetry_equiv_pos_as_xyz
  1  'x, y, z'
loop_
 _atom_site_type_symbol
 _atom_site_label
 _atom_site_symmetry_multiplicity
 _atom_site_fract_x
 _atom_site_fract_y
 _atom_site_fract_z
 _atom_site_occupancy
  Tb  Tb0  1  0.073685  0.331252  0.500000  1
  Tb  Tb1  1  0.926315  0.668748  0.500000  1
  Tb  Tb2  1  0.668748  0.926315  0.500000  1
  Tb  Tb3  1  0.331252  0.073685  0.500000  1
  Er  Er4  1  0.500000  0.500000  0.000000  1
  Mo  Mo5  1  0.711017  0.288983  0.000000  1
  Mo  Mo6  1  0.288983  0.711017  0.000000  1
  C  C7  1  0.623231  0.376769  0.500000  1
  C  C8  1  0.376769  0.623231  0.500000  1
  C  C9  1  0.000000  0.000000  0.000000  1
  C  C10  1  0.168195  0.168195  0.000000  1
  C  C11  1  0.831805  0.831805  0.000000  1
  C  C12  1  0.000000  0.500000  0.000000  1
  C  C13  1  0.500000  0.000000  0.000000  1
