# generated using pymatgen
data_La2NdIn5
_symmetry_space_group_name_H-M   'P 1'
_cell_length_a   6.76599509
_cell_length_b   10.72953183
_cell_length_c   12.49968500
_cell_angle_alpha   90.05951973
_cell_angle_beta   90.00923880
_cell_angle_gamma   90.02517922
_symmetry_Int_Tables_number   1
_chemical_formula_structural   La2NdIn5
_chemical_formula_sum   'La8 Nd4 In20'
_cell_volume   907.42603857
_cell_formula_units_Z   4
loop_
 _symmetry_equiv_pos_site_id
 _symmetry_equiv_pos_as_xyz
  1  'x, y, z'
loop_
 _atom_site_type_symbol
 _atom_site_label
 _atom_site_symmetry_multiplicity
 _atom_site_fract_x
 _atom_site_fract_y
 _atom_site_fract_z
 _atom_site_occupancy
  La  La0  1  0.888085  0.489847  0.143816  1
  La  La1  1  0.611919  0.010376  0.643929  1
  La  La2  1  0.111780  0.989772  0.855842  1
  La  La3  1  0.387972  0.510271  0.356131  1
  La  La4  1  0.111722  0.510154  0.856130  1
  La  La5  1  0.388420  0.989742  0.356280  1
  La  La6  1  0.888120  0.010098  0.143965  1
  La  La7  1  0.611901  0.489681  0.643943  1
  Nd  Nd8  1  0.350139  0.749979  0.060439  1
  Nd  Nd9  1  0.149949  0.750212  0.560596  1
  Nd  Nd10  1  0.649807  0.249804  0.939497  1
  Nd  Nd11  1  0.850169  0.250119  0.439613  1
  In  In12  1  0.621661  0.749602  0.502705  1
  In  In13  1  0.878279  0.749936  0.002249  1
  In  In14  1  0.378638  0.250146  0.497605  1
  In  In15  1  0.121774  0.250020  0.997493  1
  In  In16  1  0.658370  0.749911  0.244525  1
  In  In17  1  0.841326  0.749440  0.744176  1
  In  In18  1  0.341593  0.250525  0.755378  1
  In  In19  1  0.158236  0.249977  0.255660  1
  In  In20  1  0.105287  0.749930  0.285386  1
  In  In21  1  0.394642  0.749798  0.785360  1
  In  In22  1  0.894499  0.250564  0.714641  1
  In  In23  1  0.605353  0.250146  0.214646  1
  In  In24  1  0.874230  0.546785  0.404778  1
  In  In25  1  0.625696  0.952926  0.904629  1
  In  In26  1  0.125437  0.047156  0.595289  1
  In  In27  1  0.374504  0.453129  0.095185  1
  In  In28  1  0.126047  0.453400  0.595415  1
  In  In29  1  0.374215  0.046894  0.095424  1
  In  In30  1  0.874535  0.952907  0.404789  1
  In  In31  1  0.625693  0.546751  0.904488  1
