# generated using pymatgen
data_La2CeNd6Th3Se20
_symmetry_space_group_name_H-M   'P 1'
_cell_length_a   7.94312809
_cell_length_b   8.57803316
_cell_length_c   12.63447200
_cell_angle_alpha   90.00245255
_cell_angle_beta   90.00128842
_cell_angle_gamma   89.89422499
_symmetry_Int_Tables_number   1
_chemical_formula_structural   La2CeNd6Th3Se20
_chemical_formula_sum   'La2 Ce1 Nd6 Th3 Se20'
_cell_volume   860.86617522
_cell_formula_units_Z   1
loop_
 _symmetry_equiv_pos_site_id
 _symmetry_equiv_pos_as_xyz
  1  'x, y, z'
loop_
 _atom_site_type_symbol
 _atom_site_label
 _atom_site_symmetry_multiplicity
 _atom_site_fract_x
 _atom_site_fract_y
 _atom_site_fract_z
 _atom_site_occupancy
  La  La0  1  0.522077  0.998515  0.323219  1
  La  La1  1  0.978064  0.501250  0.822768  1
  Ce  Ce2  1  0.073843  0.749994  0.491802  1
  Nd  Nd3  1  0.519623  0.497539  0.320813  1
  Nd  Nd4  1  0.980505  0.002663  0.820057  1
  Nd  Nd5  1  0.478332  0.998080  0.679069  1
  Nd  Nd6  1  0.021303  0.501671  0.180097  1
  Nd  Nd7  1  0.479302  0.502397  0.678109  1
  Nd  Nd8  1  0.020423  0.997893  0.179164  1
  Th  Th9  1  0.422943  0.749996  0.991200  1
  Th  Th10  1  0.923978  0.250733  0.509176  1
  Th  Th11  1  0.577345  0.249229  0.009032  1
  Se  Se12  1  0.835601  0.954241  0.597864  1
  Se  Se13  1  0.666179  0.543875  0.099147  1
  Se  Se14  1  0.164221  0.459122  0.401301  1
  Se  Se15  1  0.335107  0.044583  0.900278  1
  Se  Se16  1  0.162152  0.040409  0.400622  1
  Se  Se17  1  0.337056  0.455976  0.899602  1
  Se  Se18  1  0.836857  0.547254  0.598255  1
  Se  Se19  1  0.664910  0.954613  0.099574  1
  Se  Se20  1  0.830200  0.747550  0.314790  1
  Se  Se21  1  0.672216  0.752480  0.813607  1
  Se  Se22  1  0.173916  0.247996  0.684841  1
  Se  Se23  1  0.325555  0.251989  0.185090  1
  Se  Se24  1  0.457247  0.746739  0.500323  1
  Se  Se25  1  0.040925  0.753224  0.000271  1
  Se  Se26  1  0.539957  0.253157  0.501785  1
  Se  Se27  1  0.959973  0.246845  0.001470  1
  Se  Se28  1  0.198992  0.752623  0.714784  1
  Se  Se29  1  0.300746  0.747364  0.215565  1
  Se  Se30  1  0.802629  0.251163  0.283428  1
  Se  Se31  1  0.697826  0.248836  0.782890  1
