# generated using pymatgen
data_Ho5Er11(ZnCo)4
_symmetry_space_group_name_H-M   'P 1'
_cell_length_a   9.27745910
_cell_length_b   9.27632041
_cell_length_c   9.27632102
_cell_angle_alpha   59.99893472
_cell_angle_beta   59.99593878
_cell_angle_gamma   59.99593998
_symmetry_Int_Tables_number   1
_chemical_formula_structural   Ho5Er11(ZnCo)4
_chemical_formula_sum   'Ho5 Er11 Zn4 Co4'
_cell_volume   564.46290572
_cell_formula_units_Z   1
loop_
 _symmetry_equiv_pos_site_id
 _symmetry_equiv_pos_as_xyz
  1  'x, y, z'
loop_
 _atom_site_type_symbol
 _atom_site_label
 _atom_site_symmetry_multiplicity
 _atom_site_fract_x
 _atom_site_fract_y
 _atom_site_fract_z
 _atom_site_occupancy
  Ho  Ho0  1  0.562109  0.937891  0.937891  1
  Ho  Ho1  1  0.562163  0.937817  0.562117  1
  Ho  Ho2  1  0.937902  0.562117  0.937817  1
  Ho  Ho3  1  0.562163  0.562117  0.937817  1
  Ho  Ho4  1  0.937902  0.937817  0.562117  1
  Er  Er5  1  0.349937  0.350063  0.350063  1
  Er  Er6  1  0.350010  0.350042  0.949938  1
  Er  Er7  1  0.350010  0.949938  0.350042  1
  Er  Er8  1  0.949937  0.350063  0.350063  1
  Er  Er9  1  0.809643  0.190357  0.190357  1
  Er  Er10  1  0.190383  0.809617  0.809617  1
  Er  Er11  1  0.190332  0.809574  0.190454  1
  Er  Er12  1  0.809641  0.190454  0.809574  1
  Er  Er13  1  0.190332  0.190454  0.809574  1
  Er  Er14  1  0.809641  0.809574  0.190454  1
  Er  Er15  1  0.937944  0.562056  0.562056  1
  Zn  Zn16  1  0.577735  0.577703  0.577703  1
  Zn  Zn17  1  0.577687  0.577705  0.266921  1
  Zn  Zn18  1  0.577687  0.266921  0.577705  1
  Zn  Zn19  1  0.266859  0.577703  0.577703  1
  Co  Co20  1  0.141741  0.141730  0.141730  1
  Co  Co21  1  0.141721  0.141772  0.574787  1
  Co  Co22  1  0.141721  0.574787  0.141772  1
  Co  Co23  1  0.574800  0.141730  0.141730  1
