# generated using pymatgen
data_Zr3U(Nb3Si4)2
_symmetry_space_group_name_H-M   'P 1'
_cell_length_a   6.93556953
_cell_length_b   6.94496640
_cell_length_c   12.85647500
_cell_angle_alpha   90.00000000
_cell_angle_beta   90.00000000
_cell_angle_gamma   90.26433528
_symmetry_Int_Tables_number   1
_chemical_formula_structural   Zr3U(Nb3Si4)2
_chemical_formula_sum   'Zr6 U2 Nb12 Si16'
_cell_volume   619.25506388
_cell_formula_units_Z   2
loop_
 _symmetry_equiv_pos_site_id
 _symmetry_equiv_pos_as_xyz
  1  'x, y, z'
loop_
 _atom_site_type_symbol
 _atom_site_label
 _atom_site_symmetry_multiplicity
 _atom_site_fract_x
 _atom_site_fract_y
 _atom_site_fract_z
 _atom_site_occupancy
  Zr  Zr0  1  0.002095  0.341011  0.217528  1
  Zr  Zr1  1  0.997905  0.658989  0.717528  1
  Zr  Zr2  1  0.160264  0.501782  0.467911  1
  Zr  Zr3  1  0.499841  0.839688  0.032575  1
  Zr  Zr4  1  0.839736  0.498218  0.967911  1
  Zr  Zr5  1  0.500159  0.160312  0.532575  1
  U  U6  1  0.336853  0.997100  0.780531  1
  U  U7  1  0.663147  0.002900  0.280531  1
  Nb  Nb8  1  0.170200  0.168187  0.998488  1
  Nb  Nb9  1  0.829800  0.831813  0.498488  1
  Nb  Nb10  1  0.330892  0.669579  0.250644  1
  Nb  Nb11  1  0.669108  0.330421  0.750644  1
  Nb  Nb12  1  0.151686  0.994284  0.376434  1
  Nb  Nb13  1  0.848314  0.005716  0.876434  1
  Nb  Nb14  1  0.504502  0.657201  0.626477  1
  Nb  Nb15  1  0.346556  0.499986  0.874277  1
  Nb  Nb16  1  0.495498  0.342799  0.126477  1
  Nb  Nb17  1  0.653444  0.500014  0.374277  1
  Nb  Nb18  1  0.999400  0.155257  0.624426  1
  Nb  Nb19  1  0.000600  0.844743  0.124426  1
  Si  Si20  1  0.293441  0.042928  0.186144  1
  Si  Si21  1  0.706559  0.957072  0.686144  1
  Si  Si22  1  0.455433  0.796827  0.436911  1
  Si  Si23  1  0.203566  0.543432  0.063362  1
  Si  Si24  1  0.544567  0.203173  0.936911  1
  Si  Si25  1  0.796434  0.456568  0.563362  1
  Si  Si26  1  0.043241  0.301216  0.813205  1
  Si  Si27  1  0.956759  0.698784  0.313205  1
  Si  Si28  1  0.363125  0.292508  0.322599  1
  Si  Si29  1  0.636875  0.707492  0.822599  1
  Si  Si30  1  0.206437  0.865284  0.569881  1
  Si  Si31  1  0.130377  0.788183  0.930737  1
  Si  Si32  1  0.793563  0.134716  0.069881  1
  Si  Si33  1  0.869623  0.211817  0.430737  1
  Si  Si34  1  0.293749  0.370054  0.677872  1
  Si  Si35  1  0.706251  0.629946  0.177872  1
