# generated using pymatgen
data_La3PtCl3
_symmetry_space_group_name_H-M   'P 1'
_cell_length_a   10.56974380
_cell_length_b   10.56974327
_cell_length_c   10.56974300
_cell_angle_alpha   109.47122204
_cell_angle_beta   109.47122101
_cell_angle_gamma   109.47122128
_symmetry_Int_Tables_number   1
_chemical_formula_structural   La3PtCl3
_chemical_formula_sum   'La12 Pt4 Cl12'
_cell_volume   909.01578174
_cell_formula_units_Z   4
loop_
 _symmetry_equiv_pos_site_id
 _symmetry_equiv_pos_as_xyz
  1  'x, y, z'
loop_
 _atom_site_type_symbol
 _atom_site_label
 _atom_site_symmetry_multiplicity
 _atom_site_fract_x
 _atom_site_fract_y
 _atom_site_fract_z
 _atom_site_occupancy
  La  La0  1  0.262072  0.012072  0.024142  1
  La  La1  1  0.024142  0.262072  0.012072  1
  La  La2  1  0.487928  0.750000  0.012072  1
  La  La3  1  0.750000  0.237928  0.262072  1
  La  La4  1  0.012072  0.024142  0.262072  1
  La  La5  1  0.012072  0.487928  0.750000  1
  La  La6  1  0.237928  0.262072  0.750000  1
  La  La7  1  0.262072  0.750000  0.237928  1
  La  La8  1  0.237928  0.475858  0.487928  1
  La  La9  1  0.475858  0.487928  0.237928  1
  La  La10  1  0.750000  0.012072  0.487928  1
  La  La11  1  0.487928  0.237928  0.475858  1
  Pt  Pt12  1  0.000000  0.250000  0.500000  1
  Pt  Pt13  1  0.250000  0.500000  0.000000  1
  Pt  Pt14  1  0.500000  0.000000  0.250000  1
  Pt  Pt15  1  0.250000  0.250000  0.250000  1
  Cl  Cl16  1  0.744229  0.755771  0.250000  1
  Cl  Cl17  1  0.494229  0.250000  0.005771  1
  Cl  Cl18  1  0.250000  0.005771  0.494229  1
  Cl  Cl19  1  0.488459  0.494229  0.744229  1
  Cl  Cl20  1  0.005771  0.011541  0.755771  1
  Cl  Cl21  1  0.755771  0.005771  0.011541  1
  Cl  Cl22  1  0.494229  0.744229  0.488459  1
  Cl  Cl23  1  0.744229  0.488459  0.494229  1
  Cl  Cl24  1  0.005771  0.494229  0.250000  1
  Cl  Cl25  1  0.011541  0.755771  0.005771  1
  Cl  Cl26  1  0.250000  0.744229  0.755771  1
  Cl  Cl27  1  0.755771  0.250000  0.744229  1
