# generated using pymatgen
data_OsI19
_symmetry_space_group_name_H-M   'P 1'
_cell_length_a   10.27956394
_cell_length_b   10.27956413
_cell_length_c   10.27956317
_cell_angle_alpha   95.48778857
_cell_angle_beta   95.48778427
_cell_angle_gamma   95.48780101
_symmetry_Int_Tables_number   1
_chemical_formula_structural   OsI19
_chemical_formula_sum   'Os1 I19'
_cell_volume   1070.26646179
_cell_formula_units_Z   1
loop_
 _symmetry_equiv_pos_site_id
 _symmetry_equiv_pos_as_xyz
  1  'x, y, z'
loop_
 _atom_site_type_symbol
 _atom_site_label
 _atom_site_symmetry_multiplicity
 _atom_site_fract_x
 _atom_site_fract_y
 _atom_site_fract_z
 _atom_site_occupancy
  Os  Os0  1  0.500000  0.500000  0.500000  1
  I  I1  1  0.482169  0.476891  0.236217  1
  I  I2  1  0.236217  0.482169  0.476891  1
  I  I3  1  0.476891  0.236217  0.482169  1
  I  I4  1  0.517831  0.523109  0.763783  1
  I  I5  1  0.763783  0.517831  0.523109  1
  I  I6  1  0.523109  0.763783  0.517831  1
  I  I7  1  0.000000  0.000000  0.000000  1
  I  I8  1  0.039095  0.338279  0.987775  1
  I  I9  1  0.987775  0.039095  0.338279  1
  I  I10  1  0.338279  0.987775  0.039095  1
  I  I11  1  0.960905  0.661721  0.012225  1
  I  I12  1  0.012225  0.960905  0.661721  1
  I  I13  1  0.661721  0.012225  0.960905  1
  I  I14  1  0.724154  0.580583  0.132045  1
  I  I15  1  0.132045  0.724154  0.580583  1
  I  I16  1  0.580583  0.132045  0.724154  1
  I  I17  1  0.275846  0.419417  0.867955  1
  I  I18  1  0.867955  0.275846  0.419417  1
  I  I19  1  0.419417  0.867955  0.275846  1
