# generated using pymatgen
data_Y2Lu10Co5Bi
_symmetry_space_group_name_H-M   'P 1'
_cell_length_a   8.18144522
_cell_length_b   8.18144554
_cell_length_c   8.13754815
_cell_angle_alpha   111.12604866
_cell_angle_beta   110.74341857
_cell_angle_gamma   106.81183691
_symmetry_Int_Tables_number   1
_chemical_formula_structural   Y2Lu10Co5Bi
_chemical_formula_sum   'Y2 Lu10 Co5 Bi1'
_cell_volume   417.37797938
_cell_formula_units_Z   1
loop_
 _symmetry_equiv_pos_site_id
 _symmetry_equiv_pos_as_xyz
  1  'x, y, z'
loop_
 _atom_site_type_symbol
 _atom_site_label
 _atom_site_symmetry_multiplicity
 _atom_site_fract_x
 _atom_site_fract_y
 _atom_site_fract_z
 _atom_site_occupancy
  Y  Y0  1  0.285280  0.185177  0.470458  1
  Y  Y1  1  0.714720  0.814823  0.529542  1
  Lu  Lu2  1  0.286786  0.814945  0.101730  1
  Lu  Lu3  1  0.713214  0.185055  0.898270  1
  Lu  Lu4  1  0.621544  0.310051  0.308637  1
  Lu  Lu5  1  0.378456  0.689949  0.691363  1
  Lu  Lu6  1  0.001414  0.312908  0.691363  1
  Lu  Lu7  1  0.998586  0.687092  0.308637  1
  Lu  Lu8  1  0.207351  0.404437  0.192540  1
  Lu  Lu9  1  0.792649  0.595563  0.807460  1
  Lu  Lu10  1  0.211898  0.014812  0.807460  1
  Lu  Lu11  1  0.788102  0.985188  0.192540  1
  Co  Co12  1  0.998590  0.374009  0.372600  1
  Co  Co13  1  0.001410  0.625991  0.627400  1
  Co  Co14  1  0.387292  0.887292  0.500000  1
  Co  Co15  1  0.612708  0.112708  0.500000  1
  Co  Co16  1  0.000000  0.000000  0.000000  1
  Bi  Bi17  1  0.500000  0.500000  0.000000  1
