# generated using pymatgen
data_PuSO6
_symmetry_space_group_name_H-M   'P 1'
_cell_length_a   6.03972300
_cell_length_b   6.83315187
_cell_length_c   12.86228807
_cell_angle_alpha   77.62888461
_cell_angle_beta   90.00000000
_cell_angle_gamma   90.00000000
_symmetry_Int_Tables_number   1
_chemical_formula_structural   PuSO6
_chemical_formula_sum   'Pu4 S4 O24'
_cell_volume   518.50537979
_cell_formula_units_Z   4
loop_
 _symmetry_equiv_pos_site_id
 _symmetry_equiv_pos_as_xyz
  1  'x, y, z'
loop_
 _atom_site_type_symbol
 _atom_site_label
 _atom_site_symmetry_multiplicity
 _atom_site_fract_x
 _atom_site_fract_y
 _atom_site_fract_z
 _atom_site_occupancy
  Pu  Pu0  1  0.260195  0.316116  0.839820  1
  Pu  Pu1  1  0.760195  0.683884  0.660180  1
  Pu  Pu2  1  0.739805  0.683884  0.160180  1
  Pu  Pu3  1  0.239805  0.316116  0.339820  1
  S  S4  1  0.952728  0.218483  0.606587  1
  S  S5  1  0.452728  0.781517  0.893413  1
  S  S6  1  0.047272  0.781517  0.393413  1
  S  S7  1  0.547272  0.218483  0.106587  1
  O  O8  1  0.006909  0.245622  0.904901  1
  O  O9  1  0.506909  0.754378  0.595099  1
  O  O10  1  0.993091  0.754378  0.095099  1
  O  O11  1  0.493091  0.245622  0.404901  1
  O  O12  1  0.015537  0.605701  0.727081  1
  O  O13  1  0.515537  0.394299  0.772919  1
  O  O14  1  0.984463  0.394299  0.272919  1
  O  O15  1  0.484463  0.605701  0.227081  1
  O  O16  1  0.215336  0.620162  0.398982  1
  O  O17  1  0.715336  0.379838  0.101018  1
  O  O18  1  0.784664  0.379838  0.601018  1
  O  O19  1  0.284664  0.620162  0.898982  1
  O  O20  1  0.043712  0.225994  0.499085  1
  O  O21  1  0.543712  0.774006  0.000915  1
  O  O22  1  0.956288  0.774006  0.500915  1
  O  O23  1  0.456288  0.225994  0.999085  1
  O  O24  1  0.153841  0.977505  0.353539  1
  O  O25  1  0.653841  0.022495  0.146461  1
  O  O26  1  0.846159  0.022495  0.646461  1
  O  O27  1  0.346159  0.977505  0.853539  1
  O  O28  1  0.363728  0.246805  0.179253  1
  O  O29  1  0.863728  0.753195  0.320747  1
  O  O30  1  0.636272  0.753195  0.820747  1
  O  O31  1  0.136272  0.246805  0.679253  1
