# generated using pymatgen
data_Hf16Co4Tc3Hg
_symmetry_space_group_name_H-M   'P 1'
_cell_length_a   8.66753575
_cell_length_b   8.66753591
_cell_length_c   8.66753631
_cell_angle_alpha   59.81141294
_cell_angle_beta   59.81141620
_cell_angle_gamma   59.81141008
_symmetry_Int_Tables_number   1
_chemical_formula_structural   Hf16Co4Tc3Hg
_chemical_formula_sum   'Hf16 Co4 Tc3 Hg1'
_cell_volume   458.46781464
_cell_formula_units_Z   1
loop_
 _symmetry_equiv_pos_site_id
 _symmetry_equiv_pos_as_xyz
  1  'x, y, z'
loop_
 _atom_site_type_symbol
 _atom_site_label
 _atom_site_symmetry_multiplicity
 _atom_site_fract_x
 _atom_site_fract_y
 _atom_site_fract_z
 _atom_site_occupancy
  Hf  Hf0  1  0.049308  0.652029  0.652029  1
  Hf  Hf1  1  0.652029  0.049308  0.652029  1
  Hf  Hf2  1  0.652029  0.652029  0.049308  1
  Hf  Hf3  1  0.648337  0.648337  0.648337  1
  Hf  Hf4  1  0.798582  0.798582  0.202282  1
  Hf  Hf5  1  0.194954  0.194954  0.811198  1
  Hf  Hf6  1  0.798582  0.202282  0.798582  1
  Hf  Hf7  1  0.194954  0.811198  0.194954  1
  Hf  Hf8  1  0.202282  0.798582  0.798582  1
  Hf  Hf9  1  0.811198  0.194954  0.194954  1
  Hf  Hf10  1  0.435645  0.435645  0.051620  1
  Hf  Hf11  1  0.063881  0.063881  0.435311  1
  Hf  Hf12  1  0.435645  0.051620  0.435645  1
  Hf  Hf13  1  0.063881  0.435311  0.063881  1
  Hf  Hf14  1  0.051620  0.435645  0.435645  1
  Hf  Hf15  1  0.435311  0.063881  0.063881  1
  Co  Co16  1  0.422844  0.859807  0.859807  1
  Co  Co17  1  0.859807  0.422844  0.859807  1
  Co  Co18  1  0.859807  0.859807  0.422844  1
  Co  Co19  1  0.859687  0.859687  0.859687  1
  Tc  Tc20  1  0.755633  0.417510  0.417510  1
  Tc  Tc21  1  0.417510  0.755633  0.417510  1
  Tc  Tc22  1  0.417510  0.417510  0.755633  1
  Hg  Hg23  1  0.418967  0.418967  0.418967  1
