# generated using pymatgen
data_TmPa(Al3Rh)3
_symmetry_space_group_name_H-M   'P 1'
_cell_length_a   7.58662849
_cell_length_b   7.59331469
_cell_length_c   9.34132500
_cell_angle_alpha   90.00000000
_cell_angle_beta   90.00000000
_cell_angle_gamma   119.63277710
_symmetry_Int_Tables_number   1
_chemical_formula_structural   TmPa(Al3Rh)3
_chemical_formula_sum   'Tm2 Pa2 Al18 Rh6'
_cell_volume   467.75078118
_cell_formula_units_Z   2
loop_
 _symmetry_equiv_pos_site_id
 _symmetry_equiv_pos_as_xyz
  1  'x, y, z'
loop_
 _atom_site_type_symbol
 _atom_site_label
 _atom_site_symmetry_multiplicity
 _atom_site_fract_x
 _atom_site_fract_y
 _atom_site_fract_z
 _atom_site_occupancy
  Tm  Tm0  1  0.670225  0.993016  0.250000  1
  Tm  Tm1  1  0.329775  0.006984  0.750000  1
  Pa  Pa2  1  0.997552  0.671061  0.250000  1
  Pa  Pa3  1  0.002448  0.328939  0.750000  1
  Al  Al4  1  0.129936  0.125864  0.250000  1
  Al  Al5  1  0.870064  0.874136  0.750000  1
  Al  Al6  1  0.999647  0.331010  0.078594  1
  Al  Al7  1  0.000353  0.668990  0.921406  1
  Al  Al8  1  0.000353  0.668990  0.578594  1
  Al  Al9  1  0.338786  0.002878  0.425106  1
  Al  Al10  1  0.999647  0.331010  0.421406  1
  Al  Al11  1  0.661214  0.997122  0.574894  1
  Al  Al12  1  0.661214  0.997122  0.925106  1
  Al  Al13  1  0.338786  0.002878  0.074894  1
  Al  Al14  1  0.334801  0.332700  0.553222  1
  Al  Al15  1  0.665199  0.667300  0.446778  1
  Al  Al16  1  0.665199  0.667300  0.053222  1
  Al  Al17  1  0.334801  0.332700  0.946778  1
  Al  Al18  1  0.340763  0.549470  0.250000  1
  Al  Al19  1  0.659237  0.450530  0.750000  1
  Al  Al20  1  0.550153  0.341423  0.250000  1
  Al  Al21  1  0.449847  0.658577  0.750000  1
  Rh  Rh22  1  0.675950  0.329417  0.999573  1
  Rh  Rh23  1  0.324050  0.670583  0.000427  1
  Rh  Rh24  1  0.324050  0.670583  0.499573  1
  Rh  Rh25  1  0.675950  0.329417  0.500427  1
  Rh  Rh26  1  0.000000  0.000000  0.000000  1
  Rh  Rh27  1  0.000000  0.000000  0.500000  1
