# generated using pymatgen
data_Nd8Mg2OsPt
_symmetry_space_group_name_H-M   'P 1'
_cell_length_a   10.05620344
_cell_length_b   10.05620303
_cell_length_c   10.12388500
_cell_angle_alpha   59.77710699
_cell_angle_beta   59.77710834
_cell_angle_gamma   59.78009209
_symmetry_Int_Tables_number   1
_chemical_formula_structural   Nd8Mg2OsPt
_chemical_formula_sum   'Nd16 Mg4 Os2 Pt2'
_cell_volume   720.28903801
_cell_formula_units_Z   2
loop_
 _symmetry_equiv_pos_site_id
 _symmetry_equiv_pos_as_xyz
  1  'x, y, z'
loop_
 _atom_site_type_symbol
 _atom_site_label
 _atom_site_symmetry_multiplicity
 _atom_site_fract_x
 _atom_site_fract_y
 _atom_site_fract_z
 _atom_site_occupancy
  Nd  Nd0  1  0.346012  0.346012  0.351161  1
  Nd  Nd1  1  0.346012  0.346012  0.956815  1
  Nd  Nd2  1  0.342759  0.961418  0.347912  1
  Nd  Nd3  1  0.961418  0.342759  0.347912  1
  Nd  Nd4  1  0.815850  0.187809  0.189598  1
  Nd  Nd5  1  0.187809  0.815850  0.806743  1
  Nd  Nd6  1  0.187809  0.815850  0.189598  1
  Nd  Nd7  1  0.815850  0.187809  0.806743  1
  Nd  Nd8  1  0.187884  0.187884  0.812116  1
  Nd  Nd9  1  0.808663  0.808663  0.191337  1
  Nd  Nd10  1  0.938277  0.557265  0.565406  1
  Nd  Nd11  1  0.557265  0.938277  0.939052  1
  Nd  Nd12  1  0.557265  0.938277  0.565406  1
  Nd  Nd13  1  0.938277  0.557265  0.939052  1
  Nd  Nd14  1  0.563237  0.563237  0.936763  1
  Nd  Nd15  1  0.939808  0.939808  0.560192  1
  Mg  Mg16  1  0.578719  0.578719  0.579885  1
  Mg  Mg17  1  0.578719  0.578719  0.262678  1
  Mg  Mg18  1  0.579042  0.261470  0.579745  1
  Mg  Mg19  1  0.261470  0.579042  0.579745  1
  Os  Os20  1  0.143792  0.143792  0.136830  1
  Os  Os21  1  0.143792  0.143792  0.575588  1
  Pt  Pt22  1  0.145095  0.575179  0.139864  1
  Pt  Pt23  1  0.575179  0.145095  0.139864  1
