# generated using pymatgen
data_Ba2Tb2YbSn4
_symmetry_space_group_name_H-M   'P 1'
_cell_length_a   8.26592700
_cell_length_b   8.74747100
_cell_length_c   16.69199800
_cell_angle_alpha   90.00000000
_cell_angle_beta   90.00000000
_cell_angle_gamma   90.00000000
_symmetry_Int_Tables_number   1
_chemical_formula_structural   Ba2Tb2YbSn4
_chemical_formula_sum   'Ba8 Tb8 Yb4 Sn16'
_cell_volume   1206.93088497
_cell_formula_units_Z   4
loop_
 _symmetry_equiv_pos_site_id
 _symmetry_equiv_pos_as_xyz
  1  'x, y, z'
loop_
 _atom_site_type_symbol
 _atom_site_label
 _atom_site_symmetry_multiplicity
 _atom_site_fract_x
 _atom_site_fract_y
 _atom_site_fract_z
 _atom_site_occupancy
  Ba  Ba0  1  0.504871  0.676721  0.595402  1
  Ba  Ba1  1  0.004871  0.823279  0.904598  1
  Ba  Ba2  1  0.495129  0.323279  0.095402  1
  Ba  Ba3  1  0.995129  0.176721  0.404598  1
  Ba  Ba4  1  0.495129  0.323279  0.404598  1
  Ba  Ba5  1  0.995129  0.176721  0.095402  1
  Ba  Ba6  1  0.504871  0.676721  0.904598  1
  Ba  Ba7  1  0.004871  0.823279  0.595402  1
  Tb  Tb8  1  0.669600  0.170332  0.623051  1
  Tb  Tb9  1  0.169600  0.329668  0.876949  1
  Tb  Tb10  1  0.330400  0.829668  0.123051  1
  Tb  Tb11  1  0.830400  0.670332  0.376949  1
  Tb  Tb12  1  0.330400  0.829668  0.376949  1
  Tb  Tb13  1  0.830400  0.670332  0.123051  1
  Tb  Tb14  1  0.669600  0.170332  0.876949  1
  Tb  Tb15  1  0.169600  0.329668  0.623051  1
  Yb  Yb16  1  0.834757  0.503599  0.750000  1
  Yb  Yb17  1  0.334757  0.996401  0.750000  1
  Yb  Yb18  1  0.165243  0.496401  0.250000  1
  Yb  Yb19  1  0.665243  0.003599  0.250000  1
  Sn  Sn20  1  0.657077  0.957169  0.459216  1
  Sn  Sn21  1  0.157077  0.542831  0.040784  1
  Sn  Sn22  1  0.342923  0.042831  0.959216  1
  Sn  Sn23  1  0.842923  0.457169  0.540784  1
  Sn  Sn24  1  0.342923  0.042831  0.540784  1
  Sn  Sn25  1  0.842923  0.457169  0.959216  1
  Sn  Sn26  1  0.657077  0.957169  0.040784  1
  Sn  Sn27  1  0.157077  0.542831  0.459216  1
  Sn  Sn28  1  0.466619  0.366154  0.750000  1
  Sn  Sn29  1  0.966619  0.133846  0.750000  1
  Sn  Sn30  1  0.533381  0.633846  0.250000  1
  Sn  Sn31  1  0.033381  0.866154  0.250000  1
  Sn  Sn32  1  0.712554  0.893712  0.750000  1
  Sn  Sn33  1  0.212554  0.606288  0.750000  1
  Sn  Sn34  1  0.287446  0.106288  0.250000  1
  Sn  Sn35  1  0.787446  0.393712  0.250000  1
