# generated using pymatgen
data_Er4Al15(Co2Si)3
_symmetry_space_group_name_H-M   'P 1'
_cell_length_a   7.29546401
_cell_length_b   7.29547982
_cell_length_c   9.13902406
_cell_angle_alpha   89.97006125
_cell_angle_beta   89.97141304
_cell_angle_gamma   119.21675262
_symmetry_Int_Tables_number   1
_chemical_formula_structural   Er4Al15(Co2Si)3
_chemical_formula_sum   'Er4 Al15 Co6 Si3'
_cell_volume   424.53242272
_cell_formula_units_Z   1
loop_
 _symmetry_equiv_pos_site_id
 _symmetry_equiv_pos_as_xyz
  1  'x, y, z'
loop_
 _atom_site_type_symbol
 _atom_site_label
 _atom_site_symmetry_multiplicity
 _atom_site_fract_x
 _atom_site_fract_y
 _atom_site_fract_z
 _atom_site_occupancy
  Er  Er0  1  0.992893  0.677163  0.250495  1
  Er  Er1  1  0.010352  0.321936  0.748032  1
  Er  Er2  1  0.677169  0.992871  0.250515  1
  Er  Er3  1  0.321967  0.010399  0.748029  1
  Al  Al4  1  0.667386  0.667378  0.046612  1
  Al  Al5  1  0.333856  0.333865  0.957577  1
  Al  Al6  1  0.663362  0.663351  0.451729  1
  Al  Al7  1  0.335695  0.555501  0.247667  1
  Al  Al8  1  0.665722  0.444925  0.750947  1
  Al  Al9  1  0.555493  0.335680  0.247675  1
  Al  Al10  1  0.444863  0.665717  0.750942  1
  Al  Al11  1  0.996237  0.336419  0.072000  1
  Al  Al12  1  0.001795  0.663406  0.573290  1
  Al  Al13  1  0.335936  0.998393  0.425862  1
  Al  Al14  1  0.663227  0.002955  0.926630  1
  Al  Al15  1  0.002970  0.663233  0.926613  1
  Al  Al16  1  0.998415  0.335942  0.425851  1
  Al  Al17  1  0.663397  0.001764  0.573298  1
  Al  Al18  1  0.336443  0.996256  0.071996  1
  Co  Co19  1  0.000056  0.000056  0.998564  1
  Co  Co20  1  0.009810  0.009809  0.503015  1
  Co  Co21  1  0.669975  0.328819  0.998589  1
  Co  Co22  1  0.327851  0.661366  0.501085  1
  Co  Co23  1  0.328818  0.670016  0.998593  1
  Co  Co24  1  0.661377  0.327849  0.501094  1
  Si  Si25  1  0.124408  0.124392  0.247253  1
  Si  Si26  1  0.874140  0.874135  0.750672  1
  Si  Si27  1  0.336383  0.336398  0.555374  1
