# generated using pymatgen
data_Hf18Re3Ni2Mo2W3
_symmetry_space_group_name_H-M   'P 1'
_cell_length_a   8.69064606
_cell_length_b   8.69390399
_cell_length_c   8.47526700
_cell_angle_alpha   90.00000000
_cell_angle_beta   90.00000000
_cell_angle_gamma   120.10388553
_symmetry_Int_Tables_number   1
_chemical_formula_structural   Hf18Re3Ni2Mo2W3
_chemical_formula_sum   'Hf18 Re3 Ni2 Mo2 W3'
_cell_volume   553.98160382
_cell_formula_units_Z   1
loop_
 _symmetry_equiv_pos_site_id
 _symmetry_equiv_pos_as_xyz
  1  'x, y, z'
loop_
 _atom_site_type_symbol
 _atom_site_label
 _atom_site_symmetry_multiplicity
 _atom_site_fract_x
 _atom_site_fract_y
 _atom_site_fract_z
 _atom_site_occupancy
  Hf  Hf0  1  0.199734  0.800815  0.442525  1
  Hf  Hf1  1  0.198940  0.397979  0.442867  1
  Hf  Hf2  1  0.601408  0.801049  0.443647  1
  Hf  Hf3  1  0.801047  0.199127  0.558384  1
  Hf  Hf4  1  0.800277  0.601232  0.557511  1
  Hf  Hf5  1  0.398255  0.199552  0.557102  1
  Hf  Hf6  1  0.801047  0.199127  0.941616  1
  Hf  Hf7  1  0.800277  0.601232  0.942489  1
  Hf  Hf8  1  0.398255  0.199552  0.942898  1
  Hf  Hf9  1  0.199734  0.800815  0.057475  1
  Hf  Hf10  1  0.198940  0.397979  0.057133  1
  Hf  Hf11  1  0.601408  0.801049  0.056353  1
  Hf  Hf12  1  0.540719  0.457080  0.250000  1
  Hf  Hf13  1  0.541332  0.083368  0.250000  1
  Hf  Hf14  1  0.916795  0.457627  0.250000  1
  Hf  Hf15  1  0.457820  0.541632  0.750000  1
  Hf  Hf16  1  0.458690  0.916026  0.750000  1
  Hf  Hf17  1  0.083949  0.541026  0.750000  1
  Re  Re18  1  0.224106  0.112794  0.250000  1
  Re  Re19  1  0.111908  0.223879  0.750000  1
  Re  Re20  1  0.775847  0.888425  0.750000  1
  Ni  Ni21  1  0.333370  0.666669  0.250000  1
  Ni  Ni22  1  0.666177  0.333300  0.750000  1
  Mo  Mo23  1  0.888321  0.776704  0.250000  1
  Mo  Mo24  1  0.111740  0.889018  0.750000  1
  W  W25  1  0.889146  0.112079  0.250000  1
  W  W26  1  0.000379  0.000433  0.500590  1
  W  W27  1  0.000379  0.000433  0.999410  1
