# generated using pymatgen
data_Sr2P7(Rh3W)3
_symmetry_space_group_name_H-M   'P 1'
_cell_length_a   9.61998300
_cell_length_b   9.61998441
_cell_length_c   3.98038700
_cell_angle_alpha   90.00000000
_cell_angle_beta   90.00000000
_cell_angle_gamma   119.99999859
_symmetry_Int_Tables_number   1
_chemical_formula_structural   Sr2P7(Rh3W)3
_chemical_formula_sum   'Sr2 P7 Rh9 W3'
_cell_volume   319.01022966
_cell_formula_units_Z   1
loop_
 _symmetry_equiv_pos_site_id
 _symmetry_equiv_pos_as_xyz
  1  'x, y, z'
loop_
 _atom_site_type_symbol
 _atom_site_label
 _atom_site_symmetry_multiplicity
 _atom_site_fract_x
 _atom_site_fract_y
 _atom_site_fract_z
 _atom_site_occupancy
  Sr  Sr0  1  0.000000  0.000000  0.763326  1
  Sr  Sr1  1  0.333333  0.666667  0.263571  1
  P  P2  1  0.666667  0.333333  0.263731  1
  P  P3  1  0.068167  0.623724  0.763925  1
  P  P4  1  0.376276  0.444444  0.763925  1
  P  P5  1  0.555556  0.931833  0.763925  1
  P  P6  1  0.255891  0.037022  0.263450  1
  P  P7  1  0.962978  0.218869  0.263450  1
  P  P8  1  0.781131  0.744109  0.263450  1
  Rh  Rh9  1  0.508466  0.063642  0.263757  1
  Rh  Rh10  1  0.936358  0.444824  0.263757  1
  Rh  Rh11  1  0.555176  0.491534  0.263757  1
  Rh  Rh12  1  0.099348  0.379128  0.763841  1
  Rh  Rh13  1  0.620872  0.720220  0.763841  1
  Rh  Rh14  1  0.279780  0.900652  0.763841  1
  Rh  Rh15  1  0.235145  0.269007  0.264216  1
  Rh  Rh16  1  0.730993  0.966138  0.264216  1
  Rh  Rh17  1  0.033862  0.764855  0.264216  1
  W  W18  1  0.790413  0.545965  0.763915  1
  W  W19  1  0.454035  0.244448  0.763915  1
  W  W20  1  0.755552  0.209587  0.763915  1
