# generated using pymatgen
data_Ta2Co4TcB4W
_symmetry_space_group_name_H-M   'P 1'
_cell_length_a   3.26618800
_cell_length_b   5.76562360
_cell_length_c   6.68130703
_cell_angle_alpha   89.56199862
_cell_angle_beta   90.00000000
_cell_angle_gamma   90.00000000
_symmetry_Int_Tables_number   1
_chemical_formula_structural   Ta2Co4TcB4W
_chemical_formula_sum   'Ta2 Co4 Tc1 B4 W1'
_cell_volume   125.81609591
_cell_formula_units_Z   1
loop_
 _symmetry_equiv_pos_site_id
 _symmetry_equiv_pos_as_xyz
  1  'x, y, z'
loop_
 _atom_site_type_symbol
 _atom_site_label
 _atom_site_symmetry_multiplicity
 _atom_site_fract_x
 _atom_site_fract_y
 _atom_site_fract_z
 _atom_site_occupancy
  Ta  Ta0  1  0.250000  0.526787  0.679148  1
  Ta  Ta1  1  0.750000  0.972878  0.174421  1
  Co  Co2  1  0.250000  0.140834  0.440443  1
  Co  Co3  1  0.250000  0.646515  0.059042  1
  Co  Co4  1  0.750000  0.854170  0.556816  1
  Co  Co5  1  0.750000  0.359232  0.943254  1
  Tc  Tc6  1  0.250000  0.027494  0.824093  1
  B  B7  1  0.250000  0.279016  0.122083  1
  B  B8  1  0.250000  0.764798  0.376884  1
  B  B9  1  0.750000  0.734179  0.873510  1
  B  B10  1  0.750000  0.221361  0.626554  1
  W  W11  1  0.750000  0.472736  0.323754  1
