# generated using pymatgen
data_Er2Al9NiIrRh
_symmetry_space_group_name_H-M   'P 1'
_cell_length_a   7.52078534
_cell_length_b   7.52078585
_cell_length_c   9.36697802
_cell_angle_alpha   90.00388130
_cell_angle_beta   90.00388272
_cell_angle_gamma   119.94707672
_symmetry_Int_Tables_number   1
_chemical_formula_structural   Er2Al9NiIrRh
_chemical_formula_sum   'Er4 Al18 Ni2 Ir2 Rh2'
_cell_volume   459.07950263
_cell_formula_units_Z   2
loop_
 _symmetry_equiv_pos_site_id
 _symmetry_equiv_pos_as_xyz
  1  'x, y, z'
loop_
 _atom_site_type_symbol
 _atom_site_label
 _atom_site_symmetry_multiplicity
 _atom_site_fract_x
 _atom_site_fract_y
 _atom_site_fract_z
 _atom_site_occupancy
  Er  Er0  1  0.994246  0.666903  0.749106  1
  Er  Er1  1  0.005754  0.333097  0.250894  1
  Er  Er2  1  0.666903  0.994246  0.749106  1
  Er  Er3  1  0.333097  0.005754  0.250894  1
  Al  Al4  1  0.119406  0.119406  0.750160  1
  Al  Al5  1  0.880594  0.880594  0.249840  1
  Al  Al6  1  0.999840  0.331157  0.575339  1
  Al  Al7  1  0.000160  0.668843  0.424661  1
  Al  Al8  1  0.001194  0.668855  0.074687  1
  Al  Al9  1  0.331145  0.998806  0.925313  1
  Al  Al10  1  0.998806  0.331145  0.925313  1
  Al  Al11  1  0.668855  0.001194  0.074687  1
  Al  Al12  1  0.668843  0.000160  0.424661  1
  Al  Al13  1  0.331157  0.999840  0.575339  1
  Al  Al14  1  0.329827  0.329827  0.051208  1
  Al  Al15  1  0.670173  0.670173  0.948792  1
  Al  Al16  1  0.669810  0.669810  0.550390  1
  Al  Al17  1  0.330190  0.330190  0.449610  1
  Al  Al18  1  0.338402  0.546475  0.750887  1
  Al  Al19  1  0.661598  0.453525  0.249113  1
  Al  Al20  1  0.546475  0.338402  0.750887  1
  Al  Al21  1  0.453525  0.661598  0.249113  1
  Ni  Ni22  1  0.000000  0.000000  0.500000  1
  Ni  Ni23  1  0.000000  0.000000  0.000000  1
  Ir  Ir24  1  0.672222  0.327778  0.500000  1
  Ir  Ir25  1  0.327778  0.672222  0.500000  1
  Rh  Rh26  1  0.327896  0.672104  0.000000  1
  Rh  Rh27  1  0.672104  0.327896  0.000000  1
