# generated using pymatgen
data_LaThAl8GaIr3
_symmetry_space_group_name_H-M   'P 1'
_cell_length_a   7.65755508
_cell_length_b   7.65540593
_cell_length_c   9.60343000
_cell_angle_alpha   90.00000000
_cell_angle_beta   90.00000000
_cell_angle_gamma   119.42753779
_symmetry_Int_Tables_number   1
_chemical_formula_structural   LaThAl8GaIr3
_chemical_formula_sum   'La2 Th2 Al16 Ga2 Ir6'
_cell_volume   490.33376350
_cell_formula_units_Z   2
loop_
 _symmetry_equiv_pos_site_id
 _symmetry_equiv_pos_as_xyz
  1  'x, y, z'
loop_
 _atom_site_type_symbol
 _atom_site_label
 _atom_site_symmetry_multiplicity
 _atom_site_fract_x
 _atom_site_fract_y
 _atom_site_fract_z
 _atom_site_occupancy
  La  La0  1  0.672140  0.993818  0.250000  1
  La  La1  1  0.327860  0.006182  0.750000  1
  Th  Th2  1  0.994834  0.673523  0.250000  1
  Th  Th3  1  0.005166  0.326477  0.750000  1
  Al  Al4  1  0.003686  0.334537  0.074832  1
  Al  Al5  1  0.996314  0.665463  0.925168  1
  Al  Al6  1  0.996314  0.665463  0.574832  1
  Al  Al7  1  0.337558  0.005033  0.426995  1
  Al  Al8  1  0.003686  0.334537  0.425168  1
  Al  Al9  1  0.662442  0.994967  0.573005  1
  Al  Al10  1  0.662442  0.994967  0.926995  1
  Al  Al11  1  0.337558  0.005033  0.073005  1
  Al  Al12  1  0.336792  0.335810  0.548895  1
  Al  Al13  1  0.663208  0.664190  0.451105  1
  Al  Al14  1  0.663208  0.664190  0.048895  1
  Al  Al15  1  0.336792  0.335810  0.951105  1
  Al  Al16  1  0.338187  0.545496  0.250000  1
  Al  Al17  1  0.661813  0.454504  0.750000  1
  Al  Al18  1  0.546303  0.340058  0.250000  1
  Al  Al19  1  0.453697  0.659942  0.750000  1
  Ga  Ga20  1  0.137185  0.136192  0.250000  1
  Ga  Ga21  1  0.862815  0.863808  0.750000  1
  Ir  Ir22  1  0.673510  0.331491  0.000031  1
  Ir  Ir23  1  0.326490  0.668509  0.999969  1
  Ir  Ir24  1  0.326490  0.668509  0.500031  1
  Ir  Ir25  1  0.673510  0.331491  0.499969  1
  Ir  Ir26  1  0.000000  0.000000  0.000000  1
  Ir  Ir27  1  0.000000  0.000000  0.500000  1
