# generated using pymatgen
data_Dy11ErFe2Br17
_symmetry_space_group_name_H-M   'P 1'
_cell_length_a   9.19924192
_cell_length_b   11.07532501
_cell_length_c   11.10638224
_cell_angle_alpha   93.53390428
_cell_angle_beta   104.61454046
_cell_angle_gamma   114.03114799
_symmetry_Int_Tables_number   1
_chemical_formula_structural   Dy11ErFe2Br17
_chemical_formula_sum   'Dy11 Er1 Fe2 Br17'
_cell_volume   982.59828178
_cell_formula_units_Z   1
loop_
 _symmetry_equiv_pos_site_id
 _symmetry_equiv_pos_as_xyz
  1  'x, y, z'
loop_
 _atom_site_type_symbol
 _atom_site_label
 _atom_site_symmetry_multiplicity
 _atom_site_fract_x
 _atom_site_fract_y
 _atom_site_fract_z
 _atom_site_occupancy
  Dy  Dy0  1  0.985596  0.810578  0.579477  1
  Dy  Dy1  1  0.646309  0.240234  0.285520  1
  Dy  Dy2  1  0.014517  0.189886  0.420405  1
  Dy  Dy3  1  0.226133  0.671031  0.991122  1
  Dy  Dy4  1  0.257844  0.988260  0.890562  1
  Dy  Dy5  1  0.354626  0.760493  0.714582  1
  Dy  Dy6  1  0.941218  0.487302  0.678283  1
  Dy  Dy7  1  0.742233  0.011601  0.109328  1
  Dy  Dy8  1  0.151917  0.288371  0.151495  1
  Dy  Dy9  1  0.774228  0.329362  0.009452  1
  Dy  Dy10  1  0.847875  0.712020  0.848961  1
  Er  Er11  1  0.057582  0.510675  0.320904  1
  Fe  Fe12  1  0.103839  0.738415  0.785610  1
  Fe  Fe13  1  0.896150  0.261590  0.214443  1
  Br  Br14  1  0.791350  0.527238  0.420507  1
  Br  Br15  1  0.647171  0.422335  0.761790  1
  Br  Br16  1  0.847052  0.899959  0.327917  1
  Br  Br17  1  0.325001  0.213821  0.365264  1
  Br  Br18  1  0.152859  0.099994  0.672081  1
  Br  Br19  1  0.584565  0.051645  0.847752  1
  Br  Br20  1  0.760313  0.188281  0.536535  1
  Br  Br21  1  0.548658  0.710533  0.951162  1
  Br  Br22  1  0.351768  0.578158  0.238931  1
  Br  Br23  1  0.209956  0.474151  0.579035  1
  Br  Br24  1  0.055532  0.371624  0.900289  1
  Br  Br25  1  0.450802  0.289210  0.048616  1
  Br  Br26  1  0.000207  0.999908  0.999878  1
  Br  Br27  1  0.238488  0.809715  0.462833  1
  Br  Br28  1  0.415343  0.948425  0.152048  1
  Br  Br29  1  0.675275  0.786229  0.634873  1
  Br  Br30  1  0.945593  0.628956  0.100346  1
