# generated using pymatgen
data_Ho4ErIr3
_symmetry_space_group_name_H-M   'P 1'
_cell_length_a   10.83250700
_cell_length_b   10.83250700
_cell_length_c   6.34628800
_cell_angle_alpha   90.00000000
_cell_angle_beta   90.00000000
_cell_angle_gamma   90.00000000
_symmetry_Int_Tables_number   1
_chemical_formula_structural   Ho4ErIr3
_chemical_formula_sum   'Ho16 Er4 Ir12'
_cell_volume   744.69379221
_cell_formula_units_Z   4
loop_
 _symmetry_equiv_pos_site_id
 _symmetry_equiv_pos_as_xyz
  1  'x, y, z'
loop_
 _atom_site_type_symbol
 _atom_site_label
 _atom_site_symmetry_multiplicity
 _atom_site_fract_x
 _atom_site_fract_y
 _atom_site_fract_z
 _atom_site_occupancy
  Ho  Ho0  1  0.291000  0.087910  0.377687  1
  Ho  Ho1  1  0.291000  0.912090  0.877687  1
  Ho  Ho2  1  0.709000  0.087910  0.877687  1
  Ho  Ho3  1  0.709000  0.912090  0.377687  1
  Ho  Ho4  1  0.587910  0.791000  0.877687  1
  Ho  Ho5  1  0.587910  0.209000  0.377687  1
  Ho  Ho6  1  0.412090  0.791000  0.377687  1
  Ho  Ho7  1  0.412090  0.209000  0.877687  1
  Ho  Ho8  1  0.209000  0.412090  0.622313  1
  Ho  Ho9  1  0.209000  0.587910  0.122313  1
  Ho  Ho10  1  0.791000  0.412090  0.122313  1
  Ho  Ho11  1  0.791000  0.587910  0.622313  1
  Ho  Ho12  1  0.912090  0.709000  0.122313  1
  Ho  Ho13  1  0.912090  0.291000  0.622313  1
  Ho  Ho14  1  0.087910  0.709000  0.622313  1
  Ho  Ho15  1  0.087910  0.291000  0.122313  1
  Er  Er16  1  0.000000  0.000000  0.500000  1
  Er  Er17  1  0.000000  0.000000  0.000000  1
  Er  Er18  1  0.500000  0.500000  0.000000  1
  Er  Er19  1  0.500000  0.500000  0.500000  1
  Ir  Ir20  1  0.846912  0.153088  0.250000  1
  Ir  Ir21  1  0.846912  0.846912  0.750000  1
  Ir  Ir22  1  0.153088  0.153088  0.750000  1
  Ir  Ir23  1  0.153088  0.846912  0.250000  1
  Ir  Ir24  1  0.653088  0.346912  0.750000  1
  Ir  Ir25  1  0.653088  0.653088  0.250000  1
  Ir  Ir26  1  0.346912  0.346912  0.250000  1
  Ir  Ir27  1  0.346912  0.653088  0.750000  1
  Ir  Ir28  1  0.500000  0.000000  0.121752  1
  Ir  Ir29  1  0.500000  0.000000  0.621752  1
  Ir  Ir30  1  0.000000  0.500000  0.878248  1
  Ir  Ir31  1  0.000000  0.500000  0.378248  1
