# generated using pymatgen
data_Tb2Gd5LuSb20
_symmetry_space_group_name_H-M   'P 1'
_cell_length_a   4.32068900
_cell_length_b   13.56707415
_cell_length_c   15.14939600
_cell_angle_alpha   78.77490789
_cell_angle_beta   90.00000000
_cell_angle_gamma   90.00000000
_symmetry_Int_Tables_number   1
_chemical_formula_structural   Tb2Gd5LuSb20
_chemical_formula_sum   'Tb2 Gd5 Lu1 Sb20'
_cell_volume   871.05579622
_cell_formula_units_Z   1
loop_
 _symmetry_equiv_pos_site_id
 _symmetry_equiv_pos_as_xyz
  1  'x, y, z'
loop_
 _atom_site_type_symbol
 _atom_site_label
 _atom_site_symmetry_multiplicity
 _atom_site_fract_x
 _atom_site_fract_y
 _atom_site_fract_z
 _atom_site_occupancy
  Tb  Tb0  1  0.750000  0.331099  0.422900  1
  Tb  Tb1  1  0.750000  0.597018  0.229780  1
  Gd  Gd2  1  0.750000  0.332018  0.141494  1
  Gd  Gd3  1  0.250000  0.950398  0.366599  1
  Gd  Gd4  1  0.250000  0.666173  0.856497  1
  Gd  Gd5  1  0.250000  0.669921  0.577721  1
  Gd  Gd6  1  0.750000  0.051543  0.634308  1
  Lu  Lu7  1  0.250000  0.403423  0.768939  1
  Sb  Sb8  1  0.750000  0.852442  0.817117  1
  Sb  Sb9  1  0.250000  0.863897  0.674361  1
  Sb  Sb10  1  0.250000  0.147846  0.479976  1
  Sb  Sb11  1  0.750000  0.288847  0.929008  1
  Sb  Sb12  1  0.250000  0.151223  0.772258  1
  Sb  Sb13  1  0.750000  0.574535  0.444495  1
  Sb  Sb14  1  0.750000  0.137881  0.327242  1
  Sb  Sb15  1  0.250000  0.702623  0.354791  1
  Sb  Sb16  1  0.750000  0.297576  0.645914  1
  Sb  Sb17  1  0.750000  0.850981  0.230111  1
  Sb  Sb18  1  0.250000  0.420486  0.970701  1
  Sb  Sb19  1  0.250000  0.426078  0.557193  1
  Sb  Sb20  1  0.750000  0.576415  0.736690  1
  Sb  Sb21  1  0.250000  0.418445  0.264088  1
  Sb  Sb22  1  0.750000  0.854305  0.520769  1
  Sb  Sb23  1  0.750000  0.040317  0.881162  1
  Sb  Sb24  1  0.250000  0.709756  0.065619  1
  Sb  Sb25  1  0.250000  0.959861  0.120798  1
  Sb  Sb26  1  0.250000  0.147706  0.183864  1
  Sb  Sb27  1  0.750000  0.577185  0.025604  1
