# generated using pymatgen
data_Tb3Dy4(YSi2)3
_symmetry_space_group_name_H-M   'P 1'
_cell_length_a   8.46353661
_cell_length_b   8.47453824
_cell_length_c   6.38779300
_cell_angle_alpha   90.00000000
_cell_angle_beta   90.00000000
_cell_angle_gamma   120.00064898
_symmetry_Int_Tables_number   1
_chemical_formula_structural   Tb3Dy4(YSi2)3
_chemical_formula_sum   'Tb3 Dy4 Y3 Si6'
_cell_volume   396.77705235
_cell_formula_units_Z   1
loop_
 _symmetry_equiv_pos_site_id
 _symmetry_equiv_pos_as_xyz
  1  'x, y, z'
loop_
 _atom_site_type_symbol
 _atom_site_label
 _atom_site_symmetry_multiplicity
 _atom_site_fract_x
 _atom_site_fract_y
 _atom_site_fract_z
 _atom_site_occupancy
  Tb  Tb0  1  0.756615  0.000037  0.750000  1
  Tb  Tb1  1  0.243570  0.243652  0.750000  1
  Tb  Tb2  1  0.243508  0.999962  0.250000  1
  Dy  Dy3  1  0.666812  0.333485  0.000035  1
  Dy  Dy4  1  0.333266  0.666600  0.499966  1
  Dy  Dy5  1  0.333266  0.666600  0.000034  1
  Dy  Dy6  1  0.666812  0.333485  0.499965  1
  Y  Y7  1  0.999952  0.756213  0.750000  1
  Y  Y8  1  0.000015  0.243864  0.250000  1
  Y  Y9  1  0.756398  0.756332  0.250000  1
  Si  Si10  1  0.394037  0.999711  0.750000  1
  Si  Si11  1  0.394291  0.394457  0.250000  1
  Si  Si12  1  0.999738  0.605355  0.250000  1
  Si  Si13  1  0.999889  0.394739  0.750000  1
  Si  Si14  1  0.605781  0.605597  0.750000  1
  Si  Si15  1  0.606051  0.999910  0.250000  1
