# generated using pymatgen
data_La2Pr2HoIr3
_symmetry_space_group_name_H-M   'P 1'
_cell_length_a   11.30723100
_cell_length_b   11.30723100
_cell_length_c   6.56021400
_cell_angle_alpha   90.00000000
_cell_angle_beta   90.00000000
_cell_angle_gamma   90.00000000
_symmetry_Int_Tables_number   1
_chemical_formula_structural   La2Pr2HoIr3
_chemical_formula_sum   'La8 Pr8 Ho4 Ir12'
_cell_volume   838.74614278
_cell_formula_units_Z   4
loop_
 _symmetry_equiv_pos_site_id
 _symmetry_equiv_pos_as_xyz
  1  'x, y, z'
loop_
 _atom_site_type_symbol
 _atom_site_label
 _atom_site_symmetry_multiplicity
 _atom_site_fract_x
 _atom_site_fract_y
 _atom_site_fract_z
 _atom_site_occupancy
  La  La0  1  0.287267  0.089070  0.384371  1
  La  La1  1  0.287267  0.910930  0.884371  1
  La  La2  1  0.712733  0.089070  0.884371  1
  La  La3  1  0.712733  0.910930  0.384371  1
  La  La4  1  0.589070  0.787267  0.884371  1
  La  La5  1  0.589070  0.212733  0.384371  1
  La  La6  1  0.410930  0.787267  0.384371  1
  La  La7  1  0.410930  0.212733  0.884371  1
  Pr  Pr8  1  0.210836  0.413397  0.616084  1
  Pr  Pr9  1  0.210836  0.586603  0.116084  1
  Pr  Pr10  1  0.789164  0.413397  0.116084  1
  Pr  Pr11  1  0.789164  0.586603  0.616084  1
  Pr  Pr12  1  0.913397  0.710836  0.116084  1
  Pr  Pr13  1  0.913397  0.289164  0.616084  1
  Pr  Pr14  1  0.086603  0.710836  0.616084  1
  Pr  Pr15  1  0.086603  0.289164  0.116084  1
  Ho  Ho16  1  0.000000  0.000000  0.500643  1
  Ho  Ho17  1  0.000000  0.000000  0.000643  1
  Ho  Ho18  1  0.500000  0.500000  0.000643  1
  Ho  Ho19  1  0.500000  0.500000  0.500643  1
  Ir  Ir20  1  0.851300  0.146799  0.248478  1
  Ir  Ir21  1  0.851300  0.853201  0.748478  1
  Ir  Ir22  1  0.148700  0.146799  0.748478  1
  Ir  Ir23  1  0.148700  0.853201  0.248478  1
  Ir  Ir24  1  0.646799  0.351300  0.748478  1
  Ir  Ir25  1  0.646799  0.648700  0.248478  1
  Ir  Ir26  1  0.353201  0.351300  0.248478  1
  Ir  Ir27  1  0.353201  0.648700  0.748478  1
  Ir  Ir28  1  0.500000  0.000000  0.118829  1
  Ir  Ir29  1  0.500000  0.000000  0.618829  1
  Ir  Ir30  1  0.000000  0.500000  0.884151  1
  Ir  Ir31  1  0.000000  0.500000  0.384151  1
