# generated using pymatgen
data_Lu5Co17(P6W)2
_symmetry_space_group_name_H-M   'P 1'
_cell_length_a   12.01188600
_cell_length_b   11.94975749
_cell_length_c   3.69736500
_cell_angle_alpha   90.00000000
_cell_angle_beta   90.00000000
_cell_angle_gamma   119.82904381
_symmetry_Int_Tables_number   1
_chemical_formula_structural   Lu5Co17(P6W)2
_chemical_formula_sum   'Lu5 Co17 P12 W2'
_cell_volume   460.40371753
_cell_formula_units_Z   1
loop_
 _symmetry_equiv_pos_site_id
 _symmetry_equiv_pos_as_xyz
  1  'x, y, z'
loop_
 _atom_site_type_symbol
 _atom_site_label
 _atom_site_symmetry_multiplicity
 _atom_site_fract_x
 _atom_site_fract_y
 _atom_site_fract_z
 _atom_site_occupancy
  Lu  Lu0  1  0.664811  0.331673  0.000000  1
  Lu  Lu1  1  0.335189  0.666863  0.000000  1
  Lu  Lu2  1  0.183530  0.183221  0.500000  1
  Lu  Lu3  1  0.816470  0.999689  0.500000  1
  Lu  Lu4  1  0.000000  0.813241  0.500000  1
  Co  Co5  1  0.000000  0.449898  0.000000  1
  Co  Co6  1  0.824476  0.202496  0.000000  1
  Co  Co7  1  0.804116  0.624754  0.000000  1
  Co  Co8  1  0.372517  0.176598  0.000000  1
  Co  Co9  1  0.195884  0.820637  0.000000  1
  Co  Co10  1  0.627483  0.804081  0.000000  1
  Co  Co11  1  0.175524  0.378021  0.000000  1
  Co  Co12  1  0.645065  0.126193  0.500000  1
  Co  Co13  1  0.872733  0.515687  0.500000  1
  Co  Co14  1  0.483863  0.354588  0.500000  1
  Co  Co15  1  0.127267  0.642954  0.500000  1
  Co  Co16  1  0.516137  0.870724  0.500000  1
  Co  Co17  1  0.354935  0.481127  0.500000  1
  Co  Co18  1  0.720346  0.719476  0.500000  1
  Co  Co19  1  0.279654  0.999131  0.500000  1
  Co  Co20  1  0.000000  0.286052  0.500000  1
  Co  Co21  1  0.000000  0.003060  0.000000  1
  P  P22  1  0.356808  0.359230  0.000000  1
  P  P23  1  0.643192  0.002423  0.000000  1
  P  P24  1  0.000000  0.634913  0.000000  1
  P  P25  1  0.833927  0.315444  0.500000  1
  P  P26  1  0.686649  0.518508  0.500000  1
  P  P27  1  0.480142  0.165225  0.500000  1
  P  P28  1  0.313351  0.831860  0.500000  1
  P  P29  1  0.519858  0.685082  0.500000  1
  P  P30  1  0.166073  0.481517  0.500000  1
  P  P31  1  0.824290  0.823345  0.000000  1
  P  P32  1  0.175710  0.999053  0.000000  1
  P  P33  1  0.000000  0.181235  0.000000  1
  W  W34  1  0.554153  0.553079  0.000000  1
  W  W35  1  0.445847  0.998925  0.000000  1
