# generated using pymatgen
data_Y5MgNi16(P6W)2
_symmetry_space_group_name_H-M   'P 1'
_cell_length_a   12.24895119
_cell_length_b   12.23959508
_cell_length_c   3.76286900
_cell_angle_alpha   90.00000000
_cell_angle_beta   90.00000000
_cell_angle_gamma   119.97473407
_symmetry_Int_Tables_number   1
_chemical_formula_structural   Y5MgNi16(P6W)2
_chemical_formula_sum   'Y5 Mg1 Ni16 P12 W2'
_cell_volume   488.68183793
_cell_formula_units_Z   1
loop_
 _symmetry_equiv_pos_site_id
 _symmetry_equiv_pos_as_xyz
  1  'x, y, z'
loop_
 _atom_site_type_symbol
 _atom_site_label
 _atom_site_symmetry_multiplicity
 _atom_site_fract_x
 _atom_site_fract_y
 _atom_site_fract_z
 _atom_site_occupancy
  Y  Y0  1  0.185657  0.187454  0.500000  1
  Y  Y1  1  0.814343  0.001798  0.500000  1
  Y  Y2  1  0.000000  0.814856  0.500000  1
  Y  Y3  1  0.333417  0.667414  0.000000  1
  Y  Y4  1  0.666583  0.333997  0.000000  1
  Mg  Mg5  1  0.000000  0.435903  0.000000  1
  Ni  Ni6  1  0.720659  0.720912  0.500000  1
  Ni  Ni7  1  0.279341  0.000253  0.500000  1
  Ni  Ni8  1  0.000000  0.281595  0.500000  1
  Ni  Ni9  1  0.188806  0.380088  0.000000  1
  Ni  Ni10  1  0.622061  0.805094  0.000000  1
  Ni  Ni11  1  0.194180  0.818780  0.000000  1
  Ni  Ni12  1  0.805820  0.624600  0.000000  1
  Ni  Ni13  1  0.811194  0.191282  0.000000  1
  Ni  Ni14  1  0.377939  0.183033  0.000000  1
  Ni  Ni15  1  0.364080  0.485755  0.500000  1
  Ni  Ni16  1  0.513858  0.874483  0.500000  1
  Ni  Ni17  1  0.123578  0.639663  0.500000  1
  Ni  Ni18  1  0.876422  0.516084  0.500000  1
  Ni  Ni19  1  0.635920  0.121674  0.500000  1
  Ni  Ni20  1  0.486142  0.360624  0.500000  1
  Ni  Ni21  1  0.000000  0.000621  0.000000  1
  P  P22  1  0.821930  0.822998  0.000000  1
  P  P23  1  0.178070  0.001068  0.000000  1
  P  P24  1  0.000000  0.178589  0.000000  1
  P  P25  1  0.172166  0.477578  0.500000  1
  P  P26  1  0.522355  0.687532  0.500000  1
  P  P27  1  0.311728  0.834789  0.500000  1
  P  P28  1  0.688272  0.523061  0.500000  1
  P  P29  1  0.827834  0.305412  0.500000  1
  P  P30  1  0.477645  0.165177  0.500000  1
  P  P31  1  0.366587  0.363433  0.000000  1
  P  P32  1  0.633413  0.996847  0.000000  1
  P  P33  1  0.000000  0.639842  0.000000  1
  W  W34  1  0.560006  0.558858  0.000000  1
  W  W35  1  0.439994  0.998852  0.000000  1
