# generated using pymatgen
data_Tb17Y3(Bi2Pt)4
_symmetry_space_group_name_H-M   'P 1'
_cell_length_a   8.11769844
_cell_length_b   9.06098000
_cell_length_c   12.51257968
_cell_angle_alpha   90.00000000
_cell_angle_beta   89.96216986
_cell_angle_gamma   90.00000000
_symmetry_Int_Tables_number   1
_chemical_formula_structural   Tb17Y3(Bi2Pt)4
_chemical_formula_sum   'Tb17 Y3 Bi8 Pt4'
_cell_volume   920.35387952
_cell_formula_units_Z   1
loop_
 _symmetry_equiv_pos_site_id
 _symmetry_equiv_pos_as_xyz
  1  'x, y, z'
loop_
 _atom_site_type_symbol
 _atom_site_label
 _atom_site_symmetry_multiplicity
 _atom_site_fract_x
 _atom_site_fract_y
 _atom_site_fract_z
 _atom_site_occupancy
  Tb  Tb0  1  0.661245  0.750000  0.291100  1
  Tb  Tb1  1  0.372551  0.750000  0.697715  1
  Tb  Tb2  1  0.627500  0.250000  0.302103  1
  Tb  Tb3  1  0.872476  0.250000  0.802183  1
  Tb  Tb4  1  0.127619  0.750000  0.197790  1
  Tb  Tb5  1  0.950808  0.750000  0.499926  1
  Tb  Tb6  1  0.049419  0.250000  0.499995  1
  Tb  Tb7  1  0.450608  0.250000  0.000017  1
  Tb  Tb8  1  0.549264  0.750000  0.000000  1
  Tb  Tb9  1  0.680094  0.045998  0.566546  1
  Tb  Tb10  1  0.319881  0.954333  0.433563  1
  Tb  Tb11  1  0.180060  0.954136  0.933530  1
  Tb  Tb12  1  0.319881  0.545667  0.433563  1
  Tb  Tb13  1  0.820048  0.045962  0.066441  1
  Tb  Tb14  1  0.680094  0.454002  0.566546  1
  Tb  Tb15  1  0.820048  0.454038  0.066441  1
  Tb  Tb16  1  0.180060  0.545864  0.933530  1
  Y  Y17  1  0.838486  0.750000  0.790389  1
  Y  Y18  1  0.161679  0.250000  0.209609  1
  Y  Y19  1  0.338353  0.250000  0.709747  1
  Bi  Bi20  1  0.569627  0.490661  0.826885  1
  Bi  Bi21  1  0.430135  0.509039  0.172964  1
  Bi  Bi22  1  0.069593  0.509337  0.673076  1
  Bi  Bi23  1  0.430135  0.990961  0.172964  1
  Bi  Bi24  1  0.930641  0.490441  0.326923  1
  Bi  Bi25  1  0.569627  0.009339  0.826885  1
  Bi  Bi26  1  0.930641  0.009559  0.326923  1
  Bi  Bi27  1  0.069593  0.990663  0.673076  1
  Pt  Pt28  1  0.575083  0.750000  0.511910  1
  Pt  Pt29  1  0.424886  0.250000  0.487726  1
  Pt  Pt30  1  0.074889  0.250000  0.987682  1
  Pt  Pt31  1  0.924978  0.750000  0.012253  1
