# generated using pymatgen
data_Ta2Nb3(CoB)5
_symmetry_space_group_name_H-M   'P 1'
_cell_length_a   3.28765600
_cell_length_b   5.92635200
_cell_length_c   17.06453200
_cell_angle_alpha   90.00000000
_cell_angle_beta   90.00000000
_cell_angle_gamma   90.00000000
_symmetry_Int_Tables_number   1
_chemical_formula_structural   Ta2Nb3(CoB)5
_chemical_formula_sum   'Ta4 Nb6 Co10 B10'
_cell_volume   332.48204310
_cell_formula_units_Z   2
loop_
 _symmetry_equiv_pos_site_id
 _symmetry_equiv_pos_as_xyz
  1  'x, y, z'
loop_
 _atom_site_type_symbol
 _atom_site_label
 _atom_site_symmetry_multiplicity
 _atom_site_fract_x
 _atom_site_fract_y
 _atom_site_fract_z
 _atom_site_occupancy
  Ta  Ta0  1  0.500000  0.021682  0.124894  1
  Ta  Ta1  1  0.500000  0.021682  0.875106  1
  Ta  Ta2  1  0.000000  0.355666  0.500000  1
  Ta  Ta3  1  0.500000  0.643926  0.000000  1
  Nb  Nb4  1  0.000000  0.472096  0.320674  1
  Nb  Nb5  1  0.000000  0.472096  0.679326  1
  Nb  Nb6  1  0.500000  0.528157  0.179185  1
  Nb  Nb7  1  0.500000  0.528157  0.820815  1
  Nb  Nb8  1  0.000000  0.978429  0.375025  1
  Nb  Nb9  1  0.000000  0.978429  0.624975  1
  Co  Co10  1  0.000000  0.857446  0.225965  1
  Co  Co11  1  0.000000  0.857446  0.774035  1
  Co  Co12  1  0.500000  0.143657  0.273131  1
  Co  Co13  1  0.500000  0.143657  0.726869  1
  Co  Co14  1  0.000000  0.349451  0.071157  1
  Co  Co15  1  0.000000  0.349451  0.928843  1
  Co  Co16  1  0.500000  0.649244  0.428873  1
  Co  Co17  1  0.500000  0.649244  0.571127  1
  Co  Co18  1  0.000000  0.992628  0.000000  1
  Co  Co19  1  0.500000  0.007591  0.500000  1
  B  B20  1  0.000000  0.229495  0.201951  1
  B  B21  1  0.000000  0.229495  0.798049  1
  B  B22  1  0.500000  0.770013  0.297674  1
  B  B23  1  0.500000  0.770013  0.702326  1
  B  B24  1  0.000000  0.730373  0.100385  1
  B  B25  1  0.000000  0.730373  0.899615  1
  B  B26  1  0.500000  0.270638  0.399527  1
  B  B27  1  0.500000  0.270638  0.600473  1
  B  B28  1  0.000000  0.766906  0.500000  1
  B  B29  1  0.500000  0.231921  0.000000  1
