# generated using pymatgen
data_Th8Zr12Si15Ge
_symmetry_space_group_name_H-M   'P 1'
_cell_length_a   7.45546817
_cell_length_b   7.46134518
_cell_length_c   13.72667704
_cell_angle_alpha   90.06101924
_cell_angle_beta   90.01473295
_cell_angle_gamma   89.98018403
_symmetry_Int_Tables_number   1
_chemical_formula_structural   Th8Zr12Si15Ge
_chemical_formula_sum   'Th8 Zr12 Si15 Ge1'
_cell_volume   763.58463653
_cell_formula_units_Z   1
loop_
 _symmetry_equiv_pos_site_id
 _symmetry_equiv_pos_as_xyz
  1  'x, y, z'
loop_
 _atom_site_type_symbol
 _atom_site_label
 _atom_site_symmetry_multiplicity
 _atom_site_fract_x
 _atom_site_fract_y
 _atom_site_fract_z
 _atom_site_occupancy
  Th  Th0  1  0.002933  0.342316  0.534807  1
  Th  Th1  1  0.994978  0.659766  0.033179  1
  Th  Th2  1  0.841551  0.496137  0.285386  1
  Th  Th3  1  0.157249  0.503008  0.784764  1
  Th  Th4  1  0.657266  0.997604  0.964958  1
  Th  Th5  1  0.343024  0.001987  0.465827  1
  Th  Th6  1  0.497031  0.842622  0.715087  1
  Th  Th7  1  0.503232  0.156304  0.215544  1
  Zr  Zr8  1  0.825702  0.174390  0.749938  1
  Zr  Zr9  1  0.174338  0.828137  0.250393  1
  Zr  Zr10  1  0.673939  0.673775  0.500078  1
  Zr  Zr11  1  0.326874  0.325238  0.998543  1
  Zr  Zr12  1  0.503585  0.347070  0.624282  1
  Zr  Zr13  1  0.500027  0.655848  0.122821  1
  Zr  Zr14  1  0.846132  0.995205  0.374794  1
  Zr  Zr15  1  0.152980  0.003929  0.874028  1
  Zr  Zr16  1  0.652840  0.496380  0.875685  1
  Zr  Zr17  1  0.346928  0.502439  0.377161  1
  Zr  Zr18  1  0.996297  0.847027  0.625818  1
  Zr  Zr19  1  0.003144  0.152148  0.125829  1
  Si  Si20  1  0.633460  0.294870  0.434146  1
  Si  Si21  1  0.366316  0.704935  0.933412  1
  Si  Si22  1  0.796449  0.866292  0.184265  1
  Si  Si23  1  0.204757  0.133646  0.683768  1
  Si  Si24  1  0.704814  0.366366  0.066265  1
  Si  Si25  1  0.295100  0.633123  0.566514  1
  Si  Si26  1  0.866371  0.795534  0.815915  1
  Si  Si27  1  0.132300  0.200775  0.318320  1
  Si  Si28  1  0.708084  0.046549  0.564229  1
  Si  Si29  1  0.292213  0.954295  0.063704  1
  Si  Si30  1  0.545769  0.790966  0.313930  1
  Si  Si31  1  0.453311  0.207687  0.813542  1
  Si  Si32  1  0.953490  0.292309  0.936166  1
  Si  Si33  1  0.046339  0.707355  0.436218  1
  Si  Si34  1  0.792148  0.547005  0.686156  1
  Ge  Ge35  1  0.209030  0.456962  0.184531  1
