# generated using pymatgen
data_Li4Yb(BO3)2
_symmetry_space_group_name_H-M   'P 1'
_cell_length_a   3.48649400
_cell_length_b   8.08861600
_cell_length_c   9.25381800
_cell_angle_alpha   90.00000000
_cell_angle_beta   90.00000000
_cell_angle_gamma   90.00000000
_symmetry_Int_Tables_number   1
_chemical_formula_structural   Li4Yb(BO3)2
_chemical_formula_sum   'Li8 Yb2 B4 O12'
_cell_volume   260.96609924
_cell_formula_units_Z   2
loop_
 _symmetry_equiv_pos_site_id
 _symmetry_equiv_pos_as_xyz
  1  'x, y, z'
loop_
 _atom_site_type_symbol
 _atom_site_label
 _atom_site_symmetry_multiplicity
 _atom_site_fract_x
 _atom_site_fract_y
 _atom_site_fract_z
 _atom_site_occupancy
  Li  Li0  1  0.000000  0.487132  0.198032  1
  Li  Li1  1  0.000000  0.512868  0.801968  1
  Li  Li2  1  0.500000  0.012868  0.698032  1
  Li  Li3  1  0.500000  0.987132  0.301968  1
  Li  Li4  1  0.500000  0.669283  0.951150  1
  Li  Li5  1  0.500000  0.330717  0.048850  1
  Li  Li6  1  0.000000  0.830717  0.451150  1
  Li  Li7  1  0.000000  0.169283  0.548850  1
  Yb  Yb8  1  0.500000  0.500000  0.500000  1
  Yb  Yb9  1  0.000000  0.000000  0.000000  1
  B  B10  1  0.500000  0.728370  0.209289  1
  B  B11  1  0.500000  0.271630  0.790711  1
  B  B12  1  0.000000  0.771630  0.709289  1
  B  B13  1  0.000000  0.228370  0.290711  1
  O  O14  1  0.500000  0.751629  0.358775  1
  O  O15  1  0.500000  0.248371  0.641225  1
  O  O16  1  0.000000  0.748371  0.858775  1
  O  O17  1  0.000000  0.251629  0.141225  1
  O  O18  1  0.500000  0.571908  0.148930  1
  O  O19  1  0.500000  0.428092  0.851071  1
  O  O20  1  0.000000  0.928092  0.648929  1
  O  O21  1  0.000000  0.071908  0.351070  1
  O  O22  1  0.000000  0.366688  0.381772  1
  O  O23  1  0.000000  0.633312  0.618228  1
  O  O24  1  0.500000  0.133312  0.881772  1
  O  O25  1  0.500000  0.866688  0.118228  1
