# generated using pymatgen
data_Mn2Al3RhS8
_symmetry_space_group_name_H-M   'P 1'
_cell_length_a   7.13202576
_cell_length_b   7.13202546
_cell_length_c   7.17975707
_cell_angle_alpha   60.21967988
_cell_angle_beta   60.21968069
_cell_angle_gamma   60.00000942
_symmetry_Int_Tables_number   1
_chemical_formula_structural   Mn2Al3RhS8
_chemical_formula_sum   'Mn2 Al3 Rh1 S8'
_cell_volume   259.09240320
_cell_formula_units_Z   1
loop_
 _symmetry_equiv_pos_site_id
 _symmetry_equiv_pos_as_xyz
  1  'x, y, z'
loop_
 _atom_site_type_symbol
 _atom_site_label
 _atom_site_symmetry_multiplicity
 _atom_site_fract_x
 _atom_site_fract_y
 _atom_site_fract_z
 _atom_site_occupancy
  Mn  Mn0  1  0.251012  0.251012  0.246964  1
  Mn  Mn1  1  0.998988  0.998988  0.003036  1
  Al  Al2  1  0.125000  0.625000  0.625000  1
  Al  Al3  1  0.625000  0.125000  0.625000  1
  Al  Al4  1  0.625000  0.625000  0.625000  1
  Rh  Rh5  1  0.625000  0.625000  0.125000  1
  S  S6  1  0.839821  0.387880  0.384418  1
  S  S7  1  0.387880  0.839821  0.384418  1
  S  S8  1  0.384547  0.384547  0.846358  1
  S  S9  1  0.387880  0.387880  0.384418  1
  S  S10  1  0.410179  0.862120  0.865582  1
  S  S11  1  0.862120  0.410179  0.865582  1
  S  S12  1  0.865453  0.865453  0.403642  1
  S  S13  1  0.862120  0.862120  0.865582  1
