# generated using pymatgen
data_Ho6CrMoO12
_symmetry_space_group_name_H-M   'P 1'
_cell_length_a   6.54867570
_cell_length_b   6.54867632
_cell_length_c   6.54867539
_cell_angle_alpha   92.72592988
_cell_angle_beta   92.72594095
_cell_angle_gamma   92.72593973
_symmetry_Int_Tables_number   1
_chemical_formula_structural   Ho6CrMoO12
_chemical_formula_sum   'Ho6 Cr1 Mo1 O12'
_cell_volume   279.85622041
_cell_formula_units_Z   1
loop_
 _symmetry_equiv_pos_site_id
 _symmetry_equiv_pos_as_xyz
  1  'x, y, z'
loop_
 _atom_site_type_symbol
 _atom_site_label
 _atom_site_symmetry_multiplicity
 _atom_site_fract_x
 _atom_site_fract_y
 _atom_site_fract_z
 _atom_site_occupancy
  Ho  Ho0  1  0.742056  0.926655  0.437204  1
  Ho  Ho1  1  0.926655  0.437204  0.742056  1
  Ho  Ho2  1  0.437204  0.742056  0.926655  1
  Ho  Ho3  1  0.257944  0.073345  0.562796  1
  Ho  Ho4  1  0.073345  0.562796  0.257944  1
  Ho  Ho5  1  0.562796  0.257944  0.073345  1
  Cr  Cr6  1  0.500000  0.500000  0.500000  1
  Mo  Mo7  1  0.000000  0.000000  0.000000  1
  O  O8  1  0.588748  0.461567  0.799593  1
  O  O9  1  0.461567  0.799593  0.588748  1
  O  O10  1  0.799593  0.588748  0.461567  1
  O  O11  1  0.411252  0.538433  0.200407  1
  O  O12  1  0.538433  0.200407  0.411252  1
  O  O13  1  0.200407  0.411252  0.538433  1
  O  O14  1  0.068718  0.910386  0.312317  1
  O  O15  1  0.910386  0.312317  0.068718  1
  O  O16  1  0.687683  0.931282  0.089614  1
  O  O17  1  0.089614  0.687683  0.931282  1
  O  O18  1  0.931282  0.089614  0.687683  1
  O  O19  1  0.312317  0.068718  0.910386  1
