# generated using pymatgen
data_Rb8Zr6CBr20
_symmetry_space_group_name_H-M   'P 1'
_cell_length_a   12.04434547
_cell_length_b   12.04434649
_cell_length_c   12.04434600
_cell_angle_alpha   60.00000135
_cell_angle_beta   59.99999855
_cell_angle_gamma   60.00000183
_symmetry_Int_Tables_number   1
_chemical_formula_structural   Rb8Zr6CBr20
_chemical_formula_sum   'Rb8 Zr6 C1 Br20'
_cell_volume   1235.47703091
_cell_formula_units_Z   1
loop_
 _symmetry_equiv_pos_site_id
 _symmetry_equiv_pos_as_xyz
  1  'x, y, z'
loop_
 _atom_site_type_symbol
 _atom_site_label
 _atom_site_symmetry_multiplicity
 _atom_site_fract_x
 _atom_site_fract_y
 _atom_site_fract_z
 _atom_site_occupancy
  Rb  Rb0  1  0.360756  0.360756  0.360756  1
  Rb  Rb1  1  0.639244  0.639244  0.639244  1
  Rb  Rb2  1  0.360756  0.360756  0.917733  1
  Rb  Rb3  1  0.360756  0.917733  0.360756  1
  Rb  Rb4  1  0.639244  0.639244  0.082267  1
  Rb  Rb5  1  0.639244  0.082267  0.639244  1
  Rb  Rb6  1  0.917733  0.360756  0.360756  1
  Rb  Rb7  1  0.082267  0.639244  0.639244  1
  Zr  Zr8  1  0.866135  0.133865  0.133865  1
  Zr  Zr9  1  0.133865  0.866135  0.866135  1
  Zr  Zr10  1  0.133865  0.866135  0.133865  1
  Zr  Zr11  1  0.866135  0.133865  0.866135  1
  Zr  Zr12  1  0.133865  0.133865  0.866135  1
  Zr  Zr13  1  0.866135  0.866135  0.133865  1
  C  C14  1  0.000000  0.000000  0.000000  1
  Br  Br15  1  0.318441  0.000000  0.000000  1
  Br  Br16  1  0.681559  0.000000  0.000000  1
  Br  Br17  1  0.000000  0.318441  0.681559  1
  Br  Br18  1  0.000000  0.681559  0.318441  1
  Br  Br19  1  0.000000  0.318441  0.000000  1
  Br  Br20  1  0.681559  0.000000  0.318441  1
  Br  Br21  1  0.000000  0.681559  0.000000  1
  Br  Br22  1  0.318441  0.000000  0.681559  1
  Br  Br23  1  0.000000  0.000000  0.318441  1
  Br  Br24  1  0.000000  0.000000  0.681559  1
  Br  Br25  1  0.681559  0.318441  0.000000  1
  Br  Br26  1  0.318441  0.681559  0.000000  1
  Br  Br27  1  0.691768  0.308232  0.308232  1
  Br  Br28  1  0.308232  0.691768  0.691768  1
  Br  Br29  1  0.308232  0.691768  0.308232  1
  Br  Br30  1  0.691768  0.308232  0.691768  1
  Br  Br31  1  0.308232  0.308232  0.691768  1
  Br  Br32  1  0.691768  0.691768  0.308232  1
  Br  Br33  1  0.250000  0.250000  0.250000  1
  Br  Br34  1  0.750000  0.750000  0.750000  1
