# generated using pymatgen
data_Tm8Co3Si12Rh
_symmetry_space_group_name_H-M   'P 1'
_cell_length_a   7.98071900
_cell_length_b   7.98071891
_cell_length_c   7.79788800
_cell_angle_alpha   90.00000000
_cell_angle_beta   90.00000000
_cell_angle_gamma   120.00000452
_symmetry_Int_Tables_number   1
_chemical_formula_structural   Tm8Co3Si12Rh
_chemical_formula_sum   'Tm8 Co3 Si12 Rh1'
_cell_volume   430.12198298
_cell_formula_units_Z   1
loop_
 _symmetry_equiv_pos_site_id
 _symmetry_equiv_pos_as_xyz
  1  'x, y, z'
loop_
 _atom_site_type_symbol
 _atom_site_label
 _atom_site_symmetry_multiplicity
 _atom_site_fract_x
 _atom_site_fract_y
 _atom_site_fract_z
 _atom_site_occupancy
  Tm  Tm0  1  0.000000  0.000000  0.251044  1
  Tm  Tm1  1  0.000000  0.000000  0.748696  1
  Tm  Tm2  1  0.508205  0.491795  0.251452  1
  Tm  Tm3  1  0.508205  0.016411  0.251452  1
  Tm  Tm4  1  0.983589  0.491795  0.251452  1
  Tm  Tm5  1  0.494480  0.505520  0.749788  1
  Tm  Tm6  1  0.494480  0.988960  0.749788  1
  Tm  Tm7  1  0.011040  0.505520  0.749788  1
  Co  Co8  1  0.333333  0.666667  0.466906  1
  Co  Co9  1  0.666667  0.333333  0.532563  1
  Co  Co10  1  0.666667  0.333333  0.967240  1
  Si  Si11  1  0.171835  0.828165  0.498775  1
  Si  Si12  1  0.171835  0.343670  0.498775  1
  Si  Si13  1  0.656330  0.828165  0.498775  1
  Si  Si14  1  0.828840  0.171160  0.501557  1
  Si  Si15  1  0.828840  0.657683  0.501557  1
  Si  Si16  1  0.342317  0.171160  0.501557  1
  Si  Si17  1  0.828008  0.171992  0.998691  1
  Si  Si18  1  0.828008  0.656015  0.998691  1
  Si  Si19  1  0.343985  0.171992  0.998691  1
  Si  Si20  1  0.166219  0.833781  0.999702  1
  Si  Si21  1  0.166219  0.332435  0.999702  1
  Si  Si22  1  0.667565  0.833781  0.999702  1
  Rh  Rh23  1  0.333333  0.666667  0.033656  1
