# generated using pymatgen
data_Ho5(Cd2Pd)2
_symmetry_space_group_name_H-M   'P 1'
_cell_length_a   3.64172200
_cell_length_b   7.94476600
_cell_length_c   18.31225900
_cell_angle_alpha   90.00000000
_cell_angle_beta   90.00000000
_cell_angle_gamma   90.00000000
_symmetry_Int_Tables_number   1
_chemical_formula_structural   Ho5(Cd2Pd)2
_chemical_formula_sum   'Ho10 Cd8 Pd4'
_cell_volume   529.82179813
_cell_formula_units_Z   2
loop_
 _symmetry_equiv_pos_site_id
 _symmetry_equiv_pos_as_xyz
  1  'x, y, z'
loop_
 _atom_site_type_symbol
 _atom_site_label
 _atom_site_symmetry_multiplicity
 _atom_site_fract_x
 _atom_site_fract_y
 _atom_site_fract_z
 _atom_site_occupancy
  Ho  Ho0  1  0.000000  0.500000  0.500000  1
  Ho  Ho1  1  0.000000  0.000000  0.000000  1
  Ho  Ho2  1  0.000000  0.739608  0.281120  1
  Ho  Ho3  1  0.000000  0.260392  0.718880  1
  Ho  Ho4  1  0.000000  0.760392  0.781120  1
  Ho  Ho5  1  0.000000  0.239608  0.218880  1
  Ho  Ho6  1  0.000000  0.613726  0.083703  1
  Ho  Ho7  1  0.000000  0.386274  0.916297  1
  Ho  Ho8  1  0.000000  0.886274  0.583703  1
  Ho  Ho9  1  0.000000  0.113726  0.416297  1
  Cd  Cd10  1  0.500000  0.715044  0.931929  1
  Cd  Cd11  1  0.500000  0.284956  0.068071  1
  Cd  Cd12  1  0.500000  0.784956  0.431929  1
  Cd  Cd13  1  0.500000  0.215044  0.568071  1
  Cd  Cd14  1  0.500000  0.577365  0.648077  1
  Cd  Cd15  1  0.500000  0.422635  0.351923  1
  Cd  Cd16  1  0.500000  0.922635  0.148077  1
  Cd  Cd17  1  0.500000  0.077365  0.851923  1
  Pd  Pd18  1  0.500000  0.525168  0.195524  1
  Pd  Pd19  1  0.500000  0.474832  0.804476  1
  Pd  Pd20  1  0.500000  0.974832  0.695524  1
  Pd  Pd21  1  0.500000  0.025168  0.304476  1
