# generated using pymatgen
data_CaTm5(Si3Ru)8
_symmetry_space_group_name_H-M   'P 1'
_cell_length_a   10.12268447
_cell_length_b   10.12262321
_cell_length_c   8.11862101
_cell_angle_alpha   90.06159627
_cell_angle_beta   89.93694418
_cell_angle_gamma   132.68594436
_symmetry_Int_Tables_number   1
_chemical_formula_structural   CaTm5(Si3Ru)8
_chemical_formula_sum   'Ca1 Tm5 Si24 Ru8'
_cell_volume   611.51328164
_cell_formula_units_Z   1
loop_
 _symmetry_equiv_pos_site_id
 _symmetry_equiv_pos_as_xyz
  1  'x, y, z'
loop_
 _atom_site_type_symbol
 _atom_site_label
 _atom_site_symmetry_multiplicity
 _atom_site_fract_x
 _atom_site_fract_y
 _atom_site_fract_z
 _atom_site_occupancy
  Ca  Ca0  1  0.998455  0.498462  0.249984  1
  Tm  Tm1  1  0.497326  0.997306  0.249980  1
  Tm  Tm2  1  0.002518  0.502504  0.750027  1
  Tm  Tm3  1  0.500970  0.000985  0.750018  1
  Tm  Tm4  1  0.499712  0.499816  0.499671  1
  Tm  Tm5  1  0.999814  0.999712  0.000323  1
  Si  Si6  1  0.388189  0.155650  0.005277  1
  Si  Si7  1  0.655657  0.888188  0.494675  1
  Si  Si8  1  0.112247  0.346037  0.506964  1
  Si  Si9  1  0.846020  0.612226  0.993074  1
  Si  Si10  1  0.611531  0.844456  0.994895  1
  Si  Si11  1  0.344464  0.111546  0.505143  1
  Si  Si12  1  0.888157  0.655018  0.497973  1
  Si  Si13  1  0.155013  0.388164  0.001991  1
  Si  Si14  1  0.609864  0.375920  0.228539  1
  Si  Si15  1  0.875899  0.109823  0.271445  1
  Si  Si16  1  0.888836  0.121983  0.728319  1
  Si  Si17  1  0.621958  0.388793  0.771703  1
  Si  Si18  1  0.388234  0.621564  0.772392  1
  Si  Si19  1  0.121580  0.888271  0.727615  1
  Si  Si20  1  0.705194  0.294772  0.999465  1
  Si  Si21  1  0.794784  0.205195  0.500542  1
  Si  Si22  1  0.294690  0.705403  0.000266  1
  Si  Si23  1  0.205390  0.794701  0.499736  1
  Si  Si24  1  0.167560  0.166418  0.332898  1
  Si  Si25  1  0.666432  0.667565  0.167080  1
  Si  Si26  1  0.331562  0.332566  0.833052  1
  Si  Si27  1  0.832579  0.831564  0.666968  1
  Si  Si28  1  0.380256  0.614404  0.228296  1
  Si  Si29  1  0.114367  0.880238  0.271682  1
  Ru  Ru30  1  0.626754  0.626238  0.872805  1
  Ru  Ru31  1  0.126275  0.126788  0.627194  1
  Ru  Ru32  1  0.873204  0.872918  0.372389  1
  Ru  Ru33  1  0.372949  0.373238  0.127615  1
  Ru  Ru34  1  0.333244  0.672004  0.502443  1
  Ru  Ru35  1  0.171972  0.833228  0.997544  1
  Ru  Ru36  1  0.667823  0.328510  0.501813  1
  Ru  Ru37  1  0.828518  0.167824  0.998204  1
