# generated using pymatgen
data_Nd7Tm(AlNi)8
_symmetry_space_group_name_H-M   'P 1'
_cell_length_a   4.11415400
_cell_length_b   7.00757321
_cell_length_c   15.91784516
_cell_angle_alpha   89.72894057
_cell_angle_beta   90.00000000
_cell_angle_gamma   90.00000000
_symmetry_Int_Tables_number   1
_chemical_formula_structural   Nd7Tm(AlNi)8
_chemical_formula_sum   'Nd7 Tm1 Al8 Ni8'
_cell_volume   458.91008659
_cell_formula_units_Z   1
loop_
 _symmetry_equiv_pos_site_id
 _symmetry_equiv_pos_as_xyz
  1  'x, y, z'
loop_
 _atom_site_type_symbol
 _atom_site_label
 _atom_site_symmetry_multiplicity
 _atom_site_fract_x
 _atom_site_fract_y
 _atom_site_fract_z
 _atom_site_occupancy
  Nd  Nd0  1  0.750000  0.855827  0.934726  1
  Nd  Nd1  1  0.250000  0.143416  0.060464  1
  Nd  Nd2  1  0.250000  0.643734  0.438962  1
  Nd  Nd3  1  0.750000  0.358277  0.565274  1
  Nd  Nd4  1  0.750000  0.987367  0.722468  1
  Nd  Nd5  1  0.250000  0.011444  0.278067  1
  Nd  Nd6  1  0.250000  0.510614  0.221209  1
  Tm  Tm7  1  0.750000  0.485804  0.780441  1
  Al  Al8  1  0.750000  0.833427  0.145056  1
  Al  Al9  1  0.250000  0.174007  0.850800  1
  Al  Al10  1  0.250000  0.663566  0.650947  1
  Al  Al11  1  0.750000  0.333391  0.354457  1
  Al  Al12  1  0.750000  0.991648  0.439839  1
  Al  Al13  1  0.250000  0.008922  0.562508  1
  Al  Al14  1  0.250000  0.511184  0.936462  1
  Al  Al15  1  0.750000  0.490648  0.059606  1
  Ni  Ni16  1  0.750000  0.790296  0.570524  1
  Ni  Ni17  1  0.250000  0.208114  0.431348  1
  Ni  Ni18  1  0.250000  0.708995  0.068162  1
  Ni  Ni19  1  0.750000  0.294216  0.927298  1
  Ni  Ni20  1  0.750000  0.723023  0.318786  1
  Ni  Ni21  1  0.250000  0.283468  0.686765  1
  Ni  Ni22  1  0.250000  0.764731  0.814890  1
  Ni  Ni23  1  0.750000  0.223881  0.180941  1
