# generated using pymatgen
data_Dy3Ag3Ir
_symmetry_space_group_name_H-M   'P 1'
_cell_length_a   8.09127632
_cell_length_b   8.09127574
_cell_length_c   8.09127500
_cell_angle_alpha   114.09891904
_cell_angle_beta   114.09891720
_cell_angle_gamma   114.09892367
_symmetry_Int_Tables_number   1
_chemical_formula_structural   Dy3Ag3Ir
_chemical_formula_sum   'Dy6 Ag6 Ir2'
_cell_volume   319.46151125
_cell_formula_units_Z   2
loop_
 _symmetry_equiv_pos_site_id
 _symmetry_equiv_pos_as_xyz
  1  'x, y, z'
loop_
 _atom_site_type_symbol
 _atom_site_label
 _atom_site_symmetry_multiplicity
 _atom_site_fract_x
 _atom_site_fract_y
 _atom_site_fract_z
 _atom_site_occupancy
  Dy  Dy0  1  0.391560  0.047608  0.281784  1
  Dy  Dy1  1  0.047608  0.281784  0.391560  1
  Dy  Dy2  1  0.281784  0.391560  0.047608  1
  Dy  Dy3  1  0.608440  0.952392  0.718216  1
  Dy  Dy4  1  0.952392  0.718216  0.608440  1
  Dy  Dy5  1  0.718216  0.608440  0.952392  1
  Ag  Ag6  1  0.223581  0.054265  0.562554  1
  Ag  Ag7  1  0.054265  0.562554  0.223581  1
  Ag  Ag8  1  0.562554  0.223581  0.054265  1
  Ag  Ag9  1  0.776419  0.945735  0.437446  1
  Ag  Ag10  1  0.945735  0.437446  0.776419  1
  Ag  Ag11  1  0.437446  0.776419  0.945735  1
  Ir  Ir12  1  0.000000  0.000000  0.000000  1
  Ir  Ir13  1  0.500000  0.500000  0.500000  1
