# generated using pymatgen
data_TbNd2Bi(Mo2O7)2
_symmetry_space_group_name_H-M   'P 1'
_cell_length_a   7.53283023
_cell_length_b   7.45806557
_cell_length_c   7.46549085
_cell_angle_alpha   119.44940662
_cell_angle_beta   120.28727859
_cell_angle_gamma   90.12664716
_symmetry_Int_Tables_number   1
_chemical_formula_structural   TbNd2Bi(Mo2O7)2
_chemical_formula_sum   'Tb1 Nd2 Bi1 Mo4 O14'
_cell_volume   297.40544079
_cell_formula_units_Z   1
loop_
 _symmetry_equiv_pos_site_id
 _symmetry_equiv_pos_as_xyz
  1  'x, y, z'
loop_
 _atom_site_type_symbol
 _atom_site_label
 _atom_site_symmetry_multiplicity
 _atom_site_fract_x
 _atom_site_fract_y
 _atom_site_fract_z
 _atom_site_occupancy
  Tb  Tb0  1  0.375000  0.125000  0.750000  1
  Nd  Nd1  1  0.375000  0.625000  0.250000  1
  Nd  Nd2  1  0.875000  0.625000  0.250000  1
  Bi  Bi3  1  0.375000  0.625000  0.750000  1
  Mo  Mo4  1  0.875000  0.625000  0.750000  1
  Mo  Mo5  1  0.375000  0.125000  0.250000  1
  Mo  Mo6  1  0.875000  0.125000  0.250000  1
  Mo  Mo7  1  0.875000  0.125000  0.750000  1
  O  O8  1  0.775111  0.197037  0.989218  1
  O  O9  1  0.547680  0.462758  0.499193  1
  O  O10  1  0.210173  0.206962  0.998350  1
  O  O11  1  0.956180  0.456579  0.496931  1
  O  O12  1  0.796195  0.795040  0.579032  1
  O  O13  1  0.536092  0.034004  0.081408  1
  O  O14  1  0.252855  0.760884  0.504965  1
  O  O15  1  0.953805  0.454960  0.920968  1
  O  O16  1  0.974889  0.052963  0.510782  1
  O  O17  1  0.539827  0.043038  0.501650  1
  O  O18  1  0.213908  0.215996  0.418592  1
  O  O19  1  0.497145  0.489116  0.995035  1
  O  O20  1  0.793820  0.793421  0.003069  1
  O  O21  1  0.202320  0.787242  0.000807  1
