# generated using pymatgen
data_Li3Nd2GdPt3
_symmetry_space_group_name_H-M   'P 1'
_cell_length_a   7.39737300
_cell_length_b   7.38591830
_cell_length_c   4.18194900
_cell_angle_alpha   90.00000000
_cell_angle_beta   90.00000000
_cell_angle_gamma   119.94877489
_symmetry_Int_Tables_number   1
_chemical_formula_structural   Li3Nd2GdPt3
_chemical_formula_sum   'Li3 Nd2 Gd1 Pt3'
_cell_volume   197.97726625
_cell_formula_units_Z   1
loop_
 _symmetry_equiv_pos_site_id
 _symmetry_equiv_pos_as_xyz
  1  'x, y, z'
loop_
 _atom_site_type_symbol
 _atom_site_label
 _atom_site_symmetry_multiplicity
 _atom_site_fract_x
 _atom_site_fract_y
 _atom_site_fract_z
 _atom_site_occupancy
  Li  Li0  1  0.774307  0.770828  0.500000  1
  Li  Li1  1  0.225693  0.996521  0.500000  1
  Li  Li2  1  0.000000  0.230254  0.500000  1
  Nd  Nd3  1  0.410199  0.410356  0.000000  1
  Nd  Nd4  1  0.589801  0.000157  0.000000  1
  Gd  Gd5  1  0.000000  0.590956  0.000000  1
  Pt  Pt6  1  0.000000  0.996081  0.000000  1
  Pt  Pt7  1  0.673314  0.339079  0.500000  1
  Pt  Pt8  1  0.326686  0.665765  0.500000  1
