# generated using pymatgen
data_LuSc7(Si4Ru3)4
_symmetry_space_group_name_H-M   'P 1'
_cell_length_a   9.96333814
_cell_length_b   9.96613610
_cell_length_c   13.43380600
_cell_angle_alpha   53.77966786
_cell_angle_beta   53.80867206
_cell_angle_gamma   31.03478233
_symmetry_Int_Tables_number   1
_chemical_formula_structural   LuSc7(Si4Ru3)4
_chemical_formula_sum   'Lu1 Sc7 Si16 Ru12'
_cell_volume   543.33396095
_cell_formula_units_Z   1
loop_
 _symmetry_equiv_pos_site_id
 _symmetry_equiv_pos_as_xyz
  1  'x, y, z'
loop_
 _atom_site_type_symbol
 _atom_site_label
 _atom_site_symmetry_multiplicity
 _atom_site_fract_x
 _atom_site_fract_y
 _atom_site_fract_z
 _atom_site_occupancy
  Lu  Lu0  1  0.289166  0.037359  0.141023  1
  Sc  Sc1  1  0.294522  0.560384  0.643963  1
  Sc  Sc2  1  0.440383  0.704648  0.855324  1
  Sc  Sc3  1  0.704705  0.439662  0.356551  1
  Sc  Sc4  1  0.559987  0.295161  0.144428  1
  Sc  Sc5  1  0.037515  0.291949  0.638714  1
  Sc  Sc6  1  0.708810  0.962457  0.860650  1
  Sc  Sc7  1  0.961682  0.707795  0.361825  1
  Si  Si8  1  0.868097  0.128770  0.251047  1
  Si  Si9  1  0.128852  0.870936  0.750024  1
  Si  Si10  1  0.382721  0.613966  0.251232  1
  Si  Si11  1  0.617497  0.382768  0.749893  1
  Si  Si12  1  0.975437  0.252697  0.892543  1
  Si  Si13  1  0.747349  0.024490  0.607329  1
  Si  Si14  1  0.024875  0.748505  0.107167  1
  Si  Si15  1  0.253640  0.973170  0.395782  1
  Si  Si16  1  0.576592  0.081942  0.066662  1
  Si  Si17  1  0.919157  0.425712  0.433032  1
  Si  Si18  1  0.426740  0.918846  0.930250  1
  Si  Si19  1  0.079530  0.575391  0.566603  1
  Si  Si20  1  0.386037  0.141827  0.399200  1
  Si  Si21  1  0.859586  0.615473  0.100308  1
  Si  Si22  1  0.613701  0.857390  0.601133  1
  Si  Si23  1  0.141419  0.387911  0.897148  1
  Ru  Ru24  1  0.647373  0.831801  0.282593  1
  Ru  Ru25  1  0.169750  0.354544  0.217925  1
  Ru  Ru26  1  0.750314  0.493542  0.067263  1
  Ru  Ru27  1  0.832015  0.647063  0.781533  1
  Ru  Ru28  1  0.895801  0.141947  0.586651  1
  Ru  Ru29  1  0.859997  0.102766  0.913261  1
  Ru  Ru30  1  0.103087  0.858672  0.413910  1
  Ru  Ru31  1  0.141638  0.896556  0.086243  1
  Ru  Ru32  1  0.249990  0.505975  0.931926  1
  Ru  Ru33  1  0.492194  0.751238  0.568066  1
  Ru  Ru34  1  0.506864  0.248069  0.432481  1
  Ru  Ru35  1  0.352976  0.168622  0.716317  1
