# generated using pymatgen
data_Pr2ErTm(AsPt)4
_symmetry_space_group_name_H-M   'P 1'
_cell_length_a   4.29797600
_cell_length_b   4.29797479
_cell_length_c   15.95424200
_cell_angle_alpha   90.00000000
_cell_angle_beta   90.00000000
_cell_angle_gamma   120.00000934
_symmetry_Int_Tables_number   1
_chemical_formula_structural   Pr2ErTm(AsPt)4
_chemical_formula_sum   'Pr2 Er1 Tm1 As4 Pt4'
_cell_volume   255.23170147
_cell_formula_units_Z   1
loop_
 _symmetry_equiv_pos_site_id
 _symmetry_equiv_pos_as_xyz
  1  'x, y, z'
loop_
 _atom_site_type_symbol
 _atom_site_label
 _atom_site_symmetry_multiplicity
 _atom_site_fract_x
 _atom_site_fract_y
 _atom_site_fract_z
 _atom_site_occupancy
  Pr  Pr0  1  0.000000  0.000000  0.500016  1
  Pr  Pr1  1  0.000000  0.000000  0.999984  1
  Er  Er2  1  0.000000  0.000000  0.250000  1
  Tm  Tm3  1  0.000000  0.000000  0.750000  1
  As  As4  1  0.333333  0.666667  0.879388  1
  As  As5  1  0.666667  0.333333  0.120574  1
  As  As6  1  0.666667  0.333333  0.379426  1
  As  As7  1  0.333333  0.666667  0.620612  1
  Pt  Pt8  1  0.333333  0.666667  0.355724  1
  Pt  Pt9  1  0.666667  0.333333  0.644479  1
  Pt  Pt10  1  0.666667  0.333333  0.855521  1
  Pt  Pt11  1  0.333333  0.666667  0.144276  1
