# generated using pymatgen
data_Dy5Ho(AlC3)2
_symmetry_space_group_name_H-M   'P 1'
_cell_length_a   3.56675300
_cell_length_b   7.04444769
_cell_length_c   9.99618820
_cell_angle_alpha   89.94872719
_cell_angle_beta   90.00000000
_cell_angle_gamma   90.00000000
_symmetry_Int_Tables_number   1
_chemical_formula_structural   Dy5Ho(AlC3)2
_chemical_formula_sum   'Dy5 Ho1 Al2 C6'
_cell_volume   251.16217431
_cell_formula_units_Z   1
loop_
 _symmetry_equiv_pos_site_id
 _symmetry_equiv_pos_as_xyz
  1  'x, y, z'
loop_
 _atom_site_type_symbol
 _atom_site_label
 _atom_site_symmetry_multiplicity
 _atom_site_fract_x
 _atom_site_fract_y
 _atom_site_fract_z
 _atom_site_occupancy
  Dy  Dy0  1  0.500000  0.509737  0.199788  1
  Dy  Dy1  1  0.500000  0.490088  0.800160  1
  Dy  Dy2  1  0.500000  0.990303  0.199892  1
  Dy  Dy3  1  0.000000  0.750017  0.458495  1
  Dy  Dy4  1  0.000000  0.249873  0.541715  1
  Ho  Ho5  1  0.500000  0.010970  0.799657  1
  Al  Al6  1  0.000000  0.750492  0.005523  1
  Al  Al7  1  0.000000  0.249517  0.994007  1
  C  C8  1  0.500000  0.509091  0.566013  1
  C  C9  1  0.500000  0.490812  0.433997  1
  C  C10  1  0.500000  0.990899  0.566566  1
  C  C11  1  0.500000  0.009047  0.434409  1
  C  C12  1  0.000000  0.750079  0.208486  1
  C  C13  1  0.000000  0.249075  0.791294  1
