# generated using pymatgen
data_YbY3Ga15(SiIr2)3
_symmetry_space_group_name_H-M   'P 1'
_cell_length_a   7.57689857
_cell_length_b   7.50877252
_cell_length_c   9.50633853
_cell_angle_alpha   89.95126847
_cell_angle_beta   89.90551312
_cell_angle_gamma   119.87408587
_symmetry_Int_Tables_number   1
_chemical_formula_structural   YbY3Ga15(SiIr2)3
_chemical_formula_sum   'Yb1 Y3 Ga15 Si3 Ir6'
_cell_volume   468.97810181
_cell_formula_units_Z   1
loop_
 _symmetry_equiv_pos_site_id
 _symmetry_equiv_pos_as_xyz
  1  'x, y, z'
loop_
 _atom_site_type_symbol
 _atom_site_label
 _atom_site_symmetry_multiplicity
 _atom_site_fract_x
 _atom_site_fract_y
 _atom_site_fract_z
 _atom_site_occupancy
  Yb  Yb0  1  0.323097  0.993019  0.749860  1
  Y  Y1  1  0.997018  0.666591  0.248064  1
  Y  Y2  1  0.004511  0.340563  0.750772  1
  Y  Y3  1  0.673232  0.003405  0.247450  1
  Ga  Ga4  1  0.131552  0.127846  0.250929  1
  Ga  Ga5  1  0.872216  0.869205  0.750963  1
  Ga  Ga6  1  0.340880  0.005047  0.422376  1
  Ga  Ga7  1  0.000901  0.327873  0.421228  1
  Ga  Ga8  1  0.664855  0.002538  0.581431  1
  Ga  Ga9  1  0.659762  0.998504  0.916360  1
  Ga  Ga10  1  0.339291  0.003809  0.078544  1
  Ga  Ga11  1  0.332512  0.327231  0.570285  1
  Ga  Ga12  1  0.660456  0.668476  0.432643  1
  Ga  Ga13  1  0.660315  0.667886  0.069809  1
  Ga  Ga14  1  0.336902  0.328370  0.928830  1
  Ga  Ga15  1  0.336318  0.546342  0.251246  1
  Ga  Ga16  1  0.661317  0.454289  0.751346  1
  Ga  Ga17  1  0.549245  0.341414  0.250741  1
  Ga  Ga18  1  0.452887  0.662203  0.750701  1
  Si  Si19  1  0.000920  0.329015  0.072254  1
  Si  Si20  1  0.998853  0.671132  0.930183  1
  Si  Si21  1  0.000914  0.666371  0.566514  1
  Ir  Ir22  1  0.696907  0.343562  0.002647  1
  Ir  Ir23  1  0.303604  0.655824  0.999266  1
  Ir  Ir24  1  0.316145  0.668568  0.502860  1
  Ir  Ir25  1  0.686905  0.343947  0.500828  1
  Ir  Ir26  1  0.998731  0.000361  0.001342  1
  Ir  Ir27  1  0.999752  0.986610  0.500530  1
