# generated using pymatgen
data_Ho4FeOsC4
_symmetry_space_group_name_H-M   'P 1'
_cell_length_a   5.06233700
_cell_length_b   6.31869331
_cell_length_c   9.66423536
_cell_angle_alpha   90.61351058
_cell_angle_beta   90.00000000
_cell_angle_gamma   90.00000000
_symmetry_Int_Tables_number   1
_chemical_formula_structural   Ho4FeOsC4
_chemical_formula_sum   'Ho8 Fe2 Os2 C8'
_cell_volume   309.11560490
_cell_formula_units_Z   2
loop_
 _symmetry_equiv_pos_site_id
 _symmetry_equiv_pos_as_xyz
  1  'x, y, z'
loop_
 _atom_site_type_symbol
 _atom_site_label
 _atom_site_symmetry_multiplicity
 _atom_site_fract_x
 _atom_site_fract_y
 _atom_site_fract_z
 _atom_site_occupancy
  Ho  Ho0  1  0.250000  0.686829  0.554167  1
  Ho  Ho1  1  0.750000  0.313171  0.445833  1
  Ho  Ho2  1  0.750000  0.818815  0.051265  1
  Ho  Ho3  1  0.250000  0.181185  0.948735  1
  Ho  Ho4  1  0.250000  0.521068  0.218386  1
  Ho  Ho5  1  0.750000  0.478932  0.781614  1
  Ho  Ho6  1  0.750000  0.977501  0.718595  1
  Ho  Ho7  1  0.250000  0.022499  0.281405  1
  Fe  Fe8  1  0.250000  0.728810  0.861153  1
  Fe  Fe9  1  0.750000  0.271190  0.138847  1
  Os  Os10  1  0.750000  0.774057  0.361482  1
  Os  Os11  1  0.250000  0.225943  0.638518  1
  C  C12  1  0.250000  0.470844  0.762613  1
  C  C13  1  0.750000  0.529156  0.237387  1
  C  C14  1  0.750000  0.043369  0.254858  1
  C  C15  1  0.250000  0.956631  0.745142  1
  C  C16  1  0.250000  0.815299  0.041886  1
  C  C17  1  0.750000  0.184701  0.958114  1
  C  C18  1  0.750000  0.676873  0.553400  1
  C  C19  1  0.250000  0.323127  0.446600  1
