# generated using pymatgen
data_Pr3Nd13(InCo)4
_symmetry_space_group_name_H-M   'P 1'
_cell_length_a   9.85695429
_cell_length_b   9.85754320
_cell_length_c   9.85695420
_cell_angle_alpha   60.00606901
_cell_angle_beta   59.98000799
_cell_angle_gamma   60.00607287
_symmetry_Int_Tables_number   1
_chemical_formula_structural   Pr3Nd13(InCo)4
_chemical_formula_sum   'Pr3 Nd13 In4 Co4'
_cell_volume   677.19438086
_cell_formula_units_Z   1
loop_
 _symmetry_equiv_pos_site_id
 _symmetry_equiv_pos_as_xyz
  1  'x, y, z'
loop_
 _atom_site_type_symbol
 _atom_site_label
 _atom_site_symmetry_multiplicity
 _atom_site_fract_x
 _atom_site_fract_y
 _atom_site_fract_z
 _atom_site_occupancy
  Pr  Pr0  1  0.689731  0.310253  0.689731  1
  Pr  Pr1  1  0.059891  0.440180  0.059891  1
  Pr  Pr2  1  0.903459  0.289616  0.903459  1
  Nd  Nd3  1  0.289636  0.903390  0.903501  1
  Nd  Nd4  1  0.689781  0.690020  0.310086  1
  Nd  Nd5  1  0.903501  0.903390  0.289636  1
  Nd  Nd6  1  0.310119  0.689874  0.310119  1
  Nd  Nd7  1  0.689738  0.310127  0.310142  1
  Nd  Nd8  1  0.059979  0.440242  0.440138  1
  Nd  Nd9  1  0.440239  0.059631  0.059931  1
  Nd  Nd10  1  0.059931  0.059631  0.440239  1
  Nd  Nd11  1  0.310142  0.310127  0.689738  1
  Nd  Nd12  1  0.440173  0.059847  0.440173  1
  Nd  Nd13  1  0.903489  0.903414  0.903489  1
  Nd  Nd14  1  0.440138  0.440242  0.059979  1
  Nd  Nd15  1  0.310086  0.690020  0.689781  1
  In  In16  1  0.669480  0.669818  0.991065  1
  In  In17  1  0.991065  0.669818  0.669480  1
  In  In18  1  0.669627  0.990943  0.669627  1
  In  In19  1  0.669577  0.669929  0.669577  1
  Co  Co20  1  0.109751  0.109376  0.109751  1
  Co  Co21  1  0.109830  0.109451  0.671006  1
  Co  Co22  1  0.671006  0.109451  0.109830  1
  Co  Co23  1  0.109632  0.671211  0.109632  1
