# generated using pymatgen
data_Sr4CeSi12Ir19
_symmetry_space_group_name_H-M   'P 1'
_cell_length_a   12.93401800
_cell_length_b   12.93401923
_cell_length_c   4.05317400
_cell_angle_alpha   90.00000000
_cell_angle_beta   90.00000000
_cell_angle_gamma   120.00000198
_symmetry_Int_Tables_number   1
_chemical_formula_structural   Sr4CeSi12Ir19
_chemical_formula_sum   'Sr4 Ce1 Si12 Ir19'
_cell_volume   587.20917723
_cell_formula_units_Z   1
loop_
 _symmetry_equiv_pos_site_id
 _symmetry_equiv_pos_as_xyz
  1  'x, y, z'
loop_
 _atom_site_type_symbol
 _atom_site_label
 _atom_site_symmetry_multiplicity
 _atom_site_fract_x
 _atom_site_fract_y
 _atom_site_fract_z
 _atom_site_occupancy
  Sr  Sr0  1  0.000248  0.817090  0.500000  1
  Sr  Sr1  1  0.182910  0.183158  0.500000  1
  Sr  Sr2  1  0.816842  0.999752  0.500000  1
  Sr  Sr3  1  0.666667  0.333333  0.000000  1
  Ce  Ce4  1  0.333333  0.666667  0.000000  1
  Si  Si5  1  0.999776  0.185860  0.000000  1
  Si  Si6  1  0.814140  0.813916  0.000000  1
  Si  Si7  1  0.186084  0.000224  0.000000  1
  Si  Si8  1  0.521487  0.689765  0.500000  1
  Si  Si9  1  0.310235  0.831722  0.500000  1
  Si  Si10  1  0.168278  0.478513  0.500000  1
  Si  Si11  1  0.479224  0.167647  0.500000  1
  Si  Si12  1  0.688423  0.520776  0.500000  1
  Si  Si13  1  0.832353  0.311577  0.500000  1
  Si  Si14  1  0.998878  0.628849  0.000000  1
  Si  Si15  1  0.371151  0.370029  0.000000  1
  Si  Si16  1  0.629971  0.001122  0.000000  1
  Ir  Ir17  1  0.000512  0.286462  0.500000  1
  Ir  Ir18  1  0.713538  0.714050  0.500000  1
  Ir  Ir19  1  0.285950  0.999488  0.500000  1
  Ir  Ir20  1  0.618077  0.803299  0.000000  1
  Ir  Ir21  1  0.196701  0.814777  0.000000  1
  Ir  Ir22  1  0.185223  0.381923  0.000000  1
  Ir  Ir23  1  0.380238  0.182854  0.000000  1
  Ir  Ir24  1  0.802617  0.619762  0.000000  1
  Ir  Ir25  1  0.817146  0.197383  0.000000  1
  Ir  Ir26  1  0.508727  0.871663  0.500000  1
  Ir  Ir27  1  0.128337  0.637064  0.500000  1
  Ir  Ir28  1  0.362936  0.491273  0.500000  1
  Ir  Ir29  1  0.484534  0.362563  0.500000  1
  Ir  Ir30  1  0.878028  0.515466  0.500000  1
  Ir  Ir31  1  0.637437  0.121972  0.500000  1
  Ir  Ir32  1  0.000000  0.000000  0.000000  1
  Ir  Ir33  1  0.002661  0.449050  0.000000  1
  Ir  Ir34  1  0.550950  0.553610  0.000000  1
  Ir  Ir35  1  0.446390  0.997339  0.000000  1
