# generated using pymatgen
data_YbCeLu2(Al8Pt3)3
_symmetry_space_group_name_H-M   'P 1'
_cell_length_a   7.48444544
_cell_length_b   7.51465005
_cell_length_c   13.20084544
_cell_angle_alpha   84.66661965
_cell_angle_beta   100.77962225
_cell_angle_gamma   119.74549385
_symmetry_Int_Tables_number   1
_chemical_formula_structural   YbCeLu2(Al8Pt3)3
_chemical_formula_sum   'Yb1 Ce1 Lu2 Al24 Pt9'
_cell_volume   633.25230438
_cell_formula_units_Z   1
loop_
 _symmetry_equiv_pos_site_id
 _symmetry_equiv_pos_as_xyz
  1  'x, y, z'
loop_
 _atom_site_type_symbol
 _atom_site_label
 _atom_site_symmetry_multiplicity
 _atom_site_fract_x
 _atom_site_fract_y
 _atom_site_fract_z
 _atom_site_occupancy
  Yb  Yb0  1  0.232990  0.498631  0.192461  1
  Ce  Ce1  1  0.436572  0.831052  0.807405  1
  Lu  Lu2  1  0.563872  0.169267  0.193275  1
  Lu  Lu3  1  0.767298  0.501259  0.807460  1
  Al  Al4  1  0.481962  0.167656  0.945087  1
  Al  Al5  1  0.519369  0.834638  0.055464  1
  Al  Al6  1  0.021580  0.168134  0.560350  1
  Al  Al7  1  0.978184  0.831826  0.439690  1
  Al  Al8  1  0.354731  0.833170  0.558576  1
  Al  Al9  1  0.645907  0.167045  0.441576  1
  Al  Al10  1  0.617750  0.834731  0.329221  1
  Al  Al11  1  0.382332  0.166935  0.670896  1
  Al  Al12  1  0.054428  0.492092  0.670370  1
  Al  Al13  1  0.943672  0.506357  0.329108  1
  Al  Al14  1  0.732138  0.839612  0.668791  1
  Al  Al15  1  0.269174  0.160190  0.330497  1
  Al  Al16  1  0.146222  0.499136  0.946008  1
  Al  Al17  1  0.851775  0.499409  0.054454  1
  Al  Al18  1  0.817073  0.832131  0.953293  1
  Al  Al19  1  0.183813  0.166938  0.046997  1
  Al  Al20  1  0.313729  0.500318  0.440992  1
  Al  Al21  1  0.685943  0.499076  0.558763  1
  Al  Al22  1  0.104385  0.838900  0.183086  1
  Al  Al23  1  0.898967  0.165689  0.817059  1
  Al  Al24  1  0.306963  0.367583  0.815778  1
  Al  Al25  1  0.693958  0.629106  0.183866  1
  Al  Al26  1  0.101116  0.959528  0.816592  1
  Al  Al27  1  0.894501  0.039916  0.183395  1
  Pt  Pt28  1  0.388581  0.506987  0.638813  1
  Pt  Pt29  1  0.611964  0.492063  0.361486  1
  Pt  Pt30  1  0.171050  0.828783  0.999008  1
  Pt  Pt31  1  0.828218  0.171824  0.999341  1
  Pt  Pt32  1  0.295193  0.833771  0.362196  1
  Pt  Pt33  1  0.705972  0.167572  0.639004  1
  Pt  Pt34  1  0.046639  0.824930  0.638071  1
  Pt  Pt35  1  0.952276  0.174253  0.362616  1
  Pt  Pt36  1  0.499704  0.499494  0.998955  1
