# generated using pymatgen
data_Tb10Sn7Sb
_symmetry_space_group_name_H-M   'P 1'
_cell_length_a   8.14487700
_cell_length_b   8.20904664
_cell_length_c   15.50495979
_cell_angle_alpha   90.46501768
_cell_angle_beta   90.00000000
_cell_angle_gamma   90.00000000
_symmetry_Int_Tables_number   1
_chemical_formula_structural   Tb10Sn7Sb
_chemical_formula_sum   'Tb20 Sn14 Sb2'
_cell_volume   1036.65344092
_cell_formula_units_Z   2
loop_
 _symmetry_equiv_pos_site_id
 _symmetry_equiv_pos_as_xyz
  1  'x, y, z'
loop_
 _atom_site_type_symbol
 _atom_site_label
 _atom_site_symmetry_multiplicity
 _atom_site_fract_x
 _atom_site_fract_y
 _atom_site_fract_z
 _atom_site_occupancy
  Tb  Tb0  1  0.376235  0.838378  0.880874  1
  Tb  Tb1  1  0.876235  0.661622  0.619126  1
  Tb  Tb2  1  0.626144  0.162155  0.378422  1
  Tb  Tb3  1  0.126144  0.337845  0.121578  1
  Tb  Tb4  1  0.623291  0.161519  0.119910  1
  Tb  Tb5  1  0.123291  0.338481  0.380090  1
  Tb  Tb6  1  0.375370  0.837708  0.621719  1
  Tb  Tb7  1  0.875370  0.662292  0.878281  1
  Tb  Tb8  1  0.537448  0.333068  0.895767  1
  Tb  Tb9  1  0.037448  0.166932  0.604233  1
  Tb  Tb10  1  0.464388  0.678223  0.397540  1
  Tb  Tb11  1  0.964388  0.821777  0.102460  1
  Tb  Tb12  1  0.470636  0.671254  0.101096  1
  Tb  Tb13  1  0.970636  0.828746  0.398904  1
  Tb  Tb14  1  0.526586  0.318354  0.600955  1
  Tb  Tb15  1  0.026586  0.181646  0.899045  1
  Tb  Tb16  1  0.204765  0.501623  0.749127  1
  Tb  Tb17  1  0.704765  0.998377  0.750873  1
  Tb  Tb18  1  0.794737  0.498637  0.247905  1
  Tb  Tb19  1  0.294737  0.001363  0.252095  1
  Sn  Sn20  1  0.717213  0.968685  0.542496  1
  Sn  Sn21  1  0.217213  0.531315  0.957504  1
  Sn  Sn22  1  0.717955  0.968224  0.957021  1
  Sn  Sn23  1  0.217955  0.531776  0.542979  1
  Sn  Sn24  1  0.288880  0.035404  0.458207  1
  Sn  Sn25  1  0.788880  0.464596  0.041793  1
  Sn  Sn26  1  0.572677  0.622940  0.748649  1
  Sn  Sn27  1  0.072677  0.877060  0.751351  1
  Sn  Sn28  1  0.427737  0.377730  0.250369  1
  Sn  Sn29  1  0.927737  0.122270  0.249631  1
  Sn  Sn30  1  0.337736  0.145684  0.752517  1
  Sn  Sn31  1  0.837736  0.354316  0.747483  1
  Sn  Sn32  1  0.660587  0.853975  0.249560  1
  Sn  Sn33  1  0.160587  0.646025  0.250440  1
  Sb  Sb34  1  0.277617  0.025808  0.046116  1
  Sb  Sb35  1  0.777617  0.474192  0.453884  1
