# generated using pymatgen
data_Ce4Tm6TcRu3
_symmetry_space_group_name_H-M   'P 1'
_cell_length_a   6.33863045
_cell_length_b   7.03288758
_cell_length_c   8.74937530
_cell_angle_alpha   95.69939409
_cell_angle_beta   111.21335915
_cell_angle_gamma   89.99384797
_symmetry_Int_Tables_number   1
_chemical_formula_structural   Ce4Tm6TcRu3
_chemical_formula_sum   'Ce4 Tm6 Tc1 Ru3'
_cell_volume   361.54077054
_cell_formula_units_Z   1
loop_
 _symmetry_equiv_pos_site_id
 _symmetry_equiv_pos_as_xyz
  1  'x, y, z'
loop_
 _atom_site_type_symbol
 _atom_site_label
 _atom_site_symmetry_multiplicity
 _atom_site_fract_x
 _atom_site_fract_y
 _atom_site_fract_z
 _atom_site_occupancy
  Ce  Ce0  1  0.783319  0.097485  0.806982  1
  Ce  Ce1  1  0.978777  0.405180  0.189973  1
  Ce  Ce2  1  0.210739  0.904563  0.190953  1
  Ce  Ce3  1  0.018371  0.593700  0.807349  1
  Tm  Tm4  1  0.206215  0.184287  0.566945  1
  Tm  Tm5  1  0.638348  0.313856  0.431652  1
  Tm  Tm6  1  0.793244  0.815336  0.433044  1
  Tm  Tm7  1  0.358418  0.687055  0.567138  1
  Tm  Tm8  1  0.418460  0.249152  0.999985  1
  Tm  Tm9  1  0.579896  0.751295  0.000716  1
  Tc  Tc10  1  0.637264  0.405632  0.782048  1
  Ru  Ru11  1  0.847102  0.093630  0.223482  1
  Ru  Ru12  1  0.375916  0.593009  0.221714  1
  Ru  Ru13  1  0.153930  0.905817  0.778020  1
