# generated using pymatgen
data_TbHoNi2Ag
_symmetry_space_group_name_H-M   'P 1'
_cell_length_a   7.22531942
_cell_length_b   7.22531893
_cell_length_c   3.63841200
_cell_angle_alpha   90.00000000
_cell_angle_beta   90.00000000
_cell_angle_gamma   149.38678816
_symmetry_Int_Tables_number   1
_chemical_formula_structural   TbHoNi2Ag
_chemical_formula_sum   'Tb1 Ho1 Ni2 Ag1'
_cell_volume   96.72714207
_cell_formula_units_Z   1
loop_
 _symmetry_equiv_pos_site_id
 _symmetry_equiv_pos_as_xyz
  1  'x, y, z'
loop_
 _atom_site_type_symbol
 _atom_site_label
 _atom_site_symmetry_multiplicity
 _atom_site_fract_x
 _atom_site_fract_y
 _atom_site_fract_z
 _atom_site_occupancy
  Tb  Tb0  1  0.366286  0.633714  0.500000  1
  Ho  Ho1  1  0.634782  0.365218  0.500000  1
  Ni  Ni2  1  0.800702  0.199298  0.000000  1
  Ni  Ni3  1  0.197576  0.802424  0.000000  1
  Ag  Ag4  1  0.000655  0.999345  0.000000  1
