# generated using pymatgen
data_Er3Co7(P3Ir)2
_symmetry_space_group_name_H-M   'P 1'
_cell_length_a   3.71723200
_cell_length_b   10.62296500
_cell_length_c   12.34920000
_cell_angle_alpha   90.00000000
_cell_angle_beta   90.00000000
_cell_angle_gamma   90.00000000
_symmetry_Int_Tables_number   1
_chemical_formula_structural   Er3Co7(P3Ir)2
_chemical_formula_sum   'Er6 Co14 P12 Ir4'
_cell_volume   487.64552368
_cell_formula_units_Z   2
loop_
 _symmetry_equiv_pos_site_id
 _symmetry_equiv_pos_as_xyz
  1  'x, y, z'
loop_
 _atom_site_type_symbol
 _atom_site_label
 _atom_site_symmetry_multiplicity
 _atom_site_fract_x
 _atom_site_fract_y
 _atom_site_fract_z
 _atom_site_occupancy
  Er  Er0  1  0.750000  0.250000  0.480382  1
  Er  Er1  1  0.250000  0.750000  0.519618  1
  Er  Er2  1  0.250000  0.936887  0.794107  1
  Er  Er3  1  0.250000  0.563113  0.794107  1
  Er  Er4  1  0.750000  0.063113  0.205893  1
  Er  Er5  1  0.750000  0.436887  0.205893  1
  Co  Co6  1  0.750000  0.250000  0.012121  1
  Co  Co7  1  0.250000  0.750000  0.987879  1
  Co  Co8  1  0.250000  0.417568  0.006947  1
  Co  Co9  1  0.250000  0.082432  0.006947  1
  Co  Co10  1  0.750000  0.582432  0.993053  1
  Co  Co11  1  0.750000  0.917568  0.993053  1
  Co  Co12  1  0.250000  0.449858  0.571103  1
  Co  Co13  1  0.250000  0.050142  0.571103  1
  Co  Co14  1  0.750000  0.550142  0.428897  1
  Co  Co15  1  0.750000  0.949858  0.428897  1
  Co  Co16  1  0.250000  0.869596  0.288938  1
  Co  Co17  1  0.250000  0.630404  0.288938  1
  Co  Co18  1  0.750000  0.130404  0.711062  1
  Co  Co19  1  0.750000  0.369596  0.711062  1
  P  P20  1  0.250000  0.250000  0.111081  1
  P  P21  1  0.750000  0.750000  0.888919  1
  P  P22  1  0.250000  0.250000  0.648638  1
  P  P23  1  0.750000  0.750000  0.351362  1
  P  P24  1  0.250000  0.447494  0.386749  1
  P  P25  1  0.250000  0.052506  0.386749  1
  P  P26  1  0.750000  0.552506  0.613251  1
  P  P27  1  0.750000  0.947494  0.613251  1
  P  P28  1  0.250000  0.905561  0.105711  1
  P  P29  1  0.250000  0.594439  0.105711  1
  P  P30  1  0.750000  0.094439  0.894289  1
  P  P31  1  0.750000  0.405561  0.894289  1
  Ir  Ir32  1  0.250000  0.250000  0.839010  1
  Ir  Ir33  1  0.750000  0.750000  0.160990  1
  Ir  Ir34  1  0.250000  0.250000  0.297239  1
  Ir  Ir35  1  0.750000  0.750000  0.702761  1
