# generated using pymatgen
data_Ho7Er8Tm(Ga3Co)2
_symmetry_space_group_name_H-M   'P 1'
_cell_length_a   9.95659100
_cell_length_b   9.95640037
_cell_length_c   6.89225000
_cell_angle_alpha   89.99532313
_cell_angle_beta   90.00093415
_cell_angle_gamma   119.99349833
_symmetry_Int_Tables_number   1
_chemical_formula_structural   Ho7Er8Tm(Ga3Co)2
_chemical_formula_sum   'Ho7 Er8 Tm1 Ga6 Co2'
_cell_volume   591.74298958
_cell_formula_units_Z   1
loop_
 _symmetry_equiv_pos_site_id
 _symmetry_equiv_pos_as_xyz
  1  'x, y, z'
loop_
 _atom_site_type_symbol
 _atom_site_label
 _atom_site_symmetry_multiplicity
 _atom_site_fract_x
 _atom_site_fract_y
 _atom_site_fract_z
 _atom_site_occupancy
  Ho  Ho0  1  0.072482  0.536360  0.207971  1
  Ho  Ho1  1  0.463631  0.927495  0.207990  1
  Ho  Ho2  1  0.536080  0.463876  0.707689  1
  Ho  Ho3  1  0.927809  0.464062  0.707661  1
  Ho  Ho4  1  0.535923  0.072179  0.707685  1
  Ho  Ho5  1  0.000116  0.999895  0.230995  1
  Ho  Ho6  1  0.000102  0.999938  0.730552  1
  Er  Er7  1  0.653790  0.826714  0.510173  1
  Er  Er8  1  0.173302  0.346240  0.510224  1
  Er  Er9  1  0.826960  0.173012  0.010455  1
  Er  Er10  1  0.346170  0.173259  0.010640  1
  Er  Er11  1  0.826688  0.653796  0.010607  1
  Er  Er12  1  0.333334  0.666699  0.827774  1
  Er  Er13  1  0.666564  0.333409  0.327872  1
  Er  Er14  1  0.463593  0.536459  0.207807  1
  Tm  Tm15  1  0.173200  0.826827  0.510348  1
  Ga  Ga16  1  0.163441  0.836567  0.959353  1
  Ga  Ga17  1  0.672847  0.836326  0.960008  1
  Ga  Ga18  1  0.163680  0.327161  0.960016  1
  Ga  Ga19  1  0.836551  0.163438  0.459965  1
  Ga  Ga20  1  0.326697  0.162979  0.459833  1
  Ga  Ga21  1  0.837007  0.673322  0.459837  1
  Co  Co22  1  0.333371  0.666662  0.444250  1
  Co  Co23  1  0.666662  0.333326  0.944338  1
