# generated using pymatgen
data_Li2Th2Si3
_symmetry_space_group_name_H-M   'P 1'
_cell_length_a   9.45321768
_cell_length_b   9.45321845
_cell_length_c   6.73903000
_cell_angle_alpha   90.00000000
_cell_angle_beta   90.00000000
_cell_angle_gamma   152.82523684
_symmetry_Int_Tables_number   1
_chemical_formula_structural   Li2Th2Si3
_chemical_formula_sum   'Li4 Th4 Si6'
_cell_volume   275.03855520
_cell_formula_units_Z   2
loop_
 _symmetry_equiv_pos_site_id
 _symmetry_equiv_pos_as_xyz
  1  'x, y, z'
loop_
 _atom_site_type_symbol
 _atom_site_label
 _atom_site_symmetry_multiplicity
 _atom_site_fract_x
 _atom_site_fract_y
 _atom_site_fract_z
 _atom_site_occupancy
  Li  Li0  1  0.812061  0.187939  0.565426  1
  Li  Li1  1  0.187939  0.812061  0.434574  1
  Li  Li2  1  0.187939  0.812061  0.065426  1
  Li  Li3  1  0.812061  0.187939  0.934574  1
  Th  Th4  1  0.549394  0.450606  0.250000  1
  Th  Th5  1  0.450606  0.549394  0.750000  1
  Th  Th6  1  0.343593  0.656407  0.250000  1
  Th  Th7  1  0.656407  0.343593  0.750000  1
  Si  Si8  1  0.939474  0.060526  0.070056  1
  Si  Si9  1  0.060526  0.939474  0.929944  1
  Si  Si10  1  0.060526  0.939474  0.570056  1
  Si  Si11  1  0.939474  0.060526  0.429944  1
  Si  Si12  1  0.720591  0.279409  0.250000  1
  Si  Si13  1  0.279409  0.720591  0.750000  1
