# generated using pymatgen
data_Mg4Ni2Ge5AsIr5
_symmetry_space_group_name_H-M   'P 1'
_cell_length_a   7.02223847
_cell_length_b   6.98302533
_cell_length_c   6.98302393
_cell_angle_alpha   108.91934390
_cell_angle_beta   109.76237300
_cell_angle_gamma   109.50381450
_symmetry_Int_Tables_number   1
_chemical_formula_structural   Mg4Ni2Ge5AsIr5
_chemical_formula_sum   'Mg4 Ni2 Ge5 As1 Ir5'
_cell_volume   264.32549875
_cell_formula_units_Z   1
loop_
 _symmetry_equiv_pos_site_id
 _symmetry_equiv_pos_as_xyz
  1  'x, y, z'
loop_
 _atom_site_type_symbol
 _atom_site_label
 _atom_site_symmetry_multiplicity
 _atom_site_fract_x
 _atom_site_fract_y
 _atom_site_fract_z
 _atom_site_occupancy
  Mg  Mg0  1  0.998370  0.992431  0.500662  1
  Mg  Mg1  1  0.500014  0.003185  0.995568  1
  Mg  Mg2  1  0.998370  0.497708  0.005939  1
  Mg  Mg3  1  0.500014  0.504447  0.496830  1
  Ni  Ni4  1  0.243795  0.495470  0.748325  1
  Ni  Ni5  1  0.755161  0.250660  0.504501  1
  Ge  Ge6  1  0.686252  0.689006  0.997245  1
  Ge  Ge7  1  0.310158  0.314764  0.995395  1
  Ge  Ge8  1  0.999681  0.679281  0.689931  1
  Ge  Ge9  1  0.999681  0.309750  0.320400  1
  Ge  Ge10  1  0.693228  0.002896  0.690332  1
  As  As11  1  0.314113  0.001703  0.312410  1
  Ir  Ir12  1  0.002562  0.001149  0.001413  1
  Ir  Ir13  1  0.499991  0.256705  0.740630  1
  Ir  Ir14  1  0.499991  0.759361  0.243286  1
  Ir  Ir15  1  0.745346  0.493642  0.251704  1
  Ir  Ir16  1  0.253271  0.747844  0.505427  1
