# generated using pymatgen
data_Pd2SBr2
_symmetry_space_group_name_H-M   'P 1'
_cell_length_a   7.81939862
_cell_length_b   7.81939763
_cell_length_c   7.81939785
_cell_angle_alpha   125.44464441
_cell_angle_beta   125.44464000
_cell_angle_gamma   80.80284656
_symmetry_Int_Tables_number   1
_chemical_formula_structural   Pd2SBr2
_chemical_formula_sum   'Pd4 S2 Br4'
_cell_volume   305.89231159
_cell_formula_units_Z   2
loop_
 _symmetry_equiv_pos_site_id
 _symmetry_equiv_pos_as_xyz
  1  'x, y, z'
loop_
 _atom_site_type_symbol
 _atom_site_label
 _atom_site_symmetry_multiplicity
 _atom_site_fract_x
 _atom_site_fract_y
 _atom_site_fract_z
 _atom_site_occupancy
  Pd  Pd0  1  0.375000  0.125000  0.250000  1
  Pd  Pd1  1  0.875000  0.125000  0.250000  1
  Pd  Pd2  1  0.875000  0.625000  0.750000  1
  Pd  Pd3  1  0.875000  0.125000  0.750000  1
  S  S4  1  0.000000  0.000000  0.000000  1
  S  S5  1  0.750000  0.250000  0.500000  1
  Br  Br6  1  0.729601  0.729601  0.000000  1
  Br  Br7  1  0.479601  0.979601  0.500000  1
  Br  Br8  1  0.270399  0.270399  0.000000  1
  Br  Br9  1  0.020399  0.520399  0.500000  1
