# generated using pymatgen
data_TbGd2Y3Ta2O14
_symmetry_space_group_name_H-M   'P 1'
_cell_length_a   6.49848833
_cell_length_b   6.50220744
_cell_length_c   7.57507400
_cell_angle_alpha   90.00000000
_cell_angle_beta   90.00000000
_cell_angle_gamma   109.43121864
_symmetry_Int_Tables_number   1
_chemical_formula_structural   TbGd2Y3Ta2O14
_chemical_formula_sum   'Tb1 Gd2 Y3 Ta2 O14'
_cell_volume   301.84978039
_cell_formula_units_Z   1
loop_
 _symmetry_equiv_pos_site_id
 _symmetry_equiv_pos_as_xyz
  1  'x, y, z'
loop_
 _atom_site_type_symbol
 _atom_site_label
 _atom_site_symmetry_multiplicity
 _atom_site_fract_x
 _atom_site_fract_y
 _atom_site_fract_z
 _atom_site_occupancy
  Tb  Tb0  1  0.534247  0.000155  0.750000  1
  Gd  Gd1  1  0.499969  0.499954  0.500022  1
  Gd  Gd2  1  0.499969  0.499954  0.999978  1
  Y  Y3  1  0.000252  0.533819  0.250000  1
  Y  Y4  1  0.466169  0.999761  0.250000  1
  Y  Y5  1  0.999826  0.466277  0.750000  1
  Ta  Ta6  1  0.999921  0.999985  0.499939  1
  Ta  Ta7  1  0.999921  0.999985  0.000061  1
  O  O8  1  0.679547  0.929444  0.468087  1
  O  O9  1  0.929478  0.679562  0.531759  1
  O  O10  1  0.679547  0.929444  0.031913  1
  O  O11  1  0.929478  0.679562  0.968241  1
  O  O12  1  0.320511  0.070648  0.531651  1
  O  O13  1  0.070512  0.320465  0.468237  1
  O  O14  1  0.320511  0.070648  0.968349  1
  O  O15  1  0.070512  0.320465  0.031763  1
  O  O16  1  0.935727  0.064219  0.750000  1
  O  O17  1  0.064248  0.935775  0.250000  1
  O  O18  1  0.368687  0.630146  0.750000  1
  O  O19  1  0.630896  0.369063  0.250000  1
  O  O20  1  0.639277  0.361401  0.750000  1
  O  O21  1  0.360794  0.639267  0.250000  1
