# generated using pymatgen
data_Gd11HoInCo6
_symmetry_space_group_name_H-M   'P 1'
_cell_length_a   8.41829050
_cell_length_b   8.41785330
_cell_length_c   8.41785300
_cell_angle_alpha   109.55466812
_cell_angle_beta   109.48070062
_cell_angle_gamma   109.37625377
_symmetry_Int_Tables_number   1
_chemical_formula_structural   Gd11HoInCo6
_chemical_formula_sum   'Gd11 Ho1 In1 Co6'
_cell_volume   459.21370529
_cell_formula_units_Z   1
loop_
 _symmetry_equiv_pos_site_id
 _symmetry_equiv_pos_as_xyz
  1  'x, y, z'
loop_
 _atom_site_type_symbol
 _atom_site_label
 _atom_site_symmetry_multiplicity
 _atom_site_fract_x
 _atom_site_fract_y
 _atom_site_fract_z
 _atom_site_occupancy
  Gd  Gd0  1  0.807157  0.697964  0.503131  1
  Gd  Gd1  1  0.191905  0.302499  0.498055  1
  Gd  Gd2  1  0.191905  0.693849  0.889405  1
  Gd  Gd3  1  0.807157  0.304026  0.109193  1
  Gd  Gd4  1  0.696831  0.503203  0.807246  1
  Gd  Gd5  1  0.301420  0.495547  0.192198  1
  Gd  Gd6  1  0.696831  0.889586  0.193629  1
  Gd  Gd7  1  0.301420  0.109222  0.805873  1
  Gd  Gd8  1  0.505275  0.807101  0.698174  1
  Gd  Gd9  1  0.499223  0.194068  0.305156  1
  Gd  Gd10  1  0.108625  0.807238  0.301387  1
  Ho  Ho11  1  0.886089  0.191422  0.694667  1
  In  In12  1  0.999042  0.999822  0.999220  1
  Co  Co13  1  0.889535  0.388832  0.500703  1
  Co  Co14  1  0.115777  0.616822  0.498955  1
  Co  Co15  1  0.387051  0.500028  0.887024  1
  Co  Co16  1  0.614527  0.499988  0.114541  1
  Co  Co17  1  0.500114  0.885378  0.386707  1
  Co  Co18  1  0.500114  0.113407  0.614736  1
