# generated using pymatgen
data_SmAl5Ag6
_symmetry_space_group_name_H-M   'P 1'
_cell_length_a   11.06867060
_cell_length_b   8.66155326
_cell_length_c   8.56140738
_cell_angle_alpha   79.98001589
_cell_angle_beta   50.40715585
_cell_angle_gamma   49.61282648
_symmetry_Int_Tables_number   1
_chemical_formula_structural   SmAl5Ag6
_chemical_formula_sum   'Sm2 Al10 Ag12'
_cell_volume   440.03026644
_cell_formula_units_Z   2
loop_
 _symmetry_equiv_pos_site_id
 _symmetry_equiv_pos_as_xyz
  1  'x, y, z'
loop_
 _atom_site_type_symbol
 _atom_site_label
 _atom_site_symmetry_multiplicity
 _atom_site_fract_x
 _atom_site_fract_y
 _atom_site_fract_z
 _atom_site_occupancy
  Sm  Sm0  1  0.000000  0.000000  0.000000  1
  Sm  Sm1  1  0.250000  0.250000  0.250000  1
  Al  Al2  1  0.500000  0.500000  0.500000  1
  Al  Al3  1  0.750000  0.750000  0.750000  1
  Al  Al4  1  0.762404  0.068995  0.814635  1
  Al  Al5  1  0.814635  0.353967  0.762404  1
  Al  Al6  1  0.068995  0.762404  0.353967  1
  Al  Al7  1  0.353967  0.814635  0.068995  1
  Al  Al8  1  0.487596  0.181005  0.435365  1
  Al  Al9  1  0.435365  0.896033  0.487596  1
  Al  Al10  1  0.181005  0.487596  0.896033  1
  Al  Al11  1  0.896033  0.435365  0.181005  1
  Ag  Ag12  1  0.625000  0.125000  0.625000  1
  Ag  Ag13  1  0.625000  0.625000  0.625000  1
  Ag  Ag14  1  0.125000  0.625000  0.625000  1
  Ag  Ag15  1  0.625000  0.625000  0.125000  1
  Ag  Ag16  1  0.509269  0.395801  0.173040  1
  Ag  Ag17  1  0.173040  0.921889  0.509269  1
  Ag  Ag18  1  0.395801  0.509269  0.921889  1
  Ag  Ag19  1  0.921889  0.173040  0.395801  1
  Ag  Ag20  1  0.740731  0.854199  0.076960  1
  Ag  Ag21  1  0.076960  0.328111  0.740731  1
  Ag  Ag22  1  0.854199  0.740731  0.328111  1
  Ag  Ag23  1  0.328111  0.076960  0.854199  1
