# generated using pymatgen
data_Tb6Al24PdRu7
_symmetry_space_group_name_H-M   'P 1'
_cell_length_a   8.82831376
_cell_length_b   8.82831341
_cell_length_c   9.56354525
_cell_angle_alpha   89.80097714
_cell_angle_beta   90.19901976
_cell_angle_gamma   119.66650354
_symmetry_Int_Tables_number   1
_chemical_formula_structural   Tb6Al24PdRu7
_chemical_formula_sum   'Tb6 Al24 Pd1 Ru7'
_cell_volume   647.66617839
_cell_formula_units_Z   1
loop_
 _symmetry_equiv_pos_site_id
 _symmetry_equiv_pos_as_xyz
  1  'x, y, z'
loop_
 _atom_site_type_symbol
 _atom_site_label
 _atom_site_symmetry_multiplicity
 _atom_site_fract_x
 _atom_site_fract_y
 _atom_site_fract_z
 _atom_site_occupancy
  Tb  Tb0  1  0.386295  0.191351  0.249397  1
  Tb  Tb1  1  0.806160  0.193840  0.247070  1
  Tb  Tb2  1  0.808649  0.613705  0.249397  1
  Tb  Tb3  1  0.613705  0.808649  0.750603  1
  Tb  Tb4  1  0.193840  0.806160  0.752930  1
  Tb  Tb5  1  0.191351  0.386295  0.750603  1
  Al  Al6  1  0.439277  0.877455  0.250885  1
  Al  Al7  1  0.122545  0.560723  0.250885  1
  Al  Al8  1  0.438027  0.561973  0.247616  1
  Al  Al9  1  0.560723  0.122545  0.749115  1
  Al  Al10  1  0.877455  0.439277  0.749115  1
  Al  Al11  1  0.561973  0.438027  0.752384  1
  Al  Al12  1  0.162626  0.837374  0.422629  1
  Al  Al13  1  0.155721  0.322511  0.420910  1
  Al  Al14  1  0.677489  0.844279  0.420910  1
  Al  Al15  1  0.837374  0.162626  0.577371  1
  Al  Al16  1  0.844279  0.677489  0.579090  1
  Al  Al17  1  0.322511  0.155721  0.579090  1
  Al  Al18  1  0.837202  0.162798  0.922141  1
  Al  Al19  1  0.837331  0.675980  0.921897  1
  Al  Al20  1  0.324020  0.162669  0.921897  1
  Al  Al21  1  0.162798  0.837202  0.077859  1
  Al  Al22  1  0.162669  0.324020  0.078103  1
  Al  Al23  1  0.675980  0.837331  0.078103  1
  Al  Al24  1  0.330343  0.669657  0.518853  1
  Al  Al25  1  0.669657  0.330343  0.481147  1
  Al  Al26  1  0.666702  0.333298  0.015411  1
  Al  Al27  1  0.333298  0.666702  0.984589  1
  Al  Al28  1  0.000568  0.999432  0.249768  1
  Al  Al29  1  0.999432  0.000568  0.750232  1
  Pd  Pd30  1  0.500000  0.500000  0.500000  1
  Ru  Ru31  1  0.000000  0.000000  0.500000  1
  Ru  Ru32  1  0.000000  0.000000  0.000000  1
  Ru  Ru33  1  0.500000  0.000000  0.500000  1
  Ru  Ru34  1  0.000000  0.500000  0.500000  1
  Ru  Ru35  1  0.500000  0.000000  0.000000  1
  Ru  Ru36  1  0.000000  0.500000  0.000000  1
  Ru  Ru37  1  0.500000  0.500000  0.000000  1
