# generated using pymatgen
data_EuEr(Cu2P)4
_symmetry_space_group_name_H-M   'P 1'
_cell_length_a   7.30508300
_cell_length_b   7.30508300
_cell_length_c   3.81987400
_cell_angle_alpha   90.00000000
_cell_angle_beta   90.00000000
_cell_angle_gamma   89.55937938
_symmetry_Int_Tables_number   1
_chemical_formula_structural   EuEr(Cu2P)4
_chemical_formula_sum   'Eu1 Er1 Cu8 P4'
_cell_volume   203.83863635
_cell_formula_units_Z   1
loop_
 _symmetry_equiv_pos_site_id
 _symmetry_equiv_pos_as_xyz
  1  'x, y, z'
loop_
 _atom_site_type_symbol
 _atom_site_label
 _atom_site_symmetry_multiplicity
 _atom_site_fract_x
 _atom_site_fract_y
 _atom_site_fract_z
 _atom_site_occupancy
  Eu  Eu0  1  0.500000  0.500000  0.000000  1
  Er  Er1  1  0.000000  0.000000  0.500000  1
  Cu  Cu2  1  0.585902  0.160469  0.500000  1
  Cu  Cu3  1  0.414098  0.839531  0.500000  1
  Cu  Cu4  1  0.083302  0.334384  0.000000  1
  Cu  Cu5  1  0.916698  0.665616  0.000000  1
  Cu  Cu6  1  0.160469  0.585902  0.500000  1
  Cu  Cu7  1  0.839531  0.414098  0.500000  1
  Cu  Cu8  1  0.334384  0.083302  0.000000  1
  Cu  Cu9  1  0.665616  0.916698  0.000000  1
  P  P10  1  0.719434  0.719434  0.500000  1
  P  P11  1  0.280566  0.280566  0.500000  1
  P  P12  1  0.211167  0.788833  0.000000  1
  P  P13  1  0.788833  0.211167  0.000000  1
