# generated using pymatgen
data_Ho2Sc2BeB7Ru10
_symmetry_space_group_name_H-M   'P 1'
_cell_length_a   3.04757000
_cell_length_b   8.64670115
_cell_length_c   10.21317864
_cell_angle_alpha   90.61287065
_cell_angle_beta   90.00000000
_cell_angle_gamma   90.00000000
_symmetry_Int_Tables_number   1
_chemical_formula_structural   Ho2Sc2BeB7Ru10
_chemical_formula_sum   'Ho2 Sc2 Be1 B7 Ru10'
_cell_volume   269.11643525
_cell_formula_units_Z   1
loop_
 _symmetry_equiv_pos_site_id
 _symmetry_equiv_pos_as_xyz
  1  'x, y, z'
loop_
 _atom_site_type_symbol
 _atom_site_label
 _atom_site_symmetry_multiplicity
 _atom_site_fract_x
 _atom_site_fract_y
 _atom_site_fract_z
 _atom_site_occupancy
  Ho  Ho0  1  0.500000  0.839891  0.183886  1
  Ho  Ho1  1  0.500000  0.158196  0.816582  1
  Sc  Sc2  1  0.500000  0.656174  0.681222  1
  Sc  Sc3  1  0.500000  0.343267  0.322978  1
  Be  Be4  1  0.500000  0.963136  0.589546  1
  B  B5  1  0.500000  0.039480  0.407920  1
  B  B6  1  0.500000  0.848873  0.897485  1
  B  B7  1  0.500000  0.149623  0.101195  1
  B  B8  1  0.500000  0.649446  0.401562  1
  B  B9  1  0.500000  0.353498  0.596852  1
  B  B10  1  0.500000  0.467681  0.910391  1
  B  B11  1  0.500000  0.530679  0.090081  1
  Ru  Ru12  1  0.000000  0.655230  0.957044  1
  Ru  Ru13  1  0.000000  0.340876  0.045406  1
  Ru  Ru14  1  0.000000  0.840030  0.446494  1
  Ru  Ru15  1  0.000000  0.167688  0.542041  1
  Ru  Ru16  1  0.000000  0.999912  0.002019  1
  Ru  Ru17  1  0.000000  0.412093  0.759054  1
  Ru  Ru18  1  0.000000  0.585520  0.240463  1
  Ru  Ru19  1  0.000000  0.503207  0.500367  1
  Ru  Ru20  1  0.000000  0.891626  0.746301  1
  Ru  Ru21  1  0.000000  0.103876  0.261112  1
