# generated using pymatgen
data_Ba6Sr3Ca(TiN3)4
_symmetry_space_group_name_H-M   'P 1'
_cell_length_a   6.38778940
_cell_length_b   6.44531272
_cell_length_c   14.13911565
_cell_angle_alpha   82.45663573
_cell_angle_beta   83.26074478
_cell_angle_gamma   67.67200519
_symmetry_Int_Tables_number   1
_chemical_formula_structural   Ba6Sr3Ca(TiN3)4
_chemical_formula_sum   'Ba6 Sr3 Ca1 Ti4 N12'
_cell_volume   532.37312537
_cell_formula_units_Z   1
loop_
 _symmetry_equiv_pos_site_id
 _symmetry_equiv_pos_as_xyz
  1  'x, y, z'
loop_
 _atom_site_type_symbol
 _atom_site_label
 _atom_site_symmetry_multiplicity
 _atom_site_fract_x
 _atom_site_fract_y
 _atom_site_fract_z
 _atom_site_occupancy
  Ba  Ba0  1  0.607126  0.391379  0.751048  1
  Ba  Ba1  1  0.394200  0.606523  0.248256  1
  Ba  Ba2  1  0.211432  0.683205  0.987048  1
  Ba  Ba3  1  0.310278  0.788648  0.515535  1
  Ba  Ba4  1  0.786490  0.305030  0.018037  1
  Ba  Ba5  1  0.683273  0.220154  0.482199  1
  Sr  Sr6  1  0.900803  0.784421  0.712607  1
  Sr  Sr7  1  0.215375  0.095488  0.787417  1
  Sr  Sr8  1  0.097045  0.221108  0.285762  1
  Ca  Ca9  1  0.786923  0.910377  0.215977  1
  Ti  Ti10  1  0.079634  0.364580  0.577631  1
  Ti  Ti11  1  0.640140  0.911935  0.922332  1
  Ti  Ti12  1  0.913704  0.648722  0.417766  1
  Ti  Ti13  1  0.367231  0.071570  0.082340  1
  N  N14  1  0.013575  0.102280  0.626278  1
  N  N15  1  0.900454  0.980376  0.872647  1
  N  N16  1  0.975586  0.911428  0.369634  1
  N  N17  1  0.101108  0.006048  0.130751  1
  N  N18  1  0.794885  0.626567  0.553895  1
  N  N19  1  0.378668  0.193673  0.946436  1
  N  N20  1  0.198217  0.385641  0.442234  1
  N  N21  1  0.628765  0.792168  0.058555  1
  N  N22  1  0.246030  0.438816  0.663300  1
  N  N23  1  0.561853  0.749743  0.836874  1
  N  N24  1  0.754201  0.580211  0.328266  1
  N  N25  1  0.453006  0.229910  0.167173  1
