# generated using pymatgen
data_Ac2Sn2O7
_symmetry_space_group_name_H-M   'P 1'
_cell_length_a   7.79729291
_cell_length_b   7.79729333
_cell_length_c   7.79729400
_cell_angle_alpha   60.00000564
_cell_angle_beta   60.00000385
_cell_angle_gamma   60.00000926
_symmetry_Int_Tables_number   1
_chemical_formula_structural   Ac2Sn2O7
_chemical_formula_sum   'Ac4 Sn4 O14'
_cell_volume   335.20979067
_cell_formula_units_Z   2
loop_
 _symmetry_equiv_pos_site_id
 _symmetry_equiv_pos_as_xyz
  1  'x, y, z'
loop_
 _atom_site_type_symbol
 _atom_site_label
 _atom_site_symmetry_multiplicity
 _atom_site_fract_x
 _atom_site_fract_y
 _atom_site_fract_z
 _atom_site_occupancy
  Ac  Ac0  1  0.125000  0.125000  0.625000  1
  Ac  Ac1  1  0.125000  0.625000  0.125000  1
  Ac  Ac2  1  0.625000  0.125000  0.125000  1
  Ac  Ac3  1  0.125000  0.125000  0.125000  1
  Sn  Sn4  1  0.625000  0.625000  0.125000  1
  Sn  Sn5  1  0.625000  0.125000  0.625000  1
  Sn  Sn6  1  0.125000  0.625000  0.625000  1
  Sn  Sn7  1  0.625000  0.625000  0.625000  1
  O  O8  1  0.250000  0.250000  0.250000  1
  O  O9  1  0.000000  0.000000  0.000000  1
  O  O10  1  0.547040  0.952960  0.547040  1
  O  O11  1  0.297040  0.702960  0.297040  1
  O  O12  1  0.547040  0.547040  0.952960  1
  O  O13  1  0.952960  0.547040  0.547040  1
  O  O14  1  0.547040  0.952960  0.952960  1
  O  O15  1  0.952960  0.952960  0.547040  1
  O  O16  1  0.952960  0.547040  0.952960  1
  O  O17  1  0.702960  0.297040  0.297040  1
  O  O18  1  0.297040  0.702960  0.702960  1
  O  O19  1  0.702960  0.297040  0.702960  1
  O  O20  1  0.297040  0.297040  0.702960  1
  O  O21  1  0.702960  0.702960  0.297040  1
