# generated using pymatgen
data_DyHo5TcRu
_symmetry_space_group_name_H-M   'P 1'
_cell_length_a   6.27702100
_cell_length_b   7.36795800
_cell_length_c   9.10891000
_cell_angle_alpha   90.00000000
_cell_angle_beta   90.00000000
_cell_angle_gamma   90.00000000
_symmetry_Int_Tables_number   1
_chemical_formula_structural   DyHo5TcRu
_chemical_formula_sum   'Dy2 Ho10 Tc2 Ru2'
_cell_volume   421.27640360
_cell_formula_units_Z   2
loop_
 _symmetry_equiv_pos_site_id
 _symmetry_equiv_pos_as_xyz
  1  'x, y, z'
loop_
 _atom_site_type_symbol
 _atom_site_label
 _atom_site_symmetry_multiplicity
 _atom_site_fract_x
 _atom_site_fract_y
 _atom_site_fract_z
 _atom_site_occupancy
  Dy  Dy0  1  0.131551  0.456939  0.750000  1
  Dy  Dy1  1  0.368449  0.956938  0.750000  1
  Ho  Ho2  1  0.334475  0.676071  0.063826  1
  Ho  Ho3  1  0.165525  0.176071  0.436174  1
  Ho  Ho4  1  0.664230  0.324384  0.562500  1
  Ho  Ho5  1  0.835770  0.824384  0.937500  1
  Ho  Ho6  1  0.664230  0.324384  0.937500  1
  Ho  Ho7  1  0.835770  0.824384  0.562500  1
  Ho  Ho8  1  0.334475  0.676071  0.436174  1
  Ho  Ho9  1  0.165525  0.176071  0.063826  1
  Ho  Ho10  1  0.874508  0.539963  0.250000  1
  Ho  Ho11  1  0.625492  0.039963  0.250000  1
  Tc  Tc12  1  0.038139  0.885877  0.250000  1
  Tc  Tc13  1  0.461861  0.385877  0.250000  1
  Ru  Ru14  1  0.960278  0.116311  0.750000  1
  Ru  Ru15  1  0.539722  0.616311  0.750000  1
