# generated using pymatgen
data_Ho2AlSi4Rh3
_symmetry_space_group_name_H-M   'P 1'
_cell_length_a   8.34039491
_cell_length_b   8.34039501
_cell_length_c   8.17626270
_cell_angle_alpha   139.83528793
_cell_angle_beta   106.25989711
_cell_angle_gamma   88.64542880
_symmetry_Int_Tables_number   1
_chemical_formula_structural   Ho2AlSi4Rh3
_chemical_formula_sum   'Ho4 Al2 Si8 Rh6'
_cell_volume   335.11850536
_cell_formula_units_Z   2
loop_
 _symmetry_equiv_pos_site_id
 _symmetry_equiv_pos_as_xyz
  1  'x, y, z'
loop_
 _atom_site_type_symbol
 _atom_site_label
 _atom_site_symmetry_multiplicity
 _atom_site_fract_x
 _atom_site_fract_y
 _atom_site_fract_z
 _atom_site_occupancy
  Ho  Ho0  1  0.632777  0.875566  0.775000  1
  Ho  Ho1  1  0.367223  0.124434  0.225000  1
  Ho  Ho2  1  0.100566  0.357778  0.725000  1
  Ho  Ho3  1  0.899434  0.642222  0.275000  1
  Al  Al4  1  0.273974  0.023974  0.750000  1
  Al  Al5  1  0.726026  0.976026  0.250000  1
  Si  Si6  1  0.711969  0.461969  0.750000  1
  Si  Si7  1  0.288031  0.538031  0.250000  1
  Si  Si8  1  0.439381  0.601650  0.835562  1
  Si  Si9  1  0.560619  0.398350  0.164438  1
  Si  Si10  1  0.766089  0.103819  0.664438  1
  Si  Si11  1  0.233911  0.896181  0.335562  1
  Si  Si12  1  0.016949  0.766949  0.750000  1
  Si  Si13  1  0.983051  0.233051  0.250000  1
  Rh  Rh14  1  0.237584  0.598756  0.563969  1
  Rh  Rh15  1  0.762416  0.401244  0.436031  1
  Rh  Rh16  1  0.034787  0.173615  0.936031  1
  Rh  Rh17  1  0.965213  0.826385  0.063969  1
  Rh  Rh18  1  0.494220  0.744220  0.250000  1
  Rh  Rh19  1  0.505780  0.255780  0.750000  1
