# generated using pymatgen
data_HfZr15Nb4Si15Ge
_symmetry_space_group_name_H-M   'P 1'
_cell_length_a   6.83312973
_cell_length_b   7.03229262
_cell_length_c   13.51986847
_cell_angle_alpha   90.00143062
_cell_angle_beta   89.82862398
_cell_angle_gamma   90.03447500
_symmetry_Int_Tables_number   1
_chemical_formula_structural   HfZr15Nb4Si15Ge
_chemical_formula_sum   'Hf1 Zr15 Nb4 Si15 Ge1'
_cell_volume   649.66137152
_cell_formula_units_Z   1
loop_
 _symmetry_equiv_pos_site_id
 _symmetry_equiv_pos_as_xyz
  1  'x, y, z'
loop_
 _atom_site_type_symbol
 _atom_site_label
 _atom_site_symmetry_multiplicity
 _atom_site_fract_x
 _atom_site_fract_y
 _atom_site_fract_z
 _atom_site_occupancy
  Hf  Hf0  1  0.838484  0.822745  0.625853  1
  Zr  Zr1  1  0.335238  0.676161  0.876030  1
  Zr  Zr2  1  0.835723  0.824673  0.875631  1
  Zr  Zr3  1  0.662536  0.327508  0.375090  1
  Zr  Zr4  1  0.004154  0.677428  0.096327  1
  Zr  Zr5  1  0.498460  0.818671  0.401679  1
  Zr  Zr6  1  0.496527  0.177641  0.902355  1
  Zr  Zr7  1  0.495776  0.179588  0.598341  1
  Zr  Zr8  1  0.996379  0.322623  0.902949  1
  Zr  Zr9  1  0.165011  0.175992  0.123845  1
  Zr  Zr10  1  0.164538  0.174488  0.376019  1
  Zr  Zr11  1  0.003101  0.674706  0.403706  1
  Zr  Zr12  1  0.665397  0.324821  0.123808  1
  Zr  Zr13  1  0.504061  0.822375  0.096984  1
  Zr  Zr14  1  0.999124  0.325110  0.597823  1
  Zr  Zr15  1  0.335650  0.674909  0.623996  1
  Nb  Nb16  1  0.663452  0.501525  0.749992  1
  Nb  Nb17  1  0.163490  0.998847  0.750081  1
  Nb  Nb18  1  0.337006  0.498570  0.249832  1
  Nb  Nb19  1  0.836774  0.001774  0.248441  1
  Si  Si20  1  0.673591  0.532336  0.538753  1
  Si  Si21  1  0.170916  0.969824  0.961025  1
  Si  Si22  1  0.293911  0.362317  0.750498  1
  Si  Si23  1  0.829684  0.030739  0.038627  1
  Si  Si24  1  0.330118  0.469263  0.038496  1
  Si  Si25  1  0.462749  0.106148  0.249840  1
  Si  Si26  1  0.707087  0.638911  0.249515  1
  Si  Si27  1  0.963215  0.393255  0.250216  1
  Si  Si28  1  0.794724  0.138257  0.749696  1
  Si  Si29  1  0.670480  0.530746  0.960759  1
  Si  Si30  1  0.174214  0.969244  0.539843  1
  Si  Si31  1  0.037700  0.606245  0.750528  1
  Si  Si32  1  0.327227  0.467537  0.461740  1
  Si  Si33  1  0.538086  0.893177  0.749349  1
  Si  Si34  1  0.204501  0.861325  0.249926  1
  Ge  Ge35  1  0.820919  0.030521  0.462406  1
