# generated using pymatgen
data_LaHoNp6F30
_symmetry_space_group_name_H-M   'P 1'
_cell_length_a   8.67767431
_cell_length_b   8.67767341
_cell_length_c   8.68694700
_cell_angle_alpha   79.60055842
_cell_angle_beta   79.60055281
_cell_angle_gamma   100.36364508
_symmetry_Int_Tables_number   1
_chemical_formula_structural   LaHoNp6F30
_chemical_formula_sum   'La1 Ho1 Np6 F30'
_cell_volume   617.37780868
_cell_formula_units_Z   1
loop_
 _symmetry_equiv_pos_site_id
 _symmetry_equiv_pos_as_xyz
  1  'x, y, z'
loop_
 _atom_site_type_symbol
 _atom_site_label
 _atom_site_symmetry_multiplicity
 _atom_site_fract_x
 _atom_site_fract_y
 _atom_site_fract_z
 _atom_site_occupancy
  La  La0  1  0.177392  0.822608  0.250000  1
  Ho  Ho1  1  0.823074  0.176926  0.750000  1
  Np  Np2  1  0.749334  0.250666  0.250000  1
  Np  Np3  1  0.250990  0.749010  0.750000  1
  Np  Np4  1  0.752283  0.676380  0.679377  1
  Np  Np5  1  0.323620  0.247717  0.820623  1
  Np  Np6  1  0.244009  0.322323  0.325464  1
  Np  Np7  1  0.677677  0.755991  0.174536  1
  F  F8  1  0.321971  0.343573  0.051236  1
  F  F9  1  0.938164  0.814929  0.150645  1
  F  F10  1  0.838064  0.446561  0.684827  1
  F  F11  1  0.459534  0.848089  0.174756  1
  F  F12  1  0.811501  0.942835  0.663405  1
  F  F13  1  0.345838  0.323916  0.550037  1
  F  F14  1  0.676084  0.654162  0.949962  1
  F  F15  1  0.057165  0.188499  0.836595  1
  F  F16  1  0.151911  0.540466  0.325244  1
  F  F17  1  0.553439  0.161936  0.815173  1
  F  F18  1  0.185071  0.061836  0.349355  1
  F  F19  1  0.656427  0.678029  0.448764  1
  F  F20  1  0.779260  0.274770  0.993541  1
  F  F21  1  0.011324  0.277754  0.216609  1
  F  F22  1  0.778809  0.509353  0.220833  1
  F  F23  1  0.508981  0.778952  0.722554  1
  F  F24  1  0.280051  0.011252  0.716051  1
  F  F25  1  0.285929  0.776290  0.495007  1
  F  F26  1  0.223710  0.714071  0.004993  1
  F  F27  1  0.988748  0.719949  0.783949  1
  F  F28  1  0.221048  0.491019  0.777446  1
  F  F29  1  0.490647  0.221191  0.279167  1
  F  F30  1  0.722246  0.988676  0.283391  1
  F  F31  1  0.725230  0.220740  0.506459  1
  F  F32  1  0.465066  0.534934  0.250000  1
  F  F33  1  0.752706  0.966194  0.966053  1
  F  F34  1  0.033806  0.247294  0.533947  1
  F  F35  1  0.249673  0.041684  0.025129  1
  F  F36  1  0.958316  0.750327  0.474871  1
  F  F37  1  0.530906  0.469094  0.750000  1
