# generated using pymatgen
data_Tb4Al18Ni5
_symmetry_space_group_name_H-M   'P 1'
_cell_length_a   4.07056156
_cell_length_b   8.10085126
_cell_length_c   14.50896462
_cell_angle_alpha   90.14664233
_cell_angle_beta   97.96797719
_cell_angle_gamma   75.47162493
_symmetry_Int_Tables_number   1
_chemical_formula_structural   Tb4Al18Ni5
_chemical_formula_sum   'Tb4 Al18 Ni5'
_cell_volume   458.40442554
_cell_formula_units_Z   1
loop_
 _symmetry_equiv_pos_site_id
 _symmetry_equiv_pos_as_xyz
  1  'x, y, z'
loop_
 _atom_site_type_symbol
 _atom_site_label
 _atom_site_symmetry_multiplicity
 _atom_site_fract_x
 _atom_site_fract_y
 _atom_site_fract_z
 _atom_site_occupancy
  Tb  Tb0  1  0.673680  0.761164  0.108735  1
  Tb  Tb1  1  0.566234  0.206499  0.337701  1
  Tb  Tb2  1  0.427679  0.800863  0.658667  1
  Tb  Tb3  1  0.328295  0.231984  0.887676  1
  Al  Al4  1  0.820632  0.380606  0.021490  1
  Al  Al5  1  0.482810  0.148136  0.110968  1
  Al  Al6  1  0.915442  0.373279  0.204105  1
  Al  Al7  1  0.117908  0.985445  0.221270  1
  Al  Al8  1  0.329234  0.598422  0.257107  1
  Al  Al9  1  0.754951  0.817605  0.322238  1
  Al  Al10  1  0.242825  0.953364  0.440781  1
  Al  Al11  1  0.428105  0.593809  0.451874  1
  Al  Al12  1  0.087332  0.301025  0.479084  1
  Al  Al13  1  0.754843  0.059676  0.564663  1
  Al  Al14  1  0.026929  0.545964  0.599054  1
  Al  Al15  1  0.229066  0.204723  0.665731  1
  Al  Al16  1  0.673853  0.389888  0.739436  1
  Al  Al17  1  0.882572  0.015265  0.775355  1
  Al  Al18  1  0.084123  0.619592  0.788649  1
  Al  Al19  1  0.517810  0.845758  0.883745  1
  Al  Al20  1  0.177224  0.616234  0.971280  1
  Al  Al21  1  0.002019  0.995192  0.997342  1
  Ni  Ni22  1  0.334695  0.444479  0.113554  1
  Ni  Ni23  1  0.914015  0.519565  0.349623  1
  Ni  Ni24  1  0.846094  0.794430  0.486322  1
  Ni  Ni25  1  0.602004  0.366756  0.572540  1
  Ni  Ni26  1  0.663815  0.548680  0.877809  1
