# generated using pymatgen
data_Nd17Pa3Ir13Rh3
_symmetry_space_group_name_H-M   'P 1'
_cell_length_a   7.62166814
_cell_length_b   7.67219519
_cell_length_c   14.91420028
_cell_angle_alpha   90.07871875
_cell_angle_beta   89.99627979
_cell_angle_gamma   90.10371935
_symmetry_Int_Tables_number   1
_chemical_formula_structural   Nd17Pa3Ir13Rh3
_chemical_formula_sum   'Nd17 Pa3 Ir13 Rh3'
_cell_volume   872.10449894
_cell_formula_units_Z   1
loop_
 _symmetry_equiv_pos_site_id
 _symmetry_equiv_pos_as_xyz
  1  'x, y, z'
loop_
 _atom_site_type_symbol
 _atom_site_label
 _atom_site_symmetry_multiplicity
 _atom_site_fract_x
 _atom_site_fract_y
 _atom_site_fract_z
 _atom_site_occupancy
  Nd  Nd0  1  0.836449  0.664080  0.378745  1
  Nd  Nd1  1  0.337568  0.835957  0.378267  1
  Nd  Nd2  1  0.838907  0.663899  0.119044  1
  Nd  Nd3  1  0.660612  0.162938  0.881172  1
  Nd  Nd4  1  0.162240  0.335639  0.621774  1
  Nd  Nd5  1  0.515161  0.682498  0.592344  1
  Nd  Nd6  1  0.014888  0.816892  0.906579  1
  Nd  Nd7  1  0.486611  0.320364  0.094527  1
  Nd  Nd8  1  0.987182  0.187784  0.408418  1
  Nd  Nd9  1  0.487109  0.319292  0.410871  1
  Nd  Nd10  1  0.986045  0.176449  0.090718  1
  Nd  Nd11  1  0.512202  0.676796  0.909524  1
  Nd  Nd12  1  0.010001  0.823052  0.590157  1
  Nd  Nd13  1  0.818278  0.514485  0.749633  1
  Nd  Nd14  1  0.320609  0.983330  0.750970  1
  Nd  Nd15  1  0.173431  0.489243  0.250468  1
  Nd  Nd16  1  0.683502  0.010026  0.251092  1
  Pa  Pa17  1  0.658509  0.158412  0.625997  1
  Pa  Pa18  1  0.160351  0.338245  0.876760  1
  Pa  Pa19  1  0.337301  0.836942  0.121529  1
  Ir  Ir20  1  0.693051  0.972688  0.470573  1
  Ir  Ir21  1  0.201532  0.545299  0.029514  1
  Ir  Ir22  1  0.296530  0.049540  0.967538  1
  Ir  Ir23  1  0.799304  0.437701  0.541444  1
  Ir  Ir24  1  0.342803  0.033177  0.547953  1
  Ir  Ir25  1  0.852266  0.461661  0.951956  1
  Ir  Ir26  1  0.641553  0.960951  0.048392  1
  Ir  Ir27  1  0.168497  0.529726  0.455302  1
  Ir  Ir28  1  0.457010  0.367911  0.752557  1
  Ir  Ir29  1  0.962035  0.130941  0.754287  1
  Ir  Ir30  1  0.531760  0.625619  0.241100  1
  Ir  Ir31  1  0.059190  0.884843  0.236480  1
  Ir  Ir32  1  0.707317  0.881638  0.741347  1
  Rh  Rh33  1  0.202310  0.619228  0.760404  1
  Rh  Rh34  1  0.312016  0.134859  0.243842  1
  Rh  Rh35  1  0.785869  0.367895  0.248717  1
