# generated using pymatgen
data_Sc5Zn6Rh12W
_symmetry_space_group_name_H-M   'P 1'
_cell_length_a   4.42188400
_cell_length_b   6.23389500
_cell_length_c   13.21935400
_cell_angle_alpha   90.00000000
_cell_angle_beta   89.99876259
_cell_angle_gamma   90.00000000
_symmetry_Int_Tables_number   1
_chemical_formula_structural   Sc5Zn6Rh12W
_chemical_formula_sum   'Sc5 Zn6 Rh12 W1'
_cell_volume   364.39890318
_cell_formula_units_Z   1
loop_
 _symmetry_equiv_pos_site_id
 _symmetry_equiv_pos_as_xyz
  1  'x, y, z'
loop_
 _atom_site_type_symbol
 _atom_site_label
 _atom_site_symmetry_multiplicity
 _atom_site_fract_x
 _atom_site_fract_y
 _atom_site_fract_z
 _atom_site_occupancy
  Sc  Sc0  1  0.499881  0.000000  0.168096  1
  Sc  Sc1  1  0.999882  0.500000  0.334503  1
  Sc  Sc2  1  0.499999  0.000000  0.500000  1
  Sc  Sc3  1  0.000117  0.500000  0.665496  1
  Sc  Sc4  1  0.500120  0.000000  0.831903  1
  Zn  Zn5  1  0.000000  0.000000  0.000000  1
  Zn  Zn6  1  0.499874  0.500000  0.168950  1
  Zn  Zn7  1  0.999884  0.000000  0.333226  1
  Zn  Zn8  1  0.499999  0.500000  0.500000  1
  Zn  Zn9  1  0.000117  0.000000  0.666774  1
  Zn  Zn10  1  0.500127  0.500000  0.831050  1
  Rh  Rh11  1  0.499999  0.263497  0.000000  1
  Rh  Rh12  1  0.499999  0.736502  0.000000  1
  Rh  Rh13  1  0.999878  0.255707  0.160406  1
  Rh  Rh14  1  0.999878  0.744293  0.160406  1
  Rh  Rh15  1  0.499884  0.249985  0.332265  1
  Rh  Rh16  1  0.499884  0.750014  0.332265  1
  Rh  Rh17  1  0.000000  0.250289  0.500000  1
  Rh  Rh18  1  0.000000  0.749710  0.500000  1
  Rh  Rh19  1  0.500114  0.249985  0.667734  1
  Rh  Rh20  1  0.500114  0.750014  0.667734  1
  Rh  Rh21  1  0.000122  0.255707  0.839594  1
  Rh  Rh22  1  0.000122  0.744293  0.839594  1
  W  W23  1  0.000000  0.500000  0.000000  1
