# generated using pymatgen
data_TbEr(AlPt)2
_symmetry_space_group_name_H-M   'P 1'
_cell_length_a   4.43643400
_cell_length_b   6.87350156
_cell_length_c   7.76542219
_cell_angle_alpha   91.43331140
_cell_angle_beta   90.00000000
_cell_angle_gamma   90.00000000
_symmetry_Int_Tables_number   1
_chemical_formula_structural   TbEr(AlPt)2
_chemical_formula_sum   'Tb2 Er2 Al4 Pt4'
_cell_volume   236.72342075
_cell_formula_units_Z   2
loop_
 _symmetry_equiv_pos_site_id
 _symmetry_equiv_pos_as_xyz
  1  'x, y, z'
loop_
 _atom_site_type_symbol
 _atom_site_label
 _atom_site_symmetry_multiplicity
 _atom_site_fract_x
 _atom_site_fract_y
 _atom_site_fract_z
 _atom_site_occupancy
  Tb  Tb0  1  0.250000  0.470046  0.182772  1
  Tb  Tb1  1  0.750000  0.529954  0.817228  1
  Er  Er2  1  0.750000  0.027799  0.681338  1
  Er  Er3  1  0.250000  0.972201  0.318662  1
  Al  Al4  1  0.250000  0.853016  0.936557  1
  Al  Al5  1  0.750000  0.146984  0.063443  1
  Al  Al6  1  0.750000  0.649266  0.436253  1
  Al  Al7  1  0.250000  0.350734  0.563747  1
  Pt  Pt8  1  0.250000  0.729127  0.612102  1
  Pt  Pt9  1  0.750000  0.270873  0.387898  1
  Pt  Pt10  1  0.750000  0.777913  0.118246  1
  Pt  Pt11  1  0.250000  0.222087  0.881754  1
