# generated using pymatgen
data_Rb3Mn3V4O16
_symmetry_space_group_name_H-M   'P 1'
_cell_length_a   5.26192419
_cell_length_b   7.58143464
_cell_length_c   11.42413692
_cell_angle_alpha   102.20092952
_cell_angle_beta   89.51880408
_cell_angle_gamma   98.55743582
_symmetry_Int_Tables_number   1
_chemical_formula_structural   Rb3Mn3V4O16
_chemical_formula_sum   'Rb3 Mn3 V4 O16'
_cell_volume   440.36388869
_cell_formula_units_Z   1
loop_
 _symmetry_equiv_pos_site_id
 _symmetry_equiv_pos_as_xyz
  1  'x, y, z'
loop_
 _atom_site_type_symbol
 _atom_site_label
 _atom_site_symmetry_multiplicity
 _atom_site_fract_x
 _atom_site_fract_y
 _atom_site_fract_z
 _atom_site_occupancy
  Rb  Rb0  1  0.885998  0.259123  0.518674  1
  Rb  Rb1  1  0.000000  0.000000  0.000000  1
  Rb  Rb2  1  0.114002  0.740877  0.481326  1
  Mn  Mn3  1  0.010072  0.561289  0.135116  1
  Mn  Mn4  1  0.989928  0.438711  0.864884  1
  Mn  Mn5  1  0.500000  0.500000  0.000000  1
  V  V6  1  0.479732  0.672777  0.758278  1
  V  V7  1  0.537712  0.870607  0.237154  1
  V  V8  1  0.520268  0.327223  0.241722  1
  V  V9  1  0.462288  0.129393  0.762846  1
  O  O10  1  0.664809  0.604394  0.866848  1
  O  O11  1  0.780549  0.236500  0.758242  1
  O  O12  1  0.335191  0.395606  0.133152  1
  O  O13  1  0.372205  0.353011  0.371254  1
  O  O14  1  0.294277  0.266779  0.869261  1
  O  O15  1  0.627795  0.646989  0.628746  1
  O  O16  1  0.825921  0.458386  0.263621  1
  O  O17  1  0.329532  0.093306  0.626397  1
  O  O18  1  0.705723  0.733221  0.130739  1
  O  O19  1  0.452709  0.913748  0.812472  1
  O  O20  1  0.197405  0.615261  0.991539  1
  O  O21  1  0.670468  0.906694  0.373603  1
  O  O22  1  0.219451  0.763500  0.241758  1
  O  O23  1  0.547291  0.086252  0.187528  1
  O  O24  1  0.802595  0.384739  0.008461  1
  O  O25  1  0.174079  0.541614  0.736379  1
