# generated using pymatgen
data_Cr3Bi4RuF28
_symmetry_space_group_name_H-M   'P 1'
_cell_length_a   5.59847160
_cell_length_b   9.09401975
_cell_length_c   12.00239400
_cell_angle_alpha   62.13411392
_cell_angle_beta   90.13953298
_cell_angle_gamma   89.95418057
_symmetry_Int_Tables_number   1
_chemical_formula_structural   Cr3Bi4RuF28
_chemical_formula_sum   'Cr3 Bi4 Ru1 F28'
_cell_volume   540.21276271
_cell_formula_units_Z   1
loop_
 _symmetry_equiv_pos_site_id
 _symmetry_equiv_pos_as_xyz
  1  'x, y, z'
loop_
 _atom_site_type_symbol
 _atom_site_label
 _atom_site_symmetry_multiplicity
 _atom_site_fract_x
 _atom_site_fract_y
 _atom_site_fract_z
 _atom_site_occupancy
  Cr  Cr0  1  0.756496  0.271848  0.959066  1
  Cr  Cr1  1  0.261358  0.727473  0.541119  1
  Cr  Cr2  1  0.242628  0.723106  0.045472  1
  Bi  Bi3  1  0.775518  0.795209  0.770432  1
  Bi  Bi4  1  0.266706  0.177092  0.755370  1
  Bi  Bi5  1  0.242300  0.189329  0.221684  1
  Bi  Bi6  1  0.732787  0.826327  0.254488  1
  Ru  Ru7  1  0.742504  0.274816  0.456904  1
  F  F8  1  0.420360  0.710298  0.923484  1
  F  F9  1  0.914032  0.295748  0.583895  1
  F  F10  1  0.559108  0.287710  0.087630  1
  F  F11  1  0.075012  0.712180  0.421004  1
  F  F12  1  0.446851  0.281148  0.532536  1
  F  F13  1  0.953948  0.718880  0.961506  1
  F  F14  1  0.544251  0.725543  0.452834  1
  F  F15  1  0.055586  0.279328  0.041480  1
  F  F16  1  0.768679  0.511622  0.864048  1
  F  F17  1  0.275350  0.500262  0.632089  1
  F  F18  1  0.227710  0.497159  0.138617  1
  F  F19  1  0.732927  0.508915  0.361560  1
  F  F20  1  0.760569  0.029646  0.054829  1
  F  F21  1  0.259274  0.957639  0.450399  1
  F  F22  1  0.243863  0.957215  0.955499  1
  F  F23  1  0.742607  0.039480  0.543658  1
  F  F24  1  0.981626  0.731547  0.631521  1
  F  F25  1  0.468543  0.268201  0.871291  1
  F  F26  1  0.034242  0.274098  0.376915  1
  F  F27  1  0.521550  0.725825  0.133394  1
  F  F28  1  0.061782  0.743737  0.166216  1
  F  F29  1  0.572963  0.261894  0.324266  1
  F  F30  1  0.945209  0.249741  0.832036  1
  F  F31  1  0.443360  0.746623  0.663583  1
  F  F32  1  0.383959  0.966719  0.218438  1
  F  F33  1  0.896401  0.036562  0.274199  1
  F  F34  1  0.597304  0.026844  0.771599  1
  F  F35  1  0.092639  0.970237  0.726942  1
