# generated using pymatgen
data_Pr10BeSi16
_symmetry_space_group_name_H-M   'P 1'
_cell_length_a   6.93118898
_cell_length_b   8.61648737
_cell_length_c   11.45807382
_cell_angle_alpha   112.08617359
_cell_angle_beta   107.60534462
_cell_angle_gamma   89.99999657
_symmetry_Int_Tables_number   1
_chemical_formula_structural   Pr10BeSi16
_chemical_formula_sum   'Pr10 Be1 Si16'
_cell_volume   599.35970889
_cell_formula_units_Z   1
loop_
 _symmetry_equiv_pos_site_id
 _symmetry_equiv_pos_as_xyz
  1  'x, y, z'
loop_
 _atom_site_type_symbol
 _atom_site_label
 _atom_site_symmetry_multiplicity
 _atom_site_fract_x
 _atom_site_fract_y
 _atom_site_fract_z
 _atom_site_occupancy
  Pr  Pr0  1  0.236993  0.245922  0.000000  1
  Pr  Pr1  1  0.236993  0.754078  0.000000  1
  Pr  Pr2  1  0.834524  0.352060  0.200973  1
  Pr  Pr3  1  0.834524  0.848914  0.200973  1
  Pr  Pr4  1  0.434809  0.448832  0.398977  1
  Pr  Pr5  1  0.434809  0.950145  0.398977  1
  Pr  Pr6  1  0.035832  0.049855  0.601024  1
  Pr  Pr7  1  0.035832  0.551168  0.601024  1
  Pr  Pr8  1  0.633551  0.151086  0.799026  1
  Pr  Pr9  1  0.633551  0.647941  0.799026  1
  Be  Be10  1  0.571949  0.000000  0.000000  1
  Si  Si11  1  0.897307  0.000000  0.000000  1
  Si  Si12  1  0.587748  0.500000  0.000000  1
  Si  Si13  1  0.146669  0.590780  0.181559  1
  Si  Si14  1  0.498723  0.600250  0.200499  1
  Si  Si15  1  0.503483  0.096139  0.192279  1
  Si  Si16  1  0.167875  0.106766  0.213532  1
  Si  Si17  1  0.787644  0.198856  0.397714  1
  Si  Si18  1  0.100306  0.699607  0.399214  1
  Si  Si19  1  0.759640  0.706902  0.413803  1
  Si  Si20  1  0.345836  0.293098  0.586197  1
  Si  Si21  1  0.701092  0.300393  0.600785  1
  Si  Si22  1  0.389931  0.801144  0.602286  1
  Si  Si23  1  0.954343  0.893234  0.786468  1
  Si  Si24  1  0.311203  0.903860  0.807720  1
  Si  Si25  1  0.298224  0.399750  0.799502  1
  Si  Si26  1  0.965110  0.409220  0.818441  1
