# generated using pymatgen
data_Sm3Fe4Co5P6
_symmetry_space_group_name_H-M   'P 1'
_cell_length_a   3.74308500
_cell_length_b   10.59101900
_cell_length_c   12.21572400
_cell_angle_alpha   90.00000000
_cell_angle_beta   90.00000000
_cell_angle_gamma   90.00000000
_symmetry_Int_Tables_number   1
_chemical_formula_structural   Sm3Fe4Co5P6
_chemical_formula_sum   'Sm6 Fe8 Co10 P12'
_cell_volume   484.26897697
_cell_formula_units_Z   2
loop_
 _symmetry_equiv_pos_site_id
 _symmetry_equiv_pos_as_xyz
  1  'x, y, z'
loop_
 _atom_site_type_symbol
 _atom_site_label
 _atom_site_symmetry_multiplicity
 _atom_site_fract_x
 _atom_site_fract_y
 _atom_site_fract_z
 _atom_site_occupancy
  Sm  Sm0  1  0.000000  0.500000  0.522362  1
  Sm  Sm1  1  0.500000  0.000000  0.477638  1
  Sm  Sm2  1  0.500000  0.818643  0.205291  1
  Sm  Sm3  1  0.500000  0.181357  0.205291  1
  Sm  Sm4  1  0.000000  0.681357  0.794709  1
  Sm  Sm5  1  0.000000  0.318643  0.794709  1
  Fe  Fe6  1  0.000000  0.500000  0.988011  1
  Fe  Fe7  1  0.500000  0.000000  0.011989  1
  Fe  Fe8  1  0.500000  0.298655  0.428877  1
  Fe  Fe9  1  0.500000  0.701345  0.428877  1
  Fe  Fe10  1  0.000000  0.201345  0.571123  1
  Fe  Fe11  1  0.000000  0.798655  0.571123  1
  Fe  Fe12  1  0.500000  0.500000  0.154632  1
  Fe  Fe13  1  0.000000  0.000000  0.845368  1
  Co  Co14  1  0.500000  0.881750  0.712275  1
  Co  Co15  1  0.500000  0.118250  0.712275  1
  Co  Co16  1  0.000000  0.618250  0.287725  1
  Co  Co17  1  0.000000  0.381750  0.287725  1
  Co  Co18  1  0.500000  0.332342  0.995047  1
  Co  Co19  1  0.500000  0.667658  0.995047  1
  Co  Co20  1  0.000000  0.167658  0.004953  1
  Co  Co21  1  0.000000  0.832342  0.004953  1
  Co  Co22  1  0.500000  0.500000  0.700370  1
  Co  Co23  1  0.000000  0.000000  0.299630  1
  P  P24  1  0.500000  0.304943  0.613569  1
  P  P25  1  0.500000  0.695057  0.613569  1
  P  P26  1  0.000000  0.195057  0.386431  1
  P  P27  1  0.000000  0.804943  0.386431  1
  P  P28  1  0.500000  0.500000  0.885811  1
  P  P29  1  0.000000  0.000000  0.114189  1
  P  P30  1  0.500000  0.848554  0.895428  1
  P  P31  1  0.500000  0.151446  0.895428  1
  P  P32  1  0.000000  0.651446  0.104572  1
  P  P33  1  0.000000  0.348554  0.104572  1
  P  P34  1  0.500000  0.500000  0.339997  1
  P  P35  1  0.000000  0.000000  0.660003  1
