# generated using pymatgen
data_Lu8Ti11Si16Rh
_symmetry_space_group_name_H-M   'P 1'
_cell_length_a   6.97264332
_cell_length_b   6.97264274
_cell_length_c   12.73759503
_cell_angle_alpha   89.88568029
_cell_angle_beta   90.11431951
_cell_angle_gamma   89.79055538
_symmetry_Int_Tables_number   1
_chemical_formula_structural   Lu8Ti11Si16Rh
_chemical_formula_sum   'Lu8 Ti11 Si16 Rh1'
_cell_volume   619.26660846
_cell_formula_units_Z   1
loop_
 _symmetry_equiv_pos_site_id
 _symmetry_equiv_pos_as_xyz
  1  'x, y, z'
loop_
 _atom_site_type_symbol
 _atom_site_label
 _atom_site_symmetry_multiplicity
 _atom_site_fract_x
 _atom_site_fract_y
 _atom_site_fract_z
 _atom_site_occupancy
  Lu  Lu0  1  0.996625  0.659020  0.032447  1
  Lu  Lu1  1  0.001085  0.343406  0.531490  1
  Lu  Lu2  1  0.659020  0.996625  0.967553  1
  Lu  Lu3  1  0.157812  0.503454  0.781948  1
  Lu  Lu4  1  0.842270  0.498864  0.285115  1
  Lu  Lu5  1  0.503454  0.157812  0.218052  1
  Lu  Lu6  1  0.498864  0.842270  0.714885  1
  Lu  Lu7  1  0.343406  0.001085  0.468510  1
  Ti  Ti8  1  0.344984  0.505563  0.375756  1
  Ti  Ti9  1  0.852150  0.998514  0.374877  1
  Ti  Ti10  1  0.004871  0.149244  0.125722  1
  Ti  Ti11  1  0.998514  0.852150  0.625123  1
  Ti  Ti12  1  0.505563  0.344984  0.624244  1
  Ti  Ti13  1  0.149244  0.004871  0.874278  1
  Ti  Ti14  1  0.824711  0.173385  0.748167  1
  Ti  Ti15  1  0.173385  0.824711  0.251833  1
  Ti  Ti16  1  0.326580  0.326580  0.000000  1
  Ti  Ti17  1  0.493915  0.648740  0.127475  1
  Ti  Ti18  1  0.648740  0.493915  0.872525  1
  Si  Si19  1  0.048557  0.712563  0.436456  1
  Si  Si20  1  0.952355  0.293126  0.934424  1
  Si  Si21  1  0.712563  0.048557  0.563544  1
  Si  Si22  1  0.206120  0.452973  0.184435  1
  Si  Si23  1  0.791407  0.551031  0.682272  1
  Si  Si24  1  0.452973  0.206120  0.815565  1
  Si  Si25  1  0.551031  0.791407  0.317728  1
  Si  Si26  1  0.293126  0.952355  0.065576  1
  Si  Si27  1  0.796701  0.864144  0.183844  1
  Si  Si28  1  0.294798  0.629673  0.568100  1
  Si  Si29  1  0.705343  0.366984  0.067521  1
  Si  Si30  1  0.629673  0.294798  0.431900  1
  Si  Si31  1  0.366984  0.705343  0.932479  1
  Si  Si32  1  0.134740  0.204346  0.317568  1
  Si  Si33  1  0.204346  0.134740  0.682432  1
  Si  Si34  1  0.864144  0.796701  0.816156  1
  Rh  Rh35  1  0.669945  0.669945  0.500000  1
