# generated using pymatgen
data_HfSc2Co8P6W
_symmetry_space_group_name_H-M   'P 1'
_cell_length_a   11.96168848
_cell_length_b   11.96787571
_cell_length_c   3.63006200
_cell_angle_alpha   90.00000000
_cell_angle_beta   90.00000000
_cell_angle_gamma   119.97506046
_symmetry_Int_Tables_number   1
_chemical_formula_structural   HfSc2Co8P6W
_chemical_formula_sum   'Hf2 Sc4 Co16 P12 W2'
_cell_volume   450.15628593
_cell_formula_units_Z   2
loop_
 _symmetry_equiv_pos_site_id
 _symmetry_equiv_pos_as_xyz
  1  'x, y, z'
loop_
 _atom_site_type_symbol
 _atom_site_label
 _atom_site_symmetry_multiplicity
 _atom_site_fract_x
 _atom_site_fract_y
 _atom_site_fract_z
 _atom_site_occupancy
  Hf  Hf0  1  0.000551  0.555574  0.000000  1
  Hf  Hf1  1  0.182879  0.999510  0.500000  1
  Sc  Sc2  1  0.817388  0.817526  0.500000  1
  Sc  Sc3  1  0.999416  0.177745  0.500000  1
  Sc  Sc4  1  0.335009  0.668706  0.000000  1
  Sc  Sc5  1  0.665345  0.332620  0.000000  1
  Co  Co6  1  0.625705  0.824286  0.000000  1
  Co  Co7  1  0.372392  0.196652  0.000000  1
  Co  Co8  1  0.001741  0.722414  0.500000  1
  Co  Co9  1  0.281052  0.278395  0.500000  1
  Co  Co10  1  0.871280  0.350684  0.500000  1
  Co  Co11  1  0.719091  0.999064  0.500000  1
  Co  Co12  1  0.819686  0.627058  0.000000  1
  Co  Co13  1  0.180499  0.808926  0.000000  1
  Co  Co14  1  0.356142  0.876439  0.500000  1
  Co  Co15  1  0.128829  0.479195  0.500000  1
  Co  Co16  1  0.643033  0.518486  0.500000  1
  Co  Co17  1  0.001314  0.999195  0.000000  1
  Co  Co18  1  0.515110  0.646832  0.500000  1
  Co  Co19  1  0.483457  0.131309  0.500000  1
  Co  Co20  1  0.197192  0.370040  0.000000  1
  Co  Co21  1  0.802738  0.173244  0.000000  1
  P  P22  1  0.999774  0.344284  0.000000  1
  P  P23  1  0.825517  0.515564  0.500000  1
  P  P24  1  0.685412  0.167630  0.500000  1
  P  P25  1  0.175036  0.173738  0.000000  1
  P  P26  1  0.643183  0.647086  0.000000  1
  P  P27  1  0.825195  0.998007  0.000000  1
  P  P28  1  0.516759  0.833372  0.500000  1
  P  P29  1  0.175271  0.689879  0.500000  1
  P  P30  1  0.356653  0.003639  0.000000  1
  P  P31  1  0.483985  0.316696  0.500000  1
  P  P32  1  0.999056  0.823947  0.000000  1
  P  P33  1  0.314402  0.481695  0.500000  1
  W  W34  1  0.447851  0.448778  0.000000  1
  W  W35  1  0.552062  0.001779  0.000000  1
