# generated using pymatgen
data_Nd17Sm3(SnSb)8
_symmetry_space_group_name_H-M   'P 1'
_cell_length_a   8.33064300
_cell_length_b   8.39771562
_cell_length_c   15.92724600
_cell_angle_alpha   90.00000000
_cell_angle_beta   90.00000000
_cell_angle_gamma   89.92806057
_symmetry_Int_Tables_number   1
_chemical_formula_structural   Nd17Sm3(SnSb)8
_chemical_formula_sum   'Nd17 Sm3 Sn8 Sb8'
_cell_volume   1114.24330385
_cell_formula_units_Z   1
loop_
 _symmetry_equiv_pos_site_id
 _symmetry_equiv_pos_as_xyz
  1  'x, y, z'
loop_
 _atom_site_type_symbol
 _atom_site_label
 _atom_site_symmetry_multiplicity
 _atom_site_fract_x
 _atom_site_fract_y
 _atom_site_fract_z
 _atom_site_occupancy
  Nd  Nd0  1  0.397142  0.836001  0.884228  1
  Nd  Nd1  1  0.896654  0.664398  0.616520  1
  Nd  Nd2  1  0.604117  0.163028  0.383919  1
  Nd  Nd3  1  0.103319  0.335574  0.117362  1
  Nd  Nd4  1  0.604117  0.163028  0.116081  1
  Nd  Nd5  1  0.103319  0.335574  0.382638  1
  Nd  Nd6  1  0.397142  0.836001  0.615772  1
  Nd  Nd7  1  0.896654  0.664398  0.883480  1
  Nd  Nd8  1  0.555923  0.329913  0.891844  1
  Nd  Nd9  1  0.057272  0.171674  0.607988  1
  Nd  Nd10  1  0.442465  0.669429  0.390572  1
  Nd  Nd11  1  0.943126  0.829185  0.107634  1
  Nd  Nd12  1  0.442465  0.669429  0.109428  1
  Nd  Nd13  1  0.943126  0.829185  0.392366  1
  Nd  Nd14  1  0.555923  0.329913  0.608156  1
  Nd  Nd15  1  0.057272  0.171674  0.892012  1
  Nd  Nd16  1  0.224322  0.497401  0.750000  1
  Sm  Sm17  1  0.725160  0.002649  0.750000  1
  Sm  Sm18  1  0.774927  0.501881  0.250000  1
  Sm  Sm19  1  0.275059  0.997220  0.250000  1
  Sn  Sn20  1  0.595443  0.627144  0.750000  1
  Sn  Sn21  1  0.094656  0.875232  0.750000  1
  Sn  Sn22  1  0.406215  0.372124  0.250000  1
  Sn  Sn23  1  0.905107  0.125531  0.250000  1
  Sn  Sn24  1  0.358537  0.135032  0.750000  1
  Sn  Sn25  1  0.856173  0.363139  0.750000  1
  Sn  Sn26  1  0.642438  0.862765  0.250000  1
  Sn  Sn27  1  0.140703  0.637331  0.250000  1
  Sb  Sb28  1  0.265011  0.013475  0.049232  1
  Sb  Sb29  1  0.764557  0.486184  0.451111  1
  Sb  Sb30  1  0.735895  0.987324  0.549428  1
  Sb  Sb31  1  0.235148  0.515093  0.953129  1
  Sb  Sb32  1  0.735895  0.987324  0.950572  1
  Sb  Sb33  1  0.235148  0.515093  0.546871  1
  Sb  Sb34  1  0.265011  0.013475  0.450768  1
  Sb  Sb35  1  0.764557  0.486184  0.048889  1
