# generated using pymatgen
data_TbHoMn2Fe10P7
_symmetry_space_group_name_H-M   'P 1'
_cell_length_a   9.00212360
_cell_length_b   9.00777196
_cell_length_c   3.63285400
_cell_angle_alpha   90.00000000
_cell_angle_beta   90.00000000
_cell_angle_gamma   119.93993587
_symmetry_Int_Tables_number   1
_chemical_formula_structural   TbHoMn2Fe10P7
_chemical_formula_sum   'Tb1 Ho1 Mn2 Fe10 P7'
_cell_volume   255.27216867
_cell_formula_units_Z   1
loop_
 _symmetry_equiv_pos_site_id
 _symmetry_equiv_pos_as_xyz
  1  'x, y, z'
loop_
 _atom_site_type_symbol
 _atom_site_label
 _atom_site_symmetry_multiplicity
 _atom_site_fract_x
 _atom_site_fract_y
 _atom_site_fract_z
 _atom_site_occupancy
  Tb  Tb0  1  0.331844  0.666301  0.500000  1
  Ho  Ho1  1  0.669074  0.334656  0.000000  1
  Mn  Mn2  1  0.781783  0.894689  0.500000  1
  Mn  Mn3  1  0.117256  0.217222  0.500000  1
  Fe  Fe4  1  0.056573  0.633546  0.000000  1
  Fe  Fe5  1  0.574784  0.944020  0.000000  1
  Fe  Fe6  1  0.368222  0.423947  0.000000  1
  Fe  Fe7  1  0.273584  0.119651  0.000000  1
  Fe  Fe8  1  0.845556  0.726115  0.000000  1
  Fe  Fe9  1  0.880096  0.152332  0.000000  1
  Fe  Fe10  1  0.433858  0.050223  0.500000  1
  Fe  Fe11  1  0.616582  0.565331  0.500000  1
  Fe  Fe12  1  0.949683  0.384889  0.500000  1
  Fe  Fe13  1  0.096961  0.884250  0.500000  1
  P  P14  1  0.299819  0.889777  0.000000  1
  P  P15  1  0.586224  0.696639  0.000000  1
  P  P16  1  0.109026  0.412759  0.000000  1
  P  P17  1  0.408439  0.290287  0.500000  1
  P  P18  1  0.890156  0.600808  0.500000  1
  P  P19  1  0.709733  0.115159  0.500000  1
  P  P20  1  0.000746  0.997397  0.000000  1
