# generated using pymatgen
data_Dy5ErLu4(Si5Ir2)4
_symmetry_space_group_name_H-M   'P 1'
_cell_length_a   12.60041700
_cell_length_b   12.60041700
_cell_length_c   4.23474900
_cell_angle_alpha   90.00000000
_cell_angle_beta   90.00000000
_cell_angle_gamma   90.00000000
_symmetry_Int_Tables_number   1
_chemical_formula_structural   Dy5ErLu4(Si5Ir2)4
_chemical_formula_sum   'Dy5 Er1 Lu4 Si20 Ir8'
_cell_volume   672.35325241
_cell_formula_units_Z   1
loop_
 _symmetry_equiv_pos_site_id
 _symmetry_equiv_pos_as_xyz
  1  'x, y, z'
loop_
 _atom_site_type_symbol
 _atom_site_label
 _atom_site_symmetry_multiplicity
 _atom_site_fract_x
 _atom_site_fract_y
 _atom_site_fract_z
 _atom_site_occupancy
  Dy  Dy0  1  0.000000  0.000000  0.000000  1
  Dy  Dy1  1  0.883672  0.383755  0.500000  1
  Dy  Dy2  1  0.116328  0.616245  0.500000  1
  Dy  Dy3  1  0.383755  0.116328  0.500000  1
  Dy  Dy4  1  0.616245  0.883672  0.500000  1
  Er  Er5  1  0.500000  0.500000  0.000000  1
  Lu  Lu6  1  0.675792  0.175902  0.500000  1
  Lu  Lu7  1  0.324208  0.824098  0.500000  1
  Lu  Lu8  1  0.175902  0.324208  0.500000  1
  Lu  Lu9  1  0.824098  0.675792  0.500000  1
  Si  Si10  1  0.566022  0.066151  0.000000  1
  Si  Si11  1  0.433978  0.933849  0.000000  1
  Si  Si12  1  0.066151  0.433978  0.000000  1
  Si  Si13  1  0.933849  0.566022  0.000000  1
  Si  Si14  1  0.663701  0.700800  0.000000  1
  Si  Si15  1  0.336299  0.299200  0.000000  1
  Si  Si16  1  0.163726  0.799132  0.000000  1
  Si  Si17  1  0.836274  0.200868  0.000000  1
  Si  Si18  1  0.299200  0.663701  0.000000  1
  Si  Si19  1  0.700800  0.336299  0.000000  1
  Si  Si20  1  0.200868  0.163726  0.000000  1
  Si  Si21  1  0.799132  0.836274  0.000000  1
  Si  Si22  1  0.656328  0.503029  0.500000  1
  Si  Si23  1  0.343672  0.496971  0.500000  1
  Si  Si24  1  0.157063  0.996991  0.500000  1
  Si  Si25  1  0.842937  0.003009  0.500000  1
  Si  Si26  1  0.496971  0.656328  0.500000  1
  Si  Si27  1  0.503029  0.343672  0.500000  1
  Si  Si28  1  0.003009  0.157063  0.500000  1
  Si  Si29  1  0.996991  0.842937  0.500000  1
  Ir  Ir30  1  0.745553  0.521787  0.000000  1
  Ir  Ir31  1  0.254447  0.478213  0.000000  1
  Ir  Ir32  1  0.246113  0.978149  0.000000  1
  Ir  Ir33  1  0.753887  0.021851  0.000000  1
  Ir  Ir34  1  0.478213  0.745553  0.000000  1
  Ir  Ir35  1  0.521787  0.254447  0.000000  1
  Ir  Ir36  1  0.021851  0.246113  0.000000  1
  Ir  Ir37  1  0.978149  0.753887  0.000000  1
