# generated using pymatgen
data_Lu5HgRu4
_symmetry_space_group_name_H-M   'P 1'
_cell_length_a   3.34892300
_cell_length_b   3.34892300
_cell_length_c   17.61896900
_cell_angle_alpha   90.00000000
_cell_angle_beta   90.00000000
_cell_angle_gamma   90.00000000
_symmetry_Int_Tables_number   1
_chemical_formula_structural   Lu5HgRu4
_chemical_formula_sum   'Lu5 Hg1 Ru4'
_cell_volume   197.60176332
_cell_formula_units_Z   1
loop_
 _symmetry_equiv_pos_site_id
 _symmetry_equiv_pos_as_xyz
  1  'x, y, z'
loop_
 _atom_site_type_symbol
 _atom_site_label
 _atom_site_symmetry_multiplicity
 _atom_site_fract_x
 _atom_site_fract_y
 _atom_site_fract_z
 _atom_site_occupancy
  Lu  Lu0  1  0.000000  0.000000  0.875637  1
  Lu  Lu1  1  0.000000  0.000000  0.124363  1
  Lu  Lu2  1  0.000000  0.000000  0.310533  1
  Lu  Lu3  1  0.000000  0.000000  0.500000  1
  Lu  Lu4  1  0.000000  0.000000  0.689467  1
  Hg  Hg5  1  0.500000  0.500000  0.000000  1
  Ru  Ru6  1  0.500000  0.500000  0.212063  1
  Ru  Ru7  1  0.500000  0.500000  0.404222  1
  Ru  Ru8  1  0.500000  0.500000  0.595778  1
  Ru  Ru9  1  0.500000  0.500000  0.787937  1
