# generated using pymatgen
data_Sm2MgNi7B2
_symmetry_space_group_name_H-M   'P 1'
_cell_length_a   5.05373565
_cell_length_b   5.05094534
_cell_length_c   14.31198400
_cell_angle_alpha   90.00000000
_cell_angle_beta   90.00000000
_cell_angle_gamma   120.00354686
_symmetry_Int_Tables_number   1
_chemical_formula_structural   Sm2MgNi7B2
_chemical_formula_sum   'Sm4 Mg2 Ni14 B4'
_cell_volume   316.37352987
_cell_formula_units_Z   2
loop_
 _symmetry_equiv_pos_site_id
 _symmetry_equiv_pos_as_xyz
  1  'x, y, z'
loop_
 _atom_site_type_symbol
 _atom_site_label
 _atom_site_symmetry_multiplicity
 _atom_site_fract_x
 _atom_site_fract_y
 _atom_site_fract_z
 _atom_site_occupancy
  Sm  Sm0  1  0.666725  0.333367  0.529216  1
  Sm  Sm1  1  0.333275  0.666633  0.029216  1
  Sm  Sm2  1  0.666661  0.333321  0.755514  1
  Sm  Sm3  1  0.333339  0.666679  0.255514  1
  Mg  Mg4  1  0.333289  0.666630  0.468350  1
  Mg  Mg5  1  0.666711  0.333370  0.968350  1
  Ni  Ni6  1  0.835349  0.670681  0.352073  1
  Ni  Ni7  1  0.329338  0.164684  0.352051  1
  Ni  Ni8  1  0.999820  0.999881  0.998847  1
  Ni  Ni9  1  0.000180  0.000119  0.498847  1
  Ni  Ni10  1  0.834038  0.165916  0.148158  1
  Ni  Ni11  1  0.668171  0.834088  0.648194  1
  Ni  Ni12  1  0.165952  0.331874  0.648160  1
  Ni  Ni13  1  0.834048  0.668126  0.148160  1
  Ni  Ni14  1  0.331829  0.165912  0.148194  1
  Ni  Ni15  1  0.670662  0.835316  0.852051  1
  Ni  Ni16  1  0.164651  0.329319  0.852073  1
  Ni  Ni17  1  0.165962  0.834084  0.648158  1
  Ni  Ni18  1  0.164648  0.835310  0.852061  1
  Ni  Ni19  1  0.835352  0.164690  0.352061  1
  B  B20  1  0.666693  0.333352  0.250116  1
  B  B21  1  0.333307  0.666648  0.750116  1
  B  B22  1  0.000036  0.000042  0.747261  1
  B  B23  1  0.999964  0.999958  0.247261  1
