# generated using pymatgen
data_Dy7Y(NiB14)2
_symmetry_space_group_name_H-M   'P 1'
_cell_length_a   7.23560100
_cell_length_b   7.23567300
_cell_length_c   7.50424000
_cell_angle_alpha   90.00000000
_cell_angle_beta   90.00000000
_cell_angle_gamma   89.99800452
_symmetry_Int_Tables_number   1
_chemical_formula_structural   Dy7Y(NiB14)2
_chemical_formula_sum   'Dy7 Y1 Ni2 B28'
_cell_volume   392.88030368
_cell_formula_units_Z   1
loop_
 _symmetry_equiv_pos_site_id
 _symmetry_equiv_pos_as_xyz
  1  'x, y, z'
loop_
 _atom_site_type_symbol
 _atom_site_label
 _atom_site_symmetry_multiplicity
 _atom_site_fract_x
 _atom_site_fract_y
 _atom_site_fract_z
 _atom_site_occupancy
  Dy  Dy0  1  0.668256  0.193770  0.000000  1
  Dy  Dy1  1  0.331780  0.806220  0.000000  1
  Dy  Dy2  1  0.693791  0.168238  0.500000  1
  Dy  Dy3  1  0.306214  0.831767  0.500000  1
  Dy  Dy4  1  0.806181  0.668275  0.000000  1
  Dy  Dy5  1  0.831754  0.693780  0.500000  1
  Dy  Dy6  1  0.168222  0.306216  0.500000  1
  Y  Y7  1  0.193770  0.331861  0.000000  1
  Ni  Ni8  1  0.999923  0.999859  0.000000  1
  Ni  Ni9  1  0.500000  0.499986  0.500000  1
  B  B10  1  0.174523  0.039262  0.232505  1
  B  B11  1  0.960639  0.174504  0.232515  1
  B  B12  1  0.039314  0.825476  0.232463  1
  B  B13  1  0.674515  0.460688  0.267513  1
  B  B14  1  0.325504  0.539351  0.267566  1
  B  B15  1  0.825484  0.960686  0.232473  1
  B  B16  1  0.539312  0.674513  0.267507  1
  B  B17  1  0.460724  0.325481  0.267565  1
  B  B18  1  0.825484  0.960686  0.767527  1
  B  B19  1  0.039314  0.825476  0.767537  1
  B  B20  1  0.960639  0.174504  0.767485  1
  B  B21  1  0.325504  0.539351  0.732434  1
  B  B22  1  0.674515  0.460688  0.732487  1
  B  B23  1  0.174523  0.039262  0.767495  1
  B  B24  1  0.460724  0.325481  0.732435  1
  B  B25  1  0.539312  0.674513  0.732493  1
  B  B26  1  0.089311  0.589358  0.250064  1
  B  B27  1  0.410711  0.089277  0.250041  1
  B  B28  1  0.589310  0.910687  0.249996  1
  B  B29  1  0.910644  0.410678  0.250055  1
  B  B30  1  0.910644  0.410678  0.749945  1
  B  B31  1  0.589310  0.910687  0.750004  1
  B  B32  1  0.410711  0.089277  0.749959  1
  B  B33  1  0.089311  0.589358  0.749936  1
  B  B34  1  0.000014  0.000012  0.388429  1
  B  B35  1  0.500050  0.500040  0.111564  1
  B  B36  1  0.000014  0.000012  0.611571  1
  B  B37  1  0.500050  0.500040  0.888436  1
