# generated using pymatgen
data_Ho2Al2PdRu
_symmetry_space_group_name_H-M   'P 1'
_cell_length_a   4.24921500
_cell_length_b   6.91505000
_cell_length_c   7.94316700
_cell_angle_alpha   90.00000000
_cell_angle_beta   90.00000000
_cell_angle_gamma   90.00000000
_symmetry_Int_Tables_number   1
_chemical_formula_structural   Ho2Al2PdRu
_chemical_formula_sum   'Ho4 Al4 Pd2 Ru2'
_cell_volume   233.39831909
_cell_formula_units_Z   2
loop_
 _symmetry_equiv_pos_site_id
 _symmetry_equiv_pos_as_xyz
  1  'x, y, z'
loop_
 _atom_site_type_symbol
 _atom_site_label
 _atom_site_symmetry_multiplicity
 _atom_site_fract_x
 _atom_site_fract_y
 _atom_site_fract_z
 _atom_site_occupancy
  Ho  Ho0  1  0.250000  0.034897  0.676327  1
  Ho  Ho1  1  0.250000  0.534897  0.823673  1
  Ho  Ho2  1  0.750000  0.973035  0.313767  1
  Ho  Ho3  1  0.750000  0.473035  0.186233  1
  Al  Al4  1  0.250000  0.139494  0.064448  1
  Al  Al5  1  0.250000  0.639494  0.435552  1
  Al  Al6  1  0.750000  0.855283  0.941646  1
  Al  Al7  1  0.750000  0.355283  0.558354  1
  Pd  Pd8  1  0.750000  0.729909  0.620405  1
  Pd  Pd9  1  0.750000  0.229909  0.879595  1
  Ru  Ru10  1  0.250000  0.267380  0.382728  1
  Ru  Ru11  1  0.250000  0.767380  0.117272  1
