# generated using pymatgen
data_Li3Dy4HfPt4
_symmetry_space_group_name_H-M   'P 1'
_cell_length_a   4.10071900
_cell_length_b   7.08372328
_cell_length_c   8.61003295
_cell_angle_alpha   87.47858978
_cell_angle_beta   90.00000000
_cell_angle_gamma   90.00000000
_symmetry_Int_Tables_number   1
_chemical_formula_structural   Li3Dy4HfPt4
_chemical_formula_sum   'Li3 Dy4 Hf1 Pt4'
_cell_volume   249.86518433
_cell_formula_units_Z   1
loop_
 _symmetry_equiv_pos_site_id
 _symmetry_equiv_pos_as_xyz
  1  'x, y, z'
loop_
 _atom_site_type_symbol
 _atom_site_label
 _atom_site_symmetry_multiplicity
 _atom_site_fract_x
 _atom_site_fract_y
 _atom_site_fract_z
 _atom_site_occupancy
  Li  Li0  1  0.250000  0.373577  0.558984  1
  Li  Li1  1  0.250000  0.859754  0.931333  1
  Li  Li2  1  0.750000  0.624224  0.445520  1
  Dy  Dy3  1  0.250000  0.946794  0.331715  1
  Dy  Dy4  1  0.250000  0.472257  0.189797  1
  Dy  Dy5  1  0.750000  0.039889  0.672746  1
  Dy  Dy6  1  0.750000  0.549983  0.819162  1
  Hf  Hf7  1  0.750000  0.126008  0.054909  1
  Pt  Pt8  1  0.250000  0.256587  0.887811  1
  Pt  Pt9  1  0.250000  0.751641  0.626973  1
  Pt  Pt10  1  0.750000  0.757512  0.122513  1
  Pt  Pt11  1  0.750000  0.241772  0.358536  1
