# generated using pymatgen
data_TlP3(RuO6)2
_symmetry_space_group_name_H-M   'P 1'
_cell_length_a   8.80592600
_cell_length_b   9.21520200
_cell_length_c   12.19948300
_cell_angle_alpha   90.00000000
_cell_angle_beta   90.00000000
_cell_angle_gamma   90.00000000
_symmetry_Int_Tables_number   1
_chemical_formula_structural   TlP3(RuO6)2
_chemical_formula_sum   'Tl4 P12 Ru8 O48'
_cell_volume   989.96836631
_cell_formula_units_Z   4
loop_
 _symmetry_equiv_pos_site_id
 _symmetry_equiv_pos_as_xyz
  1  'x, y, z'
loop_
 _atom_site_type_symbol
 _atom_site_label
 _atom_site_symmetry_multiplicity
 _atom_site_fract_x
 _atom_site_fract_y
 _atom_site_fract_z
 _atom_site_occupancy
  Tl  Tl0  1  0.830785  0.165271  0.250000  1
  Tl  Tl1  1  0.830785  0.334729  0.750000  1
  Tl  Tl2  1  0.169215  0.665271  0.250000  1
  Tl  Tl3  1  0.169215  0.834729  0.750000  1
  P  P4  1  0.406382  0.361849  0.372674  1
  P  P5  1  0.406382  0.138151  0.627326  1
  P  P6  1  0.593618  0.861849  0.127326  1
  P  P7  1  0.593618  0.638151  0.872674  1
  P  P8  1  0.593618  0.638151  0.627326  1
  P  P9  1  0.593618  0.861849  0.372674  1
  P  P10  1  0.406382  0.138151  0.872674  1
  P  P11  1  0.406382  0.361849  0.127326  1
  P  P12  1  0.974242  0.250000  0.500000  1
  P  P13  1  0.974242  0.250000  0.000000  1
  P  P14  1  0.025758  0.750000  0.500000  1
  P  P15  1  0.025758  0.750000  0.000000  1
  Ru  Ru16  1  0.751271  0.968635  0.896983  1
  Ru  Ru17  1  0.248729  0.468635  0.896983  1
  Ru  Ru18  1  0.751271  0.531365  0.396983  1
  Ru  Ru19  1  0.751271  0.968635  0.603017  1
  Ru  Ru20  1  0.248729  0.031365  0.396983  1
  Ru  Ru21  1  0.248729  0.468635  0.603017  1
  Ru  Ru22  1  0.751271  0.531365  0.103017  1
  Ru  Ru23  1  0.248729  0.031365  0.103017  1
  O  O24  1  0.645496  0.589878  0.750000  1
  O  O25  1  0.645496  0.910122  0.250000  1
  O  O26  1  0.354504  0.089878  0.750000  1
  O  O27  1  0.354504  0.410122  0.250000  1
  O  O28  1  0.067011  0.163146  0.414468  1
  O  O29  1  0.067011  0.336854  0.585532  1
  O  O30  1  0.932989  0.663146  0.085532  1
  O  O31  1  0.932989  0.836854  0.914468  1
  O  O32  1  0.932989  0.836854  0.585532  1
  O  O33  1  0.932989  0.663146  0.414468  1
  O  O34  1  0.067011  0.336854  0.914468  1
  O  O35  1  0.067011  0.163146  0.085532  1
  O  O36  1  0.426339  0.892795  0.387783  1
  O  O37  1  0.426339  0.607205  0.612217  1
  O  O38  1  0.573661  0.392795  0.112217  1
  O  O39  1  0.573661  0.107205  0.887783  1
  O  O40  1  0.573661  0.107205  0.612217  1
  O  O41  1  0.605747  0.803000  0.619381  1
  O  O42  1  0.573661  0.392795  0.387783  1
  O  O43  1  0.426339  0.892795  0.112217  1
  O  O44  1  0.394253  0.197000  0.380619  1
  O  O45  1  0.394253  0.303000  0.619381  1
  O  O46  1  0.605747  0.697000  0.119381  1
  O  O47  1  0.605747  0.803000  0.880619  1
  O  O48  1  0.219308  0.021285  0.250000  1
  O  O49  1  0.219308  0.478715  0.750000  1
  O  O50  1  0.780692  0.521285  0.250000  1
  O  O51  1  0.780692  0.978715  0.750000  1
  O  O52  1  0.124686  0.848640  0.073700  1
  O  O53  1  0.124686  0.651360  0.926300  1
  O  O54  1  0.875314  0.348640  0.426300  1
  O  O55  1  0.875314  0.151360  0.573700  1
  O  O56  1  0.875314  0.151360  0.926300  1
  O  O57  1  0.875314  0.348640  0.073700  1
  O  O58  1  0.124686  0.651360  0.573700  1
  O  O59  1  0.124686  0.848640  0.426300  1
  O  O60  1  0.292084  0.047963  0.940465  1
  O  O61  1  0.292084  0.452037  0.059535  1
  O  O62  1  0.707916  0.547963  0.559535  1
  O  O63  1  0.707916  0.952037  0.440465  1
  O  O64  1  0.707916  0.952037  0.059535  1
  O  O65  1  0.707916  0.547963  0.940465  1
  O  O66  1  0.292084  0.452037  0.440465  1
  O  O67  1  0.292084  0.047963  0.559535  1
  O  O68  1  0.394253  0.197000  0.119381  1
  O  O69  1  0.394253  0.303000  0.880619  1
  O  O70  1  0.605747  0.697000  0.380619  1
  O  O71  1  0.426339  0.607205  0.887783  1
