# generated using pymatgen
data_NaCr(CO3)2
_symmetry_space_group_name_H-M   'P 1'
_cell_length_a   4.78650033
_cell_length_b   6.08659940
_cell_length_c   8.28968656
_cell_angle_alpha   76.90131760
_cell_angle_beta   89.98362974
_cell_angle_gamma   113.14161558
_symmetry_Int_Tables_number   1
_chemical_formula_structural   NaCr(CO3)2
_chemical_formula_sum   'Na2 Cr2 C4 O12'
_cell_volume   215.21779913
_cell_formula_units_Z   2
loop_
 _symmetry_equiv_pos_site_id
 _symmetry_equiv_pos_as_xyz
  1  'x, y, z'
loop_
 _atom_site_type_symbol
 _atom_site_label
 _atom_site_symmetry_multiplicity
 _atom_site_fract_x
 _atom_site_fract_y
 _atom_site_fract_z
 _atom_site_occupancy
  Na  Na0  1  0.000074  0.000039  0.999925  1
  Na  Na1  1  0.500058  0.000034  0.499931  1
  Cr  Cr2  1  0.750365  0.500062  0.749846  1
  Cr  Cr3  1  0.250653  0.500359  0.250120  1
  C  C4  1  0.855246  0.710340  0.381487  1
  C  C5  1  0.355239  0.710710  0.881500  1
  C  C6  1  0.644673  0.289198  0.118509  1
  C  C7  1  0.144674  0.289579  0.618533  1
  O  O8  1  0.911297  0.284256  0.136705  1
  O  O9  1  0.411440  0.284611  0.636943  1
  O  O10  1  0.466020  0.715308  0.024027  1
  O  O11  1  0.965839  0.715354  0.524139  1
  O  O12  1  0.018847  0.715475  0.254904  1
  O  O13  1  0.518502  0.715920  0.754861  1
  O  O14  1  0.481320  0.284096  0.245195  1
  O  O15  1  0.980962  0.284534  0.745139  1
  O  O16  1  0.033934  0.284382  0.475861  1
  O  O17  1  0.533752  0.284436  0.975983  1
  O  O18  1  0.588488  0.715483  0.363075  1
  O  O19  1  0.088617  0.715823  0.863319  1
