# generated using pymatgen
data_Y5ReRuC7
_symmetry_space_group_name_H-M   'P 1'
_cell_length_a   8.27991721
_cell_length_b   8.27991726
_cell_length_c   3.48120700
_cell_angle_alpha   90.00000000
_cell_angle_beta   90.00000000
_cell_angle_gamma   122.31693278
_symmetry_Int_Tables_number   1
_chemical_formula_structural   Y5ReRuC7
_chemical_formula_sum   'Y5 Re1 Ru1 C7'
_cell_volume   201.69351480
_cell_formula_units_Z   1
loop_
 _symmetry_equiv_pos_site_id
 _symmetry_equiv_pos_as_xyz
  1  'x, y, z'
loop_
 _atom_site_type_symbol
 _atom_site_label
 _atom_site_symmetry_multiplicity
 _atom_site_fract_x
 _atom_site_fract_y
 _atom_site_fract_z
 _atom_site_occupancy
  Y  Y0  1  0.500772  0.499228  0.000000  1
  Y  Y1  1  0.074705  0.335693  0.500000  1
  Y  Y2  1  0.922358  0.661341  0.500000  1
  Y  Y3  1  0.664307  0.925295  0.500000  1
  Y  Y4  1  0.338659  0.077642  0.500000  1
  Re  Re5  1  0.286069  0.713931  0.000000  1
  Ru  Ru6  1  0.712206  0.287794  0.000000  1
  C  C7  1  0.629849  0.370151  0.500000  1
  C  C8  1  0.373132  0.626868  0.500000  1
  C  C9  1  0.999259  0.000741  0.000000  1
  C  C10  1  0.169722  0.170032  0.000000  1
  C  C11  1  0.829968  0.830278  0.000000  1
  C  C12  1  0.002298  0.503303  0.000000  1
  C  C13  1  0.496697  0.997702  0.000000  1
