# generated using pymatgen
data_LaBi2SbO7
_symmetry_space_group_name_H-M   'P 1'
_cell_length_a   6.72788439
_cell_length_b   6.72788497
_cell_length_c   7.75250200
_cell_angle_alpha   90.00000000
_cell_angle_beta   90.00000000
_cell_angle_gamma   110.49183634
_symmetry_Int_Tables_number   1
_chemical_formula_structural   LaBi2SbO7
_chemical_formula_sum   'La2 Bi4 Sb2 O14'
_cell_volume   328.70758148
_cell_formula_units_Z   2
loop_
 _symmetry_equiv_pos_site_id
 _symmetry_equiv_pos_as_xyz
  1  'x, y, z'
loop_
 _atom_site_type_symbol
 _atom_site_label
 _atom_site_symmetry_multiplicity
 _atom_site_fract_x
 _atom_site_fract_y
 _atom_site_fract_z
 _atom_site_occupancy
  La  La0  1  0.000000  0.000000  0.500000  1
  La  La1  1  0.000000  0.000000  0.000000  1
  Bi  Bi2  1  0.510217  0.041511  0.250000  1
  Bi  Bi3  1  0.958489  0.489783  0.750000  1
  Bi  Bi4  1  0.489783  0.958489  0.750000  1
  Bi  Bi5  1  0.041511  0.510217  0.250000  1
  Sb  Sb6  1  0.500000  0.500000  0.500000  1
  Sb  Sb7  1  0.500000  0.500000  0.000000  1
  O  O8  1  0.436329  0.185899  0.536452  1
  O  O9  1  0.814101  0.563671  0.463548  1
  O  O10  1  0.436329  0.185899  0.963548  1
  O  O11  1  0.814101  0.563671  0.036452  1
  O  O12  1  0.563671  0.814101  0.463548  1
  O  O13  1  0.185899  0.436329  0.536452  1
  O  O14  1  0.563671  0.814101  0.036452  1
  O  O15  1  0.185899  0.436329  0.963548  1
  O  O16  1  0.154508  0.891199  0.250000  1
  O  O17  1  0.108801  0.845492  0.750000  1
  O  O18  1  0.845492  0.108801  0.750000  1
  O  O19  1  0.891199  0.154508  0.250000  1
  O  O20  1  0.420504  0.420504  0.250000  1
  O  O21  1  0.579496  0.579496  0.750000  1
