# generated using pymatgen
data_Nd15Dy(In3Ru)2
_symmetry_space_group_name_H-M   'P 1'
_cell_length_a   10.83934100
_cell_length_b   10.83428832
_cell_length_c   7.36693100
_cell_angle_alpha   89.94309179
_cell_angle_beta   90.00000000
_cell_angle_gamma   120.01542521
_symmetry_Int_Tables_number   1
_chemical_formula_structural   Nd15Dy(In3Ru)2
_chemical_formula_sum   'Nd15 Dy1 In6 Ru2'
_cell_volume   749.12224033
_cell_formula_units_Z   1
loop_
 _symmetry_equiv_pos_site_id
 _symmetry_equiv_pos_as_xyz
  1  'x, y, z'
loop_
 _atom_site_type_symbol
 _atom_site_label
 _atom_site_symmetry_multiplicity
 _atom_site_fract_x
 _atom_site_fract_y
 _atom_site_fract_z
 _atom_site_occupancy
  Nd  Nd0  1  0.924307  0.461986  0.793463  1
  Nd  Nd1  1  0.537680  0.461986  0.793463  1
  Nd  Nd2  1  0.463506  0.927012  0.294545  1
  Nd  Nd3  1  0.074611  0.537248  0.292390  1
  Nd  Nd4  1  0.462637  0.537248  0.292390  1
  Nd  Nd5  1  0.824616  0.649231  0.497573  1
  Nd  Nd6  1  0.351508  0.174859  0.498173  1
  Nd  Nd7  1  0.823351  0.174859  0.498173  1
  Nd  Nd8  1  0.174751  0.349504  0.996537  1
  Nd  Nd9  1  0.648833  0.825717  0.995005  1
  Nd  Nd10  1  0.176884  0.825717  0.995005  1
  Nd  Nd11  1  0.665734  0.331468  0.175210  1
  Nd  Nd12  1  0.334358  0.668716  0.675854  1
  Nd  Nd13  1  0.000377  0.000751  0.782100  1
  Nd  Nd14  1  0.000347  0.000693  0.281728  1
  Dy  Dy15  1  0.539310  0.078618  0.795985  1
  In  In16  1  0.836758  0.673518  0.042904  1
  In  In17  1  0.327721  0.163037  0.041100  1
  In  In18  1  0.835314  0.163037  0.041100  1
  In  In19  1  0.163379  0.326759  0.542787  1
  In  In20  1  0.673887  0.836739  0.542101  1
  In  In21  1  0.162853  0.836739  0.542101  1
  Ru  Ru22  1  0.663998  0.327993  0.565330  1
  Ru  Ru23  1  0.333282  0.666565  0.060885  1
