# generated using pymatgen
data_Ce3Er6Lu(Al2Ru3)2
_symmetry_space_group_name_H-M   'P 1'
_cell_length_a   8.36014500
_cell_length_b   8.36014438
_cell_length_c   8.36014611
_cell_angle_alpha   110.07453153
_cell_angle_beta   110.07453529
_cell_angle_gamma   110.07453577
_symmetry_Int_Tables_number   1
_chemical_formula_structural   Ce3Er6Lu(Al2Ru3)2
_chemical_formula_sum   'Ce3 Er6 Lu1 Al4 Ru6'
_cell_volume   439.46600662
_cell_formula_units_Z   1
loop_
 _symmetry_equiv_pos_site_id
 _symmetry_equiv_pos_as_xyz
  1  'x, y, z'
loop_
 _atom_site_type_symbol
 _atom_site_label
 _atom_site_symmetry_multiplicity
 _atom_site_fract_x
 _atom_site_fract_y
 _atom_site_fract_z
 _atom_site_occupancy
  Ce  Ce0  1  0.253442  0.198845  0.944136  1
  Ce  Ce1  1  0.944136  0.253442  0.198845  1
  Ce  Ce2  1  0.198845  0.944136  0.253442  1
  Er  Er3  1  0.315531  0.568139  0.750742  1
  Er  Er4  1  0.750742  0.315531  0.568139  1
  Er  Er5  1  0.568139  0.750742  0.315531  1
  Er  Er6  1  0.720323  0.506785  0.995149  1
  Er  Er7  1  0.995149  0.720323  0.506785  1
  Er  Er8  1  0.506785  0.995149  0.720323  1
  Lu  Lu9  1  0.780657  0.780657  0.780657  1
  Al  Al10  1  0.414380  0.414380  0.414380  1
  Al  Al11  1  0.093014  0.499284  0.000046  1
  Al  Al12  1  0.000046  0.093014  0.499284  1
  Al  Al13  1  0.499284  0.000046  0.093014  1
  Ru  Ru14  1  0.895426  0.118105  0.753375  1
  Ru  Ru15  1  0.753375  0.895426  0.118105  1
  Ru  Ru16  1  0.118105  0.753375  0.895426  1
  Ru  Ru17  1  0.226468  0.599435  0.366723  1
  Ru  Ru18  1  0.366723  0.226468  0.599435  1
  Ru  Ru19  1  0.599435  0.366723  0.226468  1
