# generated using pymatgen
data_Li2YTm5(Co4P3)4
_symmetry_space_group_name_H-M   'P 1'
_cell_length_a   3.69615200
_cell_length_b   10.52790800
_cell_length_c   12.11287100
_cell_angle_alpha   90.00000000
_cell_angle_beta   90.00000000
_cell_angle_gamma   90.00000000
_symmetry_Int_Tables_number   1
_chemical_formula_structural   Li2YTm5(Co4P3)4
_chemical_formula_sum   'Li2 Y1 Tm5 Co16 P12'
_cell_volume   471.34509932
_cell_formula_units_Z   1
loop_
 _symmetry_equiv_pos_site_id
 _symmetry_equiv_pos_as_xyz
  1  'x, y, z'
loop_
 _atom_site_type_symbol
 _atom_site_label
 _atom_site_symmetry_multiplicity
 _atom_site_fract_x
 _atom_site_fract_y
 _atom_site_fract_z
 _atom_site_occupancy
  Li  Li0  1  0.500000  0.500000  0.153001  1
  Li  Li1  1  0.000000  0.000000  0.846476  1
  Y  Y2  1  0.000000  0.500000  0.523208  1
  Tm  Tm3  1  0.500000  0.000000  0.476505  1
  Tm  Tm4  1  0.500000  0.820497  0.206125  1
  Tm  Tm5  1  0.500000  0.179503  0.206125  1
  Tm  Tm6  1  0.000000  0.679729  0.794145  1
  Tm  Tm7  1  0.000000  0.320271  0.794145  1
  Co  Co8  1  0.500000  0.500000  0.705766  1
  Co  Co9  1  0.000000  0.000000  0.295601  1
  Co  Co10  1  0.000000  0.500000  0.987226  1
  Co  Co11  1  0.500000  0.000000  0.013304  1
  Co  Co12  1  0.500000  0.332659  0.997158  1
  Co  Co13  1  0.500000  0.667341  0.997158  1
  Co  Co14  1  0.000000  0.167024  0.002945  1
  Co  Co15  1  0.000000  0.832976  0.002945  1
  Co  Co16  1  0.500000  0.295379  0.430860  1
  Co  Co17  1  0.500000  0.704621  0.430860  1
  Co  Co18  1  0.000000  0.202508  0.568810  1
  Co  Co19  1  0.000000  0.797492  0.568810  1
  Co  Co20  1  0.500000  0.878299  0.706948  1
  Co  Co21  1  0.500000  0.121701  0.706948  1
  Co  Co22  1  0.000000  0.622356  0.292651  1
  Co  Co23  1  0.000000  0.377644  0.292651  1
  P  P24  1  0.500000  0.500000  0.884948  1
  P  P25  1  0.000000  0.000000  0.115623  1
  P  P26  1  0.500000  0.500000  0.345437  1
  P  P27  1  0.000000  0.000000  0.652858  1
  P  P28  1  0.500000  0.310006  0.617104  1
  P  P29  1  0.500000  0.689994  0.617104  1
  P  P30  1  0.000000  0.188740  0.383272  1
  P  P31  1  0.000000  0.811260  0.383272  1
  P  P32  1  0.500000  0.842845  0.892477  1
  P  P33  1  0.500000  0.157155  0.892477  1
  P  P34  1  0.000000  0.657652  0.107527  1
  P  P35  1  0.000000  0.342348  0.107527  1
