# generated using pymatgen
data_La4NdSm(RuI3)2
_symmetry_space_group_name_H-M   'P 1'
_cell_length_a   4.37054200
_cell_length_b   9.56128510
_cell_length_c   12.54389797
_cell_angle_alpha   87.59999266
_cell_angle_beta   90.00000000
_cell_angle_gamma   90.00000000
_symmetry_Int_Tables_number   1
_chemical_formula_structural   La4NdSm(RuI3)2
_chemical_formula_sum   'La4 Nd1 Sm1 Ru2 I6'
_cell_volume   523.72458278
_cell_formula_units_Z   1
loop_
 _symmetry_equiv_pos_site_id
 _symmetry_equiv_pos_as_xyz
  1  'x, y, z'
loop_
 _atom_site_type_symbol
 _atom_site_label
 _atom_site_symmetry_multiplicity
 _atom_site_fract_x
 _atom_site_fract_y
 _atom_site_fract_z
 _atom_site_occupancy
  La  La0  1  0.750000  0.118398  0.670773  1
  La  La1  1  0.250000  0.880846  0.328855  1
  La  La2  1  0.750000  0.098604  0.102662  1
  La  La3  1  0.250000  0.900247  0.897257  1
  Nd  Nd4  1  0.250000  0.315116  0.880918  1
  Sm  Sm5  1  0.750000  0.687520  0.119592  1
  Ru  Ru6  1  0.750000  0.112814  0.870638  1
  Ru  Ru7  1  0.250000  0.885616  0.129172  1
  I  I8  1  0.750000  0.132627  0.380281  1
  I  I9  1  0.250000  0.866299  0.619412  1
  I  I10  1  0.250000  0.372587  0.626103  1
  I  I11  1  0.750000  0.626458  0.371998  1
  I  I12  1  0.750000  0.603591  0.870526  1
  I  I13  1  0.250000  0.399276  0.131811  1
