# generated using pymatgen
data_YHo4(In2Cu)2
_symmetry_space_group_name_H-M   'P 1'
_cell_length_a   3.65411100
_cell_length_b   8.00962100
_cell_length_c   17.89904700
_cell_angle_alpha   90.00000000
_cell_angle_beta   90.00000000
_cell_angle_gamma   90.00000000
_symmetry_Int_Tables_number   1
_chemical_formula_structural   YHo4(In2Cu)2
_chemical_formula_sum   'Y2 Ho8 In8 Cu4'
_cell_volume   523.87009877
_cell_formula_units_Z   2
loop_
 _symmetry_equiv_pos_site_id
 _symmetry_equiv_pos_as_xyz
  1  'x, y, z'
loop_
 _atom_site_type_symbol
 _atom_site_label
 _atom_site_symmetry_multiplicity
 _atom_site_fract_x
 _atom_site_fract_y
 _atom_site_fract_z
 _atom_site_occupancy
  Y  Y0  1  0.000000  0.500000  0.500000  1
  Y  Y1  1  0.000000  0.000000  0.000000  1
  Ho  Ho2  1  0.000000  0.737362  0.281487  1
  Ho  Ho3  1  0.000000  0.262638  0.718513  1
  Ho  Ho4  1  0.000000  0.762638  0.781487  1
  Ho  Ho5  1  0.000000  0.237362  0.218513  1
  Ho  Ho6  1  0.000000  0.617018  0.083399  1
  Ho  Ho7  1  0.000000  0.382982  0.916601  1
  Ho  Ho8  1  0.000000  0.882982  0.583399  1
  Ho  Ho9  1  0.000000  0.117018  0.416601  1
  In  In10  1  0.500000  0.707070  0.931449  1
  In  In11  1  0.500000  0.292930  0.068551  1
  In  In12  1  0.500000  0.792930  0.431449  1
  In  In13  1  0.500000  0.207070  0.568551  1
  In  In14  1  0.500000  0.581436  0.651386  1
  In  In15  1  0.500000  0.418564  0.348614  1
  In  In16  1  0.500000  0.918564  0.151386  1
  In  In17  1  0.500000  0.081436  0.848614  1
  Cu  Cu18  1  0.500000  0.524741  0.197413  1
  Cu  Cu19  1  0.500000  0.475259  0.802587  1
  Cu  Cu20  1  0.500000  0.975259  0.697413  1
  Cu  Cu21  1  0.500000  0.024741  0.302587  1
