# generated using pymatgen
data_Pr4DyV3(P3Ir4)4
_symmetry_space_group_name_H-M   'P 1'
_cell_length_a   12.78608600
_cell_length_b   12.78608575
_cell_length_c   3.99785500
_cell_angle_alpha   90.00000000
_cell_angle_beta   90.00000000
_cell_angle_gamma   120.00000065
_symmetry_Int_Tables_number   1
_chemical_formula_structural   Pr4DyV3(P3Ir4)4
_chemical_formula_sum   'Pr4 Dy1 V3 P12 Ir16'
_cell_volume   566.02146507
_cell_formula_units_Z   1
loop_
 _symmetry_equiv_pos_site_id
 _symmetry_equiv_pos_as_xyz
  1  'x, y, z'
loop_
 _atom_site_type_symbol
 _atom_site_label
 _atom_site_symmetry_multiplicity
 _atom_site_fract_x
 _atom_site_fract_y
 _atom_site_fract_z
 _atom_site_occupancy
  Pr  Pr0  1  0.333333  0.666667  0.500000  1
  Pr  Pr1  1  0.000233  0.810261  0.000000  1
  Pr  Pr2  1  0.189739  0.189972  0.000000  1
  Pr  Pr3  1  0.810028  0.999767  0.000000  1
  Dy  Dy4  1  0.666667  0.333333  0.500000  1
  V  V5  1  0.998674  0.449112  0.500000  1
  V  V6  1  0.550888  0.549562  0.500000  1
  V  V7  1  0.450438  0.001326  0.500000  1
  P  P8  1  0.000520  0.631828  0.500000  1
  P  P9  1  0.368172  0.368693  0.500000  1
  P  P10  1  0.631307  0.999480  0.500000  1
  P  P11  1  0.518345  0.683514  0.000000  1
  P  P12  1  0.316486  0.834830  0.000000  1
  P  P13  1  0.165170  0.481655  0.000000  1
  P  P14  1  0.483845  0.168690  0.000000  1
  P  P15  1  0.684844  0.516155  0.000000  1
  P  P16  1  0.831310  0.315156  0.000000  1
  P  P17  1  0.999203  0.179179  0.500000  1
  P  P18  1  0.820821  0.820023  0.500000  1
  P  P19  1  0.179977  0.000797  0.500000  1
  Ir  Ir20  1  0.511862  0.871197  0.000000  1
  Ir  Ir21  1  0.128803  0.640666  0.000000  1
  Ir  Ir22  1  0.359334  0.488138  0.000000  1
  Ir  Ir23  1  0.492711  0.359165  0.000000  1
  Ir  Ir24  1  0.866456  0.507289  0.000000  1
  Ir  Ir25  1  0.640835  0.133544  0.000000  1
  Ir  Ir26  1  0.998660  0.286524  0.000000  1
  Ir  Ir27  1  0.713476  0.712136  0.000000  1
  Ir  Ir28  1  0.287864  0.001340  0.000000  1
  Ir  Ir29  1  0.622115  0.799161  0.500000  1
  Ir  Ir30  1  0.200839  0.822954  0.500000  1
  Ir  Ir31  1  0.177046  0.377885  0.500000  1
  Ir  Ir32  1  0.379582  0.179194  0.500000  1
  Ir  Ir33  1  0.799612  0.620418  0.500000  1
  Ir  Ir34  1  0.820806  0.200388  0.500000  1
  Ir  Ir35  1  0.000000  0.000000  0.500000  1
