# generated using pymatgen
data_Er2AlGaPt2
_symmetry_space_group_name_H-M   'P 1'
_cell_length_a   4.42104000
_cell_length_b   6.83313361
_cell_length_c   7.71242904
_cell_angle_alpha   89.30088248
_cell_angle_beta   90.00000000
_cell_angle_gamma   90.00000000
_symmetry_Int_Tables_number   1
_chemical_formula_structural   Er2AlGaPt2
_chemical_formula_sum   'Er4 Al2 Ga2 Pt4'
_cell_volume   232.97172051
_cell_formula_units_Z   2
loop_
 _symmetry_equiv_pos_site_id
 _symmetry_equiv_pos_as_xyz
  1  'x, y, z'
loop_
 _atom_site_type_symbol
 _atom_site_label
 _atom_site_symmetry_multiplicity
 _atom_site_fract_x
 _atom_site_fract_y
 _atom_site_fract_z
 _atom_site_occupancy
  Er  Er0  1  0.250000  0.474390  0.182479  1
  Er  Er1  1  0.750000  0.525610  0.817521  1
  Er  Er2  1  0.750000  0.027097  0.688189  1
  Er  Er3  1  0.250000  0.972903  0.311811  1
  Al  Al4  1  0.750000  0.650513  0.436691  1
  Al  Al5  1  0.250000  0.349487  0.563309  1
  Ga  Ga6  1  0.250000  0.841963  0.934155  1
  Ga  Ga7  1  0.750000  0.158037  0.065845  1
  Pt  Pt8  1  0.250000  0.725741  0.610159  1
  Pt  Pt9  1  0.750000  0.274259  0.389841  1
  Pt  Pt10  1  0.750000  0.770205  0.116835  1
  Pt  Pt11  1  0.250000  0.229795  0.883165  1
