# generated using pymatgen
data_Dy3Zn3Si2Ag
_symmetry_space_group_name_H-M   'P 1'
_cell_length_a   6.89792300
_cell_length_b   6.89792364
_cell_length_c   4.29431800
_cell_angle_alpha   90.00000000
_cell_angle_beta   90.00000000
_cell_angle_gamma   120.00000173
_symmetry_Int_Tables_number   1
_chemical_formula_structural   Dy3Zn3Si2Ag
_chemical_formula_sum   'Dy3 Zn3 Si2 Ag1'
_cell_volume   176.95447498
_cell_formula_units_Z   1
loop_
 _symmetry_equiv_pos_site_id
 _symmetry_equiv_pos_as_xyz
  1  'x, y, z'
loop_
 _atom_site_type_symbol
 _atom_site_label
 _atom_site_symmetry_multiplicity
 _atom_site_fract_x
 _atom_site_fract_y
 _atom_site_fract_z
 _atom_site_occupancy
  Dy  Dy0  1  0.424383  0.424383  0.500000  1
  Dy  Dy1  1  0.575617  0.000000  0.500000  1
  Dy  Dy2  1  0.000000  0.575617  0.500000  1
  Zn  Zn3  1  0.750620  0.750620  0.000000  1
  Zn  Zn4  1  0.249380  0.000000  0.000000  1
  Zn  Zn5  1  0.000000  0.249380  0.000000  1
  Si  Si6  1  0.666667  0.333333  0.000000  1
  Si  Si7  1  0.333333  0.666667  0.000000  1
  Ag  Ag8  1  0.000000  0.000000  0.500000  1
