# generated using pymatgen
data_Nd3Ga4Se
_symmetry_space_group_name_H-M   'P 1'
_cell_length_a   8.08733484
_cell_length_b   8.08733393
_cell_length_c   8.08733434
_cell_angle_alpha   119.67067578
_cell_angle_beta   119.67067861
_cell_angle_gamma   90.57135676
_symmetry_Int_Tables_number   1
_chemical_formula_structural   Nd3Ga4Se
_chemical_formula_sum   'Nd6 Ga8 Se2'
_cell_volume   375.86704404
_cell_formula_units_Z   2
loop_
 _symmetry_equiv_pos_site_id
 _symmetry_equiv_pos_as_xyz
  1  'x, y, z'
loop_
 _atom_site_type_symbol
 _atom_site_label
 _atom_site_symmetry_multiplicity
 _atom_site_fract_x
 _atom_site_fract_y
 _atom_site_fract_z
 _atom_site_occupancy
  Nd  Nd0  1  0.663336  0.163336  0.826671  1
  Nd  Nd1  1  0.163336  0.336664  0.500000  1
  Nd  Nd2  1  0.836664  0.663336  0.500000  1
  Nd  Nd3  1  0.750000  0.750000  0.000000  1
  Nd  Nd4  1  0.336664  0.836664  0.173329  1
  Nd  Nd5  1  0.250000  0.250000  0.000000  1
  Ga  Ga6  1  0.944046  0.444046  0.786160  1
  Ga  Ga7  1  0.842114  0.055954  0.500000  1
  Ga  Ga8  1  0.342114  0.842114  0.786160  1
  Ga  Ga9  1  0.444046  0.657886  0.500000  1
  Ga  Ga10  1  0.555954  0.342114  0.500000  1
  Ga  Ga11  1  0.055954  0.555954  0.213840  1
  Ga  Ga12  1  0.157886  0.944046  0.500000  1
  Ga  Ga13  1  0.657886  0.157886  0.213840  1
  Se  Se14  1  0.500000  0.500000  0.000000  1
  Se  Se15  1  0.000000  0.000000  0.000000  1
