# generated using pymatgen
data_V(O2F7)2
_symmetry_space_group_name_H-M   'P 1'
_cell_length_a   12.29617800
_cell_length_b   6.53414649
_cell_length_c   8.62213835
_cell_angle_alpha   68.84031527
_cell_angle_beta   90.00000000
_cell_angle_gamma   90.00000000
_symmetry_Int_Tables_number   1
_chemical_formula_structural   V(O2F7)2
_chemical_formula_sum   'V2 O8 F28'
_cell_volume   646.03964741
_cell_formula_units_Z   2
loop_
 _symmetry_equiv_pos_site_id
 _symmetry_equiv_pos_as_xyz
  1  'x, y, z'
loop_
 _atom_site_type_symbol
 _atom_site_label
 _atom_site_symmetry_multiplicity
 _atom_site_fract_x
 _atom_site_fract_y
 _atom_site_fract_z
 _atom_site_occupancy
  V  V0  1  0.500000  0.500000  0.500000  1
  V  V1  1  0.000000  0.500000  0.000000  1
  O  O2  1  0.366394  0.763326  0.907011  1
  O  O3  1  0.633606  0.236674  0.092989  1
  O  O4  1  0.866394  0.236674  0.592989  1
  O  O5  1  0.133606  0.763326  0.407011  1
  O  O6  1  0.738462  0.749613  0.875199  1
  O  O7  1  0.261538  0.250387  0.124801  1
  O  O8  1  0.238462  0.250387  0.624801  1
  O  O9  1  0.761538  0.749613  0.375199  1
  F  F10  1  0.438635  0.866901  0.775465  1
  F  F11  1  0.561365  0.133099  0.224535  1
  F  F12  1  0.938635  0.133099  0.724535  1
  F  F13  1  0.061365  0.866901  0.275465  1
  F  F14  1  0.436502  0.757938  0.482090  1
  F  F15  1  0.563498  0.242062  0.517910  1
  F  F16  1  0.936502  0.242062  0.017910  1
  F  F17  1  0.063498  0.757938  0.982090  1
  F  F18  1  0.432768  0.365633  0.699587  1
  F  F19  1  0.567232  0.634367  0.300413  1
  F  F20  1  0.932768  0.634367  0.800413  1
  F  F21  1  0.067232  0.365633  0.199587  1
  F  F22  1  0.091416  0.804921  0.545457  1
  F  F23  1  0.908584  0.195079  0.454543  1
  F  F24  1  0.591416  0.195079  0.954543  1
  F  F25  1  0.408584  0.804921  0.045457  1
  F  F26  1  0.339906  0.292809  0.996574  1
  F  F27  1  0.660094  0.707191  0.003426  1
  F  F28  1  0.839906  0.707191  0.503426  1
  F  F29  1  0.160094  0.292809  0.496574  1
  F  F30  1  0.115687  0.437133  0.893392  1
  F  F31  1  0.884313  0.562867  0.106608  1
  F  F32  1  0.615687  0.562867  0.606608  1
  F  F33  1  0.384313  0.437133  0.393392  1
  F  F34  1  0.190047  0.090776  0.765518  1
  F  F35  1  0.809953  0.909224  0.234482  1
  F  F36  1  0.690047  0.909224  0.734482  1
  F  F37  1  0.309953  0.090776  0.265518  1
