# generated using pymatgen
data_TbDy5Tc2
_symmetry_space_group_name_H-M   'P 1'
_cell_length_a   6.27766800
_cell_length_b   7.40116400
_cell_length_c   9.19646800
_cell_angle_alpha   90.00000000
_cell_angle_beta   90.00000000
_cell_angle_gamma   90.00000000
_symmetry_Int_Tables_number   1
_chemical_formula_structural   TbDy5Tc2
_chemical_formula_sum   'Tb2 Dy10 Tc4'
_cell_volume   427.28675977
_cell_formula_units_Z   2
loop_
 _symmetry_equiv_pos_site_id
 _symmetry_equiv_pos_as_xyz
  1  'x, y, z'
loop_
 _atom_site_type_symbol
 _atom_site_label
 _atom_site_symmetry_multiplicity
 _atom_site_fract_x
 _atom_site_fract_y
 _atom_site_fract_z
 _atom_site_occupancy
  Tb  Tb0  1  0.127400  0.457930  0.750000  1
  Tb  Tb1  1  0.372600  0.957930  0.750000  1
  Dy  Dy2  1  0.337719  0.676316  0.063485  1
  Dy  Dy3  1  0.162281  0.176316  0.436515  1
  Dy  Dy4  1  0.662131  0.323510  0.562520  1
  Dy  Dy5  1  0.837869  0.823510  0.937480  1
  Dy  Dy6  1  0.662131  0.323510  0.937480  1
  Dy  Dy7  1  0.837869  0.823510  0.562520  1
  Dy  Dy8  1  0.337719  0.676316  0.436515  1
  Dy  Dy9  1  0.162281  0.176316  0.063485  1
  Dy  Dy10  1  0.872392  0.542323  0.250000  1
  Dy  Dy11  1  0.627608  0.042323  0.250000  1
  Tc  Tc12  1  0.040178  0.886477  0.250000  1
  Tc  Tc13  1  0.459822  0.386477  0.250000  1
  Tc  Tc14  1  0.959499  0.113619  0.750000  1
  Tc  Tc15  1  0.540501  0.613619  0.750000  1
