# generated using pymatgen
data_La2Dy3Y(IrO7)2
_symmetry_space_group_name_H-M   'P 1'
_cell_length_a   6.49712908
_cell_length_b   6.50573746
_cell_length_c   7.53389501
_cell_angle_alpha   89.99703559
_cell_angle_beta   89.99772133
_cell_angle_gamma   109.67012748
_symmetry_Int_Tables_number   1
_chemical_formula_structural   La2Dy3Y(IrO7)2
_chemical_formula_sum   'La2 Dy3 Y1 Ir2 O14'
_cell_volume   299.86469330
_cell_formula_units_Z   1
loop_
 _symmetry_equiv_pos_site_id
 _symmetry_equiv_pos_as_xyz
  1  'x, y, z'
loop_
 _atom_site_type_symbol
 _atom_site_label
 _atom_site_symmetry_multiplicity
 _atom_site_fract_x
 _atom_site_fract_y
 _atom_site_fract_z
 _atom_site_occupancy
  La  La0  1  0.999989  0.999965  0.500209  1
  La  La1  1  0.999987  0.999959  0.999785  1
  Dy  Dy2  1  0.935363  0.483780  0.750003  1
  Dy  Dy3  1  0.483900  0.935342  0.750001  1
  Dy  Dy4  1  0.064517  0.516346  0.249999  1
  Y  Y5  1  0.516427  0.063711  0.249993  1
  Ir  Ir6  1  0.499846  0.499598  0.500169  1
  Ir  Ir7  1  0.499844  0.499608  0.999839  1
  O  O8  1  0.442753  0.181940  0.535348  1
  O  O9  1  0.818107  0.556939  0.465188  1
  O  O10  1  0.442739  0.181962  0.964690  1
  O  O11  1  0.818083  0.556951  0.034777  1
  O  O12  1  0.557458  0.817981  0.465981  1
  O  O13  1  0.181808  0.442934  0.534903  1
  O  O14  1  0.557464  0.817947  0.033983  1
  O  O15  1  0.181833  0.442924  0.965137  1
  O  O16  1  0.160446  0.879206  0.250005  1
  O  O17  1  0.120591  0.838640  0.749992  1
  O  O18  1  0.838818  0.120857  0.749995  1
  O  O19  1  0.879587  0.161591  0.250006  1
  O  O20  1  0.408509  0.409690  0.249955  1
  O  O21  1  0.591930  0.592130  0.750043  1
