# generated using pymatgen
data_Li8TmTh7Sn8
_symmetry_space_group_name_H-M   'P 1'
_cell_length_a   9.65215900
_cell_length_b   9.65215847
_cell_length_c   7.30530100
_cell_angle_alpha   90.00000000
_cell_angle_beta   90.00000000
_cell_angle_gamma   120.00000523
_symmetry_Int_Tables_number   1
_chemical_formula_structural   Li8TmTh7Sn8
_chemical_formula_sum   'Li8 Tm1 Th7 Sn8'
_cell_volume   589.41018325
_cell_formula_units_Z   1
loop_
 _symmetry_equiv_pos_site_id
 _symmetry_equiv_pos_as_xyz
  1  'x, y, z'
loop_
 _atom_site_type_symbol
 _atom_site_label
 _atom_site_symmetry_multiplicity
 _atom_site_fract_x
 _atom_site_fract_y
 _atom_site_fract_z
 _atom_site_occupancy
  Li  Li0  1  0.165771  0.331544  0.261931  1
  Li  Li1  1  0.165771  0.834229  0.261931  1
  Li  Li2  1  0.668456  0.834229  0.261931  1
  Li  Li3  1  0.835109  0.670218  0.782621  1
  Li  Li4  1  0.835109  0.164891  0.782621  1
  Li  Li5  1  0.329782  0.164891  0.782621  1
  Li  Li6  1  0.333333  0.666667  0.698251  1
  Li  Li7  1  0.666667  0.333333  0.195064  1
  Tm  Tm8  1  0.000000  0.000000  0.000339  1
  Th  Th9  1  0.507474  0.014947  0.495131  1
  Th  Th10  1  0.507474  0.492526  0.495131  1
  Th  Th11  1  0.985053  0.492526  0.495131  1
  Th  Th12  1  0.492581  0.985162  0.994632  1
  Th  Th13  1  0.492581  0.507419  0.994632  1
  Th  Th14  1  0.014838  0.507419  0.994632  1
  Th  Th15  1  0.000000  0.000000  0.498993  1
  Sn  Sn16  1  0.165502  0.331005  0.740462  1
  Sn  Sn17  1  0.165502  0.834498  0.740462  1
  Sn  Sn18  1  0.668995  0.834498  0.740462  1
  Sn  Sn19  1  0.835180  0.670360  0.233151  1
  Sn  Sn20  1  0.835180  0.164820  0.233151  1
  Sn  Sn21  1  0.329640  0.164820  0.233151  1
  Sn  Sn22  1  0.333333  0.666667  0.264483  1
  Sn  Sn23  1  0.666667  0.333333  0.761083  1
