# generated using pymatgen
data_GdY5Cd23Ge
_symmetry_space_group_name_H-M   'P 1'
_cell_length_a   10.03029365
_cell_length_b   9.97450974
_cell_length_c   9.97451000
_cell_angle_alpha   60.37036573
_cell_angle_beta   59.81482213
_cell_angle_gamma   59.81481794
_symmetry_Int_Tables_number   1
_chemical_formula_structural   GdY5Cd23Ge
_chemical_formula_sum   'Gd1 Y5 Cd23 Ge1'
_cell_volume   705.59334336
_cell_formula_units_Z   1
loop_
 _symmetry_equiv_pos_site_id
 _symmetry_equiv_pos_as_xyz
  1  'x, y, z'
loop_
 _atom_site_type_symbol
 _atom_site_label
 _atom_site_symmetry_multiplicity
 _atom_site_fract_x
 _atom_site_fract_y
 _atom_site_fract_z
 _atom_site_occupancy
  Gd  Gd0  1  0.206649  0.793351  0.793351  1
  Y  Y1  1  0.795664  0.795735  0.204336  1
  Y  Y2  1  0.204265  0.795735  0.204336  1
  Y  Y3  1  0.791553  0.208447  0.208447  1
  Y  Y4  1  0.204265  0.204336  0.795735  1
  Y  Y5  1  0.795664  0.204336  0.795735  1
  Cd  Cd6  1  0.837690  0.840080  0.484539  1
  Cd  Cd7  1  0.837690  0.484539  0.840080  1
  Cd  Cd8  1  0.490458  0.836546  0.836546  1
  Cd  Cd9  1  0.836450  0.836546  0.836546  1
  Cd  Cd10  1  0.163454  0.163550  0.509542  1
  Cd  Cd11  1  0.163454  0.509542  0.163550  1
  Cd  Cd12  1  0.515461  0.162310  0.162310  1
  Cd  Cd13  1  0.159920  0.162310  0.162310  1
  Cd  Cd14  1  0.621441  0.621590  0.135526  1
  Cd  Cd15  1  0.621441  0.135526  0.621590  1
  Cd  Cd16  1  0.132131  0.620678  0.620678  1
  Cd  Cd17  1  0.626511  0.620678  0.620678  1
  Cd  Cd18  1  0.379322  0.373489  0.867869  1
  Cd  Cd19  1  0.379322  0.867869  0.373489  1
  Cd  Cd20  1  0.864474  0.378559  0.378559  1
  Cd  Cd21  1  0.378410  0.378559  0.378559  1
  Cd  Cd22  1  0.999848  0.000152  0.500203  1
  Cd  Cd23  1  0.499797  0.000152  0.500203  1
  Cd  Cd24  1  0.999482  0.500518  0.500518  1
  Cd  Cd25  1  0.499797  0.500203  0.000152  1
  Cd  Cd26  1  0.999848  0.500203  0.000152  1
  Cd  Cd27  1  0.499482  0.000518  0.000518  1
  Cd  Cd28  1  0.497658  0.502342  0.502342  1
  Ge  Ge29  1  0.998398  0.001602  0.001602  1
