# generated using pymatgen
data_HoEr(SiPd2)2
_symmetry_space_group_name_H-M   'P 1'
_cell_length_a   5.51862100
_cell_length_b   7.00394600
_cell_length_c   7.29392900
_cell_angle_alpha   90.00000000
_cell_angle_beta   90.00000000
_cell_angle_gamma   90.00000000
_symmetry_Int_Tables_number   1
_chemical_formula_structural   HoEr(SiPd2)2
_chemical_formula_sum   'Ho2 Er2 Si4 Pd8'
_cell_volume   281.92584435
_cell_formula_units_Z   2
loop_
 _symmetry_equiv_pos_site_id
 _symmetry_equiv_pos_as_xyz
  1  'x, y, z'
loop_
 _atom_site_type_symbol
 _atom_site_label
 _atom_site_symmetry_multiplicity
 _atom_site_fract_x
 _atom_site_fract_y
 _atom_site_fract_z
 _atom_site_occupancy
  Ho  Ho0  1  0.139850  0.750000  0.527237  1
  Ho  Ho1  1  0.639850  0.250000  0.972763  1
  Er  Er2  1  0.860045  0.250000  0.472739  1
  Er  Er3  1  0.360045  0.750000  0.027261  1
  Si  Si4  1  0.859987  0.750000  0.879123  1
  Si  Si5  1  0.359987  0.250000  0.620877  1
  Si  Si6  1  0.139897  0.250000  0.121143  1
  Si  Si7  1  0.639897  0.750000  0.378857  1
  Pd  Pd8  1  0.905620  0.948313  0.179135  1
  Pd  Pd9  1  0.405620  0.051687  0.320865  1
  Pd  Pd10  1  0.094490  0.448336  0.820886  1
  Pd  Pd11  1  0.594490  0.551664  0.679114  1
  Pd  Pd12  1  0.094490  0.051664  0.820886  1
  Pd  Pd13  1  0.594490  0.948336  0.679114  1
  Pd  Pd14  1  0.905620  0.551687  0.179135  1
  Pd  Pd15  1  0.405620  0.448313  0.320865  1
