# generated using pymatgen
data_Nd(Th3Au5)2
_symmetry_space_group_name_H-M   'P 1'
_cell_length_a   9.04728718
_cell_length_b   9.04728681
_cell_length_c   10.73156744
_cell_angle_alpha   89.93878610
_cell_angle_beta   89.93878831
_cell_angle_gamma   107.06594577
_symmetry_Int_Tables_number   1
_chemical_formula_structural   Nd(Th3Au5)2
_chemical_formula_sum   'Nd2 Th12 Au20'
_cell_volume   839.73522245
_cell_formula_units_Z   2
loop_
 _symmetry_equiv_pos_site_id
 _symmetry_equiv_pos_as_xyz
  1  'x, y, z'
loop_
 _atom_site_type_symbol
 _atom_site_label
 _atom_site_symmetry_multiplicity
 _atom_site_fract_x
 _atom_site_fract_y
 _atom_site_fract_z
 _atom_site_occupancy
  Nd  Nd0  1  0.191749  0.191749  0.692800  1
  Nd  Nd1  1  0.808251  0.808251  0.307200  1
  Th  Th2  1  0.690598  0.309402  0.000000  1
  Th  Th3  1  0.309402  0.690598  0.000000  1
  Th  Th4  1  0.811758  0.188242  0.500000  1
  Th  Th5  1  0.188242  0.811758  0.500000  1
  Th  Th6  1  0.000000  0.000000  0.000000  1
  Th  Th7  1  0.500000  0.500000  0.500000  1
  Th  Th8  1  0.002979  0.499872  0.250172  1
  Th  Th9  1  0.997021  0.500128  0.749828  1
  Th  Th10  1  0.500128  0.997021  0.749828  1
  Th  Th11  1  0.499872  0.002979  0.250172  1
  Th  Th12  1  0.309883  0.309883  0.191392  1
  Th  Th13  1  0.690117  0.690117  0.808608  1
  Au  Au14  1  0.854345  0.150925  0.205613  1
  Au  Au15  1  0.145655  0.849075  0.794387  1
  Au  Au16  1  0.644604  0.350170  0.705881  1
  Au  Au17  1  0.649830  0.355396  0.294119  1
  Au  Au18  1  0.355396  0.649830  0.294119  1
  Au  Au19  1  0.350170  0.644604  0.705881  1
  Au  Au20  1  0.849075  0.145655  0.794387  1
  Au  Au21  1  0.150925  0.854345  0.205613  1
  Au  Au22  1  0.937434  0.645339  0.002262  1
  Au  Au23  1  0.062566  0.354661  0.997738  1
  Au  Au24  1  0.561034  0.855509  0.500992  1
  Au  Au25  1  0.144491  0.438966  0.499008  1
  Au  Au26  1  0.438966  0.144491  0.499008  1
  Au  Au27  1  0.855509  0.561034  0.500992  1
  Au  Au28  1  0.354661  0.062566  0.997738  1
  Au  Au29  1  0.645339  0.937434  0.002262  1
  Au  Au30  1  0.101240  0.101240  0.398604  1
  Au  Au31  1  0.898760  0.898760  0.601396  1
  Au  Au32  1  0.401216  0.401216  0.899979  1
  Au  Au33  1  0.598784  0.598784  0.100021  1
