# generated using pymatgen
data_Tb4Y4Er4Co5Sn
_symmetry_space_group_name_H-M   'P 1'
_cell_length_a   8.31982795
_cell_length_b   8.31982786
_cell_length_c   8.31982700
_cell_angle_alpha   107.26409909
_cell_angle_beta   110.57791582
_cell_angle_gamma   110.59393983
_symmetry_Int_Tables_number   1
_chemical_formula_structural   Tb4Y4Er4Co5Sn
_chemical_formula_sum   'Tb4 Y4 Er4 Co5 Sn1'
_cell_volume   442.83280267
_cell_formula_units_Z   1
loop_
 _symmetry_equiv_pos_site_id
 _symmetry_equiv_pos_as_xyz
  1  'x, y, z'
loop_
 _atom_site_type_symbol
 _atom_site_label
 _atom_site_symmetry_multiplicity
 _atom_site_fract_x
 _atom_site_fract_y
 _atom_site_fract_z
 _atom_site_occupancy
  Tb  Tb0  1  0.192712  0.207494  0.400207  1
  Tb  Tb1  1  0.807288  0.792506  0.599793  1
  Tb  Tb2  1  0.192712  0.792506  0.985217  1
  Tb  Tb3  1  0.807288  0.207494  0.014783  1
  Y  Y4  1  0.479473  0.292683  0.186790  1
  Y  Y5  1  0.105891  0.292683  0.813210  1
  Y  Y6  1  0.894109  0.707317  0.186790  1
  Y  Y7  1  0.520527  0.707317  0.813210  1
  Er  Er8  1  0.308438  0.622486  0.314048  1
  Er  Er9  1  0.308438  0.994391  0.685952  1
  Er  Er10  1  0.691562  0.377514  0.685952  1
  Er  Er11  1  0.691562  0.005609  0.314048  1
  Co  Co12  1  0.500000  0.612235  0.112235  1
  Co  Co13  1  0.500000  0.387765  0.887765  1
  Co  Co14  1  0.379507  0.000000  0.379507  1
  Co  Co15  1  0.620493  0.000000  0.620493  1
  Co  Co16  1  0.000000  0.000000  0.000000  1
  Sn  Sn17  1  0.000000  0.500000  0.500000  1
