# generated using pymatgen
data_La2Th3P12Ru19
_symmetry_space_group_name_H-M   'P 1'
_cell_length_a   12.68010444
_cell_length_b   12.68010417
_cell_length_c   4.03533200
_cell_angle_alpha   90.00000000
_cell_angle_beta   90.00000000
_cell_angle_gamma   119.96983372
_symmetry_Int_Tables_number   1
_chemical_formula_structural   La2Th3P12Ru19
_chemical_formula_sum   'La2 Th3 P12 Ru19'
_cell_volume   562.06622608
_cell_formula_units_Z   1
loop_
 _symmetry_equiv_pos_site_id
 _symmetry_equiv_pos_as_xyz
  1  'x, y, z'
loop_
 _atom_site_type_symbol
 _atom_site_label
 _atom_site_symmetry_multiplicity
 _atom_site_fract_x
 _atom_site_fract_y
 _atom_site_fract_z
 _atom_site_occupancy
  La  La0  1  0.813676  0.999794  0.500000  1
  La  La1  1  0.999794  0.813676  0.500000  1
  Th  Th2  1  0.185140  0.185140  0.500000  1
  Th  Th3  1  0.333425  0.666375  0.000000  1
  Th  Th4  1  0.666375  0.333425  0.000000  1
  P  P5  1  0.811331  0.811331  0.000000  1
  P  P6  1  0.188116  0.999447  0.000000  1
  P  P7  1  0.999447  0.188116  0.000000  1
  P  P8  1  0.170972  0.475395  0.500000  1
  P  P9  1  0.524860  0.696450  0.500000  1
  P  P10  1  0.303585  0.828629  0.500000  1
  P  P11  1  0.696450  0.524860  0.500000  1
  P  P12  1  0.828629  0.303585  0.500000  1
  P  P13  1  0.475395  0.170972  0.500000  1
  P  P14  1  0.374549  0.374549  0.000000  1
  P  P15  1  0.624793  0.000153  0.000000  1
  P  P16  1  0.000153  0.624793  0.000000  1
  Ru  Ru17  1  0.553591  0.553591  0.000000  1
  Ru  Ru18  1  0.446186  0.001552  0.000000  1
  Ru  Ru19  1  0.001552  0.446186  0.000000  1
  Ru  Ru20  1  0.714390  0.714390  0.500000  1
  Ru  Ru21  1  0.285651  0.001057  0.500000  1
  Ru  Ru22  1  0.001057  0.285651  0.500000  1
  Ru  Ru23  1  0.184610  0.376791  0.000000  1
  Ru  Ru24  1  0.619947  0.804904  0.000000  1
  Ru  Ru25  1  0.195629  0.815790  0.000000  1
  Ru  Ru26  1  0.804904  0.619947  0.000000  1
  Ru  Ru27  1  0.815790  0.195629  0.000000  1
  Ru  Ru28  1  0.376791  0.184610  0.000000  1
  Ru  Ru29  1  0.367393  0.493535  0.500000  1
  Ru  Ru30  1  0.505682  0.874563  0.500000  1
  Ru  Ru31  1  0.126133  0.632365  0.500000  1
  Ru  Ru32  1  0.874563  0.505682  0.500000  1
  Ru  Ru33  1  0.632365  0.126133  0.500000  1
  Ru  Ru34  1  0.493535  0.367393  0.500000  1
  Ru  Ru35  1  0.003541  0.003541  0.000000  1
