# generated using pymatgen
data_Nd5Sm3Sc12Si15Au
_symmetry_space_group_name_H-M   'P 1'
_cell_length_a   7.23071640
_cell_length_b   7.47815246
_cell_length_c   14.23686157
_cell_angle_alpha   89.93159609
_cell_angle_beta   89.73947745
_cell_angle_gamma   90.21116127
_symmetry_Int_Tables_number   1
_chemical_formula_structural   Nd5Sm3Sc12Si15Au
_chemical_formula_sum   'Nd5 Sm3 Sc12 Si15 Au1'
_cell_volume   769.80751790
_cell_formula_units_Z   1
loop_
 _symmetry_equiv_pos_site_id
 _symmetry_equiv_pos_as_xyz
  1  'x, y, z'
loop_
 _atom_site_type_symbol
 _atom_site_label
 _atom_site_symmetry_multiplicity
 _atom_site_fract_x
 _atom_site_fract_y
 _atom_site_fract_z
 _atom_site_occupancy
  Nd  Nd0  1  0.012428  0.173603  0.097871  1
  Nd  Nd1  1  0.987376  0.827269  0.903099  1
  Nd  Nd2  1  0.486789  0.674126  0.903093  1
  Nd  Nd3  1  0.988361  0.830133  0.597393  1
  Nd  Nd4  1  0.512309  0.326254  0.096794  1
  Sm  Sm5  1  0.010508  0.173705  0.399302  1
  Sm  Sm6  1  0.511370  0.325564  0.400007  1
  Sm  Sm7  1  0.490992  0.675278  0.599909  1
  Sc  Sc8  1  0.161832  0.498190  0.751108  1
  Sc  Sc9  1  0.838430  0.500812  0.250933  1
  Sc  Sc10  1  0.338922  0.998091  0.249217  1
  Sc  Sc11  1  0.663627  0.999098  0.751228  1
  Sc  Sc12  1  0.339153  0.175849  0.626115  1
  Sc  Sc13  1  0.667018  0.823857  0.373709  1
  Sc  Sc14  1  0.168794  0.673112  0.373409  1
  Sc  Sc15  1  0.670964  0.824608  0.125179  1
  Sc  Sc16  1  0.826835  0.325956  0.625078  1
  Sc  Sc17  1  0.328321  0.174561  0.875573  1
  Sc  Sc18  1  0.829919  0.322909  0.875753  1
  Sc  Sc19  1  0.169384  0.676171  0.125229  1
  Si  Si20  1  0.035875  0.125094  0.750465  1
  Si  Si21  1  0.965834  0.878308  0.249967  1
  Si  Si22  1  0.465765  0.621335  0.248826  1
  Si  Si23  1  0.536152  0.379647  0.751987  1
  Si  Si24  1  0.286365  0.880216  0.750215  1
  Si  Si25  1  0.711705  0.121706  0.249693  1
  Si  Si26  1  0.213667  0.377700  0.249324  1
  Si  Si27  1  0.787619  0.620440  0.751689  1
  Si  Si28  1  0.837733  0.538482  0.458475  1
  Si  Si29  1  0.344851  0.962107  0.460157  1
  Si  Si30  1  0.847961  0.536772  0.039212  1
  Si  Si31  1  0.653218  0.037695  0.537722  1
  Si  Si32  1  0.151341  0.463077  0.961203  1
  Si  Si33  1  0.652263  0.036313  0.960505  1
  Si  Si34  1  0.347006  0.962974  0.039587  1
  Au  Au35  1  0.159307  0.458989  0.540976  1
