# generated using pymatgen
data_Th3Mn8CoP6
_symmetry_space_group_name_H-M   'P 1'
_cell_length_a   3.80219500
_cell_length_b   10.84904400
_cell_length_c   12.68584800
_cell_angle_alpha   90.00000000
_cell_angle_beta   90.00000000
_cell_angle_gamma   90.00000000
_symmetry_Int_Tables_number   1
_chemical_formula_structural   Th3Mn8CoP6
_chemical_formula_sum   'Th6 Mn16 Co2 P12'
_cell_volume   523.29352426
_cell_formula_units_Z   2
loop_
 _symmetry_equiv_pos_site_id
 _symmetry_equiv_pos_as_xyz
  1  'x, y, z'
loop_
 _atom_site_type_symbol
 _atom_site_label
 _atom_site_symmetry_multiplicity
 _atom_site_fract_x
 _atom_site_fract_y
 _atom_site_fract_z
 _atom_site_occupancy
  Th  Th0  1  0.000000  0.500000  0.531542  1
  Th  Th1  1  0.500000  0.000000  0.468458  1
  Th  Th2  1  0.500000  0.820310  0.205591  1
  Th  Th3  1  0.500000  0.179690  0.205591  1
  Th  Th4  1  0.000000  0.679690  0.794409  1
  Th  Th5  1  0.000000  0.320310  0.794409  1
  Mn  Mn6  1  0.500000  0.500000  0.160960  1
  Mn  Mn7  1  0.000000  0.000000  0.839040  1
  Mn  Mn8  1  0.000000  0.500000  0.990836  1
  Mn  Mn9  1  0.500000  0.000000  0.009164  1
  Mn  Mn10  1  0.500000  0.330339  0.998325  1
  Mn  Mn11  1  0.500000  0.669661  0.998325  1
  Mn  Mn12  1  0.000000  0.169661  0.001675  1
  Mn  Mn13  1  0.000000  0.830339  0.001675  1
  Mn  Mn14  1  0.500000  0.300162  0.430347  1
  Mn  Mn15  1  0.500000  0.699838  0.430347  1
  Mn  Mn16  1  0.000000  0.199838  0.569653  1
  Mn  Mn17  1  0.000000  0.800162  0.569653  1
  Mn  Mn18  1  0.500000  0.886912  0.705522  1
  Mn  Mn19  1  0.500000  0.113088  0.705522  1
  Mn  Mn20  1  0.000000  0.613088  0.294478  1
  Mn  Mn21  1  0.000000  0.386912  0.294478  1
  Co  Co22  1  0.500000  0.500000  0.704335  1
  Co  Co23  1  0.000000  0.000000  0.295665  1
  P  P24  1  0.500000  0.500000  0.886808  1
  P  P25  1  0.000000  0.000000  0.113192  1
  P  P26  1  0.500000  0.500000  0.352048  1
  P  P27  1  0.000000  0.000000  0.647952  1
  P  P28  1  0.500000  0.307910  0.614931  1
  P  P29  1  0.500000  0.692090  0.614931  1
  P  P30  1  0.000000  0.192090  0.385069  1
  P  P31  1  0.000000  0.807910  0.385069  1
  P  P32  1  0.500000  0.851710  0.888957  1
  P  P33  1  0.500000  0.148290  0.888957  1
  P  P34  1  0.000000  0.648290  0.111043  1
  P  P35  1  0.000000  0.351710  0.111043  1
