# generated using pymatgen
data_Ho15Tm5(Ga2Bi)4
_symmetry_space_group_name_H-M   'P 1'
_cell_length_a   8.15551321
_cell_length_b   8.15622121
_cell_length_c   12.64773202
_cell_angle_alpha   89.99757459
_cell_angle_beta   89.99823455
_cell_angle_gamma   89.97404928
_symmetry_Int_Tables_number   1
_chemical_formula_structural   Ho15Tm5(Ga2Bi)4
_chemical_formula_sum   'Ho15 Tm5 Ga8 Bi4'
_cell_volume   841.30389857
_cell_formula_units_Z   1
loop_
 _symmetry_equiv_pos_site_id
 _symmetry_equiv_pos_as_xyz
  1  'x, y, z'
loop_
 _atom_site_type_symbol
 _atom_site_label
 _atom_site_symmetry_multiplicity
 _atom_site_fract_x
 _atom_site_fract_y
 _atom_site_fract_z
 _atom_site_occupancy
  Ho  Ho0  1  0.652260  0.348133  0.107862  1
  Ho  Ho1  1  0.846691  0.847063  0.393053  1
  Ho  Ho2  1  0.152393  0.847981  0.891838  1
  Ho  Ho3  1  0.348319  0.348673  0.607556  1
  Ho  Ho4  1  0.347682  0.651976  0.107858  1
  Ho  Ho5  1  0.151933  0.151549  0.392524  1
  Ho  Ho6  1  0.847695  0.151939  0.891823  1
  Ho  Ho7  1  0.652310  0.348443  0.393083  1
  Ho  Ho8  1  0.348347  0.348053  0.892240  1
  Ho  Ho9  1  0.151630  0.848288  0.608267  1
  Ho  Ho10  1  0.848226  0.847920  0.107750  1
  Ho  Ho11  1  0.348659  0.652606  0.393106  1
  Ho  Ho12  1  0.651594  0.651891  0.892286  1
  Ho  Ho13  1  0.848614  0.151880  0.608279  1
  Ho  Ho14  1  0.151742  0.152036  0.108013  1
  Tm  Tm15  1  0.999607  0.500286  0.749412  1
  Tm  Tm16  1  0.999992  0.500058  0.249729  1
  Tm  Tm17  1  0.500016  0.999968  0.249962  1
  Tm  Tm18  1  0.500266  0.999559  0.749649  1
  Tm  Tm19  1  0.651342  0.650994  0.609632  1
  Ga  Ga20  1  0.850415  0.850442  0.749292  1
  Ga  Ga21  1  0.850974  0.148449  0.249909  1
  Ga  Ga22  1  0.648503  0.648469  0.249527  1
  Ga  Ga23  1  0.351898  0.648954  0.749214  1
  Ga  Ga24  1  0.149590  0.149384  0.749686  1
  Ga  Ga25  1  0.148575  0.851189  0.249920  1
  Ga  Ga26  1  0.351281  0.351484  0.250205  1
  Ga  Ga27  1  0.649086  0.351956  0.749217  1
  Bi  Bi28  1  0.999527  0.500462  0.499697  1
  Bi  Bi29  1  0.000434  0.499733  0.999487  1
  Bi  Bi30  1  0.500530  0.999639  0.500052  1
  Bi  Bi31  1  0.499870  0.000541  0.999871  1
