# generated using pymatgen
data_HoNb(Bi3O7)2
_symmetry_space_group_name_H-M   'P 1'
_cell_length_a   6.65989529
_cell_length_b   6.85884438
_cell_length_c   7.79568396
_cell_angle_alpha   106.34858749
_cell_angle_beta   89.64633560
_cell_angle_gamma   100.31217985
_symmetry_Int_Tables_number   1
_chemical_formula_structural   HoNb(Bi3O7)2
_chemical_formula_sum   'Ho1 Nb1 Bi6 O14'
_cell_volume   335.81382716
_cell_formula_units_Z   1
loop_
 _symmetry_equiv_pos_site_id
 _symmetry_equiv_pos_as_xyz
  1  'x, y, z'
loop_
 _atom_site_type_symbol
 _atom_site_label
 _atom_site_symmetry_multiplicity
 _atom_site_fract_x
 _atom_site_fract_y
 _atom_site_fract_z
 _atom_site_occupancy
  Ho  Ho0  1  0.457272  0.996346  0.247554  1
  Nb  Nb1  1  0.996143  0.002608  0.001308  1
  Bi  Bi2  1  0.996891  0.002935  0.497922  1
  Bi  Bi3  1  0.521516  0.999503  0.749906  1
  Bi  Bi4  1  0.251598  0.524890  0.882602  1
  Bi  Bi5  1  0.734310  0.490383  0.115402  1
  Bi  Bi6  1  0.723618  0.475588  0.605269  1
  Bi  Bi7  1  0.266482  0.506734  0.384266  1
  O  O8  1  0.462248  0.651692  0.179022  1
  O  O9  1  0.531026  0.365824  0.818804  1
  O  O10  1  0.298392  0.943337  0.960883  1
  O  O11  1  0.729940  0.043332  0.078726  1
  O  O12  1  0.295916  0.925238  0.510911  1
  O  O13  1  0.705570  0.087050  0.485855  1
  O  O14  1  0.523903  0.342217  0.353754  1
  O  O15  1  0.463979  0.650530  0.635751  1
  O  O16  1  0.923628  0.690016  0.976988  1
  O  O17  1  0.088834  0.299532  0.020175  1
  O  O18  1  0.101246  0.332363  0.613422  1
  O  O19  1  0.892118  0.675871  0.378945  1
  O  O20  1  0.913049  0.926017  0.741403  1
  O  O21  1  0.122321  0.067996  0.261131  1
