# generated using pymatgen
data_Zn3Fe(OsO3)8
_symmetry_space_group_name_H-M   'P 1'
_cell_length_a   4.61786168
_cell_length_b   10.46476755
_cell_length_c   9.21542233
_cell_angle_alpha   63.87652784
_cell_angle_beta   89.93799439
_cell_angle_gamma   89.97269850
_symmetry_Int_Tables_number   1
_chemical_formula_structural   Zn3Fe(OsO3)8
_chemical_formula_sum   'Zn3 Fe1 Os8 O24'
_cell_volume   399.84158754
_cell_formula_units_Z   1
loop_
 _symmetry_equiv_pos_site_id
 _symmetry_equiv_pos_as_xyz
  1  'x, y, z'
loop_
 _atom_site_type_symbol
 _atom_site_label
 _atom_site_symmetry_multiplicity
 _atom_site_fract_x
 _atom_site_fract_y
 _atom_site_fract_z
 _atom_site_occupancy
  Zn  Zn0  1  0.500000  0.500000  0.000000  1
  Zn  Zn1  1  0.000000  0.000000  0.500000  1
  Zn  Zn2  1  0.500000  0.500000  0.500000  1
  Fe  Fe3  1  0.000000  0.000000  0.000000  1
  Os  Os4  1  0.000000  0.669375  0.165312  1
  Os  Os5  1  0.000000  0.669950  0.665025  1
  Os  Os6  1  0.501058  0.169210  0.165564  1
  Os  Os7  1  0.498942  0.169210  0.665226  1
  Os  Os8  1  0.498942  0.830790  0.834436  1
  Os  Os9  1  0.501058  0.830790  0.334774  1
  Os  Os10  1  0.000000  0.330050  0.334975  1
  Os  Os11  1  0.000000  0.330625  0.834688  1
  O  O12  1  0.687009  0.000000  0.156561  1
  O  O13  1  0.680491  0.000000  0.658466  1
  O  O14  1  0.817543  0.499507  0.158522  1
  O  O15  1  0.817543  0.500493  0.658028  1
  O  O16  1  0.182457  0.500493  0.841478  1
  O  O17  1  0.182457  0.499507  0.341972  1
  O  O18  1  0.319509  0.000000  0.341534  1
  O  O19  1  0.312991  0.000000  0.843439  1
  O  O20  1  0.705367  0.677185  0.810237  1
  O  O21  1  0.704635  0.680342  0.304905  1
  O  O22  1  0.295365  0.680342  0.014754  1
  O  O23  1  0.294633  0.677185  0.512579  1
  O  O24  1  0.294633  0.322815  0.189763  1
  O  O25  1  0.295365  0.319658  0.695095  1
  O  O26  1  0.204051  0.822981  0.690778  1
  O  O27  1  0.199871  0.830551  0.185670  1
  O  O28  1  0.800129  0.830551  0.983778  1
  O  O29  1  0.795949  0.822981  0.486241  1
  O  O30  1  0.795949  0.177019  0.309222  1
  O  O31  1  0.800129  0.169449  0.814330  1
  O  O32  1  0.199871  0.169449  0.016222  1
  O  O33  1  0.204051  0.177019  0.513759  1
  O  O34  1  0.704635  0.319658  0.985246  1
  O  O35  1  0.705367  0.322815  0.487421  1
