# generated using pymatgen
data_Y4Ho8Co4BiOs
_symmetry_space_group_name_H-M   'P 1'
_cell_length_a   8.29191016
_cell_length_b   8.29189688
_cell_length_c   8.29191075
_cell_angle_alpha   111.19151988
_cell_angle_beta   110.41447772
_cell_angle_gamma   106.84032710
_symmetry_Int_Tables_number   1
_chemical_formula_structural   Y4Ho8Co4BiOs
_chemical_formula_sum   'Y4 Ho8 Co4 Bi1 Os1'
_cell_volume   438.16387487
_cell_formula_units_Z   1
loop_
 _symmetry_equiv_pos_site_id
 _symmetry_equiv_pos_as_xyz
  1  'x, y, z'
loop_
 _atom_site_type_symbol
 _atom_site_label
 _atom_site_symmetry_multiplicity
 _atom_site_fract_x
 _atom_site_fract_y
 _atom_site_fract_z
 _atom_site_occupancy
  Y  Y0  1  0.817918  0.717766  0.535678  1
  Y  Y1  1  0.182082  0.282234  0.464322  1
  Y  Y2  1  0.182089  0.717766  0.899848  1
  Y  Y3  1  0.817911  0.282234  0.100152  1
  Ho  Ho4  1  0.687682  0.378046  0.690365  1
  Ho  Ho5  1  0.312318  0.621954  0.309635  1
  Ho  Ho6  1  0.687686  0.997308  0.309622  1
  Ho  Ho7  1  0.312314  0.002692  0.690378  1
  Ho  Ho8  1  0.590693  0.786755  0.803952  1
  Ho  Ho9  1  0.409307  0.213245  0.196048  1
  Ho  Ho10  1  0.982802  0.786755  0.196062  1
  Ho  Ho11  1  0.017198  0.213245  0.803938  1
  Co  Co12  1  0.623914  0.000000  0.623914  1
  Co  Co13  1  0.376086  0.000000  0.376086  1
  Co  Co14  1  0.111437  0.611441  0.500004  1
  Co  Co15  1  0.888563  0.388559  0.499996  1
  Bi  Bi16  1  0.500000  0.500000  0.000000  1
  Os  Os17  1  0.000000  0.000000  0.000000  1
