# generated using pymatgen
data_Tb2Ho4TiAl23Ru8
_symmetry_space_group_name_H-M   'P 1'
_cell_length_a   8.84117800
_cell_length_b   8.83240251
_cell_length_c   9.56968800
_cell_angle_alpha   89.99735490
_cell_angle_beta   90.00000000
_cell_angle_gamma   120.03287204
_symmetry_Int_Tables_number   1
_chemical_formula_structural   Tb2Ho4TiAl23Ru8
_chemical_formula_sum   'Tb2 Ho4 Ti1 Al23 Ru8'
_cell_volume   646.95406415
_cell_formula_units_Z   1
loop_
 _symmetry_equiv_pos_site_id
 _symmetry_equiv_pos_as_xyz
  1  'x, y, z'
loop_
 _atom_site_type_symbol
 _atom_site_label
 _atom_site_symmetry_multiplicity
 _atom_site_fract_x
 _atom_site_fract_y
 _atom_site_fract_z
 _atom_site_occupancy
  Tb  Tb0  1  0.193884  0.387770  0.249661  1
  Tb  Tb1  1  0.806713  0.613425  0.748902  1
  Ho  Ho2  1  0.611932  0.805990  0.249629  1
  Ho  Ho3  1  0.386877  0.193400  0.748892  1
  Ho  Ho4  1  0.194056  0.805990  0.249629  1
  Ho  Ho5  1  0.806524  0.193400  0.748892  1
  Ti  Ti6  1  0.333471  0.666944  0.995115  1
  Al  Al7  1  0.666544  0.333087  0.982979  1
  Al  Al8  1  0.666545  0.333089  0.514523  1
  Al  Al9  1  0.333464  0.666929  0.483368  1
  Al  Al10  1  0.161541  0.323084  0.577490  1
  Al  Al11  1  0.838193  0.676387  0.422172  1
  Al  Al12  1  0.676857  0.838641  0.577256  1
  Al  Al13  1  0.837562  0.675123  0.078413  1
  Al  Al14  1  0.323669  0.161652  0.422441  1
  Al  Al15  1  0.158704  0.317409  0.923072  1
  Al  Al16  1  0.161782  0.838641  0.577256  1
  Al  Al17  1  0.324981  0.162339  0.078173  1
  Al  Al18  1  0.837982  0.161652  0.422441  1
  Al  Al19  1  0.682505  0.841401  0.923369  1
  Al  Al20  1  0.837359  0.162339  0.078173  1
  Al  Al21  1  0.158896  0.841401  0.923369  1
  Al  Al22  1  0.561688  0.123376  0.252591  1
  Al  Al23  1  0.440098  0.880195  0.750506  1
  Al  Al24  1  0.876302  0.438355  0.252557  1
  Al  Al25  1  0.120127  0.559843  0.750550  1
  Al  Al26  1  0.562053  0.438355  0.252557  1
  Al  Al27  1  0.439717  0.559843  0.750550  1
  Al  Al28  1  0.999826  0.999653  0.249158  1
  Al  Al29  1  0.000168  0.000337  0.748757  1
  Ru  Ru30  1  0.498314  0.996629  0.002940  1
  Ru  Ru31  1  0.003300  0.501684  0.002949  1
  Ru  Ru32  1  0.499774  0.999547  0.503472  1
  Ru  Ru33  1  0.498383  0.501684  0.002949  1
  Ru  Ru34  1  0.000513  0.500208  0.503425  1
  Ru  Ru35  1  0.499695  0.500208  0.503425  1
  Ru  Ru36  1  0.000015  0.000031  0.999831  1
  Ru  Ru37  1  0.999981  0.999961  0.498563  1
