# generated using pymatgen
data_Nd2Ho4CoI10
_symmetry_space_group_name_H-M   'P 1'
_cell_length_a   7.76330792
_cell_length_b   9.76769739
_cell_length_c   9.74816593
_cell_angle_alpha   106.88385977
_cell_angle_beta   96.31280302
_cell_angle_gamma   105.13684096
_symmetry_Int_Tables_number   1
_chemical_formula_structural   Nd2Ho4CoI10
_chemical_formula_sum   'Nd2 Ho4 Co1 I10'
_cell_volume   668.84076392
_cell_formula_units_Z   1
loop_
 _symmetry_equiv_pos_site_id
 _symmetry_equiv_pos_as_xyz
  1  'x, y, z'
loop_
 _atom_site_type_symbol
 _atom_site_label
 _atom_site_symmetry_multiplicity
 _atom_site_fract_x
 _atom_site_fract_y
 _atom_site_fract_z
 _atom_site_occupancy
  Nd  Nd0  1  0.886555  0.957858  0.231076  1
  Nd  Nd1  1  0.113445  0.042142  0.768924  1
  Ho  Ho2  1  0.029867  0.719759  0.915846  1
  Ho  Ho3  1  0.970133  0.280241  0.084154  1
  Ho  Ho4  1  0.659062  0.878175  0.838182  1
  Ho  Ho5  1  0.340938  0.121825  0.161818  1
  Co  Co6  1  0.000000  0.000000  0.000000  1
  I  I7  1  0.651502  0.552941  0.730134  1
  I  I8  1  0.348498  0.447059  0.269866  1
  I  I9  1  0.733797  0.910367  0.541646  1
  I  I10  1  0.266203  0.089633  0.458354  1
  I  I11  1  0.083687  0.377705  0.823654  1
  I  I12  1  0.916313  0.622295  0.176346  1
  I  I13  1  0.448577  0.816054  0.089541  1
  I  I14  1  0.551423  0.183946  0.910459  1
  I  I15  1  0.225576  0.739086  0.657669  1
  I  I16  1  0.774424  0.260914  0.342331  1
