# generated using pymatgen
data_Er4AlNi13
_symmetry_space_group_name_H-M   'P 1'
_cell_length_a   4.91242090
_cell_length_b   4.91242157
_cell_length_c   12.42209242
_cell_angle_alpha   78.60000992
_cell_angle_beta   78.60001862
_cell_angle_gamma   60.74225933
_symmetry_Int_Tables_number   1
_chemical_formula_structural   Er4AlNi13
_chemical_formula_sum   'Er4 Al1 Ni13'
_cell_volume   254.57136976
_cell_formula_units_Z   1
loop_
 _symmetry_equiv_pos_site_id
 _symmetry_equiv_pos_as_xyz
  1  'x, y, z'
loop_
 _atom_site_type_symbol
 _atom_site_label
 _atom_site_symmetry_multiplicity
 _atom_site_fract_x
 _atom_site_fract_y
 _atom_site_fract_z
 _atom_site_occupancy
  Er  Er0  1  0.946613  0.946613  0.160192  1
  Er  Er1  1  0.053387  0.053387  0.839808  1
  Er  Er2  1  0.852212  0.852212  0.442630  1
  Er  Er3  1  0.147788  0.147788  0.557370  1
  Al  Al4  1  0.500000  0.500000  0.000000  1
  Ni  Ni5  1  0.500000  0.500000  0.500000  1
  Ni  Ni6  1  0.723029  0.723029  0.833469  1
  Ni  Ni7  1  0.276971  0.276971  0.166531  1
  Ni  Ni8  1  0.611711  0.611711  0.166383  1
  Ni  Ni9  1  0.388289  0.388289  0.833617  1
  Ni  Ni10  1  0.000000  0.500000  0.000000  1
  Ni  Ni11  1  0.500000  0.000000  0.000000  1
  Ni  Ni12  1  0.388710  0.388710  0.331030  1
  Ni  Ni13  1  0.890580  0.389106  0.330925  1
  Ni  Ni14  1  0.389106  0.890580  0.330925  1
  Ni  Ni15  1  0.611290  0.611290  0.668970  1
  Ni  Ni16  1  0.109420  0.610894  0.669075  1
  Ni  Ni17  1  0.610894  0.109420  0.669075  1
