# generated using pymatgen
data_Dy3Lu(Al8Pt3)3
_symmetry_space_group_name_H-M   'P 1'
_cell_length_a   7.52270133
_cell_length_b   7.54546122
_cell_length_c   13.16222573
_cell_angle_alpha   84.58467578
_cell_angle_beta   79.12092367
_cell_angle_gamma   59.98058650
_symmetry_Int_Tables_number   1
_chemical_formula_structural   Dy3Lu(Al8Pt3)3
_chemical_formula_sum   'Dy3 Lu1 Al24 Pt9'
_cell_volume   635.26996727
_cell_formula_units_Z   1
loop_
 _symmetry_equiv_pos_site_id
 _symmetry_equiv_pos_as_xyz
  1  'x, y, z'
loop_
 _atom_site_type_symbol
 _atom_site_label
 _atom_site_symmetry_multiplicity
 _atom_site_fract_x
 _atom_site_fract_y
 _atom_site_fract_z
 _atom_site_occupancy
  Dy  Dy0  1  0.393603  0.168714  0.807912  1
  Dy  Dy1  1  0.606496  0.831395  0.192134  1
  Dy  Dy2  1  0.733797  0.498566  0.807805  1
  Lu  Lu3  1  0.265446  0.501345  0.193402  1
  Al  Al4  1  0.684384  0.833859  0.944487  1
  Al  Al5  1  0.315508  0.167061  0.056213  1
  Al  Al6  1  0.146515  0.832445  0.561384  1
  Al  Al7  1  0.853601  0.167507  0.438310  1
  Al  Al8  1  0.479460  0.166839  0.558499  1
  Al  Al9  1  0.520551  0.833236  0.441240  1
  Al  Al10  1  0.217440  0.165754  0.328903  1
  Al  Al11  1  0.782873  0.834592  0.670322  1
  Al  Al12  1  0.437337  0.506410  0.670498  1
  Al  Al13  1  0.562435  0.493593  0.328763  1
  Al  Al14  1  0.109510  0.159818  0.669307  1
  Al  Al15  1  0.891224  0.839768  0.329895  1
  Al  Al16  1  0.352648  0.499552  0.945165  1
  Al  Al17  1  0.645821  0.500621  0.056184  1
  Al  Al18  1  0.015683  0.167503  0.952912  1
  Al  Al19  1  0.984832  0.831657  0.047984  1
  Al  Al20  1  0.186951  0.499260  0.441170  1
  Al  Al21  1  0.813243  0.500738  0.558489  1
  Al  Al22  1  0.733322  0.164991  0.183372  1
  Al  Al23  1  0.265844  0.835859  0.816616  1
  Al  Al24  1  0.061615  0.631357  0.815506  1
  Al  Al25  1  0.939447  0.368523  0.184453  1
  Al  Al26  1  0.855669  0.041502  0.816036  1
  Al  Al27  1  0.144430  0.957360  0.183889  1
  Pt  Pt28  1  0.119913  0.491705  0.638951  1
  Pt  Pt29  1  0.880701  0.508381  0.360624  1
  Pt  Pt30  1  0.657142  0.171406  0.999945  1
  Pt  Pt31  1  0.342773  0.828670  0.000338  1
  Pt  Pt32  1  0.537490  0.167203  0.360748  1
  Pt  Pt33  1  0.462155  0.833231  0.638808  1
  Pt  Pt34  1  0.778484  0.175087  0.637239  1
  Pt  Pt35  1  0.221771  0.824394  0.362319  1
  Pt  Pt36  1  0.999887  0.500099  0.000179  1
