# generated using pymatgen
data_Er6Al19Si5Ru8
_symmetry_space_group_name_H-M   'P 1'
_cell_length_a   8.64807500
_cell_length_b   8.64807426
_cell_length_c   9.55615300
_cell_angle_alpha   90.00000000
_cell_angle_beta   90.00000000
_cell_angle_gamma   119.90254171
_symmetry_Int_Tables_number   1
_chemical_formula_structural   Er6Al19Si5Ru8
_chemical_formula_sum   'Er6 Al19 Si5 Ru8'
_cell_volume   619.55269086
_cell_formula_units_Z   1
loop_
 _symmetry_equiv_pos_site_id
 _symmetry_equiv_pos_as_xyz
  1  'x, y, z'
loop_
 _atom_site_type_symbol
 _atom_site_label
 _atom_site_symmetry_multiplicity
 _atom_site_fract_x
 _atom_site_fract_y
 _atom_site_fract_z
 _atom_site_occupancy
  Er  Er0  1  0.804978  0.195022  0.750000  1
  Er  Er1  1  0.194408  0.805592  0.250000  1
  Er  Er2  1  0.392460  0.198870  0.750000  1
  Er  Er3  1  0.609713  0.805083  0.250000  1
  Er  Er4  1  0.801130  0.607540  0.750000  1
  Er  Er5  1  0.194917  0.390287  0.250000  1
  Al  Al6  1  0.835372  0.164628  0.420426  1
  Al  Al7  1  0.165110  0.834890  0.579724  1
  Al  Al8  1  0.329837  0.165102  0.421316  1
  Al  Al9  1  0.165110  0.834890  0.920276  1
  Al  Al10  1  0.670676  0.836066  0.579649  1
  Al  Al11  1  0.835372  0.164628  0.079574  1
  Al  Al12  1  0.834898  0.670163  0.421316  1
  Al  Al13  1  0.670676  0.836066  0.920351  1
  Al  Al14  1  0.163934  0.329324  0.579649  1
  Al  Al15  1  0.329837  0.165102  0.078684  1
  Al  Al16  1  0.163934  0.329324  0.920351  1
  Al  Al17  1  0.834898  0.670163  0.078684  1
  Al  Al18  1  0.562434  0.437566  0.250000  1
  Al  Al19  1  0.126294  0.560521  0.750000  1
  Al  Al20  1  0.873598  0.437289  0.250000  1
  Al  Al21  1  0.439479  0.873706  0.750000  1
  Al  Al22  1  0.562711  0.126402  0.250000  1
  Al  Al23  1  0.000079  0.999921  0.750000  1
  Al  Al24  1  0.999684  0.000316  0.250000  1
  Si  Si25  1  0.667488  0.332512  0.962439  1
  Si  Si26  1  0.332624  0.667376  0.039589  1
  Si  Si27  1  0.332624  0.667376  0.460411  1
  Si  Si28  1  0.667488  0.332512  0.537561  1
  Si  Si29  1  0.436772  0.563228  0.750000  1
  Ru  Ru30  1  0.499230  0.500770  0.994102  1
  Ru  Ru31  1  0.001155  0.500017  0.999438  1
  Ru  Ru32  1  0.499230  0.500770  0.505898  1
  Ru  Ru33  1  0.499983  0.998845  0.999438  1
  Ru  Ru34  1  0.001155  0.500017  0.500562  1
  Ru  Ru35  1  0.499983  0.998845  0.500562  1
  Ru  Ru36  1  0.000364  0.999636  0.999960  1
  Ru  Ru37  1  0.000364  0.999636  0.500040  1
