# generated using pymatgen
data_Cu4NiMo12Pt3N4
_symmetry_space_group_name_H-M   'P 1'
_cell_length_a   6.78657702
_cell_length_b   6.78657746
_cell_length_c   6.78657730
_cell_angle_alpha   89.74479242
_cell_angle_beta   90.25520717
_cell_angle_gamma   89.74479080
_symmetry_Int_Tables_number   1
_chemical_formula_structural   Cu4NiMo12Pt3N4
_chemical_formula_sum   'Cu4 Ni1 Mo12 Pt3 N4'
_cell_volume   312.56434092
_cell_formula_units_Z   1
loop_
 _symmetry_equiv_pos_site_id
 _symmetry_equiv_pos_as_xyz
  1  'x, y, z'
loop_
 _atom_site_type_symbol
 _atom_site_label
 _atom_site_symmetry_multiplicity
 _atom_site_fract_x
 _atom_site_fract_y
 _atom_site_fract_z
 _atom_site_occupancy
  Cu  Cu0  1  0.193145  0.181441  0.174958  1
  Cu  Cu1  1  0.318559  0.825042  0.693145  1
  Cu  Cu2  1  0.431637  0.068363  0.931637  1
  Cu  Cu3  1  0.674958  0.306855  0.818559  1
  Ni  Ni4  1  0.813588  0.686412  0.313588  1
  Mo  Mo5  1  0.623261  0.700020  0.961789  1
  Mo  Mo6  1  0.461789  0.876739  0.299980  1
  Mo  Mo7  1  0.703887  0.955858  0.625856  1
  Mo  Mo8  1  0.544142  0.374144  0.203887  1
  Mo  Mo9  1  0.372405  0.198286  0.540079  1
  Mo  Mo10  1  0.193481  0.538681  0.371325  1
  Mo  Mo11  1  0.871325  0.306519  0.461319  1
  Mo  Mo12  1  0.040079  0.127595  0.801714  1
  Mo  Mo13  1  0.301714  0.459921  0.872405  1
  Mo  Mo14  1  0.125856  0.796113  0.044142  1
  Mo  Mo15  1  0.799980  0.038211  0.123261  1
  Mo  Mo16  1  0.961319  0.628675  0.693481  1
  Pt  Pt17  1  0.564434  0.567874  0.566636  1
  Pt  Pt18  1  0.066636  0.935566  0.432126  1
  Pt  Pt19  1  0.932126  0.433364  0.064434  1
  N  N20  1  0.374325  0.623722  0.128894  1
  N  N21  1  0.876278  0.871106  0.874325  1
  N  N22  1  0.126182  0.373818  0.626182  1
  N  N23  1  0.628894  0.125675  0.376278  1
