# generated using pymatgen
data_Nd2Be2Si2NiO10
_symmetry_space_group_name_H-M   'P 1'
_cell_length_a   7.69150600
_cell_length_b   4.81394784
_cell_length_c   10.17660205
_cell_angle_alpha   91.04670076
_cell_angle_beta   90.00000000
_cell_angle_gamma   90.00000000
_symmetry_Int_Tables_number   1
_chemical_formula_structural   Nd2Be2Si2NiO10
_chemical_formula_sum   'Nd4 Be4 Si4 Ni2 O20'
_cell_volume   376.74116997
_cell_formula_units_Z   2
loop_
 _symmetry_equiv_pos_site_id
 _symmetry_equiv_pos_as_xyz
  1  'x, y, z'
loop_
 _atom_site_type_symbol
 _atom_site_label
 _atom_site_symmetry_multiplicity
 _atom_site_fract_x
 _atom_site_fract_y
 _atom_site_fract_z
 _atom_site_occupancy
  Nd  Nd0  1  0.389229  0.996167  0.826255  1
  Nd  Nd1  1  0.889229  0.003833  0.673745  1
  Nd  Nd2  1  0.610771  0.003833  0.173745  1
  Nd  Nd3  1  0.110771  0.996167  0.326255  1
  Be  Be4  1  0.912978  0.464982  0.158533  1
  Be  Be5  1  0.087022  0.535018  0.841467  1
  Be  Be6  1  0.587022  0.464982  0.658533  1
  Be  Be7  1  0.412978  0.535018  0.341467  1
  Si  Si8  1  0.225537  0.481019  0.580348  1
  Si  Si9  1  0.725537  0.518981  0.919652  1
  Si  Si10  1  0.774463  0.518981  0.419652  1
  Si  Si11  1  0.274463  0.481019  0.080348  1
  Ni  Ni12  1  0.500000  0.000000  0.500000  1
  Ni  Ni13  1  0.000000  0.000000  0.000000  1
  O  O14  1  0.396560  0.306145  0.635549  1
  O  O15  1  0.896560  0.693855  0.864451  1
  O  O16  1  0.603440  0.693855  0.364451  1
  O  O17  1  0.103440  0.306145  0.135549  1
  O  O18  1  0.158350  0.681250  0.703487  1
  O  O19  1  0.658350  0.318750  0.796513  1
  O  O20  1  0.412046  0.206542  0.337959  1
  O  O21  1  0.087954  0.206542  0.837959  1
  O  O22  1  0.912046  0.793458  0.162041  1
  O  O23  1  0.587954  0.793458  0.662041  1
  O  O24  1  0.413534  0.248396  0.030518  1
  O  O25  1  0.913534  0.751604  0.469482  1
  O  O26  1  0.586466  0.751604  0.969482  1
  O  O27  1  0.086466  0.248396  0.530518  1
  O  O28  1  0.293640  0.684103  0.460855  1
  O  O29  1  0.793640  0.315897  0.039145  1
  O  O30  1  0.706360  0.315897  0.539145  1
  O  O31  1  0.206360  0.684103  0.960855  1
  O  O32  1  0.341650  0.681250  0.203487  1
  O  O33  1  0.841650  0.318750  0.296513  1
