# generated using pymatgen
data_Ti18Re2Si15P
_symmetry_space_group_name_H-M   'P 1'
_cell_length_a   6.64618101
_cell_length_b   6.65023509
_cell_length_c   12.14230554
_cell_angle_alpha   89.91978416
_cell_angle_beta   90.24123347
_cell_angle_gamma   90.04286896
_symmetry_Int_Tables_number   1
_chemical_formula_structural   Ti18Re2Si15P
_chemical_formula_sum   'Ti18 Re2 Si15 P1'
_cell_volume   536.66827789
_cell_formula_units_Z   1
loop_
 _symmetry_equiv_pos_site_id
 _symmetry_equiv_pos_as_xyz
  1  'x, y, z'
loop_
 _atom_site_type_symbol
 _atom_site_label
 _atom_site_symmetry_multiplicity
 _atom_site_fract_x
 _atom_site_fract_y
 _atom_site_fract_z
 _atom_site_occupancy
  Ti  Ti0  1  0.997448  0.149332  0.626084  1
  Ti  Ti1  1  0.347451  0.495125  0.871707  1
  Ti  Ti2  1  0.650881  0.505641  0.371040  1
  Ti  Ti3  1  0.495911  0.350039  0.129403  1
  Ti  Ti4  1  0.503436  0.649225  0.627224  1
  Ti  Ti5  1  0.004268  0.850304  0.120460  1
  Ti  Ti6  1  0.147771  0.998313  0.377068  1
  Ti  Ti7  1  0.851817  0.009126  0.877685  1
  Ti  Ti8  1  0.999582  0.339974  0.222863  1
  Ti  Ti9  1  0.155388  0.501890  0.471077  1
  Ti  Ti10  1  0.839032  0.499579  0.971646  1
  Ti  Ti11  1  0.500306  0.156645  0.528948  1
  Ti  Ti12  1  0.500563  0.839409  0.027265  1
  Ti  Ti13  1  0.000399  0.653324  0.722237  1
  Ti  Ti14  1  0.343992  0.002519  0.779371  1
  Ti  Ti15  1  0.661680  0.000386  0.277732  1
  Ti  Ti16  1  0.673144  0.328663  0.752187  1
  Ti  Ti17  1  0.829795  0.828532  0.498888  1
  Re  Re18  1  0.170796  0.172278  0.000333  1
  Re  Re19  1  0.327619  0.671362  0.247807  1
  Si  Si20  1  0.197406  0.542512  0.064447  1
  Si  Si21  1  0.801558  0.455386  0.564708  1
  Si  Si22  1  0.541191  0.197622  0.936099  1
  Si  Si23  1  0.454401  0.802111  0.434298  1
  Si  Si24  1  0.959209  0.697919  0.314313  1
  Si  Si25  1  0.302550  0.042451  0.185293  1
  Si  Si26  1  0.697513  0.955235  0.684874  1
  Si  Si27  1  0.296594  0.358191  0.671942  1
  Si  Si28  1  0.141228  0.795361  0.921974  1
  Si  Si29  1  0.857192  0.205802  0.425351  1
  Si  Si30  1  0.793526  0.141090  0.077661  1
  Si  Si31  1  0.205241  0.858389  0.576271  1
  Si  Si32  1  0.705810  0.641723  0.172316  1
  Si  Si33  1  0.358914  0.295290  0.328494  1
  Si  Si34  1  0.641596  0.706832  0.826085  1
  P  P35  1  0.044789  0.302418  0.814850  1
