# generated using pymatgen
data_Ti4V(PO4)6
_symmetry_space_group_name_H-M   'P 1'
_cell_length_a   8.64442504
_cell_length_b   8.64442426
_cell_length_c   8.64152578
_cell_angle_alpha   120.01109683
_cell_angle_beta   59.98889417
_cell_angle_gamma   120.00000097
_symmetry_Int_Tables_number   1
_chemical_formula_structural   Ti4V(PO4)6
_chemical_formula_sum   'Ti4 V1 P6 O24'
_cell_volume   456.53567626
_cell_formula_units_Z   1
loop_
 _symmetry_equiv_pos_site_id
 _symmetry_equiv_pos_as_xyz
  1  'x, y, z'
loop_
 _atom_site_type_symbol
 _atom_site_label
 _atom_site_symmetry_multiplicity
 _atom_site_fract_x
 _atom_site_fract_y
 _atom_site_fract_z
 _atom_site_occupancy
  Ti  Ti0  1  0.633416  0.366584  0.099751  1
  Ti  Ti1  1  0.852903  0.147097  0.441291  1
  Ti  Ti2  1  0.147097  0.852904  0.558709  1
  Ti  Ti3  1  0.366584  0.633416  0.900249  1
  V  V4  1  0.000000  0.000000  0.000000  1
  P  P5  1  0.544608  0.754292  0.238399  1
  P  P6  1  0.971286  0.455391  0.238399  1
  P  P7  1  0.245707  0.028714  0.238399  1
  P  P8  1  0.754292  0.971285  0.761601  1
  P  P9  1  0.028714  0.544609  0.761601  1
  P  P10  1  0.455390  0.245707  0.761601  1
  O  O11  1  0.288224  0.860420  0.063458  1
  O  O12  1  0.508739  0.711776  0.063458  1
  O  O13  1  0.139579  0.491261  0.063458  1
  O  O14  1  0.738585  0.917771  0.237042  1
  O  O15  1  0.942146  0.261416  0.237042  1
  O  O16  1  0.082229  0.057854  0.237042  1
  O  O17  1  0.551308  0.584109  0.246225  1
  O  O18  1  0.786577  0.448691  0.246225  1
  O  O19  1  0.415890  0.213423  0.246225  1
  O  O20  1  0.183179  0.987841  0.421188  1
  O  O21  1  0.383475  0.816821  0.421188  1
  O  O22  1  0.012159  0.616525  0.421188  1
  O  O23  1  0.987842  0.383475  0.578811  1
  O  O24  1  0.616525  0.183178  0.578811  1
  O  O25  1  0.816822  0.012159  0.578811  1
  O  O26  1  0.584109  0.786577  0.753776  1
  O  O27  1  0.213422  0.551308  0.753776  1
  O  O28  1  0.448691  0.415890  0.753776  1
  O  O29  1  0.917771  0.942145  0.762959  1
  O  O30  1  0.057855  0.738585  0.762959  1
  O  O31  1  0.261416  0.082229  0.762959  1
  O  O32  1  0.860420  0.508739  0.936543  1
  O  O33  1  0.491262  0.288225  0.936543  1
  O  O34  1  0.711776  0.139579  0.936543  1
