# generated using pymatgen
data_Ho4Al18Ir4PtAu
_symmetry_space_group_name_H-M   'P 1'
_cell_length_a   7.60481618
_cell_length_b   7.60481706
_cell_length_c   9.44700401
_cell_angle_alpha   89.96669314
_cell_angle_beta   89.96669504
_cell_angle_gamma   119.71474594
_symmetry_Int_Tables_number   1
_chemical_formula_structural   Ho4Al18Ir4PtAu
_chemical_formula_sum   'Ho4 Al18 Ir4 Pt1 Au1'
_cell_volume   474.50753125
_cell_formula_units_Z   1
loop_
 _symmetry_equiv_pos_site_id
 _symmetry_equiv_pos_as_xyz
  1  'x, y, z'
loop_
 _atom_site_type_symbol
 _atom_site_label
 _atom_site_symmetry_multiplicity
 _atom_site_fract_x
 _atom_site_fract_y
 _atom_site_fract_z
 _atom_site_occupancy
  Ho  Ho0  1  0.993028  0.667963  0.251646  1
  Ho  Ho1  1  0.002505  0.328997  0.748548  1
  Ho  Ho2  1  0.671003  0.997495  0.251452  1
  Ho  Ho3  1  0.332037  0.006972  0.748354  1
  Al  Al4  1  0.126262  0.124985  0.251828  1
  Al  Al5  1  0.875015  0.873738  0.748172  1
  Al  Al6  1  0.007592  0.331570  0.079339  1
  Al  Al7  1  0.004537  0.674159  0.920812  1
  Al  Al8  1  0.001733  0.665512  0.573336  1
  Al  Al9  1  0.334488  0.998267  0.426664  1
  Al  Al10  1  0.999713  0.334683  0.426234  1
  Al  Al11  1  0.665317  0.000287  0.573766  1
  Al  Al12  1  0.668430  0.992408  0.920661  1
  Al  Al13  1  0.325841  0.995463  0.079188  1
  Al  Al14  1  0.331081  0.331415  0.550111  1
  Al  Al15  1  0.668585  0.668919  0.449889  1
  Al  Al16  1  0.668945  0.672820  0.061853  1
  Al  Al17  1  0.327180  0.331055  0.938147  1
  Al  Al18  1  0.340691  0.549344  0.253978  1
  Al  Al19  1  0.659960  0.457113  0.742290  1
  Al  Al20  1  0.542887  0.340040  0.257710  1
  Al  Al21  1  0.450656  0.659309  0.746022  1
  Ir  Ir22  1  0.327971  0.672029  0.500000  1
  Ir  Ir23  1  0.672461  0.327539  0.500000  1
  Ir  Ir24  1  0.999911  0.000089  0.000000  1
  Ir  Ir25  1  0.000178  0.999822  0.500000  1
  Pt  Pt26  1  0.328142  0.671858  0.000000  1
  Au  Au27  1  0.673852  0.326148  0.000000  1
