# generated using pymatgen
data_Sc6NiRu
_symmetry_space_group_name_H-M   'P 1'
_cell_length_a   5.90349300
_cell_length_b   8.63938600
_cell_length_c   13.09976000
_cell_angle_alpha   90.00000000
_cell_angle_beta   90.00000000
_cell_angle_gamma   90.00000000
_symmetry_Int_Tables_number   1
_chemical_formula_structural   Sc6NiRu
_chemical_formula_sum   'Sc24 Ni4 Ru4'
_cell_volume   668.12122694
_cell_formula_units_Z   4
loop_
 _symmetry_equiv_pos_site_id
 _symmetry_equiv_pos_as_xyz
  1  'x, y, z'
loop_
 _atom_site_type_symbol
 _atom_site_label
 _atom_site_symmetry_multiplicity
 _atom_site_fract_x
 _atom_site_fract_y
 _atom_site_fract_z
 _atom_site_occupancy
  Sc  Sc0  1  0.538154  0.750000  0.353895  1
  Sc  Sc1  1  0.038154  0.250000  0.146105  1
  Sc  Sc2  1  0.461846  0.250000  0.646105  1
  Sc  Sc3  1  0.961846  0.750000  0.853895  1
  Sc  Sc4  1  0.790525  0.750000  0.114783  1
  Sc  Sc5  1  0.290525  0.250000  0.385217  1
  Sc  Sc6  1  0.209475  0.250000  0.885217  1
  Sc  Sc7  1  0.709475  0.750000  0.614783  1
  Sc  Sc8  1  0.404806  0.933699  0.785678  1
  Sc  Sc9  1  0.904806  0.066301  0.714322  1
  Sc  Sc10  1  0.595194  0.433699  0.214322  1
  Sc  Sc11  1  0.095194  0.566301  0.285678  1
  Sc  Sc12  1  0.595194  0.066301  0.214322  1
  Sc  Sc13  1  0.095194  0.933699  0.285678  1
  Sc  Sc14  1  0.404806  0.566301  0.785678  1
  Sc  Sc15  1  0.904806  0.433699  0.714322  1
  Sc  Sc16  1  0.250297  0.940546  0.535713  1
  Sc  Sc17  1  0.750297  0.059454  0.964287  1
  Sc  Sc18  1  0.749703  0.440546  0.464287  1
  Sc  Sc19  1  0.249703  0.559454  0.035713  1
  Sc  Sc20  1  0.749703  0.059454  0.464287  1
  Sc  Sc21  1  0.249703  0.940546  0.035713  1
  Sc  Sc22  1  0.250297  0.559454  0.535713  1
  Sc  Sc23  1  0.750297  0.440546  0.964287  1
  Ni  Ni24  1  0.369375  0.750000  0.176193  1
  Ni  Ni25  1  0.869375  0.250000  0.323807  1
  Ni  Ni26  1  0.630625  0.250000  0.823807  1
  Ni  Ni27  1  0.130625  0.750000  0.676193  1
  Ru  Ru28  1  0.942329  0.750000  0.441182  1
  Ru  Ru29  1  0.442329  0.250000  0.058818  1
  Ru  Ru30  1  0.057671  0.250000  0.558818  1
  Ru  Ru31  1  0.557671  0.750000  0.941182  1
