# generated using pymatgen
data_Dy7Tm(Si4Mo3)4
_symmetry_space_group_name_H-M   'P 1'
_cell_length_a   6.76526005
_cell_length_b   6.94687713
_cell_length_c   12.92247803
_cell_angle_alpha   89.96645179
_cell_angle_beta   89.99448921
_cell_angle_gamma   89.97608480
_symmetry_Int_Tables_number   1
_chemical_formula_structural   Dy7Tm(Si4Mo3)4
_chemical_formula_sum   'Dy7 Tm1 Si16 Mo12'
_cell_volume   607.32310019
_cell_formula_units_Z   1
loop_
 _symmetry_equiv_pos_site_id
 _symmetry_equiv_pos_as_xyz
  1  'x, y, z'
loop_
 _atom_site_type_symbol
 _atom_site_label
 _atom_site_symmetry_multiplicity
 _atom_site_fract_x
 _atom_site_fract_y
 _atom_site_fract_z
 _atom_site_occupancy
  Dy  Dy0  1  0.497302  0.332652  0.093967  1
  Dy  Dy1  1  0.997213  0.167169  0.406111  1
  Dy  Dy2  1  0.502787  0.667142  0.593893  1
  Dy  Dy3  1  0.002566  0.832815  0.906513  1
  Dy  Dy4  1  0.502626  0.667431  0.906402  1
  Dy  Dy5  1  0.002795  0.832888  0.593908  1
  Dy  Dy6  1  0.497140  0.332752  0.405673  1
  Tm  Tm7  1  0.996494  0.167729  0.094278  1
  Si  Si8  1  0.658807  0.042053  0.547440  1
  Si  Si9  1  0.158698  0.457244  0.953052  1
  Si  Si10  1  0.339413  0.959130  0.047709  1
  Si  Si11  1  0.841118  0.542134  0.452434  1
  Si  Si12  1  0.341204  0.957924  0.452313  1
  Si  Si13  1  0.841790  0.540433  0.047716  1
  Si  Si14  1  0.659372  0.042060  0.953077  1
  Si  Si15  1  0.158878  0.458012  0.547378  1
  Si  Si16  1  0.534924  0.365956  0.750251  1
  Si  Si17  1  0.034897  0.133750  0.750074  1
  Si  Si18  1  0.465351  0.634170  0.249772  1
  Si  Si19  1  0.965471  0.867224  0.249471  1
  Si  Si20  1  0.802552  0.628889  0.750234  1
  Si  Si21  1  0.302462  0.871029  0.750108  1
  Si  Si22  1  0.196625  0.369842  0.249242  1
  Si  Si23  1  0.698667  0.129216  0.249384  1
  Mo  Mo24  1  0.830571  0.334520  0.625445  1
  Mo  Mo25  1  0.330295  0.165228  0.875007  1
  Mo  Mo26  1  0.169360  0.665576  0.125309  1
  Mo  Mo27  1  0.669547  0.834836  0.374265  1
  Mo  Mo28  1  0.169340  0.665309  0.374313  1
  Mo  Mo29  1  0.670196  0.835176  0.124921  1
  Mo  Mo30  1  0.831005  0.334020  0.875223  1
  Mo  Mo31  1  0.330702  0.165442  0.625382  1
  Mo  Mo32  1  0.665704  0.999300  0.750221  1
  Mo  Mo33  1  0.165772  0.500517  0.750176  1
  Mo  Mo34  1  0.333902  0.001451  0.249608  1
  Mo  Mo35  1  0.834456  0.498980  0.249727  1
