# generated using pymatgen
data_Sr8Mn2RuN8
_symmetry_space_group_name_H-M   'P 1'
_cell_length_a   9.81405709
_cell_length_b   9.81405743
_cell_length_c   7.54911430
_cell_angle_alpha   74.67009674
_cell_angle_beta   74.67009551
_cell_angle_gamma   31.60113769
_symmetry_Int_Tables_number   1
_chemical_formula_structural   Sr8Mn2RuN8
_chemical_formula_sum   'Sr8 Mn2 Ru1 N8'
_cell_volume   366.33813760
_cell_formula_units_Z   1
loop_
 _symmetry_equiv_pos_site_id
 _symmetry_equiv_pos_as_xyz
  1  'x, y, z'
loop_
 _atom_site_type_symbol
 _atom_site_label
 _atom_site_symmetry_multiplicity
 _atom_site_fract_x
 _atom_site_fract_y
 _atom_site_fract_z
 _atom_site_occupancy
  Sr  Sr0  1  0.399568  0.399568  0.960698  1
  Sr  Sr1  1  0.330677  0.330677  0.473244  1
  Sr  Sr2  1  0.971634  0.971634  0.260029  1
  Sr  Sr3  1  0.199270  0.199270  0.195266  1
  Sr  Sr4  1  0.800730  0.800730  0.804734  1
  Sr  Sr5  1  0.028366  0.028366  0.739971  1
  Sr  Sr6  1  0.669323  0.669323  0.526756  1
  Sr  Sr7  1  0.600432  0.600432  0.039302  1
  Mn  Mn8  1  0.813940  0.813940  0.203838  1
  Mn  Mn9  1  0.186060  0.186060  0.796162  1
  Ru  Ru10  1  0.500000  0.500000  0.500000  1
  N  N11  1  0.274222  0.274222  0.831931  1
  N  N12  1  0.822503  0.822503  0.427082  1
  N  N13  1  0.105402  0.105402  0.987374  1
  N  N14  1  0.894598  0.894598  0.012626  1
  N  N15  1  0.177497  0.177497  0.572918  1
  N  N16  1  0.474019  0.474019  0.281247  1
  N  N17  1  0.725778  0.725778  0.168069  1
  N  N18  1  0.525981  0.525981  0.718753  1
