# generated using pymatgen
data_Pm4HfMn3O12
_symmetry_space_group_name_H-M   'P 1'
_cell_length_a   5.53013543
_cell_length_b   5.91814446
_cell_length_c   7.85049261
_cell_angle_alpha   91.14820927
_cell_angle_beta   89.70832889
_cell_angle_gamma   90.37210093
_symmetry_Int_Tables_number   1
_chemical_formula_structural   Pm4HfMn3O12
_chemical_formula_sum   'Pm4 Hf1 Mn3 O12'
_cell_volume   256.87185434
_cell_formula_units_Z   1
loop_
 _symmetry_equiv_pos_site_id
 _symmetry_equiv_pos_as_xyz
  1  'x, y, z'
loop_
 _atom_site_type_symbol
 _atom_site_label
 _atom_site_symmetry_multiplicity
 _atom_site_fract_x
 _atom_site_fract_y
 _atom_site_fract_z
 _atom_site_occupancy
  Pm  Pm0  1  0.982389  0.075356  0.258110  1
  Pm  Pm1  1  0.515858  0.564349  0.259824  1
  Pm  Pm2  1  0.484142  0.435651  0.740176  1
  Pm  Pm3  1  0.017611  0.924644  0.741890  1
  Hf  Hf4  1  0.500001  0.000000  0.000000  1
  Mn  Mn5  1  0.000000  0.499999  0.000000  1
  Mn  Mn6  1  0.500001  0.000000  0.500000  1
  Mn  Mn7  1  0.000000  0.499999  0.500000  1
  O  O8  1  0.681343  0.299277  0.062439  1
  O  O9  1  0.804696  0.817474  0.057722  1
  O  O10  1  0.109670  0.461417  0.262258  1
  O  O11  1  0.390002  0.960789  0.254544  1
  O  O12  1  0.708098  0.317530  0.447483  1
  O  O13  1  0.785851  0.822590  0.446568  1
  O  O14  1  0.214149  0.177410  0.553432  1
  O  O15  1  0.291902  0.682469  0.552517  1
  O  O16  1  0.609998  0.039212  0.745456  1
  O  O17  1  0.890330  0.538583  0.737742  1
  O  O18  1  0.195304  0.182526  0.942279  1
  O  O19  1  0.318657  0.700722  0.937562  1
