# generated using pymatgen
data_Nd3Co8ReP6
_symmetry_space_group_name_H-M   'P 1'
_cell_length_a   3.79650500
_cell_length_b   10.69068500
_cell_length_c   12.44460500
_cell_angle_alpha   90.00000000
_cell_angle_beta   90.00000000
_cell_angle_gamma   90.00000000
_symmetry_Int_Tables_number   1
_chemical_formula_structural   Nd3Co8ReP6
_chemical_formula_sum   'Nd6 Co16 Re2 P12'
_cell_volume   505.09215809
_cell_formula_units_Z   2
loop_
 _symmetry_equiv_pos_site_id
 _symmetry_equiv_pos_as_xyz
  1  'x, y, z'
loop_
 _atom_site_type_symbol
 _atom_site_label
 _atom_site_symmetry_multiplicity
 _atom_site_fract_x
 _atom_site_fract_y
 _atom_site_fract_z
 _atom_site_occupancy
  Nd  Nd0  1  0.000000  0.500000  0.522534  1
  Nd  Nd1  1  0.500000  0.000000  0.477466  1
  Nd  Nd2  1  0.500000  0.818244  0.205787  1
  Nd  Nd3  1  0.500000  0.181756  0.205787  1
  Nd  Nd4  1  0.000000  0.681756  0.794213  1
  Nd  Nd5  1  0.000000  0.318244  0.794213  1
  Co  Co6  1  0.500000  0.500000  0.704508  1
  Co  Co7  1  0.000000  0.000000  0.295492  1
  Co  Co8  1  0.000000  0.500000  0.989288  1
  Co  Co9  1  0.500000  0.000000  0.010712  1
  Co  Co10  1  0.500000  0.332258  0.992162  1
  Co  Co11  1  0.500000  0.667742  0.992162  1
  Co  Co12  1  0.000000  0.167742  0.007838  1
  Co  Co13  1  0.000000  0.832258  0.007838  1
  Co  Co14  1  0.500000  0.296302  0.430348  1
  Co  Co15  1  0.500000  0.703698  0.430348  1
  Co  Co16  1  0.000000  0.203698  0.569652  1
  Co  Co17  1  0.000000  0.796302  0.569652  1
  Co  Co18  1  0.500000  0.881455  0.710611  1
  Co  Co19  1  0.500000  0.118545  0.710611  1
  Co  Co20  1  0.000000  0.618545  0.289389  1
  Co  Co21  1  0.000000  0.381455  0.289389  1
  Re  Re22  1  0.500000  0.500000  0.154662  1
  Re  Re23  1  0.000000  0.000000  0.845338  1
  P  P24  1  0.500000  0.500000  0.885472  1
  P  P25  1  0.000000  0.000000  0.114528  1
  P  P26  1  0.500000  0.500000  0.343922  1
  P  P27  1  0.000000  0.000000  0.656078  1
  P  P28  1  0.500000  0.307215  0.614312  1
  P  P29  1  0.500000  0.692785  0.614312  1
  P  P30  1  0.000000  0.192785  0.385688  1
  P  P31  1  0.000000  0.807215  0.385688  1
  P  P32  1  0.500000  0.847415  0.894574  1
  P  P33  1  0.500000  0.152585  0.894574  1
  P  P34  1  0.000000  0.652585  0.105426  1
  P  P35  1  0.000000  0.347415  0.105426  1
