# generated using pymatgen
data_Y9Ho11Si15Pt
_symmetry_space_group_name_H-M   'P 1'
_cell_length_a   7.38610120
_cell_length_b   7.71168296
_cell_length_c   14.60438432
_cell_angle_alpha   90.00169009
_cell_angle_beta   89.97608045
_cell_angle_gamma   90.08596490
_symmetry_Int_Tables_number   1
_chemical_formula_structural   Y9Ho11Si15Pt
_chemical_formula_sum   'Y9 Ho11 Si15 Pt1'
_cell_volume   831.85407152
_cell_formula_units_Z   1
loop_
 _symmetry_equiv_pos_site_id
 _symmetry_equiv_pos_as_xyz
  1  'x, y, z'
loop_
 _atom_site_type_symbol
 _atom_site_label
 _atom_site_symmetry_multiplicity
 _atom_site_fract_x
 _atom_site_fract_y
 _atom_site_fract_z
 _atom_site_occupancy
  Y  Y0  1  0.186708  0.323231  0.623155  1
  Y  Y1  1  0.525258  0.681936  0.594165  1
  Y  Y2  1  0.027006  0.817796  0.904301  1
  Y  Y3  1  0.473260  0.316192  0.097608  1
  Y  Y4  1  0.973083  0.182822  0.402317  1
  Y  Y5  1  0.473317  0.316183  0.402324  1
  Y  Y6  1  0.973156  0.182823  0.097619  1
  Y  Y7  1  0.525168  0.681814  0.905850  1
  Y  Y8  1  0.027029  0.817745  0.595713  1
  Ho  Ho9  1  0.679495  0.179193  0.623044  1
  Ho  Ho10  1  0.187186  0.323436  0.876622  1
  Ho  Ho11  1  0.317847  0.820112  0.123521  1
  Ho  Ho12  1  0.817570  0.678211  0.376175  1
  Ho  Ho13  1  0.317855  0.820123  0.376458  1
  Ho  Ho14  1  0.817584  0.678160  0.123776  1
  Ho  Ho15  1  0.679400  0.179227  0.876968  1
  Ho  Ho16  1  0.843691  0.508547  0.750106  1
  Ho  Ho17  1  0.356235  0.984921  0.750113  1
  Ho  Ho18  1  0.148442  0.486437  0.249972  1
  Ho  Ho19  1  0.648746  0.012392  0.249982  1
  Si  Si20  1  0.646561  0.971467  0.458795  1
  Si  Si21  1  0.146241  0.528175  0.040470  1
  Si  Si22  1  0.351671  0.026257  0.960358  1
  Si  Si23  1  0.851887  0.472407  0.539664  1
  Si  Si24  1  0.352015  0.025846  0.539546  1
  Si  Si25  1  0.852210  0.472278  0.960216  1
  Si  Si26  1  0.646573  0.971465  0.041201  1
  Si  Si27  1  0.146085  0.528426  0.459294  1
  Si  Si28  1  0.979817  0.102258  0.750196  1
  Si  Si29  1  0.521467  0.604123  0.249999  1
  Si  Si30  1  0.021481  0.894637  0.249999  1
  Si  Si31  1  0.741206  0.875833  0.750010  1
  Si  Si32  1  0.229095  0.631368  0.750128  1
  Si  Si33  1  0.267185  0.126863  0.249999  1
  Si  Si34  1  0.766558  0.373191  0.249994  1
  Pt  Pt35  1  0.481910  0.404107  0.750343  1
