# generated using pymatgen
data_Ta2Si2IrRu
_symmetry_space_group_name_H-M   'P 1'
_cell_length_a   3.84446900
_cell_length_b   6.39209000
_cell_length_c   7.30046000
_cell_angle_alpha   90.00000000
_cell_angle_beta   90.00000000
_cell_angle_gamma   90.00000000
_symmetry_Int_Tables_number   1
_chemical_formula_structural   Ta2Si2IrRu
_chemical_formula_sum   'Ta4 Si4 Ir2 Ru2'
_cell_volume   179.40290463
_cell_formula_units_Z   2
loop_
 _symmetry_equiv_pos_site_id
 _symmetry_equiv_pos_as_xyz
  1  'x, y, z'
loop_
 _atom_site_type_symbol
 _atom_site_label
 _atom_site_symmetry_multiplicity
 _atom_site_fract_x
 _atom_site_fract_y
 _atom_site_fract_z
 _atom_site_occupancy
  Ta  Ta0  1  0.750000  0.521772  0.823238  1
  Ta  Ta1  1  0.250000  0.976655  0.323830  1
  Ta  Ta2  1  0.750000  0.021772  0.676762  1
  Ta  Ta3  1  0.250000  0.476655  0.176170  1
  Si  Si4  1  0.250000  0.227646  0.873330  1
  Si  Si5  1  0.250000  0.727646  0.626670  1
  Si  Si6  1  0.750000  0.770434  0.120114  1
  Si  Si7  1  0.750000  0.270434  0.379886  1
  Ir  Ir8  1  0.750000  0.651274  0.435919  1
  Ir  Ir9  1  0.750000  0.151274  0.064081  1
  Ru  Ru10  1  0.250000  0.852218  0.938966  1
  Ru  Ru11  1  0.250000  0.352218  0.561034  1
