# generated using pymatgen
data_La7TbNp4O24
_symmetry_space_group_name_H-M   'P 1'
_cell_length_a   5.77649122
_cell_length_b   8.11461033
_cell_length_c   12.31693900
_cell_angle_alpha   74.97565445
_cell_angle_beta   89.89224225
_cell_angle_gamma   89.74568874
_symmetry_Int_Tables_number   1
_chemical_formula_structural   La7TbNp4O24
_chemical_formula_sum   'La7 Tb1 Np4 O24'
_cell_volume   557.60218267
_cell_formula_units_Z   1
loop_
 _symmetry_equiv_pos_site_id
 _symmetry_equiv_pos_as_xyz
  1  'x, y, z'
loop_
 _atom_site_type_symbol
 _atom_site_label
 _atom_site_symmetry_multiplicity
 _atom_site_fract_x
 _atom_site_fract_y
 _atom_site_fract_z
 _atom_site_occupancy
  La  La0  1  0.743593  0.001171  0.746334  1
  La  La1  1  0.256256  0.001753  0.253979  1
  La  La2  1  0.189529  0.793873  0.577613  1
  La  La3  1  0.804522  0.794712  0.077452  1
  La  La4  1  0.695415  0.498552  0.748543  1
  La  La5  1  0.307670  0.497935  0.254425  1
  La  La6  1  0.197811  0.204932  0.922398  1
  Tb  Tb7  1  0.811688  0.211614  0.419766  1
  Np  Np8  1  0.252585  0.723688  0.885285  1
  Np  Np9  1  0.746889  0.723153  0.385801  1
  Np  Np10  1  0.253392  0.276586  0.610209  1
  Np  Np11  1  0.749619  0.275172  0.118371  1
  O  O12  1  0.046969  0.938763  0.894085  1
  O  O13  1  0.534371  0.851429  0.930176  1
  O  O14  1  0.938309  0.945800  0.397004  1
  O  O15  1  0.441283  0.795485  0.732381  1
  O  O16  1  0.454875  0.838936  0.430805  1
  O  O17  1  0.972752  0.710441  0.769818  1
  O  O18  1  0.556641  0.792614  0.233751  1
  O  O19  1  0.863920  0.635104  0.547296  1
  O  O20  1  0.384117  0.491840  0.883586  1
  O  O21  1  0.028314  0.714047  0.272844  1
  O  O22  1  0.382383  0.506187  0.612524  1
  O  O23  1  0.867783  0.361714  0.956299  1
  O  O24  1  0.133387  0.635230  0.045913  1
  O  O25  1  0.629602  0.486089  0.383965  1
  O  O26  1  0.976498  0.288552  0.728072  1
  O  O27  1  0.617149  0.506522  0.117067  1
  O  O28  1  0.122753  0.365528  0.450741  1
  O  O29  1  0.444478  0.204628  0.763164  1
  O  O30  1  0.026716  0.287782  0.235706  1
  O  O31  1  0.542780  0.156990  0.559761  1
  O  O32  1  0.563421  0.204360  0.273675  1
  O  O33  1  0.046935  0.065124  0.599905  1
  O  O34  1  0.463088  0.152631  0.073245  1
  O  O35  1  0.952514  0.061064  0.108049  1
