# generated using pymatgen
data_HoU3Ta2(NbN4)2
_symmetry_space_group_name_H-M   'P 1'
_cell_length_a   3.26087900
_cell_length_b   5.67164870
_cell_length_c   10.94953891
_cell_angle_alpha   90.07815876
_cell_angle_beta   90.00000000
_cell_angle_gamma   90.00000000
_symmetry_Int_Tables_number   1
_chemical_formula_structural   HoU3Ta2(NbN4)2
_chemical_formula_sum   'Ho1 U3 Ta2 Nb2 N8'
_cell_volume   202.50671734
_cell_formula_units_Z   1
loop_
 _symmetry_equiv_pos_site_id
 _symmetry_equiv_pos_as_xyz
  1  'x, y, z'
loop_
 _atom_site_type_symbol
 _atom_site_label
 _atom_site_symmetry_multiplicity
 _atom_site_fract_x
 _atom_site_fract_y
 _atom_site_fract_z
 _atom_site_occupancy
  Ho  Ho0  1  0.250000  0.579428  0.855959  1
  U  U1  1  0.750000  0.424840  0.139701  1
  U  U2  1  0.750000  0.923816  0.356741  1
  U  U3  1  0.250000  0.080573  0.643945  1
  Ta  Ta4  1  0.750000  0.073669  0.901009  1
  Ta  Ta5  1  0.750000  0.577027  0.602987  1
  Nb  Nb6  1  0.250000  0.921485  0.100297  1
  Nb  Nb7  1  0.250000  0.423818  0.399528  1
  N  N8  1  0.250000  0.659498  0.245497  1
  N  N9  1  0.750000  0.332867  0.753215  1
  N  N10  1  0.750000  0.842143  0.743485  1
  N  N11  1  0.250000  0.159918  0.254939  1
  N  N12  1  0.250000  0.762568  0.507805  1
  N  N13  1  0.750000  0.238014  0.498148  1
  N  N14  1  0.750000  0.736371  0.001938  1
  N  N15  1  0.250000  0.263961  0.994807  1
