# generated using pymatgen
data_La4Si7
_symmetry_space_group_name_H-M   'P 1'
_cell_length_a   8.17505393
_cell_length_b   8.17505285
_cell_length_c   8.70439700
_cell_angle_alpha   90.00000000
_cell_angle_beta   90.00000000
_cell_angle_gamma   120.08405190
_symmetry_Int_Tables_number   1
_chemical_formula_structural   La4Si7
_chemical_formula_sum   'La8 Si14'
_cell_volume   503.36389639
_cell_formula_units_Z   2
loop_
 _symmetry_equiv_pos_site_id
 _symmetry_equiv_pos_as_xyz
  1  'x, y, z'
loop_
 _atom_site_type_symbol
 _atom_site_label
 _atom_site_symmetry_multiplicity
 _atom_site_fract_x
 _atom_site_fract_y
 _atom_site_fract_z
 _atom_site_occupancy
  La  La0  1  0.253279  0.253279  0.000000  1
  La  La1  1  0.746721  0.746721  0.000000  1
  La  La2  1  0.746721  0.746721  0.500000  1
  La  La3  1  0.253279  0.253279  0.500000  1
  La  La4  1  0.251192  0.748808  0.496845  1
  La  La5  1  0.748808  0.251192  0.503155  1
  La  La6  1  0.748808  0.251192  0.996845  1
  La  La7  1  0.251192  0.748808  0.003155  1
  Si  Si8  1  0.073455  0.397891  0.250000  1
  Si  Si9  1  0.926545  0.602109  0.750000  1
  Si  Si10  1  0.583353  0.416647  0.250000  1
  Si  Si11  1  0.416647  0.583353  0.750000  1
  Si  Si12  1  0.412845  0.587155  0.250000  1
  Si  Si13  1  0.587155  0.412845  0.750000  1
  Si  Si14  1  0.073066  0.926934  0.250000  1
  Si  Si15  1  0.926934  0.073066  0.750000  1
  Si  Si16  1  0.602109  0.926545  0.250000  1
  Si  Si17  1  0.397891  0.073455  0.750000  1
  Si  Si18  1  0.924886  0.585913  0.250000  1
  Si  Si19  1  0.075114  0.414087  0.750000  1
  Si  Si20  1  0.414087  0.075114  0.250000  1
  Si  Si21  1  0.585913  0.924886  0.750000  1
