# generated using pymatgen
data_Th11Np(GePd)12
_symmetry_space_group_name_H-M   'P 1'
_cell_length_a   4.43069900
_cell_length_b   7.65318380
_cell_length_c   23.15479300
_cell_angle_alpha   89.93584792
_cell_angle_beta   90.00000000
_cell_angle_gamma   90.00000000
_symmetry_Int_Tables_number   1
_chemical_formula_structural   Th11Np(GePd)12
_chemical_formula_sum   'Th11 Np1 Ge12 Pd12'
_cell_volume   785.15431386
_cell_formula_units_Z   1
loop_
 _symmetry_equiv_pos_site_id
 _symmetry_equiv_pos_as_xyz
  1  'x, y, z'
loop_
 _atom_site_type_symbol
 _atom_site_label
 _atom_site_symmetry_multiplicity
 _atom_site_fract_x
 _atom_site_fract_y
 _atom_site_fract_z
 _atom_site_occupancy
  Th  Th0  1  0.250000  0.750289  0.335824  1
  Th  Th1  1  0.750000  0.248928  0.664920  1
  Th  Th2  1  0.750000  0.251260  0.167077  1
  Th  Th3  1  0.250000  0.748803  0.832822  1
  Th  Th4  1  0.250000  0.750825  0.166944  1
  Th  Th5  1  0.750000  0.250408  0.832673  1
  Th  Th6  1  0.750000  0.250399  0.335004  1
  Th  Th7  1  0.250000  0.749366  0.664251  1
  Th  Th8  1  0.250000  0.751174  0.999829  1
  Th  Th9  1  0.750000  0.249972  0.999907  1
  Th  Th10  1  0.750000  0.249050  0.499953  1
  Np  Np11  1  0.250000  0.749331  0.500093  1
  Ge  Ge12  1  0.250000  0.084502  0.079770  1
  Ge  Ge13  1  0.750000  0.916750  0.920522  1
  Ge  Ge14  1  0.750000  0.585984  0.419137  1
  Ge  Ge15  1  0.250000  0.417258  0.583218  1
  Ge  Ge16  1  0.250000  0.084536  0.249149  1
  Ge  Ge17  1  0.750000  0.915442  0.752499  1
  Ge  Ge18  1  0.750000  0.584731  0.248728  1
  Ge  Ge19  1  0.250000  0.415609  0.751335  1
  Ge  Ge20  1  0.250000  0.081536  0.418319  1
  Ge  Ge21  1  0.750000  0.913115  0.582796  1
  Ge  Ge22  1  0.750000  0.584358  0.079475  1
  Ge  Ge23  1  0.250000  0.416309  0.920719  1
  Pd  Pd24  1  0.250000  0.418002  0.253390  1
  Pd  Pd25  1  0.750000  0.582229  0.746343  1
  Pd  Pd26  1  0.750000  0.917998  0.252800  1
  Pd  Pd27  1  0.250000  0.082060  0.746309  1
  Pd  Pd28  1  0.250000  0.417049  0.420347  1
  Pd  Pd29  1  0.750000  0.581806  0.577754  1
  Pd  Pd30  1  0.750000  0.917889  0.086671  1
  Pd  Pd31  1  0.250000  0.082823  0.912730  1
  Pd  Pd32  1  0.250000  0.418176  0.086577  1
  Pd  Pd33  1  0.750000  0.583034  0.913591  1
  Pd  Pd34  1  0.750000  0.917210  0.420367  1
  Pd  Pd35  1  0.250000  0.081794  0.578154  1
