# generated using pymatgen
data_Er5TcOsC7
_symmetry_space_group_name_H-M   'P 1'
_cell_length_a   8.17943613
_cell_length_b   8.17943609
_cell_length_c   3.44657700
_cell_angle_alpha   90.00000000
_cell_angle_beta   90.00000000
_cell_angle_gamma   122.01742111
_symmetry_Int_Tables_number   1
_chemical_formula_structural   Er5TcOsC7
_chemical_formula_sum   'Er5 Tc1 Os1 C7'
_cell_volume   195.51165679
_cell_formula_units_Z   1
loop_
 _symmetry_equiv_pos_site_id
 _symmetry_equiv_pos_as_xyz
  1  'x, y, z'
loop_
 _atom_site_type_symbol
 _atom_site_label
 _atom_site_symmetry_multiplicity
 _atom_site_fract_x
 _atom_site_fract_y
 _atom_site_fract_z
 _atom_site_occupancy
  Er  Er0  1  0.500430  0.499570  0.000000  1
  Er  Er1  1  0.076676  0.337718  0.500000  1
  Er  Er2  1  0.922232  0.662313  0.500000  1
  Er  Er3  1  0.662282  0.923324  0.500000  1
  Er  Er4  1  0.337687  0.077768  0.500000  1
  Tc  Tc5  1  0.285245  0.714755  0.000000  1
  Os  Os6  1  0.713465  0.286535  0.000000  1
  C  C7  1  0.629672  0.370328  0.500000  1
  C  C8  1  0.375379  0.624621  0.500000  1
  C  C9  1  0.999651  0.000349  0.000000  1
  C  C10  1  0.170890  0.171504  0.000000  1
  C  C11  1  0.828496  0.829110  0.000000  1
  C  C12  1  0.998153  0.500257  0.000000  1
  C  C13  1  0.499743  0.001847  0.000000  1
