# generated using pymatgen
data_Tm12Fe2OsPd2
_symmetry_space_group_name_H-M   'P 1'
_cell_length_a   8.11770303
_cell_length_b   8.11770404
_cell_length_c   8.11770300
_cell_angle_alpha   109.12726481
_cell_angle_beta   109.12725982
_cell_angle_gamma   110.16134709
_symmetry_Int_Tables_number   1
_chemical_formula_structural   Tm12Fe2OsPd2
_chemical_formula_sum   'Tm12 Fe2 Os1 Pd2'
_cell_volume   411.74688986
_cell_formula_units_Z   1
loop_
 _symmetry_equiv_pos_site_id
 _symmetry_equiv_pos_as_xyz
  1  'x, y, z'
loop_
 _atom_site_type_symbol
 _atom_site_label
 _atom_site_symmetry_multiplicity
 _atom_site_fract_x
 _atom_site_fract_y
 _atom_site_fract_z
 _atom_site_occupancy
  Tm  Tm0  1  0.186956  0.435712  0.248755  1
  Tm  Tm1  1  0.813044  0.564288  0.751245  1
  Tm  Tm2  1  0.186956  0.938202  0.751245  1
  Tm  Tm3  1  0.938202  0.186956  0.751245  1
  Tm  Tm4  1  0.813044  0.061798  0.248755  1
  Tm  Tm5  1  0.061798  0.813044  0.248755  1
  Tm  Tm6  1  0.435712  0.186956  0.248755  1
  Tm  Tm7  1  0.564288  0.813044  0.751245  1
  Tm  Tm8  1  0.311325  0.311325  0.622647  1
  Tm  Tm9  1  0.688675  0.688675  0.377353  1
  Tm  Tm10  1  0.688675  0.311325  0.000000  1
  Tm  Tm11  1  0.311325  0.688675  0.000000  1
  Fe  Fe12  1  0.380432  0.380432  0.000000  1
  Fe  Fe13  1  0.619568  0.619568  0.000000  1
  Os  Os14  1  0.000000  0.000000  0.000000  1
  Pd  Pd15  1  0.000000  0.500000  0.500000  1
  Pd  Pd16  1  0.500000  0.000000  0.500000  1
