# generated using pymatgen
data_TbHo(OsO4)2
_symmetry_space_group_name_H-M   'P 1'
_cell_length_a   5.36557761
_cell_length_b   7.72616737
_cell_length_c   7.44087874
_cell_angle_alpha   79.47856391
_cell_angle_beta   91.26121125
_cell_angle_gamma   94.24354246
_symmetry_Int_Tables_number   1
_chemical_formula_structural   TbHo(OsO4)2
_chemical_formula_sum   'Tb2 Ho2 Os4 O16'
_cell_volume   302.43513474
_cell_formula_units_Z   2
loop_
 _symmetry_equiv_pos_site_id
 _symmetry_equiv_pos_as_xyz
  1  'x, y, z'
loop_
 _atom_site_type_symbol
 _atom_site_label
 _atom_site_symmetry_multiplicity
 _atom_site_fract_x
 _atom_site_fract_y
 _atom_site_fract_z
 _atom_site_occupancy
  Tb  Tb0  1  0.261422  0.113693  0.612804  1
  Tb  Tb1  1  0.738578  0.886307  0.387196  1
  Ho  Ho2  1  0.193357  0.169722  0.102013  1
  Ho  Ho3  1  0.806643  0.830278  0.897987  1
  Os  Os4  1  0.246229  0.661862  0.206731  1
  Os  Os5  1  0.753771  0.338138  0.793269  1
  Os  Os6  1  0.715391  0.335858  0.299742  1
  Os  Os7  1  0.284609  0.664142  0.700258  1
  O  O8  1  0.049316  0.471874  0.714319  1
  O  O9  1  0.950685  0.528126  0.285681  1
  O  O10  1  0.615585  0.327467  0.549840  1
  O  O11  1  0.384415  0.672533  0.450160  1
  O  O12  1  0.849050  0.321056  0.054159  1
  O  O13  1  0.150950  0.678944  0.945841  1
  O  O14  1  0.410505  0.441357  0.196201  1
  O  O15  1  0.589495  0.558643  0.803799  1
  O  O16  1  0.051851  0.886601  0.176023  1
  O  O17  1  0.948149  0.113399  0.823977  1
  O  O18  1  0.490483  0.111362  0.320251  1
  O  O19  1  0.509517  0.888638  0.679749  1
  O  O20  1  0.450695  0.199842  0.871445  1
  O  O21  1  0.549305  0.800158  0.128555  1
  O  O22  1  0.977457  0.163577  0.381160  1
  O  O23  1  0.022543  0.836423  0.618840  1
