# generated using pymatgen
data_Ba2Sr3(AlSb3)2
_symmetry_space_group_name_H-M   'P 1'
_cell_length_a   4.73907500
_cell_length_b   13.05299900
_cell_length_c   14.81364500
_cell_angle_alpha   90.00000000
_cell_angle_beta   90.00000000
_cell_angle_gamma   90.00000000
_symmetry_Int_Tables_number   1
_chemical_formula_structural   Ba2Sr3(AlSb3)2
_chemical_formula_sum   'Ba4 Sr6 Al4 Sb12'
_cell_volume   916.35935827
_cell_formula_units_Z   2
loop_
 _symmetry_equiv_pos_site_id
 _symmetry_equiv_pos_as_xyz
  1  'x, y, z'
loop_
 _atom_site_type_symbol
 _atom_site_label
 _atom_site_symmetry_multiplicity
 _atom_site_fract_x
 _atom_site_fract_y
 _atom_site_fract_z
 _atom_site_occupancy
  Ba  Ba0  1  0.500000  0.675118  0.478589  1
  Ba  Ba1  1  0.500000  0.324882  0.521411  1
  Ba  Ba2  1  0.500000  0.824882  0.978589  1
  Ba  Ba3  1  0.500000  0.175118  0.021411  1
  Sr  Sr4  1  0.500000  0.000000  0.500000  1
  Sr  Sr5  1  0.500000  0.500000  0.000000  1
  Sr  Sr6  1  0.500000  0.911765  0.245415  1
  Sr  Sr7  1  0.500000  0.088235  0.754585  1
  Sr  Sr8  1  0.500000  0.411765  0.254585  1
  Sr  Sr9  1  0.500000  0.588235  0.745415  1
  Al  Al10  1  0.000000  0.320393  0.710348  1
  Al  Al11  1  0.000000  0.679607  0.289652  1
  Al  Al12  1  0.000000  0.820393  0.789652  1
  Al  Al13  1  0.000000  0.179607  0.210348  1
  Sb  Sb14  1  0.000000  0.991616  0.098284  1
  Sb  Sb15  1  0.000000  0.008384  0.901716  1
  Sb  Sb16  1  0.000000  0.491616  0.401716  1
  Sb  Sb17  1  0.000000  0.508384  0.598284  1
  Sb  Sb18  1  0.500000  0.160821  0.310123  1
  Sb  Sb19  1  0.500000  0.839179  0.689877  1
  Sb  Sb20  1  0.500000  0.660821  0.189877  1
  Sb  Sb21  1  0.500000  0.339179  0.810123  1
  Sb  Sb22  1  0.000000  0.351843  0.104419  1
  Sb  Sb23  1  0.000000  0.648157  0.895581  1
  Sb  Sb24  1  0.000000  0.851843  0.395581  1
  Sb  Sb25  1  0.000000  0.148157  0.604419  1
