# generated using pymatgen
data_Ca3Al12Ir3Os
_symmetry_space_group_name_H-M   'P 1'
_cell_length_a   8.86559400
_cell_length_b   8.86559433
_cell_length_c   9.60980700
_cell_angle_alpha   90.00000000
_cell_angle_beta   90.00000000
_cell_angle_gamma   119.99999878
_symmetry_Int_Tables_number   1
_chemical_formula_structural   Ca3Al12Ir3Os
_chemical_formula_sum   'Ca6 Al24 Ir6 Os2'
_cell_volume   654.12537439
_cell_formula_units_Z   2
loop_
 _symmetry_equiv_pos_site_id
 _symmetry_equiv_pos_as_xyz
  1  'x, y, z'
loop_
 _atom_site_type_symbol
 _atom_site_label
 _atom_site_symmetry_multiplicity
 _atom_site_fract_x
 _atom_site_fract_y
 _atom_site_fract_z
 _atom_site_occupancy
  Ca  Ca0  1  0.192174  0.384348  0.250000  1
  Ca  Ca1  1  0.807826  0.615652  0.750000  1
  Ca  Ca2  1  0.615652  0.807826  0.250000  1
  Ca  Ca3  1  0.384348  0.192174  0.750000  1
  Ca  Ca4  1  0.192174  0.807826  0.250000  1
  Ca  Ca5  1  0.807826  0.192174  0.750000  1
  Al  Al6  1  0.333333  0.666667  0.007739  1
  Al  Al7  1  0.666667  0.333333  0.992261  1
  Al  Al8  1  0.666667  0.333333  0.507739  1
  Al  Al9  1  0.333333  0.666667  0.492261  1
  Al  Al10  1  0.162128  0.324255  0.577725  1
  Al  Al11  1  0.837872  0.675745  0.422275  1
  Al  Al12  1  0.675745  0.837872  0.577725  1
  Al  Al13  1  0.837872  0.675745  0.077725  1
  Al  Al14  1  0.324255  0.162128  0.422275  1
  Al  Al15  1  0.162128  0.324255  0.922275  1
  Al  Al16  1  0.162128  0.837872  0.577725  1
  Al  Al17  1  0.324255  0.162128  0.077725  1
  Al  Al18  1  0.837872  0.162128  0.422275  1
  Al  Al19  1  0.675745  0.837872  0.922275  1
  Al  Al20  1  0.837872  0.162128  0.077725  1
  Al  Al21  1  0.162128  0.837872  0.922275  1
  Al  Al22  1  0.562498  0.124996  0.250000  1
  Al  Al23  1  0.437502  0.875004  0.750000  1
  Al  Al24  1  0.875004  0.437502  0.250000  1
  Al  Al25  1  0.124996  0.562498  0.750000  1
  Al  Al26  1  0.562498  0.437502  0.250000  1
  Al  Al27  1  0.437502  0.562498  0.750000  1
  Al  Al28  1  0.000000  0.000000  0.250000  1
  Al  Al29  1  0.000000  0.000000  0.750000  1
  Ir  Ir30  1  0.500000  0.000000  0.000000  1
  Ir  Ir31  1  0.000000  0.500000  0.000000  1
  Ir  Ir32  1  0.500000  0.000000  0.500000  1
  Ir  Ir33  1  0.500000  0.500000  0.000000  1
  Ir  Ir34  1  0.000000  0.500000  0.500000  1
  Ir  Ir35  1  0.500000  0.500000  0.500000  1
  Os  Os36  1  0.000000  0.000000  0.000000  1
  Os  Os37  1  0.000000  0.000000  0.500000  1
