# generated using pymatgen
data_Lu3Zn3C
_symmetry_space_group_name_H-M   'P 1'
_cell_length_a   8.97133970
_cell_length_b   8.97133971
_cell_length_c   8.97134100
_cell_angle_alpha   59.99999892
_cell_angle_beta   59.99999890
_cell_angle_gamma   59.99999716
_symmetry_Int_Tables_number   1
_chemical_formula_structural   Lu3Zn3C
_chemical_formula_sum   'Lu12 Zn12 C4'
_cell_volume   510.57195226
_cell_formula_units_Z   4
loop_
 _symmetry_equiv_pos_site_id
 _symmetry_equiv_pos_as_xyz
  1  'x, y, z'
loop_
 _atom_site_type_symbol
 _atom_site_label
 _atom_site_symmetry_multiplicity
 _atom_site_fract_x
 _atom_site_fract_y
 _atom_site_fract_z
 _atom_site_occupancy
  Lu  Lu0  1  0.445632  0.445632  0.054368  1
  Lu  Lu1  1  0.054368  0.445632  0.054368  1
  Lu  Lu2  1  0.445632  0.054368  0.054368  1
  Lu  Lu3  1  0.054368  0.054368  0.445632  1
  Lu  Lu4  1  0.445632  0.054368  0.445632  1
  Lu  Lu5  1  0.054368  0.445632  0.445632  1
  Lu  Lu6  1  0.804368  0.804368  0.195632  1
  Lu  Lu7  1  0.195632  0.804368  0.195632  1
  Lu  Lu8  1  0.804368  0.195632  0.195632  1
  Lu  Lu9  1  0.195632  0.195632  0.804368  1
  Lu  Lu10  1  0.804368  0.195632  0.804368  1
  Lu  Lu11  1  0.195632  0.804368  0.804368  1
  Zn  Zn12  1  0.828111  0.828111  0.515668  1
  Zn  Zn13  1  0.828111  0.515668  0.828111  1
  Zn  Zn14  1  0.515668  0.828111  0.828111  1
  Zn  Zn15  1  0.828111  0.828111  0.828111  1
  Zn  Zn16  1  0.421889  0.421889  0.734332  1
  Zn  Zn17  1  0.421889  0.734332  0.421889  1
  Zn  Zn18  1  0.734332  0.421889  0.421889  1
  Zn  Zn19  1  0.421889  0.421889  0.421889  1
  Zn  Zn20  1  0.625000  0.625000  0.125000  1
  Zn  Zn21  1  0.625000  0.125000  0.625000  1
  Zn  Zn22  1  0.125000  0.625000  0.625000  1
  Zn  Zn23  1  0.625000  0.625000  0.625000  1
  C  C24  1  0.125000  0.125000  0.625000  1
  C  C25  1  0.125000  0.625000  0.125000  1
  C  C26  1  0.625000  0.125000  0.125000  1
  C  C27  1  0.125000  0.125000  0.125000  1
