# generated using pymatgen
data_Sc8Ta12Si15P
_symmetry_space_group_name_H-M   'P 1'
_cell_length_a   6.69712518
_cell_length_b   6.88263909
_cell_length_c   13.07776463
_cell_angle_alpha   90.08918774
_cell_angle_beta   90.19591763
_cell_angle_gamma   90.22014817
_symmetry_Int_Tables_number   1
_chemical_formula_structural   Sc8Ta12Si15P
_chemical_formula_sum   'Sc8 Ta12 Si15 P1'
_cell_volume   602.79640002
_cell_formula_units_Z   1
loop_
 _symmetry_equiv_pos_site_id
 _symmetry_equiv_pos_as_xyz
  1  'x, y, z'
loop_
 _atom_site_type_symbol
 _atom_site_label
 _atom_site_symmetry_multiplicity
 _atom_site_fract_x
 _atom_site_fract_y
 _atom_site_fract_z
 _atom_site_occupancy
  Sc  Sc0  1  0.499272  0.676836  0.594243  1
  Sc  Sc1  1  0.000109  0.826865  0.904677  1
  Sc  Sc2  1  0.499725  0.326043  0.094702  1
  Sc  Sc3  1  0.000564  0.173431  0.404395  1
  Sc  Sc4  1  0.501562  0.322801  0.405274  1
  Sc  Sc5  1  0.000555  0.172876  0.094984  1
  Sc  Sc6  1  0.500385  0.673949  0.905317  1
  Sc  Sc7  1  0.997830  0.825376  0.596003  1
  Ta  Ta8  1  0.660981  0.168884  0.622337  1
  Ta  Ta9  1  0.162589  0.325572  0.874986  1
  Ta  Ta10  1  0.338476  0.826478  0.125238  1
  Ta  Ta11  1  0.836949  0.676283  0.376488  1
  Ta  Ta12  1  0.343188  0.828454  0.377020  1
  Ta  Ta13  1  0.837696  0.674819  0.125151  1
  Ta  Ta14  1  0.660972  0.173679  0.874742  1
  Ta  Ta15  1  0.159722  0.327036  0.624522  1
  Ta  Ta16  1  0.837734  0.493240  0.749422  1
  Ta  Ta17  1  0.336313  0.005644  0.749364  1
  Ta  Ta18  1  0.162494  0.506767  0.250810  1
  Ta  Ta19  1  0.664565  0.994575  0.251109  1
  Si  Si20  1  0.169441  0.532103  0.039617  1
  Si  Si21  1  0.329828  0.031757  0.960094  1
  Si  Si22  1  0.828572  0.467513  0.539780  1
  Si  Si23  1  0.320818  0.034261  0.540848  1
  Si  Si24  1  0.830768  0.468552  0.960039  1
  Si  Si25  1  0.669691  0.968662  0.040386  1
  Si  Si26  1  0.171176  0.533020  0.460204  1
  Si  Si27  1  0.459607  0.386014  0.748928  1
  Si  Si28  1  0.957343  0.112819  0.749604  1
  Si  Si29  1  0.540565  0.612444  0.250333  1
  Si  Si30  1  0.043449  0.885864  0.250831  1
  Si  Si31  1  0.703616  0.860657  0.750325  1
  Si  Si32  1  0.205436  0.637871  0.750502  1
  Si  Si33  1  0.296358  0.139293  0.249689  1
  Si  Si34  1  0.796208  0.362983  0.249686  1
  P  P35  1  0.675447  0.966577  0.458350  1
