# generated using pymatgen
data_Tb2Yb4CuNi13B4
_symmetry_space_group_name_H-M   'P 1'
_cell_length_a   5.03608200
_cell_length_b   5.03608118
_cell_length_c   14.15972200
_cell_angle_alpha   90.00000000
_cell_angle_beta   90.00000000
_cell_angle_gamma   120.00000539
_symmetry_Int_Tables_number   1
_chemical_formula_structural   Tb2Yb4CuNi13B4
_chemical_formula_sum   'Tb2 Yb4 Cu1 Ni13 B4'
_cell_volume   311.00749123
_cell_formula_units_Z   1
loop_
 _symmetry_equiv_pos_site_id
 _symmetry_equiv_pos_as_xyz
  1  'x, y, z'
loop_
 _atom_site_type_symbol
 _atom_site_label
 _atom_site_symmetry_multiplicity
 _atom_site_fract_x
 _atom_site_fract_y
 _atom_site_fract_z
 _atom_site_occupancy
  Tb  Tb0  1  0.666667  0.333333  0.536880  1
  Tb  Tb1  1  0.333333  0.666667  0.463120  1
  Yb  Yb2  1  0.333333  0.666667  0.033586  1
  Yb  Yb3  1  0.666667  0.333333  0.754845  1
  Yb  Yb4  1  0.666667  0.333333  0.966414  1
  Yb  Yb5  1  0.333333  0.666667  0.245155  1
  Cu  Cu6  1  0.000000  0.000000  0.000000  1
  Ni  Ni7  1  0.165569  0.331138  0.650958  1
  Ni  Ni8  1  0.331138  0.165569  0.349042  1
  Ni  Ni9  1  0.331976  0.165988  0.150552  1
  Ni  Ni10  1  0.165988  0.834012  0.849448  1
  Ni  Ni11  1  0.834431  0.668862  0.349042  1
  Ni  Ni12  1  0.834012  0.165988  0.150552  1
  Ni  Ni13  1  0.668862  0.834431  0.650958  1
  Ni  Ni14  1  0.668024  0.834012  0.849448  1
  Ni  Ni15  1  0.165569  0.834431  0.650958  1
  Ni  Ni16  1  0.834012  0.668024  0.150552  1
  Ni  Ni17  1  0.165988  0.331976  0.849448  1
  Ni  Ni18  1  0.834431  0.165569  0.349042  1
  Ni  Ni19  1  0.000000  0.000000  0.500000  1
  B  B20  1  0.666667  0.333333  0.249390  1
  B  B21  1  0.000000  0.000000  0.750796  1
  B  B22  1  0.333333  0.666667  0.750610  1
  B  B23  1  0.000000  0.000000  0.249204  1
