# generated using pymatgen
data_Hf7Zr9(NbSi4)4
_symmetry_space_group_name_H-M   'P 1'
_cell_length_a   7.04299313
_cell_length_b   7.04213149
_cell_length_c   12.88836313
_cell_angle_alpha   89.95739022
_cell_angle_beta   90.02209335
_cell_angle_gamma   89.99678240
_symmetry_Int_Tables_number   1
_chemical_formula_structural   Hf7Zr9(NbSi4)4
_chemical_formula_sum   'Hf7 Zr9 Nb4 Si16'
_cell_volume   639.23273301
_cell_formula_units_Z   1
loop_
 _symmetry_equiv_pos_site_id
 _symmetry_equiv_pos_as_xyz
  1  'x, y, z'
loop_
 _atom_site_type_symbol
 _atom_site_label
 _atom_site_symmetry_multiplicity
 _atom_site_fract_x
 _atom_site_fract_y
 _atom_site_fract_z
 _atom_site_occupancy
  Hf  Hf0  1  0.503614  0.645526  0.626154  1
  Hf  Hf1  1  0.854515  0.003280  0.875997  1
  Hf  Hf2  1  0.145274  0.996396  0.376351  1
  Hf  Hf3  1  0.645478  0.503849  0.374099  1
  Hf  Hf4  1  0.354202  0.496550  0.873612  1
  Hf  Hf5  1  0.003613  0.854558  0.123864  1
  Hf  Hf6  1  0.996424  0.145475  0.623814  1
  Zr  Zr7  1  0.497853  0.153123  0.532006  1
  Zr  Zr8  1  0.502116  0.847439  0.032061  1
  Zr  Zr9  1  0.653408  0.001829  0.282256  1
  Zr  Zr10  1  0.346719  0.997749  0.781961  1
  Zr  Zr11  1  0.847118  0.502246  0.967773  1
  Zr  Zr12  1  0.153281  0.497928  0.468109  1
  Zr  Zr13  1  0.002130  0.653266  0.717957  1
  Zr  Zr14  1  0.998184  0.346806  0.217914  1
  Zr  Zr15  1  0.496755  0.354466  0.126122  1
  Nb  Nb16  1  0.675365  0.324718  0.749859  1
  Nb  Nb17  1  0.324319  0.675696  0.250286  1
  Nb  Nb18  1  0.824661  0.824714  0.500059  1
  Nb  Nb19  1  0.174883  0.174879  0.999728  1
  Si  Si20  1  0.797646  0.145409  0.071540  1
  Si  Si21  1  0.203480  0.854294  0.571947  1
  Si  Si22  1  0.645688  0.703305  0.821921  1
  Si  Si23  1  0.354002  0.296319  0.322582  1
  Si  Si24  1  0.854149  0.203456  0.428084  1
  Si  Si25  1  0.145742  0.796526  0.928076  1
  Si  Si26  1  0.704075  0.646811  0.178484  1
  Si  Si27  1  0.296541  0.354171  0.678018  1
  Si  Si28  1  0.548755  0.198863  0.934913  1
  Si  Si29  1  0.451254  0.800705  0.435611  1
  Si  Si30  1  0.699300  0.951386  0.685576  1
  Si  Si31  1  0.300323  0.047712  0.185873  1
  Si  Si32  1  0.800735  0.451373  0.564508  1
  Si  Si33  1  0.198453  0.549214  0.064099  1
  Si  Si34  1  0.951262  0.699300  0.314428  1
  Si  Si35  1  0.048684  0.300662  0.814358  1
