# generated using pymatgen
data_Sr4GaSiIr4
_symmetry_space_group_name_H-M   'P 1'
_cell_length_a   5.88675989
_cell_length_b   5.88676020
_cell_length_c   7.62379392
_cell_angle_alpha   80.76455248
_cell_angle_beta   80.76455012
_cell_angle_gamma   63.04135059
_symmetry_Int_Tables_number   1
_chemical_formula_structural   Sr4GaSiIr4
_chemical_formula_sum   'Sr4 Ga1 Si1 Ir4'
_cell_volume   231.27438766
_cell_formula_units_Z   1
loop_
 _symmetry_equiv_pos_site_id
 _symmetry_equiv_pos_as_xyz
  1  'x, y, z'
loop_
 _atom_site_type_symbol
 _atom_site_label
 _atom_site_symmetry_multiplicity
 _atom_site_fract_x
 _atom_site_fract_y
 _atom_site_fract_z
 _atom_site_occupancy
  Sr  Sr0  1  0.988669  0.721869  0.137974  1
  Sr  Sr1  1  0.278131  0.011331  0.362026  1
  Sr  Sr2  1  0.013525  0.280940  0.860105  1
  Sr  Sr3  1  0.719060  0.986475  0.639895  1
  Ga  Ga4  1  0.425647  0.574353  0.750000  1
  Si  Si5  1  0.561133  0.438867  0.250000  1
  Ir  Ir6  1  0.498075  0.777962  0.001898  1
  Ir  Ir7  1  0.222038  0.501925  0.498102  1
  Ir  Ir8  1  0.513637  0.219914  0.022339  1
  Ir  Ir9  1  0.780086  0.486363  0.477661  1
