# generated using pymatgen
data_YbNbB4(Ru5W2)2
_symmetry_space_group_name_H-M   'P 1'
_cell_length_a   9.56511869
_cell_length_b   9.56511775
_cell_length_c   2.94227100
_cell_angle_alpha   90.00000000
_cell_angle_beta   90.00000000
_cell_angle_gamma   90.88047506
_symmetry_Int_Tables_number   1
_chemical_formula_structural   YbNbB4(Ru5W2)2
_chemical_formula_sum   'Yb1 Nb1 B4 Ru10 W4'
_cell_volume   269.16096341
_cell_formula_units_Z   1
loop_
 _symmetry_equiv_pos_site_id
 _symmetry_equiv_pos_as_xyz
  1  'x, y, z'
loop_
 _atom_site_type_symbol
 _atom_site_label
 _atom_site_symmetry_multiplicity
 _atom_site_fract_x
 _atom_site_fract_y
 _atom_site_fract_z
 _atom_site_occupancy
  Yb  Yb0  1  0.824173  0.675827  0.000000  1
  Nb  Nb1  1  0.177717  0.322283  0.000000  1
  B  B2  1  0.619648  0.880352  0.000000  1
  B  B3  1  0.376701  0.123299  0.000000  1
  B  B4  1  0.121351  0.618761  0.000000  1
  B  B5  1  0.881239  0.378649  0.000000  1
  Ru  Ru6  1  0.552393  0.729326  0.500000  1
  Ru  Ru7  1  0.430518  0.281645  0.500000  1
  Ru  Ru8  1  0.089118  0.783005  0.500000  1
  Ru  Ru9  1  0.926769  0.214174  0.500000  1
  Ru  Ru10  1  0.285826  0.573231  0.500000  1
  Ru  Ru11  1  0.716995  0.410882  0.500000  1
  Ru  Ru12  1  0.218355  0.069482  0.500000  1
  Ru  Ru13  1  0.770674  0.947607  0.500000  1
  Ru  Ru14  1  0.495006  0.004994  0.500000  1
  Ru  Ru15  1  0.008573  0.491427  0.500000  1
  W  W16  1  0.324931  0.823219  0.000000  1
  W  W17  1  0.676781  0.175069  0.000000  1
  W  W18  1  0.505339  0.502108  0.000000  1
  W  W19  1  0.997892  0.994661  0.000000  1
