# generated using pymatgen
data_Cs4Li2VPS8
_symmetry_space_group_name_H-M   'P 1'
_cell_length_a   14.19593580
_cell_length_b   12.70855982
_cell_length_c   7.60208211
_cell_angle_alpha   84.72191243
_cell_angle_beta   63.05341971
_cell_angle_gamma   32.22466709
_symmetry_Int_Tables_number   1
_chemical_formula_structural   Cs4Li2VPS8
_chemical_formula_sum   'Cs4 Li2 V1 P1 S8'
_cell_volume   515.10302858
_cell_formula_units_Z   1
loop_
 _symmetry_equiv_pos_site_id
 _symmetry_equiv_pos_as_xyz
  1  'x, y, z'
loop_
 _atom_site_type_symbol
 _atom_site_label
 _atom_site_symmetry_multiplicity
 _atom_site_fract_x
 _atom_site_fract_y
 _atom_site_fract_z
 _atom_site_occupancy
  Cs  Cs0  1  0.821934  0.821934  0.178066  1
  Cs  Cs1  1  0.427726  0.427726  0.072274  1
  Cs  Cs2  1  0.178066  0.178066  0.821934  1
  Cs  Cs3  1  0.072274  0.072274  0.427726  1
  Li  Li4  1  0.500000  0.500000  0.500000  1
  Li  Li5  1  0.750000  0.750000  0.750000  1
  V  V6  1  0.000000  0.000000  0.000000  1
  P  P7  1  0.250000  0.250000  0.250000  1
  S  S8  1  0.489350  0.915030  0.179437  1
  S  S9  1  0.915030  0.489350  0.416182  1
  S  S10  1  0.825165  0.074843  0.352190  1
  S  S11  1  0.074843  0.825165  0.747802  1
  S  S12  1  0.179437  0.416182  0.489350  1
  S  S13  1  0.416182  0.179437  0.915030  1
  S  S14  1  0.352190  0.747802  0.825165  1
  S  S15  1  0.747802  0.352190  0.074843  1
