# generated using pymatgen
data_HoCd(CuO2)4
_symmetry_space_group_name_H-M   'P 1'
_cell_length_a   6.24656635
_cell_length_b   6.24656723
_cell_length_c   6.24656669
_cell_angle_alpha   125.71715390
_cell_angle_beta   125.71716504
_cell_angle_gamma   80.35350427
_symmetry_Int_Tables_number   1
_chemical_formula_structural   HoCd(CuO2)4
_chemical_formula_sum   'Ho1 Cd1 Cu4 O8'
_cell_volume   155.02393591
_cell_formula_units_Z   1
loop_
 _symmetry_equiv_pos_site_id
 _symmetry_equiv_pos_as_xyz
  1  'x, y, z'
loop_
 _atom_site_type_symbol
 _atom_site_label
 _atom_site_symmetry_multiplicity
 _atom_site_fract_x
 _atom_site_fract_y
 _atom_site_fract_z
 _atom_site_occupancy
  Ho  Ho0  1  0.750000  0.250000  0.500000  1
  Cd  Cd1  1  0.000000  0.000000  0.000000  1
  Cu  Cu2  1  0.370683  0.624637  0.244679  1
  Cu  Cu3  1  0.375363  0.620043  0.746046  1
  Cu  Cu4  1  0.873996  0.629317  0.253954  1
  Cu  Cu5  1  0.379957  0.126004  0.755321  1
  O  O6  1  0.160086  0.586342  0.850822  1
  O  O7  1  0.735521  0.309265  0.149178  1
  O  O8  1  0.353444  0.982412  0.935594  1
  O  O9  1  0.690735  0.839914  0.426256  1
  O  O10  1  0.046819  0.417850  0.064406  1
  O  O11  1  0.413658  0.264479  0.573744  1
  O  O12  1  0.017588  0.953181  0.371032  1
  O  O13  1  0.582150  0.646556  0.628968  1
