# generated using pymatgen
data_CeEu2Rh3
_symmetry_space_group_name_H-M   'P 1'
_cell_length_a   6.01600648
_cell_length_b   5.40613398
_cell_length_c   6.01600700
_cell_angle_alpha   56.19240640
_cell_angle_beta   59.99999163
_cell_angle_gamma   56.19241332
_symmetry_Int_Tables_number   1
_chemical_formula_structural   CeEu2Rh3
_chemical_formula_sum   'Ce1 Eu2 Rh3'
_cell_volume   129.84742106
_cell_formula_units_Z   1
loop_
 _symmetry_equiv_pos_site_id
 _symmetry_equiv_pos_as_xyz
  1  'x, y, z'
loop_
 _atom_site_type_symbol
 _atom_site_label
 _atom_site_symmetry_multiplicity
 _atom_site_fract_x
 _atom_site_fract_y
 _atom_site_fract_z
 _atom_site_occupancy
  Ce  Ce0  1  0.625000  0.125000  0.625000  1
  Eu  Eu1  1  0.248359  0.254922  0.248359  1
  Eu  Eu2  1  0.001641  0.995078  0.001641  1
  Rh  Rh3  1  0.125000  0.625000  0.625000  1
  Rh  Rh4  1  0.625000  0.625000  0.125000  1
  Rh  Rh5  1  0.625000  0.625000  0.625000  1
