# generated using pymatgen
data_Ho6Er7Th3(ZnCo)4
_symmetry_space_group_name_H-M   'P 1'
_cell_length_a   9.36261731
_cell_length_b   9.36546568
_cell_length_c   9.36572970
_cell_angle_alpha   59.99384541
_cell_angle_beta   59.99857718
_cell_angle_gamma   59.99748698
_symmetry_Int_Tables_number   1
_chemical_formula_structural   Ho6Er7Th3(ZnCo)4
_chemical_formula_sum   'Ho6 Er7 Th3 Zn4 Co4'
_cell_volume   580.65764562
_cell_formula_units_Z   1
loop_
 _symmetry_equiv_pos_site_id
 _symmetry_equiv_pos_as_xyz
  1  'x, y, z'
loop_
 _atom_site_type_symbol
 _atom_site_label
 _atom_site_symmetry_multiplicity
 _atom_site_fract_x
 _atom_site_fract_y
 _atom_site_fract_z
 _atom_site_occupancy
  Ho  Ho0  1  0.936384  0.563992  0.564170  1
  Ho  Ho1  1  0.564088  0.935555  0.935553  1
  Ho  Ho2  1  0.564268  0.935581  0.564702  1
  Ho  Ho3  1  0.936142  0.564326  0.935695  1
  Ho  Ho4  1  0.564286  0.564696  0.935575  1
  Ho  Ho5  1  0.936183  0.935761  0.564371  1
  Er  Er6  1  0.945430  0.351473  0.351562  1
  Er  Er7  1  0.811177  0.189708  0.189718  1
  Er  Er8  1  0.189021  0.811998  0.811914  1
  Er  Er9  1  0.189073  0.811800  0.187507  1
  Er  Er10  1  0.810963  0.189745  0.809712  1
  Er  Er11  1  0.189047  0.187555  0.811732  1
  Er  Er12  1  0.810952  0.809710  0.189751  1
  Th  Th13  1  0.345826  0.349342  0.349393  1
  Th  Th14  1  0.345900  0.349420  0.954896  1
  Th  Th15  1  0.345760  0.955077  0.349419  1
  Zn  Zn16  1  0.581365  0.578519  0.578516  1
  Zn  Zn17  1  0.581552  0.578326  0.261508  1
  Zn  Zn18  1  0.581512  0.261534  0.578328  1
  Zn  Zn19  1  0.260243  0.579754  0.579816  1
  Co  Co20  1  0.148028  0.140995  0.140994  1
  Co  Co21  1  0.147427  0.141158  0.570001  1
  Co  Co22  1  0.147603  0.569942  0.141108  1
  Co  Co23  1  0.567769  0.144036  0.144053  1
