# generated using pymatgen
data_CdIrRh3Pb3O14
_symmetry_space_group_name_H-M   'P 1'
_cell_length_a   7.26026418
_cell_length_b   7.25432964
_cell_length_c   7.26026416
_cell_angle_alpha   60.49951942
_cell_angle_beta   60.71767583
_cell_angle_gamma   60.49952055
_symmetry_Int_Tables_number   1
_chemical_formula_structural   CdIrRh3Pb3O14
_chemical_formula_sum   'Cd1 Ir1 Rh3 Pb3 O14'
_cell_volume   273.88036537
_cell_formula_units_Z   1
loop_
 _symmetry_equiv_pos_site_id
 _symmetry_equiv_pos_as_xyz
  1  'x, y, z'
loop_
 _atom_site_type_symbol
 _atom_site_label
 _atom_site_symmetry_multiplicity
 _atom_site_fract_x
 _atom_site_fract_y
 _atom_site_fract_z
 _atom_site_occupancy
  Cd  Cd0  1  0.125000  0.125000  0.125000  1
  Ir  Ir1  1  0.625000  0.125000  0.625000  1
  Rh  Rh2  1  0.125000  0.625000  0.625000  1
  Rh  Rh3  1  0.625000  0.625000  0.125000  1
  Rh  Rh4  1  0.625000  0.625000  0.625000  1
  Pb  Pb5  1  0.625000  0.125000  0.125000  1
  Pb  Pb6  1  0.125000  0.625000  0.125000  1
  Pb  Pb7  1  0.125000  0.125000  0.625000  1
  O  O8  1  0.705976  0.710325  0.293243  1
  O  O9  1  0.305124  0.298001  0.687721  1
  O  O10  1  0.706773  0.293100  0.706773  1
  O  O11  1  0.293510  0.703578  0.293510  1
  O  O12  1  0.293243  0.710325  0.705976  1
  O  O13  1  0.687721  0.298001  0.305124  1
  O  O14  1  0.544024  0.539675  0.956757  1
  O  O15  1  0.944876  0.951999  0.562279  1
  O  O16  1  0.543227  0.956900  0.543227  1
  O  O17  1  0.956490  0.546422  0.956490  1
  O  O18  1  0.956757  0.539675  0.544024  1
  O  O19  1  0.562279  0.951999  0.944876  1
  O  O20  1  0.245962  0.243166  0.245962  1
  O  O21  1  0.004038  0.006834  0.004038  1
