# generated using pymatgen
data_Tm16MgIn3Co4
_symmetry_space_group_name_H-M   'P 1'
_cell_length_a   9.42576122
_cell_length_b   9.38975169
_cell_length_c   9.38975100
_cell_angle_alpha   59.99999892
_cell_angle_beta   60.12629420
_cell_angle_gamma   60.12629442
_symmetry_Int_Tables_number   1
_chemical_formula_structural   Tm16MgIn3Co4
_chemical_formula_sum   'Tm16 Mg1 In3 Co4'
_cell_volume   588.75692010
_cell_formula_units_Z   1
loop_
 _symmetry_equiv_pos_site_id
 _symmetry_equiv_pos_as_xyz
  1  'x, y, z'
loop_
 _atom_site_type_symbol
 _atom_site_label
 _atom_site_symmetry_multiplicity
 _atom_site_fract_x
 _atom_site_fract_y
 _atom_site_fract_z
 _atom_site_occupancy
  Tm  Tm0  1  0.346911  0.345103  0.345103  1
  Tm  Tm1  1  0.346911  0.345103  0.962883  1
  Tm  Tm2  1  0.346911  0.962883  0.345103  1
  Tm  Tm3  1  0.960501  0.346500  0.346500  1
  Tm  Tm4  1  0.810193  0.189270  0.189270  1
  Tm  Tm5  1  0.184968  0.813679  0.813679  1
  Tm  Tm6  1  0.184968  0.813679  0.187675  1
  Tm  Tm7  1  0.810193  0.189270  0.811267  1
  Tm  Tm8  1  0.184968  0.187675  0.813679  1
  Tm  Tm9  1  0.810193  0.811267  0.189270  1
  Tm  Tm10  1  0.938798  0.560885  0.560885  1
  Tm  Tm11  1  0.561879  0.939517  0.939517  1
  Tm  Tm12  1  0.561879  0.939517  0.559087  1
  Tm  Tm13  1  0.938798  0.560885  0.939433  1
  Tm  Tm14  1  0.561879  0.559087  0.939517  1
  Tm  Tm15  1  0.938798  0.939433  0.560885  1
  Mg  Mg16  1  0.267164  0.577612  0.577612  1
  In  In17  1  0.582111  0.583389  0.583389  1
  In  In18  1  0.582111  0.583389  0.251110  1
  In  In19  1  0.582111  0.251110  0.583389  1
  Co  Co20  1  0.139303  0.141038  0.141038  1
  Co  Co21  1  0.139303  0.141038  0.578621  1
  Co  Co22  1  0.139303  0.578621  0.141038  1
  Co  Co23  1  0.579844  0.140052  0.140052  1
