# generated using pymatgen
data_SmDy4Y(SiRh2)6
_symmetry_space_group_name_H-M   'P 1'
_cell_length_a   5.59086200
_cell_length_b   5.59086105
_cell_length_c   15.04845500
_cell_angle_alpha   90.00000000
_cell_angle_beta   90.00000000
_cell_angle_gamma   119.99999379
_symmetry_Int_Tables_number   1
_chemical_formula_structural   SmDy4Y(SiRh2)6
_chemical_formula_sum   'Sm1 Dy4 Y1 Si6 Rh12'
_cell_volume   407.36155911
_cell_formula_units_Z   1
loop_
 _symmetry_equiv_pos_site_id
 _symmetry_equiv_pos_as_xyz
  1  'x, y, z'
loop_
 _atom_site_type_symbol
 _atom_site_label
 _atom_site_symmetry_multiplicity
 _atom_site_fract_x
 _atom_site_fract_y
 _atom_site_fract_z
 _atom_site_occupancy
  Sm  Sm0  1  0.666667  0.333333  0.750000  1
  Dy  Dy1  1  0.666667  0.333333  0.962975  1
  Dy  Dy2  1  0.666667  0.333333  0.537025  1
  Dy  Dy3  1  0.333333  0.666667  0.037005  1
  Dy  Dy4  1  0.333333  0.666667  0.462995  1
  Y  Y5  1  0.333333  0.666667  0.250000  1
  Si  Si6  1  0.666667  0.333333  0.250000  1
  Si  Si7  1  0.000000  0.000000  0.500004  1
  Si  Si8  1  0.000000  0.000000  0.250000  1
  Si  Si9  1  0.000000  0.000000  0.750000  1
  Si  Si10  1  0.333333  0.666667  0.750000  1
  Si  Si11  1  0.000000  0.000000  0.999996  1
  Rh  Rh12  1  0.166721  0.333440  0.869543  1
  Rh  Rh13  1  0.166721  0.333440  0.630457  1
  Rh  Rh14  1  0.666560  0.833279  0.869543  1
  Rh  Rh15  1  0.333561  0.166780  0.369537  1
  Rh  Rh16  1  0.833220  0.666439  0.369537  1
  Rh  Rh17  1  0.833220  0.166780  0.369537  1
  Rh  Rh18  1  0.833220  0.166780  0.130463  1
  Rh  Rh19  1  0.333561  0.166780  0.130463  1
  Rh  Rh20  1  0.666560  0.833279  0.630457  1
  Rh  Rh21  1  0.166721  0.833279  0.630457  1
  Rh  Rh22  1  0.833220  0.666439  0.130463  1
  Rh  Rh23  1  0.166721  0.833279  0.869543  1
