# generated using pymatgen
data_Er10In8CoPd3
_symmetry_space_group_name_H-M   'P 1'
_cell_length_a   3.59502200
_cell_length_b   8.06270253
_cell_length_c   18.09583982
_cell_angle_alpha   89.95344186
_cell_angle_beta   90.00000000
_cell_angle_gamma   90.00000000
_symmetry_Int_Tables_number   1
_chemical_formula_structural   Er10In8CoPd3
_chemical_formula_sum   'Er10 In8 Co1 Pd3'
_cell_volume   524.51847470
_cell_formula_units_Z   1
loop_
 _symmetry_equiv_pos_site_id
 _symmetry_equiv_pos_as_xyz
  1  'x, y, z'
loop_
 _atom_site_type_symbol
 _atom_site_label
 _atom_site_symmetry_multiplicity
 _atom_site_fract_x
 _atom_site_fract_y
 _atom_site_fract_z
 _atom_site_occupancy
  Er  Er0  1  0.000000  0.114800  0.409086  1
  Er  Er1  1  0.000000  0.881395  0.582628  1
  Er  Er2  1  0.000000  0.380503  0.916842  1
  Er  Er3  1  0.000000  0.620445  0.086574  1
  Er  Er4  1  0.000000  0.229072  0.224528  1
  Er  Er5  1  0.000000  0.756228  0.779607  1
  Er  Er6  1  0.000000  0.255514  0.720021  1
  Er  Er7  1  0.000000  0.762073  0.280479  1
  Er  Er8  1  0.000000  0.000678  0.001629  1
  Er  Er9  1  0.000000  0.500778  0.497893  1
  In  In10  1  0.500000  0.425229  0.349846  1
  In  In11  1  0.500000  0.574909  0.647690  1
  In  In12  1  0.500000  0.074363  0.851086  1
  In  In13  1  0.500000  0.928344  0.151967  1
  In  In14  1  0.500000  0.293703  0.069888  1
  In  In15  1  0.500000  0.707368  0.933556  1
  In  In16  1  0.500000  0.207343  0.565119  1
  In  In17  1  0.500000  0.796542  0.429482  1
  Co  Co18  1  0.500000  0.020346  0.305367  1
  Pd  Pd19  1  0.500000  0.973476  0.694954  1
  Pd  Pd20  1  0.500000  0.474114  0.804525  1
  Pd  Pd21  1  0.500000  0.522774  0.197233  1
