# generated using pymatgen
data_HoSc2(CuSi)4
_symmetry_space_group_name_H-M   'P 1'
_cell_length_a   7.62603424
_cell_length_b   7.62603329
_cell_length_c   7.62603454
_cell_angle_alpha   149.66876281
_cell_angle_beta   129.35564824
_cell_angle_gamma   60.18160835
_symmetry_Int_Tables_number   1
_chemical_formula_structural   HoSc2(CuSi)4
_chemical_formula_sum   'Ho1 Sc2 Cu4 Si4'
_cell_volume   171.74744392
_cell_formula_units_Z   1
loop_
 _symmetry_equiv_pos_site_id
 _symmetry_equiv_pos_as_xyz
  1  'x, y, z'
loop_
 _atom_site_type_symbol
 _atom_site_label
 _atom_site_symmetry_multiplicity
 _atom_site_fract_x
 _atom_site_fract_y
 _atom_site_fract_z
 _atom_site_occupancy
  Ho  Ho0  1  0.500000  0.500000  0.000000  1
  Sc  Sc1  1  0.874404  0.374404  0.500000  1
  Sc  Sc2  1  0.125596  0.625596  0.500000  1
  Cu  Cu3  1  0.522800  0.829157  0.693644  1
  Cu  Cu4  1  0.864488  0.170843  0.693644  1
  Cu  Cu5  1  0.135512  0.829157  0.306356  1
  Cu  Cu6  1  0.477200  0.170843  0.306356  1
  Si  Si7  1  0.818854  0.000000  0.818854  1
  Si  Si8  1  0.181146  0.000000  0.181146  1
  Si  Si9  1  0.280102  0.280102  0.000000  1
  Si  Si10  1  0.719898  0.719898  0.000000  1
