# generated using pymatgen
data_LiNb12Ga8Fe2NiN4
_symmetry_space_group_name_H-M   'P 1'
_cell_length_a   8.17149856
_cell_length_b   8.23470692
_cell_length_c   8.23470800
_cell_angle_alpha   59.99999565
_cell_angle_beta   59.74378491
_cell_angle_gamma   59.74378361
_symmetry_Int_Tables_number   1
_chemical_formula_structural   LiNb12Ga8Fe2NiN4
_chemical_formula_sum   'Li1 Nb12 Ga8 Fe2 Ni1 N4'
_cell_volume   390.29254326
_cell_formula_units_Z   1
loop_
 _symmetry_equiv_pos_site_id
 _symmetry_equiv_pos_as_xyz
  1  'x, y, z'
loop_
 _atom_site_type_symbol
 _atom_site_label
 _atom_site_symmetry_multiplicity
 _atom_site_fract_x
 _atom_site_fract_y
 _atom_site_fract_z
 _atom_site_occupancy
  Li  Li0  1  0.125000  0.625000  0.625000  1
  Nb  Nb1  1  0.809550  0.810134  0.187760  1
  Nb  Nb2  1  0.193728  0.192304  0.807147  1
  Nb  Nb3  1  0.809550  0.187760  0.810134  1
  Nb  Nb4  1  0.193728  0.807147  0.192304  1
  Nb  Nb5  1  0.188357  0.809512  0.809512  1
  Nb  Nb6  1  0.808296  0.191953  0.191953  1
  Nb  Nb7  1  0.440450  0.439866  0.062240  1
  Nb  Nb8  1  0.056272  0.057696  0.442853  1
  Nb  Nb9  1  0.440450  0.062240  0.439866  1
  Nb  Nb10  1  0.056272  0.442853  0.057696  1
  Nb  Nb11  1  0.061643  0.440488  0.440488  1
  Nb  Nb12  1  0.441704  0.058047  0.058047  1
  Ga  Ga13  1  0.750491  0.417131  0.417131  1
  Ga  Ga14  1  0.415759  0.754542  0.416027  1
  Ga  Ga15  1  0.415759  0.416027  0.754542  1
  Ga  Ga16  1  0.416552  0.415745  0.415745  1
  Ga  Ga17  1  0.499509  0.832869  0.832869  1
  Ga  Ga18  1  0.834241  0.495458  0.833973  1
  Ga  Ga19  1  0.834241  0.833973  0.495458  1
  Ga  Ga20  1  0.833448  0.834255  0.834255  1
  Fe  Fe21  1  0.625000  0.125000  0.625000  1
  Fe  Fe22  1  0.625000  0.625000  0.125000  1
  Ni  Ni23  1  0.625000  0.625000  0.625000  1
  N  N24  1  0.625000  0.125000  0.125000  1
  N  N25  1  0.125000  0.625000  0.125000  1
  N  N26  1  0.125000  0.125000  0.625000  1
  N  N27  1  0.125000  0.125000  0.125000  1
