# generated using pymatgen
data_Tm2Co3As6Rh7
_symmetry_space_group_name_H-M   'P 1'
_cell_length_a   3.87385800
_cell_length_b   11.20661500
_cell_length_c   12.71803100
_cell_angle_alpha   90.00000000
_cell_angle_beta   90.00000000
_cell_angle_gamma   90.00000000
_symmetry_Int_Tables_number   1
_chemical_formula_structural   Tm2Co3As6Rh7
_chemical_formula_sum   'Tm4 Co6 As12 Rh14'
_cell_volume   552.12578350
_cell_formula_units_Z   2
loop_
 _symmetry_equiv_pos_site_id
 _symmetry_equiv_pos_as_xyz
  1  'x, y, z'
loop_
 _atom_site_type_symbol
 _atom_site_label
 _atom_site_symmetry_multiplicity
 _atom_site_fract_x
 _atom_site_fract_y
 _atom_site_fract_z
 _atom_site_occupancy
  Tm  Tm0  1  0.250000  0.581782  0.708514  1
  Tm  Tm1  1  0.250000  0.918218  0.208514  1
  Tm  Tm2  1  0.750000  0.416132  0.293554  1
  Tm  Tm3  1  0.750000  0.083868  0.793554  1
  Co  Co4  1  0.750000  0.116665  0.305049  1
  Co  Co5  1  0.750000  0.383335  0.805049  1
  Co  Co6  1  0.250000  0.464098  0.929481  1
  Co  Co7  1  0.250000  0.035902  0.429481  1
  Co  Co8  1  0.750000  0.533713  0.065608  1
  Co  Co9  1  0.750000  0.966287  0.565608  1
  As  As10  1  0.250000  0.419074  0.106346  1
  As  As11  1  0.250000  0.080926  0.606346  1
  As  As12  1  0.750000  0.571397  0.886868  1
  As  As13  1  0.750000  0.928603  0.386868  1
  As  As14  1  0.250000  0.272652  0.870670  1
  As  As15  1  0.250000  0.227348  0.370670  1
  As  As16  1  0.750000  0.728821  0.126512  1
  As  As17  1  0.750000  0.771179  0.626512  1
  As  As18  1  0.250000  0.599567  0.388851  1
  As  As19  1  0.250000  0.900433  0.888851  1
  As  As20  1  0.750000  0.400707  0.619252  1
  As  As21  1  0.750000  0.099293  0.119252  1
  Rh  Rh22  1  0.250000  0.711166  0.989187  1
  Rh  Rh23  1  0.250000  0.788834  0.489187  1
  Rh  Rh24  1  0.750000  0.287205  0.009794  1
  Rh  Rh25  1  0.750000  0.212795  0.509794  1
  Rh  Rh26  1  0.250000  0.406674  0.478735  1
  Rh  Rh27  1  0.250000  0.093326  0.978735  1
  Rh  Rh28  1  0.750000  0.590259  0.522542  1
  Rh  Rh29  1  0.750000  0.909741  0.022542  1
  Rh  Rh30  1  0.250000  0.220894  0.179851  1
  Rh  Rh31  1  0.250000  0.279106  0.679851  1
  Rh  Rh32  1  0.750000  0.773152  0.821232  1
  Rh  Rh33  1  0.750000  0.726848  0.321232  1
  Rh  Rh34  1  0.250000  0.890118  0.697954  1
  Rh  Rh35  1  0.250000  0.609882  0.197954  1
