# generated using pymatgen
data_Yb8HoPt6
_symmetry_space_group_name_H-M   'P 1'
_cell_length_a   7.52028776
_cell_length_b   7.52028855
_cell_length_c   7.52028897
_cell_angle_alpha   70.12522056
_cell_angle_beta   70.12521965
_cell_angle_gamma   70.12522119
_symmetry_Int_Tables_number   1
_chemical_formula_structural   Yb8HoPt6
_chemical_formula_sum   'Yb8 Ho1 Pt6'
_cell_volume   363.84449025
_cell_formula_units_Z   1
loop_
 _symmetry_equiv_pos_site_id
 _symmetry_equiv_pos_as_xyz
  1  'x, y, z'
loop_
 _atom_site_type_symbol
 _atom_site_label
 _atom_site_symmetry_multiplicity
 _atom_site_fract_x
 _atom_site_fract_y
 _atom_site_fract_z
 _atom_site_occupancy
  Yb  Yb0  1  0.401392  0.667865  0.151564  1
  Yb  Yb1  1  0.201722  0.201722  0.201722  1
  Yb  Yb2  1  0.848436  0.598608  0.332135  1
  Yb  Yb3  1  0.667865  0.151564  0.401392  1
  Yb  Yb4  1  0.332135  0.848436  0.598608  1
  Yb  Yb5  1  0.151564  0.401392  0.667865  1
  Yb  Yb6  1  0.798278  0.798278  0.798278  1
  Yb  Yb7  1  0.598608  0.332135  0.848436  1
  Ho  Ho8  1  0.000000  0.000000  0.000000  1
  Pt  Pt9  1  0.845395  0.399904  0.045740  1
  Pt  Pt10  1  0.600096  0.954260  0.154605  1
  Pt  Pt11  1  0.045740  0.845395  0.399904  1
  Pt  Pt12  1  0.954260  0.154605  0.600096  1
  Pt  Pt13  1  0.399904  0.045740  0.845395  1
  Pt  Pt14  1  0.154605  0.600096  0.954260  1
