# generated using pymatgen
data_Ho3MgZn2Si2Ag
_symmetry_space_group_name_H-M   'P 1'
_cell_length_a   6.96021245
_cell_length_b   6.96021197
_cell_length_c   4.31109200
_cell_angle_alpha   90.00000000
_cell_angle_beta   90.00000000
_cell_angle_gamma   119.71550197
_symmetry_Int_Tables_number   1
_chemical_formula_structural   Ho3MgZn2Si2Ag
_chemical_formula_sum   'Ho3 Mg1 Zn2 Si2 Ag1'
_cell_volume   181.38475853
_cell_formula_units_Z   1
loop_
 _symmetry_equiv_pos_site_id
 _symmetry_equiv_pos_as_xyz
  1  'x, y, z'
loop_
 _atom_site_type_symbol
 _atom_site_label
 _atom_site_symmetry_multiplicity
 _atom_site_fract_x
 _atom_site_fract_y
 _atom_site_fract_z
 _atom_site_occupancy
  Ho  Ho0  1  0.569908  0.998858  0.000000  1
  Ho  Ho1  1  0.998858  0.569908  0.000000  1
  Ho  Ho2  1  0.419667  0.419667  0.000000  1
  Mg  Mg3  1  0.763331  0.763331  0.500000  1
  Zn  Zn4  1  0.253749  0.001386  0.500000  1
  Zn  Zn5  1  0.001386  0.253749  0.500000  1
  Si  Si6  1  0.325459  0.663323  0.500000  1
  Si  Si7  1  0.663323  0.325459  0.500000  1
  Ag  Ag8  1  0.004319  0.004319  0.000000  1
