# generated using pymatgen
data_ErLu(AlPt)2
_symmetry_space_group_name_H-M   'P 1'
_cell_length_a   4.40834800
_cell_length_b   6.79693735
_cell_length_c   7.70103969
_cell_angle_alpha   88.47119614
_cell_angle_beta   90.00000000
_cell_angle_gamma   90.00000000
_symmetry_Int_Tables_number   1
_chemical_formula_structural   ErLu(AlPt)2
_chemical_formula_sum   'Er2 Lu2 Al4 Pt4'
_cell_volume   230.66615704
_cell_formula_units_Z   2
loop_
 _symmetry_equiv_pos_site_id
 _symmetry_equiv_pos_as_xyz
  1  'x, y, z'
loop_
 _atom_site_type_symbol
 _atom_site_label
 _atom_site_symmetry_multiplicity
 _atom_site_fract_x
 _atom_site_fract_y
 _atom_site_fract_z
 _atom_site_occupancy
  Er  Er0  1  0.750000  0.028548  0.682964  1
  Er  Er1  1  0.250000  0.971452  0.317036  1
  Lu  Lu2  1  0.250000  0.472900  0.181649  1
  Lu  Lu3  1  0.750000  0.527100  0.818351  1
  Al  Al4  1  0.250000  0.849576  0.936656  1
  Al  Al5  1  0.750000  0.150424  0.063344  1
  Al  Al6  1  0.750000  0.648763  0.436731  1
  Al  Al7  1  0.250000  0.351237  0.563269  1
  Pt  Pt8  1  0.250000  0.724213  0.617935  1
  Pt  Pt9  1  0.750000  0.275787  0.382065  1
  Pt  Pt10  1  0.750000  0.769370  0.113080  1
  Pt  Pt11  1  0.250000  0.230630  0.886920  1
