# generated using pymatgen
data_Yb2B4Ru5
_symmetry_space_group_name_H-M   'P 1'
_cell_length_a   2.98959900
_cell_length_b   8.70715210
_cell_length_c   10.17530979
_cell_angle_alpha   89.99374199
_cell_angle_beta   90.00000000
_cell_angle_gamma   90.00000000
_symmetry_Int_Tables_number   1
_chemical_formula_structural   Yb2B4Ru5
_chemical_formula_sum   'Yb4 B8 Ru10'
_cell_volume   264.87240111
_cell_formula_units_Z   2
loop_
 _symmetry_equiv_pos_site_id
 _symmetry_equiv_pos_as_xyz
  1  'x, y, z'
loop_
 _atom_site_type_symbol
 _atom_site_label
 _atom_site_symmetry_multiplicity
 _atom_site_fract_x
 _atom_site_fract_y
 _atom_site_fract_z
 _atom_site_occupancy
  Yb  Yb0  1  0.500000  0.841747  0.182613  1
  Yb  Yb1  1  0.500000  0.158253  0.817387  1
  Yb  Yb2  1  0.500000  0.658395  0.682574  1
  Yb  Yb3  1  0.500000  0.341605  0.317426  1
  B  B4  1  0.500000  0.965552  0.589111  1
  B  B5  1  0.500000  0.034448  0.410889  1
  B  B6  1  0.500000  0.852658  0.899560  1
  B  B7  1  0.500000  0.147342  0.100440  1
  B  B8  1  0.500000  0.647241  0.399419  1
  B  B9  1  0.500000  0.352759  0.600581  1
  B  B10  1  0.500000  0.465927  0.910776  1
  B  B11  1  0.500000  0.534073  0.089224  1
  Ru  Ru12  1  0.000000  0.656313  0.954448  1
  Ru  Ru13  1  0.000000  0.343687  0.045552  1
  Ru  Ru14  1  0.000000  0.843751  0.454271  1
  Ru  Ru15  1  0.000000  0.156249  0.545729  1
  Ru  Ru16  1  0.000000  0.000000  0.000000  1
  Ru  Ru17  1  0.000000  0.405195  0.759876  1
  Ru  Ru18  1  0.000000  0.594805  0.240124  1
  Ru  Ru19  1  0.000000  0.500000  0.500000  1
  Ru  Ru20  1  0.000000  0.905094  0.740169  1
  Ru  Ru21  1  0.000000  0.094906  0.259831  1
