# generated using pymatgen
data_Cr11Co8Si4MoN4
_symmetry_space_group_name_H-M   'P 1'
_cell_length_a   7.45522281
_cell_length_b   7.45505540
_cell_length_c   7.45505584
_cell_angle_alpha   60.29462229
_cell_angle_beta   59.99925745
_cell_angle_gamma   59.99925753
_symmetry_Int_Tables_number   1
_chemical_formula_structural   Cr11Co8Si4MoN4
_chemical_formula_sum   'Cr11 Co8 Si4 Mo1 N4'
_cell_volume   293.62984134
_cell_formula_units_Z   1
loop_
 _symmetry_equiv_pos_site_id
 _symmetry_equiv_pos_as_xyz
  1  'x, y, z'
loop_
 _atom_site_type_symbol
 _atom_site_label
 _atom_site_symmetry_multiplicity
 _atom_site_fract_x
 _atom_site_fract_y
 _atom_site_fract_z
 _atom_site_occupancy
  Cr  Cr0  1  0.693020  0.312484  0.688623  1
  Cr  Cr1  1  0.558489  0.555930  0.942146  1
  Cr  Cr2  1  0.558489  0.942146  0.555930  1
  Cr  Cr3  1  0.943435  0.942146  0.555930  1
  Cr  Cr4  1  0.939744  0.560256  0.560256  1
  Cr  Cr5  1  0.943435  0.555930  0.942146  1
  Cr  Cr6  1  0.694313  0.305687  0.305687  1
  Cr  Cr7  1  0.305873  0.688623  0.312484  1
  Cr  Cr8  1  0.305873  0.312484  0.688623  1
  Cr  Cr9  1  0.307687  0.692313  0.692313  1
  Cr  Cr10  1  0.693020  0.688623  0.312484  1
  Co  Co11  1  0.254528  0.913853  0.913853  1
  Co  Co12  1  0.914771  0.257668  0.912790  1
  Co  Co13  1  0.917767  0.913853  0.913853  1
  Co  Co14  1  0.914771  0.912790  0.257668  1
  Co  Co15  1  0.994378  0.335788  0.335788  1
  Co  Co16  1  0.335233  0.335786  0.993746  1
  Co  Co17  1  0.335233  0.993746  0.335786  1
  Co  Co18  1  0.334045  0.335788  0.335788  1
  Si  Si19  1  0.626021  0.126629  0.126629  1
  Si  Si20  1  0.124715  0.125981  0.624588  1
  Si  Si21  1  0.124715  0.624588  0.125981  1
  Si  Si22  1  0.120721  0.126629  0.126629  1
  Mo  Mo23  1  0.558215  0.941785  0.941785  1
  N  N24  1  0.623991  0.625893  0.625893  1
  N  N25  1  0.124222  0.625893  0.625893  1
  N  N26  1  0.626646  0.134260  0.612448  1
  N  N27  1  0.626646  0.612448  0.134260  1
