# generated using pymatgen
data_DyLuCo7(P2Ru)3
_symmetry_space_group_name_H-M   'P 1'
_cell_length_a   3.71246100
_cell_length_b   10.41498300
_cell_length_c   11.82876900
_cell_angle_alpha   90.00000000
_cell_angle_beta   90.00000000
_cell_angle_gamma   90.00000000
_symmetry_Int_Tables_number   1
_chemical_formula_structural   DyLuCo7(P2Ru)3
_chemical_formula_sum   'Dy2 Lu2 Co14 P12 Ru6'
_cell_volume   457.36193446
_cell_formula_units_Z   2
loop_
 _symmetry_equiv_pos_site_id
 _symmetry_equiv_pos_as_xyz
  1  'x, y, z'
loop_
 _atom_site_type_symbol
 _atom_site_label
 _atom_site_symmetry_multiplicity
 _atom_site_fract_x
 _atom_site_fract_y
 _atom_site_fract_z
 _atom_site_occupancy
  Dy  Dy0  1  0.250000  0.586818  0.705431  1
  Dy  Dy1  1  0.250000  0.913182  0.205431  1
  Lu  Lu2  1  0.750000  0.414849  0.292107  1
  Lu  Lu3  1  0.750000  0.085151  0.792107  1
  Co  Co4  1  0.750000  0.597112  0.512354  1
  Co  Co5  1  0.750000  0.902888  0.012354  1
  Co  Co6  1  0.250000  0.225929  0.179794  1
  Co  Co7  1  0.250000  0.274071  0.679794  1
  Co  Co8  1  0.750000  0.777578  0.822133  1
  Co  Co9  1  0.750000  0.722422  0.322133  1
  Co  Co10  1  0.250000  0.885658  0.701028  1
  Co  Co11  1  0.250000  0.614342  0.201028  1
  Co  Co12  1  0.750000  0.114583  0.298591  1
  Co  Co13  1  0.750000  0.385417  0.798591  1
  Co  Co14  1  0.250000  0.464357  0.931633  1
  Co  Co15  1  0.250000  0.035643  0.431633  1
  Co  Co16  1  0.750000  0.536728  0.068865  1
  Co  Co17  1  0.750000  0.963272  0.568865  1
  P  P18  1  0.250000  0.422344  0.113465  1
  P  P19  1  0.250000  0.077656  0.613465  1
  P  P20  1  0.750000  0.579053  0.887591  1
  P  P21  1  0.750000  0.920947  0.387591  1
  P  P22  1  0.250000  0.271487  0.866062  1
  P  P23  1  0.250000  0.228513  0.366062  1
  P  P24  1  0.750000  0.729583  0.132410  1
  P  P25  1  0.750000  0.770417  0.632410  1
  P  P26  1  0.250000  0.599633  0.386180  1
  P  P27  1  0.250000  0.900367  0.886180  1
  P  P28  1  0.750000  0.402481  0.612600  1
  P  P29  1  0.750000  0.097519  0.112600  1
  Ru  Ru30  1  0.250000  0.714198  0.989225  1
  Ru  Ru31  1  0.250000  0.785802  0.489225  1
  Ru  Ru32  1  0.750000  0.289951  0.013399  1
  Ru  Ru33  1  0.750000  0.210049  0.513399  1
  Ru  Ru34  1  0.250000  0.408714  0.487132  1
  Ru  Ru35  1  0.250000  0.091286  0.987132  1
