# generated using pymatgen
data_Na3Sr5(MoN3)4
_symmetry_space_group_name_H-M   'P 1'
_cell_length_a   6.26592432
_cell_length_b   6.33416398
_cell_length_c   12.58288233
_cell_angle_alpha   90.04689004
_cell_angle_beta   88.85047962
_cell_angle_gamma   123.05131420
_symmetry_Int_Tables_number   1
_chemical_formula_structural   Na3Sr5(MoN3)4
_chemical_formula_sum   'Na3 Sr5 Mo4 N12'
_cell_volume   418.47936353
_cell_formula_units_Z   1
loop_
 _symmetry_equiv_pos_site_id
 _symmetry_equiv_pos_as_xyz
  1  'x, y, z'
loop_
 _atom_site_type_symbol
 _atom_site_label
 _atom_site_symmetry_multiplicity
 _atom_site_fract_x
 _atom_site_fract_y
 _atom_site_fract_z
 _atom_site_occupancy
  Na  Na0  1  0.542034  0.941312  0.873442  1
  Na  Na1  1  0.059771  0.464724  0.635076  1
  Na  Na2  1  0.457298  0.057983  0.117040  1
  Sr  Sr3  1  0.965779  0.557423  0.360745  1
  Sr  Sr4  1  0.345389  0.121568  0.586196  1
  Sr  Sr5  1  0.882484  0.660671  0.916111  1
  Sr  Sr6  1  0.661607  0.882887  0.419082  1
  Sr  Sr7  1  0.114603  0.332271  0.082168  1
  Mo  Mo8  1  0.729708  0.749913  0.661495  1
  Mo  Mo9  1  0.250042  0.271686  0.836328  1
  Mo  Mo10  1  0.271909  0.247993  0.338590  1
  Mo  Mo11  1  0.740259  0.726547  0.163820  1
  N  N12  1  0.561749  0.445784  0.748549  1
  N  N13  1  0.425520  0.555873  0.253524  1
  N  N14  1  0.516302  0.841324  0.617527  1
  N  N15  1  0.150561  0.477129  0.884106  1
  N  N16  1  0.493971  0.163021  0.384226  1
  N  N17  1  0.841162  0.516062  0.123792  1
  N  N18  1  0.695595  0.869091  0.047441  1
  N  N19  1  0.119829  0.298024  0.453623  1
  N  N20  1  0.300484  0.129326  0.951630  1
  N  N21  1  0.875789  0.700858  0.542331  1
  N  N22  1  0.996225  0.004019  0.748629  1
  N  N23  1  0.001928  0.984512  0.254531  1
