# generated using pymatgen
data_Tb4YAl2Ru3
_symmetry_space_group_name_H-M   'P 1'
_cell_length_a   8.35867056
_cell_length_b   8.36334468
_cell_length_c   8.36371672
_cell_angle_alpha   109.44747663
_cell_angle_beta   109.46068790
_cell_angle_gamma   109.46108571
_symmetry_Int_Tables_number   1
_chemical_formula_structural   Tb4YAl2Ru3
_chemical_formula_sum   'Tb8 Y2 Al4 Ru6'
_cell_volume   450.33160870
_cell_formula_units_Z   2
loop_
 _symmetry_equiv_pos_site_id
 _symmetry_equiv_pos_as_xyz
  1  'x, y, z'
loop_
 _atom_site_type_symbol
 _atom_site_label
 _atom_site_symmetry_multiplicity
 _atom_site_fract_x
 _atom_site_fract_y
 _atom_site_fract_z
 _atom_site_occupancy
  Tb  Tb0  1  0.785648  0.785637  0.785737  1
  Tb  Tb1  1  0.317806  0.567856  0.749918  1
  Tb  Tb2  1  0.749995  0.317834  0.567853  1
  Tb  Tb3  1  0.567758  0.750065  0.317818  1
  Tb  Tb4  1  0.714581  0.499945  0.000021  1
  Tb  Tb5  1  0.999984  0.714397  0.499833  1
  Tb  Tb6  1  0.499940  0.000092  0.714465  1
  Tb  Tb7  1  0.249875  0.182034  0.932157  1
  Y  Y8  1  0.931926  0.249960  0.181870  1
  Y  Y9  1  0.181750  0.931825  0.249952  1
  Al  Al10  1  0.410772  0.410898  0.410954  1
  Al  Al11  1  0.088759  0.500076  0.000292  1
  Al  Al12  1  0.999962  0.088750  0.499631  1
  Al  Al13  1  0.500110  0.000087  0.088952  1
  Ru  Ru14  1  0.878195  0.128121  0.749873  1
  Ru  Ru15  1  0.749562  0.877346  0.128099  1
  Ru  Ru16  1  0.128194  0.749692  0.877368  1
  Ru  Ru17  1  0.250887  0.622584  0.372402  1
  Ru  Ru18  1  0.372444  0.250830  0.622742  1
  Ru  Ru19  1  0.621851  0.371971  0.250061  1
