# generated using pymatgen
data_Hf8Zr2Zn2Sn5Sb
_symmetry_space_group_name_H-M   'P 1'
_cell_length_a   8.63575426
_cell_length_b   8.63402424
_cell_length_c   5.83324100
_cell_angle_alpha   90.00000000
_cell_angle_beta   90.00000000
_cell_angle_gamma   119.97866488
_symmetry_Int_Tables_number   1
_chemical_formula_structural   Hf8Zr2Zn2Sn5Sb
_chemical_formula_sum   'Hf8 Zr2 Zn2 Sn5 Sb1'
_cell_volume   376.74493125
_cell_formula_units_Z   1
loop_
 _symmetry_equiv_pos_site_id
 _symmetry_equiv_pos_as_xyz
  1  'x, y, z'
loop_
 _atom_site_type_symbol
 _atom_site_label
 _atom_site_symmetry_multiplicity
 _atom_site_fract_x
 _atom_site_fract_y
 _atom_site_fract_z
 _atom_site_occupancy
  Hf  Hf0  1  0.999329  0.267441  0.250000  1
  Hf  Hf1  1  0.000233  0.731932  0.750000  1
  Hf  Hf2  1  0.268048  0.268160  0.750000  1
  Hf  Hf3  1  0.268645  0.999796  0.250000  1
  Hf  Hf4  1  0.333245  0.666889  0.500317  1
  Hf  Hf5  1  0.666456  0.332634  0.999729  1
  Hf  Hf6  1  0.666456  0.332634  0.500271  1
  Hf  Hf7  1  0.333245  0.666889  0.999683  1
  Zr  Zr8  1  0.732022  0.732789  0.250000  1
  Zr  Zr9  1  0.731612  0.000343  0.750000  1
  Zn  Zn10  1  0.001852  0.000538  0.999183  1
  Zn  Zn11  1  0.001852  0.000538  0.500817  1
  Sn  Sn12  1  0.383384  0.999979  0.750000  1
  Sn  Sn13  1  0.384259  0.384494  0.250000  1
  Sn  Sn14  1  0.000059  0.614539  0.250000  1
  Sn  Sn15  1  0.000757  0.386263  0.750000  1
  Sn  Sn16  1  0.614626  0.613726  0.750000  1
  Sb  Sb17  1  0.613920  0.000416  0.250000  1
