# generated using pymatgen
data_Th2AlGa2Cu2Ge
_symmetry_space_group_name_H-M   'P 1'
_cell_length_a   9.15894729
_cell_length_b   9.15894792
_cell_length_c   4.19234300
_cell_angle_alpha   90.00000000
_cell_angle_beta   90.00000000
_cell_angle_gamma   153.60941020
_symmetry_Int_Tables_number   1
_chemical_formula_structural   Th2AlGa2Cu2Ge
_chemical_formula_sum   'Th2 Al1 Ga2 Cu2 Ge1'
_cell_volume   156.31766480
_cell_formula_units_Z   1
loop_
 _symmetry_equiv_pos_site_id
 _symmetry_equiv_pos_as_xyz
  1  'x, y, z'
loop_
 _atom_site_type_symbol
 _atom_site_label
 _atom_site_symmetry_multiplicity
 _atom_site_fract_x
 _atom_site_fract_y
 _atom_site_fract_z
 _atom_site_occupancy
  Th  Th0  1  0.896784  0.103216  0.750000  1
  Th  Th1  1  0.102640  0.897360  0.250000  1
  Al  Al2  1  0.749831  0.250169  0.250000  1
  Ga  Ga3  1  0.250418  0.749582  0.750000  1
  Ga  Ga4  1  0.538803  0.461197  0.750000  1
  Cu  Cu5  1  0.672766  0.327234  0.750000  1
  Cu  Cu6  1  0.327047  0.672953  0.250000  1
  Ge  Ge7  1  0.461711  0.538289  0.250000  1
