# generated using pymatgen
data_Ta5Be3PW
_symmetry_space_group_name_H-M   'P 1'
_cell_length_a   6.45312628
_cell_length_b   6.46108802
_cell_length_c   3.37643400
_cell_angle_alpha   90.00000000
_cell_angle_beta   90.00000000
_cell_angle_gamma   89.55672530
_symmetry_Int_Tables_number   1
_chemical_formula_structural   Ta5Be3PW
_chemical_formula_sum   'Ta5 Be3 P1 W1'
_cell_volume   140.77355837
_cell_formula_units_Z   1
loop_
 _symmetry_equiv_pos_site_id
 _symmetry_equiv_pos_as_xyz
  1  'x, y, z'
loop_
 _atom_site_type_symbol
 _atom_site_label
 _atom_site_symmetry_multiplicity
 _atom_site_fract_x
 _atom_site_fract_y
 _atom_site_fract_z
 _atom_site_occupancy
  Ta  Ta0  1  0.998462  0.002633  0.000000  1
  Ta  Ta1  1  0.675742  0.182772  0.500000  1
  Ta  Ta2  1  0.329304  0.823936  0.500000  1
  Ta  Ta3  1  0.179757  0.319787  0.500000  1
  Ta  Ta4  1  0.816220  0.675411  0.500000  1
  Be  Be5  1  0.877793  0.379909  0.000000  1
  Be  Be6  1  0.616120  0.883754  0.000000  1
  Be  Be7  1  0.385481  0.117551  0.000000  1
  P  P8  1  0.117550  0.616154  0.000000  1
  W  W9  1  0.503573  0.498093  0.000000  1
