# generated using pymatgen
data_Ce2P4IrOs3
_symmetry_space_group_name_H-M   'P 1'
_cell_length_a   4.21234500
_cell_length_b   4.21234500
_cell_length_c   9.38946700
_cell_angle_alpha   90.00000000
_cell_angle_beta   90.00000000
_cell_angle_gamma   90.00000000
_symmetry_Int_Tables_number   1
_chemical_formula_structural   Ce2P4IrOs3
_chemical_formula_sum   'Ce2 P4 Ir1 Os3'
_cell_volume   166.60529777
_cell_formula_units_Z   1
loop_
 _symmetry_equiv_pos_site_id
 _symmetry_equiv_pos_as_xyz
  1  'x, y, z'
loop_
 _atom_site_type_symbol
 _atom_site_label
 _atom_site_symmetry_multiplicity
 _atom_site_fract_x
 _atom_site_fract_y
 _atom_site_fract_z
 _atom_site_occupancy
  Ce  Ce0  1  0.000000  0.500000  0.240047  1
  Ce  Ce1  1  0.500000  0.000000  0.758499  1
  P  P2  1  0.000000  0.000000  0.999281  1
  P  P3  1  0.500000  0.500000  0.999281  1
  P  P4  1  0.000000  0.500000  0.629850  1
  P  P5  1  0.500000  0.000000  0.373490  1
  Ir  Ir6  1  0.500000  0.000000  0.117186  1
  Os  Os7  1  0.000000  0.000000  0.499302  1
  Os  Os8  1  0.500000  0.500000  0.499302  1
  Os  Os9  1  0.000000  0.500000  0.883763  1
