# generated using pymatgen
data_Ho3TmOsI4
_symmetry_space_group_name_H-M   'P 1'
_cell_length_a   11.33230683
_cell_length_b   11.36038540
_cell_length_c   6.16154009
_cell_angle_alpha   89.31377310
_cell_angle_beta   89.31287332
_cell_angle_gamma   88.62156976
_symmetry_Int_Tables_number   1
_chemical_formula_structural   Ho3TmOsI4
_chemical_formula_sum   'Ho6 Tm2 Os2 I8'
_cell_volume   792.89203073
_cell_formula_units_Z   2
loop_
 _symmetry_equiv_pos_site_id
 _symmetry_equiv_pos_as_xyz
  1  'x, y, z'
loop_
 _atom_site_type_symbol
 _atom_site_label
 _atom_site_symmetry_multiplicity
 _atom_site_fract_x
 _atom_site_fract_y
 _atom_site_fract_z
 _atom_site_occupancy
  Ho  Ho0  1  0.197458  0.916793  0.996017  1
  Ho  Ho1  1  0.802542  0.083207  0.003983  1
  Ho  Ho2  1  0.083083  0.802265  0.503991  1
  Ho  Ho3  1  0.916917  0.197735  0.496009  1
  Ho  Ho4  1  0.804131  0.921104  0.506477  1
  Ho  Ho5  1  0.195869  0.078896  0.493523  1
  Tm  Tm6  1  0.077240  0.192124  0.993591  1
  Tm  Tm7  1  0.922760  0.807876  0.006409  1
  Os  Os8  1  0.000195  0.999837  0.250250  1
  Os  Os9  1  0.999805  0.000163  0.749750  1
  I  I10  1  0.356630  0.848456  0.510688  1
  I  I11  1  0.643370  0.151544  0.489312  1
  I  I12  1  0.149875  0.644033  0.989407  1
  I  I13  1  0.850125  0.355967  0.010593  1
  I  I14  1  0.350754  0.145540  0.995829  1
  I  I15  1  0.649246  0.854460  0.004171  1
  I  I16  1  0.855265  0.647734  0.503788  1
  I  I17  1  0.144735  0.352266  0.496212  1
