# generated using pymatgen
data_Ho4Si2B8Mo
_symmetry_space_group_name_H-M   'P 1'
_cell_length_a   7.10363000
_cell_length_b   7.10363000
_cell_length_c   7.58916400
_cell_angle_alpha   90.00000000
_cell_angle_beta   90.00000000
_cell_angle_gamma   90.00000000
_symmetry_Int_Tables_number   1
_chemical_formula_structural   Ho4Si2B8Mo
_chemical_formula_sum   'Ho8 Si4 B16 Mo2'
_cell_volume   382.96104829
_cell_formula_units_Z   2
loop_
 _symmetry_equiv_pos_site_id
 _symmetry_equiv_pos_as_xyz
  1  'x, y, z'
loop_
 _atom_site_type_symbol
 _atom_site_label
 _atom_site_symmetry_multiplicity
 _atom_site_fract_x
 _atom_site_fract_y
 _atom_site_fract_z
 _atom_site_occupancy
  Ho  Ho0  1  0.679939  0.179939  0.237438  1
  Ho  Ho1  1  0.320061  0.820061  0.762562  1
  Ho  Ho2  1  0.320061  0.820061  0.237438  1
  Ho  Ho3  1  0.820061  0.679939  0.237438  1
  Ho  Ho4  1  0.820061  0.679939  0.762562  1
  Ho  Ho5  1  0.679939  0.179939  0.762562  1
  Ho  Ho6  1  0.179939  0.320061  0.762562  1
  Ho  Ho7  1  0.179939  0.320061  0.237438  1
  Si  Si8  1  0.123206  0.623206  0.500000  1
  Si  Si9  1  0.876794  0.376794  0.500000  1
  Si  Si10  1  0.376794  0.123206  0.500000  1
  Si  Si11  1  0.623206  0.876794  0.500000  1
  B  B12  1  0.172186  0.039070  0.000000  1
  B  B13  1  0.827814  0.960930  0.000000  1
  B  B14  1  0.960930  0.172186  0.000000  1
  B  B15  1  0.327814  0.539070  0.000000  1
  B  B16  1  0.039070  0.827814  0.000000  1
  B  B17  1  0.672186  0.460930  0.000000  1
  B  B18  1  0.539070  0.672186  0.000000  1
  B  B19  1  0.460930  0.327814  0.000000  1
  B  B20  1  0.089838  0.589838  0.000000  1
  B  B21  1  0.910162  0.410162  0.000000  1
  B  B22  1  0.410162  0.089838  0.000000  1
  B  B23  1  0.589838  0.910162  0.000000  1
  B  B24  1  0.000000  0.000000  0.176252  1
  B  B25  1  0.000000  0.000000  0.823748  1
  B  B26  1  0.500000  0.500000  0.823748  1
  B  B27  1  0.500000  0.500000  0.176252  1
  Mo  Mo28  1  0.000000  0.000000  0.500000  1
  Mo  Mo29  1  0.500000  0.500000  0.500000  1
