# generated using pymatgen
data_Dy3Pa(Ta3Ge4)2
_symmetry_space_group_name_H-M   'P 1'
_cell_length_a   7.00788900
_cell_length_b   7.15729594
_cell_length_c   13.54870300
_cell_angle_alpha   90.10016946
_cell_angle_beta   90.00000000
_cell_angle_gamma   90.00000000
_symmetry_Int_Tables_number   1
_chemical_formula_structural   Dy3Pa(Ta3Ge4)2
_chemical_formula_sum   'Dy6 Pa2 Ta12 Ge16'
_cell_volume   679.56851281
_cell_formula_units_Z   2
loop_
 _symmetry_equiv_pos_site_id
 _symmetry_equiv_pos_as_xyz
  1  'x, y, z'
loop_
 _atom_site_type_symbol
 _atom_site_label
 _atom_site_symmetry_multiplicity
 _atom_site_fract_x
 _atom_site_fract_y
 _atom_site_fract_z
 _atom_site_occupancy
  Dy  Dy0  1  0.490721  0.325464  0.093089  1
  Dy  Dy1  1  0.990721  0.174536  0.406911  1
  Dy  Dy2  1  0.504338  0.672242  0.594629  1
  Dy  Dy3  1  0.004338  0.827758  0.905371  1
  Dy  Dy4  1  0.504299  0.674192  0.904359  1
  Dy  Dy5  1  0.004299  0.825808  0.595641  1
  Pa  Pa6  1  0.494249  0.327048  0.407502  1
  Pa  Pa7  1  0.994249  0.172952  0.092498  1
  Ta  Ta8  1  0.665277  0.012734  0.749181  1
  Ta  Ta9  1  0.165277  0.487266  0.750819  1
  Ta  Ta10  1  0.335487  0.991904  0.251473  1
  Ta  Ta11  1  0.835487  0.508096  0.248527  1
  Ta  Ta12  1  0.837343  0.331304  0.625882  1
  Ta  Ta13  1  0.337343  0.168696  0.874118  1
  Ta  Ta14  1  0.156060  0.668430  0.126902  1
  Ta  Ta15  1  0.656060  0.831570  0.373098  1
  Ta  Ta16  1  0.167198  0.663026  0.374575  1
  Ta  Ta17  1  0.667198  0.836974  0.125425  1
  Ta  Ta18  1  0.843663  0.328596  0.875090  1
  Ta  Ta19  1  0.343663  0.171404  0.624910  1
  Ge  Ge20  1  0.806220  0.639775  0.750039  1
  Ge  Ge21  1  0.306220  0.860225  0.749961  1
  Ge  Ge22  1  0.193492  0.359103  0.250849  1
  Ge  Ge23  1  0.693492  0.140897  0.249151  1
  Ge  Ge24  1  0.539665  0.377825  0.751227  1
  Ge  Ge25  1  0.039665  0.122175  0.748773  1
  Ge  Ge26  1  0.462006  0.623543  0.246936  1
  Ge  Ge27  1  0.962006  0.876457  0.253064  1
  Ge  Ge28  1  0.676649  0.038281  0.542684  1
  Ge  Ge29  1  0.176649  0.461719  0.957316  1
  Ge  Ge30  1  0.327920  0.956197  0.042851  1
  Ge  Ge31  1  0.827920  0.543803  0.457149  1
  Ge  Ge32  1  0.320647  0.958607  0.457927  1
  Ge  Ge33  1  0.820647  0.541393  0.042073  1
  Ge  Ge34  1  0.674766  0.041181  0.955876  1
  Ge  Ge35  1  0.174766  0.458819  0.544124  1
