# generated using pymatgen
data_CsAg(BrO3)4
_symmetry_space_group_name_H-M   'P 1'
_cell_length_a   5.91894100
_cell_length_b   7.84120760
_cell_length_c   8.89216626
_cell_angle_alpha   109.74888135
_cell_angle_beta   90.00000000
_cell_angle_gamma   112.17429759
_symmetry_Int_Tables_number   1
_chemical_formula_structural   CsAg(BrO3)4
_chemical_formula_sum   'Cs1 Ag1 Br4 O12'
_cell_volume   355.82662857
_cell_formula_units_Z   1
loop_
 _symmetry_equiv_pos_site_id
 _symmetry_equiv_pos_as_xyz
  1  'x, y, z'
loop_
 _atom_site_type_symbol
 _atom_site_label
 _atom_site_symmetry_multiplicity
 _atom_site_fract_x
 _atom_site_fract_y
 _atom_site_fract_z
 _atom_site_occupancy
  Cs  Cs0  1  0.052896  0.000000  0.000000  1
  Ag  Ag1  1  0.241196  0.000000  0.500000  1
  Br  Br2  1  0.253395  0.633862  0.166881  1
  Br  Br3  1  0.619532  0.366138  0.833119  1
  Br  Br4  1  0.663949  0.278210  0.359621  1
  Br  Br5  1  0.385739  0.721790  0.640379  1
  O  O6  1  0.114981  0.804869  0.268538  1
  O  O7  1  0.310112  0.195131  0.731462  1
  O  O8  1  0.093789  0.430530  0.201780  1
  O  O9  1  0.663259  0.569469  0.798220  1
  O  O10  1  0.151871  0.599270  0.980474  1
  O  O11  1  0.552601  0.400730  0.019526  1
  O  O12  1  0.629768  0.075509  0.204188  1
  O  O13  1  0.554260  0.924491  0.795812  1
  O  O14  1  0.823901  0.282359  0.514821  1
  O  O15  1  0.541542  0.717641  0.485179  1
  O  O16  1  0.359610  0.228234  0.413660  1
  O  O17  1  0.131377  0.771766  0.586340  1
