# generated using pymatgen
data_SmU3(B6W)2
_symmetry_space_group_name_H-M   'P 1'
_cell_length_a   3.69864900
_cell_length_b   9.33153433
_cell_length_c   11.44301441
_cell_angle_alpha   90.03062316
_cell_angle_beta   90.00000000
_cell_angle_gamma   90.00000000
_symmetry_Int_Tables_number   1
_chemical_formula_structural   SmU3(B6W)2
_chemical_formula_sum   'Sm2 U6 B24 W4'
_cell_volume   394.94494539
_cell_formula_units_Z   2
loop_
 _symmetry_equiv_pos_site_id
 _symmetry_equiv_pos_as_xyz
  1  'x, y, z'
loop_
 _atom_site_type_symbol
 _atom_site_label
 _atom_site_symmetry_multiplicity
 _atom_site_fract_x
 _atom_site_fract_y
 _atom_site_fract_z
 _atom_site_occupancy
  Sm  Sm0  1  0.000000  0.336285  0.408321  1
  Sm  Sm1  1  0.000000  0.663715  0.591679  1
  U  U2  1  0.000000  0.834928  0.092098  1
  U  U3  1  0.000000  0.165072  0.907902  1
  U  U4  1  0.000000  0.956502  0.394990  1
  U  U5  1  0.000000  0.043498  0.605010  1
  U  U6  1  0.000000  0.456908  0.104612  1
  U  U7  1  0.000000  0.543092  0.895388  1
  B  B8  1  0.500000  0.553521  0.430026  1
  B  B9  1  0.500000  0.446479  0.569974  1
  B  B10  1  0.500000  0.049917  0.066563  1
  B  B11  1  0.500000  0.950083  0.933437  1
  B  B12  1  0.500000  0.746115  0.421993  1
  B  B13  1  0.500000  0.253885  0.578007  1
  B  B14  1  0.500000  0.243404  0.075493  1
  B  B15  1  0.500000  0.756596  0.924507  1
  B  B16  1  0.500000  0.805109  0.271566  1
  B  B17  1  0.500000  0.194891  0.728434  1
  B  B18  1  0.500000  0.302637  0.223962  1
  B  B19  1  0.500000  0.697363  0.776038  1
  B  B20  1  0.500000  0.645722  0.185914  1
  B  B21  1  0.500000  0.354278  0.814086  1
  B  B22  1  0.500000  0.142753  0.311427  1
  B  B23  1  0.500000  0.857247  0.688573  1
  B  B24  1  0.500000  0.986426  0.217766  1
  B  B25  1  0.500000  0.013574  0.782234  1
  B  B26  1  0.500000  0.489265  0.278779  1
  B  B27  1  0.500000  0.510735  0.721221  1
  B  B28  1  0.500000  0.642335  0.038710  1
  B  B29  1  0.500000  0.357665  0.961290  1
  B  B30  1  0.500000  0.135085  0.462076  1
  B  B31  1  0.500000  0.864915  0.537924  1
  W  W32  1  0.000000  0.650125  0.314121  1
  W  W33  1  0.000000  0.349875  0.685879  1
  W  W34  1  0.000000  0.142786  0.176642  1
  W  W35  1  0.000000  0.857214  0.823358  1
