# generated using pymatgen
data_Nd4CdCu2Ni2Hg
_symmetry_space_group_name_H-M   'P 1'
_cell_length_a   7.67334000
_cell_length_b   7.71814800
_cell_length_c   3.79871600
_cell_angle_alpha   90.00000000
_cell_angle_beta   90.00000000
_cell_angle_gamma   90.00105704
_symmetry_Int_Tables_number   1
_chemical_formula_structural   Nd4CdCu2Ni2Hg
_chemical_formula_sum   'Nd4 Cd1 Cu2 Ni2 Hg1'
_cell_volume   224.97505674
_cell_formula_units_Z   1
loop_
 _symmetry_equiv_pos_site_id
 _symmetry_equiv_pos_as_xyz
  1  'x, y, z'
loop_
 _atom_site_type_symbol
 _atom_site_label
 _atom_site_symmetry_multiplicity
 _atom_site_fract_x
 _atom_site_fract_y
 _atom_site_fract_z
 _atom_site_occupancy
  Nd  Nd0  1  0.323376  0.811333  0.500000  1
  Nd  Nd1  1  0.826181  0.691761  0.500000  1
  Nd  Nd2  1  0.176883  0.335427  0.500000  1
  Nd  Nd3  1  0.679779  0.161163  0.500000  1
  Cd  Cd4  1  0.506278  0.496288  0.000000  1
  Cu  Cu5  1  0.380638  0.113329  0.000000  1
  Cu  Cu6  1  0.877359  0.389961  0.000000  1
  Ni  Ni7  1  0.113111  0.614787  0.000000  1
  Ni  Ni8  1  0.610347  0.882039  0.000000  1
  Hg  Hg9  1  0.006049  0.003914  0.000000  1
