# generated using pymatgen
data_Tb18DyErSn16
_symmetry_space_group_name_H-M   'P 1'
_cell_length_a   8.06452601
_cell_length_b   8.21284580
_cell_length_c   15.53003200
_cell_angle_alpha   90.00000000
_cell_angle_beta   90.00000000
_cell_angle_gamma   89.97688472
_symmetry_Int_Tables_number   1
_chemical_formula_structural   Tb18DyErSn16
_chemical_formula_sum   'Tb18 Dy1 Er1 Sn16'
_cell_volume   1028.59599930
_cell_formula_units_Z   1
loop_
 _symmetry_equiv_pos_site_id
 _symmetry_equiv_pos_as_xyz
  1  'x, y, z'
loop_
 _atom_site_type_symbol
 _atom_site_label
 _atom_site_symmetry_multiplicity
 _atom_site_fract_x
 _atom_site_fract_y
 _atom_site_fract_z
 _atom_site_occupancy
  Tb  Tb0  1  0.367626  0.836289  0.878013  1
  Tb  Tb1  1  0.867941  0.663478  0.621980  1
  Tb  Tb2  1  0.632310  0.163648  0.378128  1
  Tb  Tb3  1  0.132308  0.336369  0.121716  1
  Tb  Tb4  1  0.632310  0.163648  0.121872  1
  Tb  Tb5  1  0.132308  0.336369  0.378284  1
  Tb  Tb6  1  0.367626  0.836289  0.621987  1
  Tb  Tb7  1  0.867941  0.663478  0.878020  1
  Tb  Tb8  1  0.520683  0.320549  0.902167  1
  Tb  Tb9  1  0.020898  0.179716  0.597834  1
  Tb  Tb10  1  0.479224  0.679563  0.402299  1
  Tb  Tb11  1  0.979169  0.820437  0.097785  1
  Tb  Tb12  1  0.479224  0.679563  0.097701  1
  Tb  Tb13  1  0.979169  0.820437  0.402215  1
  Tb  Tb14  1  0.520683  0.320549  0.597833  1
  Tb  Tb15  1  0.020898  0.179716  0.902166  1
  Tb  Tb16  1  0.801112  0.497389  0.250000  1
  Tb  Tb17  1  0.301106  0.002603  0.250000  1
  Dy  Dy18  1  0.698892  0.997556  0.750000  1
  Er  Er19  1  0.199204  0.502738  0.750000  1
  Sn  Sn20  1  0.292448  0.035574  0.041678  1
  Sn  Sn21  1  0.792407  0.464311  0.458327  1
  Sn  Sn22  1  0.707543  0.964454  0.542016  1
  Sn  Sn23  1  0.207540  0.535346  0.957590  1
  Sn  Sn24  1  0.707543  0.964454  0.957984  1
  Sn  Sn25  1  0.207540  0.535346  0.542410  1
  Sn  Sn26  1  0.292448  0.035574  0.458322  1
  Sn  Sn27  1  0.792407  0.464311  0.041673  1
  Sn  Sn28  1  0.564892  0.618127  0.750000  1
  Sn  Sn29  1  0.065779  0.881170  0.750000  1
  Sn  Sn30  1  0.434028  0.381633  0.250000  1
  Sn  Sn31  1  0.934180  0.118396  0.250000  1
  Sn  Sn32  1  0.329096  0.148157  0.750000  1
  Sn  Sn33  1  0.829657  0.352970  0.750000  1
  Sn  Sn34  1  0.670832  0.852914  0.250000  1
  Sn  Sn35  1  0.171030  0.646876  0.250000  1
