# generated using pymatgen
data_La2Nd3Er(CI5)2
_symmetry_space_group_name_H-M   'P 1'
_cell_length_a   7.93047664
_cell_length_b   9.72939857
_cell_length_c   9.82089667
_cell_angle_alpha   107.06750477
_cell_angle_beta   96.27512672
_cell_angle_gamma   104.78292937
_symmetry_Int_Tables_number   1
_chemical_formula_structural   La2Nd3Er(CI5)2
_chemical_formula_sum   'La2 Nd3 Er1 C2 I10'
_cell_volume   686.37045627
_cell_formula_units_Z   1
loop_
 _symmetry_equiv_pos_site_id
 _symmetry_equiv_pos_as_xyz
  1  'x, y, z'
loop_
 _atom_site_type_symbol
 _atom_site_label
 _atom_site_symmetry_multiplicity
 _atom_site_fract_x
 _atom_site_fract_y
 _atom_site_fract_z
 _atom_site_occupancy
  La  La0  1  0.887775  0.957431  0.226456  1
  La  La1  1  0.376916  0.135607  0.180237  1
  Nd  Nd2  1  0.027086  0.735311  0.921084  1
  Nd  Nd3  1  0.105223  0.038653  0.775672  1
  Nd  Nd4  1  0.968336  0.263818  0.074976  1
  Er  Er5  1  0.635873  0.870630  0.826129  1
  C  C6  1  0.085027  0.029010  0.039957  1
  C  C7  1  0.908899  0.969421  0.958670  1
  I  I8  1  0.210018  0.739600  0.652468  1
  I  I9  1  0.911232  0.624871  0.177087  1
  I  I10  1  0.087039  0.367778  0.818213  1
  I  I11  1  0.736752  0.911967  0.547798  1
  I  I12  1  0.254191  0.083568  0.465979  1
  I  I13  1  0.647607  0.554451  0.727817  1
  I  I14  1  0.454973  0.803353  0.079325  1
  I  I15  1  0.811777  0.272254  0.359439  1
  I  I16  1  0.343304  0.461687  0.270710  1
  I  I17  1  0.547969  0.180588  0.897984  1
