# generated using pymatgen
data_Tb7Gd2HoSi6
_symmetry_space_group_name_H-M   'P 1'
_cell_length_a   8.48880400
_cell_length_b   8.48880371
_cell_length_c   6.40332900
_cell_angle_alpha   90.00000000
_cell_angle_beta   90.00000000
_cell_angle_gamma   120.00000892
_symmetry_Int_Tables_number   1
_chemical_formula_structural   Tb7Gd2HoSi6
_chemical_formula_sum   'Tb7 Gd2 Ho1 Si6'
_cell_volume   399.60361317
_cell_formula_units_Z   1
loop_
 _symmetry_equiv_pos_site_id
 _symmetry_equiv_pos_as_xyz
  1  'x, y, z'
loop_
 _atom_site_type_symbol
 _atom_site_label
 _atom_site_symmetry_multiplicity
 _atom_site_fract_x
 _atom_site_fract_y
 _atom_site_fract_z
 _atom_site_occupancy
  Tb  Tb0  1  0.666667  0.333333  0.500000  1
  Tb  Tb1  1  0.755353  0.755170  0.248715  1
  Tb  Tb2  1  0.244830  0.000183  0.248715  1
  Tb  Tb3  1  0.999817  0.244647  0.248715  1
  Tb  Tb4  1  0.244830  0.244647  0.751285  1
  Tb  Tb5  1  0.755353  0.000183  0.751285  1
  Tb  Tb6  1  0.999817  0.755170  0.751285  1
  Gd  Gd7  1  0.333333  0.666667  0.500000  1
  Gd  Gd8  1  0.333333  0.666667  0.000000  1
  Ho  Ho9  1  0.666667  0.333333  0.000000  1
  Si  Si10  1  0.394733  0.392337  0.247155  1
  Si  Si11  1  0.607663  0.002396  0.247155  1
  Si  Si12  1  0.997604  0.605267  0.247155  1
  Si  Si13  1  0.607663  0.605267  0.752845  1
  Si  Si14  1  0.394733  0.002396  0.752845  1
  Si  Si15  1  0.997604  0.392337  0.752845  1
