# generated using pymatgen
data_Sn3Pb5F28
_symmetry_space_group_name_H-M   'P 1'
_cell_length_a   5.74975736
_cell_length_b   9.19268259
_cell_length_c   12.35283800
_cell_angle_alpha   62.15748562
_cell_angle_beta   90.02028854
_cell_angle_gamma   89.97750157
_symmetry_Int_Tables_number   1
_chemical_formula_structural   Sn3Pb5F28
_chemical_formula_sum   'Sn3 Pb5 F28'
_cell_volume   577.33242820
_cell_formula_units_Z   1
loop_
 _symmetry_equiv_pos_site_id
 _symmetry_equiv_pos_as_xyz
  1  'x, y, z'
loop_
 _atom_site_type_symbol
 _atom_site_label
 _atom_site_symmetry_multiplicity
 _atom_site_fract_x
 _atom_site_fract_y
 _atom_site_fract_z
 _atom_site_occupancy
  Sn  Sn0  1  0.744601  0.275882  0.955232  1
  Sn  Sn1  1  0.754750  0.277271  0.454737  1
  Sn  Sn2  1  0.261078  0.730237  0.041000  1
  Pb  Pb3  1  0.762637  0.805632  0.261128  1
  Pb  Pb4  1  0.254253  0.193618  0.229357  1
  Pb  Pb5  1  0.246316  0.186397  0.732598  1
  Pb  Pb6  1  0.736092  0.805270  0.764143  1
  Pb  Pb7  1  0.241427  0.731456  0.538178  1
  F  F8  1  0.918912  0.719966  0.453588  1
  F  F9  1  0.448359  0.294595  0.029409  1
  F  F10  1  0.048634  0.295213  0.531160  1
  F  F11  1  0.559934  0.720507  0.954917  1
  F  F12  1  0.052385  0.702942  0.922284  1
  F  F13  1  0.569918  0.302699  0.579849  1
  F  F14  1  0.926295  0.298109  0.082670  1
  F  F15  1  0.451590  0.696460  0.411353  1
  F  F16  1  0.733563  0.534554  0.856195  1
  F  F17  1  0.214856  0.484329  0.647653  1
  F  F18  1  0.282580  0.492538  0.143942  1
  F  F19  1  0.774827  0.535448  0.347801  1
  F  F20  1  0.739620  0.025827  0.056298  1
  F  F21  1  0.240266  0.981802  0.453012  1
  F  F22  1  0.264161  0.970591  0.954148  1
  F  F23  1  0.760684  0.028047  0.556311  1
  F  F24  1  0.037559  0.751117  0.683651  1
  F  F25  1  0.569966  0.266461  0.820394  1
  F  F26  1  0.929514  0.263834  0.321428  1
  F  F27  1  0.466898  0.748566  0.173095  1
  F  F28  1  0.032849  0.274653  0.869385  1
  F  F29  1  0.549200  0.724440  0.642656  1
  F  F30  1  0.974208  0.730399  0.139407  1
  F  F31  1  0.466864  0.278595  0.367449  1
  F  F32  1  0.077131  0.935266  0.238620  1
  F  F33  1  0.602266  0.000494  0.274440  1
  F  F34  1  0.885901  0.001932  0.778189  1
  F  F35  1  0.419905  0.934854  0.734323  1
