# generated using pymatgen
data_NaPu(BeB14)2
_symmetry_space_group_name_H-M   'P 1'
_cell_length_a   7.19409509
_cell_length_b   7.19409433
_cell_length_c   7.19409600
_cell_angle_alpha   132.90452140
_cell_angle_beta   110.44263252
_cell_angle_gamma   88.27811450
_symmetry_Int_Tables_number   1
_chemical_formula_structural   NaPu(BeB14)2
_chemical_formula_sum   'Na1 Pu1 Be2 B28'
_cell_volume   243.56722409
_cell_formula_units_Z   1
loop_
 _symmetry_equiv_pos_site_id
 _symmetry_equiv_pos_as_xyz
  1  'x, y, z'
loop_
 _atom_site_type_symbol
 _atom_site_label
 _atom_site_symmetry_multiplicity
 _atom_site_fract_x
 _atom_site_fract_y
 _atom_site_fract_z
 _atom_site_occupancy
  Na  Na0  1  0.394345  0.750000  0.644345  1
  Pu  Pu1  1  0.609911  0.249993  0.359914  1
  Be  Be2  1  0.008207  0.508950  0.017154  1
  Be  Be3  1  0.008228  0.991049  0.499272  1
  B  B4  1  0.979238  0.343763  0.635468  1
  B  B5  1  0.625095  0.327690  0.792534  1
  B  B6  1  0.800002  0.834160  0.965845  1
  B  B7  1  0.631684  0.665843  0.965844  1
  B  B8  1  0.197386  0.165464  0.031924  1
  B  B9  1  0.779621  0.780812  0.676209  1
  B  B10  1  0.964848  0.667437  0.792534  1
  B  B11  1  0.023393  0.655671  0.367714  1
  B  B12  1  0.964849  0.172317  0.297414  1
  B  B13  1  0.034608  0.827245  0.698229  1
  B  B14  1  0.366456  0.334538  0.031920  1
  B  B15  1  0.075819  0.908479  0.167342  1
  B  B16  1  0.625096  0.832562  0.297408  1
  B  B17  1  0.395394  0.719185  0.998805  1
  B  B18  1  0.241389  0.409274  0.832118  1
  B  B19  1  0.216871  0.219072  0.320889  1
  B  B20  1  0.212045  0.844323  0.367715  1
  B  B21  1  0.922847  0.090729  0.832120  1
  B  B22  1  0.395396  0.396592  0.676212  1
  B  B23  1  0.216871  0.895984  0.997801  1
  B  B24  1  0.779620  0.103414  0.998810  1
  B  B25  1  0.601818  0.280929  0.997802  1
  B  B26  1  0.601818  0.604017  0.320890  1
  B  B27  1  0.034609  0.336379  0.207365  1
  B  B28  1  0.758862  0.591521  0.167342  1
  B  B29  1  0.791708  0.156229  0.635470  1
  B  B30  1  0.370983  0.163622  0.698229  1
  B  B31  1  0.370985  0.672755  0.207362  1
