# generated using pymatgen
data_TbY3Al18(Os2Pd)2
_symmetry_space_group_name_H-M   'P 1'
_cell_length_a   7.58571506
_cell_length_b   7.58685659
_cell_length_c   9.55317603
_cell_angle_alpha   89.99575131
_cell_angle_beta   89.99573082
_cell_angle_gamma   119.49993738
_symmetry_Int_Tables_number   1
_chemical_formula_structural   TbY3Al18(Os2Pd)2
_chemical_formula_sum   'Tb1 Y3 Al18 Os4 Pd2'
_cell_volume   478.52344415
_cell_formula_units_Z   1
loop_
 _symmetry_equiv_pos_site_id
 _symmetry_equiv_pos_as_xyz
  1  'x, y, z'
loop_
 _atom_site_type_symbol
 _atom_site_label
 _atom_site_symmetry_multiplicity
 _atom_site_fract_x
 _atom_site_fract_y
 _atom_site_fract_z
 _atom_site_occupancy
  Tb  Tb0  1  0.997706  0.670246  0.250106  1
  Y  Y1  1  0.002621  0.329678  0.749931  1
  Y  Y2  1  0.670416  0.997690  0.250072  1
  Y  Y3  1  0.330006  0.002399  0.749927  1
  Al  Al4  1  0.132936  0.132857  0.250055  1
  Al  Al5  1  0.867580  0.867517  0.749942  1
  Al  Al6  1  0.002531  0.340145  0.072609  1
  Al  Al7  1  0.997263  0.659742  0.927175  1
  Al  Al8  1  0.997274  0.659678  0.572753  1
  Al  Al9  1  0.340468  0.002508  0.427533  1
  Al  Al10  1  0.002525  0.340213  0.427456  1
  Al  Al11  1  0.659596  0.997363  0.572702  1
  Al  Al12  1  0.659660  0.997357  0.927227  1
  Al  Al13  1  0.340410  0.002520  0.072532  1
  Al  Al14  1  0.339228  0.339267  0.548530  1
  Al  Al15  1  0.660755  0.660847  0.451424  1
  Al  Al16  1  0.660673  0.660762  0.048578  1
  Al  Al17  1  0.339313  0.339351  0.951462  1
  Al  Al18  1  0.336798  0.549215  0.250061  1
  Al  Al19  1  0.663029  0.450399  0.749937  1
  Al  Al20  1  0.549338  0.336997  0.250059  1
  Al  Al21  1  0.450591  0.663224  0.749935  1
  Os  Os22  1  0.672277  0.327507  0.999919  1
  Os  Os23  1  0.327480  0.672332  0.999871  1
  Os  Os24  1  0.327467  0.672346  0.500128  1
  Os  Os25  1  0.672293  0.327487  0.500080  1
  Pd  Pd26  1  0.999883  0.000177  0.000026  1
  Pd  Pd27  1  0.999884  0.000177  0.499970  1
