# generated using pymatgen
data_HoTm5CoTe2
_symmetry_space_group_name_H-M   'P 1'
_cell_length_a   8.23822190
_cell_length_b   8.23822236
_cell_length_c   3.90077300
_cell_angle_alpha   90.00000000
_cell_angle_beta   90.00000000
_cell_angle_gamma   118.96212728
_symmetry_Int_Tables_number   1
_chemical_formula_structural   HoTm5CoTe2
_chemical_formula_sum   'Ho1 Tm5 Co1 Te2'
_cell_volume   231.63060094
_cell_formula_units_Z   1
loop_
 _symmetry_equiv_pos_site_id
 _symmetry_equiv_pos_as_xyz
  1  'x, y, z'
loop_
 _atom_site_type_symbol
 _atom_site_label
 _atom_site_symmetry_multiplicity
 _atom_site_fract_x
 _atom_site_fract_y
 _atom_site_fract_z
 _atom_site_occupancy
  Ho  Ho0  1  0.400020  0.400020  0.500000  1
  Tm  Tm1  1  0.235385  0.003012  0.000000  1
  Tm  Tm2  1  0.003012  0.235385  0.000000  1
  Tm  Tm3  1  0.765431  0.765431  0.000000  1
  Tm  Tm4  1  0.608197  0.000112  0.500000  1
  Tm  Tm5  1  0.000112  0.608197  0.500000  1
  Co  Co6  1  0.986231  0.986231  0.500000  1
  Te  Te7  1  0.333675  0.667938  0.000000  1
  Te  Te8  1  0.667938  0.333675  0.000000  1
