# generated using pymatgen
data_Tm5TcMoC7
_symmetry_space_group_name_H-M   'P 1'
_cell_length_a   8.25493202
_cell_length_b   8.25493204
_cell_length_c   3.39075600
_cell_angle_alpha   90.00000000
_cell_angle_beta   90.00000000
_cell_angle_gamma   121.95109369
_symmetry_Int_Tables_number   1
_chemical_formula_structural   Tm5TcMoC7
_chemical_formula_sum   'Tm5 Tc1 Mo1 C7'
_cell_volume   196.05388256
_cell_formula_units_Z   1
loop_
 _symmetry_equiv_pos_site_id
 _symmetry_equiv_pos_as_xyz
  1  'x, y, z'
loop_
 _atom_site_type_symbol
 _atom_site_label
 _atom_site_symmetry_multiplicity
 _atom_site_fract_x
 _atom_site_fract_y
 _atom_site_fract_z
 _atom_site_occupancy
  Tm  Tm0  1  0.501235  0.498765  0.000000  1
  Tm  Tm1  1  0.076351  0.335400  0.500000  1
  Tm  Tm2  1  0.921199  0.662199  0.500000  1
  Tm  Tm3  1  0.664600  0.923649  0.500000  1
  Tm  Tm4  1  0.337801  0.078801  0.500000  1
  Tc  Tc5  1  0.713166  0.286834  0.000000  1
  Mo  Mo6  1  0.285983  0.714017  0.000000  1
  C  C7  1  0.624240  0.375760  0.500000  1
  C  C8  1  0.377678  0.622322  0.500000  1
  C  C9  1  0.999874  0.000126  0.000000  1
  C  C10  1  0.168730  0.169616  0.000000  1
  C  C11  1  0.830384  0.831270  0.000000  1
  C  C12  1  0.998856  0.500099  0.000000  1
  C  C13  1  0.499901  0.001144  0.000000  1
