# generated using pymatgen
data_Dy4HoTm5(CoBi2)2
_symmetry_space_group_name_H-M   'P 1'
_cell_length_a   7.94199278
_cell_length_b   8.88606000
_cell_length_c   12.35312620
_cell_angle_alpha   90.00000000
_cell_angle_beta   90.05055939
_cell_angle_gamma   90.00000000
_symmetry_Int_Tables_number   1
_chemical_formula_structural   Dy4HoTm5(CoBi2)2
_chemical_formula_sum   'Dy8 Ho2 Tm10 Co4 Bi8'
_cell_volume   871.79713625
_cell_formula_units_Z   2
loop_
 _symmetry_equiv_pos_site_id
 _symmetry_equiv_pos_as_xyz
  1  'x, y, z'
loop_
 _atom_site_type_symbol
 _atom_site_label
 _atom_site_symmetry_multiplicity
 _atom_site_fract_x
 _atom_site_fract_y
 _atom_site_fract_z
 _atom_site_occupancy
  Dy  Dy0  1  0.347174  0.750000  0.699096  1
  Dy  Dy1  1  0.652826  0.250000  0.300904  1
  Dy  Dy2  1  0.847410  0.250000  0.800114  1
  Dy  Dy3  1  0.152590  0.750000  0.199886  1
  Dy  Dy4  1  0.884633  0.750000  0.811267  1
  Dy  Dy5  1  0.115367  0.250000  0.188733  1
  Dy  Dy6  1  0.384682  0.250000  0.688327  1
  Dy  Dy7  1  0.615318  0.750000  0.311673  1
  Ho  Ho8  1  0.553417  0.250000  0.002239  1
  Ho  Ho9  1  0.446583  0.750000  0.997761  1
  Tm  Tm10  1  0.674412  0.538051  0.562349  1
  Tm  Tm11  1  0.325588  0.461949  0.437651  1
  Tm  Tm12  1  0.173930  0.461830  0.937447  1
  Tm  Tm13  1  0.325588  0.038051  0.437651  1
  Tm  Tm14  1  0.826070  0.538170  0.062553  1
  Tm  Tm15  1  0.674412  0.961949  0.562349  1
  Tm  Tm16  1  0.826070  0.961830  0.062553  1
  Tm  Tm17  1  0.173930  0.038170  0.937447  1
  Tm  Tm18  1  0.054252  0.750000  0.497573  1
  Tm  Tm19  1  0.945748  0.250000  0.502427  1
  Co  Co20  1  0.065613  0.750000  0.991934  1
  Co  Co21  1  0.934387  0.250000  0.008066  1
  Co  Co22  1  0.566417  0.250000  0.508167  1
  Co  Co23  1  0.433583  0.750000  0.491833  1
  Bi  Bi24  1  0.571100  0.509369  0.827144  1
  Bi  Bi25  1  0.428900  0.490631  0.172856  1
  Bi  Bi26  1  0.070653  0.490588  0.671810  1
  Bi  Bi27  1  0.428900  0.009369  0.172856  1
  Bi  Bi28  1  0.929347  0.509412  0.328190  1
  Bi  Bi29  1  0.571100  0.990631  0.827144  1
  Bi  Bi30  1  0.929347  0.990588  0.328190  1
  Bi  Bi31  1  0.070653  0.009412  0.671810  1
