# generated using pymatgen
data_PaSCl9
_symmetry_space_group_name_H-M   'P 1'
_cell_length_a   9.42913025
_cell_length_b   9.42912976
_cell_length_c   9.42912982
_cell_angle_alpha   76.02455034
_cell_angle_beta   76.02455003
_cell_angle_gamma   76.02454580
_symmetry_Int_Tables_number   1
_chemical_formula_structural   PaSCl9
_chemical_formula_sum   'Pa2 S2 Cl18'
_cell_volume   774.35356869
_cell_formula_units_Z   2
loop_
 _symmetry_equiv_pos_site_id
 _symmetry_equiv_pos_as_xyz
  1  'x, y, z'
loop_
 _atom_site_type_symbol
 _atom_site_label
 _atom_site_symmetry_multiplicity
 _atom_site_fract_x
 _atom_site_fract_y
 _atom_site_fract_z
 _atom_site_occupancy
  Pa  Pa0  1  0.500000  0.500000  0.500000  1
  Pa  Pa1  1  0.000000  0.000000  0.000000  1
  S  S2  1  0.708644  0.708644  0.708644  1
  S  S3  1  0.291356  0.291356  0.291356  1
  Cl  Cl4  1  0.029082  0.029082  0.717952  1
  Cl  Cl5  1  0.970918  0.970918  0.282048  1
  Cl  Cl6  1  0.970918  0.282048  0.970918  1
  Cl  Cl7  1  0.717952  0.029082  0.029082  1
  Cl  Cl8  1  0.029082  0.717952  0.029082  1
  Cl  Cl9  1  0.282048  0.970918  0.970918  1
  Cl  Cl10  1  0.369375  0.678535  0.678535  1
  Cl  Cl11  1  0.321465  0.630625  0.321465  1
  Cl  Cl12  1  0.630625  0.321465  0.321465  1
  Cl  Cl13  1  0.678535  0.369375  0.678535  1
  Cl  Cl14  1  0.321465  0.321465  0.630625  1
  Cl  Cl15  1  0.678535  0.678535  0.369375  1
  Cl  Cl16  1  0.068874  0.338505  0.338505  1
  Cl  Cl17  1  0.661495  0.931126  0.661495  1
  Cl  Cl18  1  0.931126  0.661495  0.661495  1
  Cl  Cl19  1  0.338505  0.068874  0.338505  1
  Cl  Cl20  1  0.338505  0.338505  0.068874  1
  Cl  Cl21  1  0.661495  0.661495  0.931126  1
