# generated using pymatgen
data_Ac2Zn2Ga5Ag
_symmetry_space_group_name_H-M   'P 1'
_cell_length_a   4.50351000
_cell_length_b   4.50351000
_cell_length_c   10.68008700
_cell_angle_alpha   90.00000000
_cell_angle_beta   90.00000000
_cell_angle_gamma   90.00000000
_symmetry_Int_Tables_number   1
_chemical_formula_structural   Ac2Zn2Ga5Ag
_chemical_formula_sum   'Ac2 Zn2 Ga5 Ag1'
_cell_volume   216.60927728
_cell_formula_units_Z   1
loop_
 _symmetry_equiv_pos_site_id
 _symmetry_equiv_pos_as_xyz
  1  'x, y, z'
loop_
 _atom_site_type_symbol
 _atom_site_label
 _atom_site_symmetry_multiplicity
 _atom_site_fract_x
 _atom_site_fract_y
 _atom_site_fract_z
 _atom_site_occupancy
  Ac  Ac0  1  0.500000  0.000000  0.741250  1
  Ac  Ac1  1  0.000000  0.500000  0.258750  1
  Zn  Zn2  1  0.000000  0.000000  0.500000  1
  Zn  Zn3  1  0.500000  0.500000  0.500000  1
  Ga  Ga4  1  0.000000  0.500000  0.865285  1
  Ga  Ga5  1  0.500000  0.000000  0.376016  1
  Ga  Ga6  1  0.500000  0.000000  0.134715  1
  Ga  Ga7  1  0.000000  0.500000  0.623984  1
  Ga  Ga8  1  0.000000  0.000000  0.000000  1
  Ag  Ag9  1  0.500000  0.500000  0.000000  1
