# generated using pymatgen
data_Li4Nd23Rh7
_symmetry_space_group_name_H-M   'P 1'
_cell_length_a   10.08008400
_cell_length_b   10.08008416
_cell_length_c   22.69994100
_cell_angle_alpha   90.00000000
_cell_angle_beta   90.00000000
_cell_angle_gamma   119.99999948
_symmetry_Int_Tables_number   1
_chemical_formula_structural   Li4Nd23Rh7
_chemical_formula_sum   'Li8 Nd46 Rh14'
_cell_volume   1997.48566685
_cell_formula_units_Z   2
loop_
 _symmetry_equiv_pos_site_id
 _symmetry_equiv_pos_as_xyz
  1  'x, y, z'
loop_
 _atom_site_type_symbol
 _atom_site_label
 _atom_site_symmetry_multiplicity
 _atom_site_fract_x
 _atom_site_fract_y
 _atom_site_fract_z
 _atom_site_occupancy
  Li  Li0  1  0.000002  0.000004  0.252761  1
  Li  Li1  1  0.105846  0.211682  0.863864  1
  Li  Li2  1  0.105854  0.894158  0.863867  1
  Li  Li3  1  0.894154  0.788318  0.363864  1
  Li  Li4  1  0.788295  0.894149  0.863856  1
  Li  Li5  1  0.211705  0.105851  0.363856  1
  Li  Li6  1  0.999998  0.999996  0.752761  1
  Li  Li7  1  0.894146  0.105842  0.363867  1
  Nd  Nd8  1  0.458829  0.917636  0.858400  1
  Nd  Nd9  1  0.000006  0.999997  0.999467  1
  Nd  Nd10  1  0.742460  0.871232  0.135873  1
  Nd  Nd11  1  0.871201  0.742503  0.635896  1
  Nd  Nd12  1  0.790256  0.209695  0.949853  1
  Nd  Nd13  1  0.210130  0.420150  0.720102  1
  Nd  Nd14  1  0.579906  0.789962  0.720109  1
  Nd  Nd15  1  0.541171  0.082364  0.358400  1
  Nd  Nd16  1  0.790057  0.580164  0.491402  1
  Nd  Nd17  1  0.539784  0.460204  0.084994  1
  Nd  Nd18  1  0.789870  0.579850  0.220102  1
  Nd  Nd19  1  0.419485  0.209733  0.949844  1
  Nd  Nd20  1  0.790049  0.209892  0.491403  1
  Nd  Nd21  1  0.209943  0.419836  0.991402  1
  Nd  Nd22  1  0.257540  0.128768  0.635873  1
  Nd  Nd23  1  0.458833  0.541185  0.858403  1
  Nd  Nd24  1  0.411637  0.205820  0.782887  1
  Nd  Nd25  1  0.789866  0.210015  0.220103  1
  Nd  Nd26  1  0.794114  0.205813  0.782914  1
  Nd  Nd27  1  0.209951  0.790108  0.991403  1
  Nd  Nd28  1  0.419817  0.209900  0.491412  1
  Nd  Nd29  1  0.580515  0.790267  0.449844  1
  Nd  Nd30  1  0.209731  0.419430  0.449850  1
  Nd  Nd31  1  0.128799  0.257497  0.135896  1
  Nd  Nd32  1  0.079666  0.539831  0.584992  1
  Nd  Nd33  1  0.666645  0.333326  0.643994  1
  Nd  Nd34  1  0.794106  0.588298  0.782907  1
  Nd  Nd35  1  0.871192  0.128703  0.635893  1
  Nd  Nd36  1  0.790269  0.580570  0.949850  1
  Nd  Nd37  1  0.580183  0.790100  0.991412  1
  Nd  Nd38  1  0.205886  0.794187  0.282914  1
  Nd  Nd39  1  0.460222  0.920421  0.584993  1
  Nd  Nd40  1  0.210134  0.789985  0.720103  1
  Nd  Nd41  1  0.420094  0.210038  0.220109  1
  Nd  Nd42  1  0.920334  0.460169  0.084992  1
  Nd  Nd43  1  0.128808  0.871297  0.135893  1
  Nd  Nd44  1  0.588363  0.794180  0.282887  1
  Nd  Nd45  1  0.460216  0.539796  0.584994  1
  Nd  Nd46  1  0.917633  0.458817  0.358413  1
  Nd  Nd47  1  0.999994  0.000003  0.499467  1
  Nd  Nd48  1  0.333355  0.666674  0.143994  1
  Nd  Nd49  1  0.082367  0.541183  0.858413  1
  Nd  Nd50  1  0.541167  0.458815  0.358403  1
  Nd  Nd51  1  0.539778  0.079579  0.084993  1
  Nd  Nd52  1  0.205894  0.411702  0.282907  1
  Nd  Nd53  1  0.209744  0.790305  0.449853  1
  Rh  Rh54  1  0.666652  0.333318  0.864309  1
  Rh  Rh55  1  0.521423  0.042824  0.710412  1
  Rh  Rh56  1  0.478688  0.521302  0.210465  1
  Rh  Rh57  1  0.042713  0.521366  0.210480  1
  Rh  Rh58  1  0.478577  0.957176  0.210412  1
  Rh  Rh59  1  0.142569  0.285188  0.563738  1
  Rh  Rh60  1  0.857431  0.714812  0.063738  1
  Rh  Rh61  1  0.857393  0.142634  0.063735  1
  Rh  Rh62  1  0.333348  0.666682  0.364309  1
  Rh  Rh63  1  0.957287  0.478634  0.710480  1
  Rh  Rh64  1  0.285272  0.142621  0.063717  1
  Rh  Rh65  1  0.521312  0.478698  0.710465  1
  Rh  Rh66  1  0.142607  0.857366  0.563735  1
  Rh  Rh67  1  0.714728  0.857379  0.563717  1
