# generated using pymatgen
data_Dy2U2In2Ir3Rh
_symmetry_space_group_name_H-M   'P 1'
_cell_length_a   7.79042403
_cell_length_b   7.61079740
_cell_length_c   3.59724200
_cell_angle_alpha   90.00000000
_cell_angle_beta   90.00000000
_cell_angle_gamma   90.30184307
_symmetry_Int_Tables_number   1
_chemical_formula_structural   Dy2U2In2Ir3Rh
_chemical_formula_sum   'Dy2 U2 In2 Ir3 Rh1'
_cell_volume   213.28233501
_cell_formula_units_Z   1
loop_
 _symmetry_equiv_pos_site_id
 _symmetry_equiv_pos_as_xyz
  1  'x, y, z'
loop_
 _atom_site_type_symbol
 _atom_site_label
 _atom_site_symmetry_multiplicity
 _atom_site_fract_x
 _atom_site_fract_y
 _atom_site_fract_z
 _atom_site_occupancy
  Dy  Dy0  1  0.171462  0.329328  0.500000  1
  Dy  Dy1  1  0.671406  0.169709  0.500000  1
  U  U2  1  0.326395  0.837833  0.500000  1
  U  U3  1  0.821123  0.660359  0.500000  1
  In  In4  1  0.490423  0.491367  0.000000  1
  In  In5  1  0.990459  0.005475  0.000000  1
  Ir  Ir6  1  0.371347  0.098337  0.000000  1
  Ir  Ir7  1  0.638260  0.839609  0.000000  1
  Ir  Ir8  1  0.875130  0.404745  0.000000  1
  Rh  Rh9  1  0.143998  0.663237  0.000000  1
