# generated using pymatgen
data_Dy3LuCo16(P3Ru)4
_symmetry_space_group_name_H-M   'P 1'
_cell_length_a   3.69194800
_cell_length_b   10.39720478
_cell_length_c   11.78131288
_cell_angle_alpha   89.95568507
_cell_angle_beta   90.00000000
_cell_angle_gamma   90.00000000
_symmetry_Int_Tables_number   1
_chemical_formula_structural   Dy3LuCo16(P3Ru)4
_chemical_formula_sum   'Dy3 Lu1 Co16 P12 Ru4'
_cell_volume   452.23662684
_cell_formula_units_Z   1
loop_
 _symmetry_equiv_pos_site_id
 _symmetry_equiv_pos_as_xyz
  1  'x, y, z'
loop_
 _atom_site_type_symbol
 _atom_site_label
 _atom_site_symmetry_multiplicity
 _atom_site_fract_x
 _atom_site_fract_y
 _atom_site_fract_z
 _atom_site_occupancy
  Dy  Dy0  1  0.250000  0.913874  0.204007  1
  Dy  Dy1  1  0.750000  0.413980  0.296022  1
  Dy  Dy2  1  0.750000  0.086088  0.795941  1
  Lu  Lu3  1  0.250000  0.585904  0.703735  1
  Co  Co4  1  0.250000  0.409343  0.490032  1
  Co  Co5  1  0.250000  0.091273  0.989607  1
  Co  Co6  1  0.750000  0.591486  0.512601  1
  Co  Co7  1  0.750000  0.908695  0.010289  1
  Co  Co8  1  0.250000  0.221047  0.176737  1
  Co  Co9  1  0.250000  0.279488  0.676983  1
  Co  Co10  1  0.750000  0.777613  0.822540  1
  Co  Co11  1  0.750000  0.720697  0.323452  1
  Co  Co12  1  0.250000  0.886341  0.702634  1
  Co  Co13  1  0.250000  0.612792  0.202357  1
  Co  Co14  1  0.750000  0.112897  0.297613  1
  Co  Co15  1  0.750000  0.388900  0.796714  1
  Co  Co16  1  0.250000  0.465943  0.929369  1
  Co  Co17  1  0.250000  0.034674  0.430728  1
  Co  Co18  1  0.750000  0.534844  0.068650  1
  Co  Co19  1  0.750000  0.964233  0.569794  1
  P  P20  1  0.250000  0.419758  0.111340  1
  P  P21  1  0.250000  0.080318  0.611922  1
  P  P22  1  0.750000  0.580422  0.886453  1
  P  P23  1  0.750000  0.919487  0.388305  1
  P  P24  1  0.250000  0.271705  0.867252  1
  P  P25  1  0.250000  0.228407  0.367211  1
  P  P26  1  0.750000  0.728292  0.132750  1
  P  P27  1  0.750000  0.769562  0.633444  1
  P  P28  1  0.250000  0.595841  0.390080  1
  P  P29  1  0.250000  0.904273  0.890189  1
  P  P30  1  0.750000  0.405657  0.610472  1
  P  P31  1  0.750000  0.095793  0.109877  1
  Ru  Ru32  1  0.250000  0.716902  0.992334  1
  Ru  Ru33  1  0.250000  0.782658  0.492819  1
  Ru  Ru34  1  0.750000  0.283328  0.007545  1
  Ru  Ru35  1  0.750000  0.217486  0.508203  1
