# generated using pymatgen
data_Nb6FeCo14Si7Ru
_symmetry_space_group_name_H-M   'P 1'
_cell_length_a   7.95656813
_cell_length_b   7.93590787
_cell_length_c   7.93590800
_cell_angle_alpha   59.99999947
_cell_angle_beta   60.08585817
_cell_angle_gamma   60.08586005
_symmetry_Int_Tables_number   1
_chemical_formula_structural   Nb6FeCo14Si7Ru
_chemical_formula_sum   'Nb6 Fe1 Co14 Si7 Ru1'
_cell_volume   354.78595667
_cell_formula_units_Z   1
loop_
 _symmetry_equiv_pos_site_id
 _symmetry_equiv_pos_as_xyz
  1  'x, y, z'
loop_
 _atom_site_type_symbol
 _atom_site_label
 _atom_site_symmetry_multiplicity
 _atom_site_fract_x
 _atom_site_fract_y
 _atom_site_fract_z
 _atom_site_occupancy
  Nb  Nb0  1  0.795549  0.201169  0.802115  1
  Nb  Nb1  1  0.795549  0.802115  0.201169  1
  Nb  Nb2  1  0.204448  0.796474  0.202604  1
  Nb  Nb3  1  0.204448  0.202604  0.796474  1
  Nb  Nb4  1  0.204448  0.796474  0.796474  1
  Nb  Nb5  1  0.795549  0.201169  0.201169  1
  Fe  Fe6  1  0.481864  0.172711  0.172711  1
  Co  Co7  1  0.614787  0.621145  0.142924  1
  Co  Co8  1  0.382542  0.380135  0.857188  1
  Co  Co9  1  0.834798  0.499277  0.832963  1
  Co  Co10  1  0.834798  0.832963  0.832963  1
  Co  Co11  1  0.834798  0.832963  0.499277  1
  Co  Co12  1  0.382542  0.380135  0.380135  1
  Co  Co13  1  0.142040  0.619321  0.619321  1
  Co  Co14  1  0.614787  0.621145  0.621145  1
  Co  Co15  1  0.171770  0.164371  0.164371  1
  Co  Co16  1  0.171770  0.499487  0.164371  1
  Co  Co17  1  0.496128  0.834624  0.834624  1
  Co  Co18  1  0.614787  0.142924  0.621145  1
  Co  Co19  1  0.171770  0.164371  0.499487  1
  Co  Co20  1  0.382542  0.857188  0.380135  1
  Si  Si21  1  0.504267  0.996869  0.996869  1
  Si  Si22  1  0.003911  0.500561  0.994966  1
  Si  Si23  1  0.504267  0.501994  0.996869  1
  Si  Si24  1  0.488630  0.503790  0.503790  1
  Si  Si25  1  0.003911  0.500561  0.500561  1
  Si  Si26  1  0.003911  0.994966  0.500561  1
  Si  Si27  1  0.504267  0.996869  0.501994  1
  Ru  Ru28  1  0.855126  0.381625  0.381625  1
