# generated using pymatgen
data_Ca10ErReN10
_symmetry_space_group_name_H-M   'P 1'
_cell_length_a   7.08299060
_cell_length_b   7.08299031
_cell_length_c   8.95469132
_cell_angle_alpha   80.40781780
_cell_angle_beta   80.40781733
_cell_angle_gamma   59.85308209
_symmetry_Int_Tables_number   1
_chemical_formula_structural   Ca10ErReN10
_chemical_formula_sum   'Ca10 Er1 Re1 N10'
_cell_volume   381.23264862
_cell_formula_units_Z   1
loop_
 _symmetry_equiv_pos_site_id
 _symmetry_equiv_pos_as_xyz
  1  'x, y, z'
loop_
 _atom_site_type_symbol
 _atom_site_label
 _atom_site_symmetry_multiplicity
 _atom_site_fract_x
 _atom_site_fract_y
 _atom_site_fract_z
 _atom_site_occupancy
  Ca  Ca0  1  0.873827  0.361782  0.824288  1
  Ca  Ca1  1  0.872917  0.872917  0.812597  1
  Ca  Ca2  1  0.736778  0.736778  0.532313  1
  Ca  Ca3  1  0.745027  0.258375  0.515593  1
  Ca  Ca4  1  0.622907  0.140730  0.149512  1
  Ca  Ca5  1  0.361782  0.873827  0.824288  1
  Ca  Ca6  1  0.258375  0.745027  0.515593  1
  Ca  Ca7  1  0.240646  0.240646  0.504184  1
  Ca  Ca8  1  0.141851  0.141851  0.159840  1
  Ca  Ca9  1  0.140730  0.622907  0.149512  1
  Er  Er10  1  0.369358  0.369358  0.783337  1
  Re  Re11  1  0.632051  0.632051  0.227406  1
  N  N12  1  0.898634  0.475536  0.313944  1
  N  N13  1  0.992184  0.992184  0.026646  1
  N  N14  1  0.674164  0.674164  0.021382  1
  N  N15  1  0.552344  0.552344  0.682371  1
  N  N16  1  0.475536  0.898634  0.313944  1
  N  N17  1  0.553544  0.065045  0.660381  1
  N  N18  1  0.478607  0.478607  0.295964  1
  N  N19  1  0.315463  0.315463  0.028677  1
  N  N20  1  0.060515  0.060515  0.643652  1
  N  N21  1  0.065045  0.553544  0.660381  1
