# generated using pymatgen
data_Er20Ir7PtRh4
_symmetry_space_group_name_H-M   'P 1'
_cell_length_a   10.81198805
_cell_length_b   10.81198805
_cell_length_c   6.32642201
_cell_angle_alpha   89.99628993
_cell_angle_beta   89.99628993
_cell_angle_gamma   89.88931911
_symmetry_Int_Tables_number   1
_chemical_formula_structural   Er20Ir7PtRh4
_chemical_formula_sum   'Er20 Ir7 Pt1 Rh4'
_cell_volume   739.55156454
_cell_formula_units_Z   1
loop_
 _symmetry_equiv_pos_site_id
 _symmetry_equiv_pos_as_xyz
  1  'x, y, z'
loop_
 _atom_site_type_symbol
 _atom_site_label
 _atom_site_symmetry_multiplicity
 _atom_site_fract_x
 _atom_site_fract_y
 _atom_site_fract_z
 _atom_site_occupancy
  Er  Er0  1  0.290254  0.088879  0.379094  1
  Er  Er1  1  0.290710  0.910925  0.878524  1
  Er  Er2  1  0.707220  0.087512  0.875134  1
  Er  Er3  1  0.708164  0.908306  0.380286  1
  Er  Er4  1  0.588781  0.790463  0.879462  1
  Er  Er5  1  0.585444  0.209866  0.380045  1
  Er  Er6  1  0.411017  0.790411  0.379343  1
  Er  Er7  1  0.410927  0.209617  0.879327  1
  Er  Er8  1  0.209537  0.411219  0.620538  1
  Er  Er9  1  0.209589  0.588983  0.120657  1
  Er  Er10  1  0.790134  0.414556  0.119955  1
  Er  Er11  1  0.790383  0.589073  0.620673  1
  Er  Er12  1  0.911121  0.709746  0.120906  1
  Er  Er13  1  0.912488  0.292780  0.624866  1
  Er  Er14  1  0.089075  0.709290  0.621476  1
  Er  Er15  1  0.091694  0.291836  0.119714  1
  Er  Er16  1  0.001572  0.998221  0.501303  1
  Er  Er17  1  0.001779  0.998428  0.998697  1
  Er  Er18  1  0.499839  0.500001  0.999771  1
  Er  Er19  1  0.499999  0.500161  0.500229  1
  Ir  Ir20  1  0.845855  0.846833  0.749968  1
  Ir  Ir21  1  0.153167  0.154145  0.750032  1
  Ir  Ir22  1  0.154093  0.845907  0.250000  1
  Ir  Ir23  1  0.655074  0.344926  0.750000  1
  Ir  Ir24  1  0.654165  0.653947  0.249794  1
  Ir  Ir25  1  0.346053  0.345835  0.250206  1
  Ir  Ir26  1  0.345832  0.654168  0.750000  1
  Pt  Pt27  1  0.845670  0.154330  0.250000  1
  Rh  Rh28  1  0.500392  0.000138  0.124383  1
  Rh  Rh29  1  0.500463  0.000354  0.623538  1
  Rh  Rh30  1  0.999646  0.499537  0.876462  1
  Rh  Rh31  1  0.999862  0.499608  0.375617  1
