# generated using pymatgen
data_Be8V2IrW
_symmetry_space_group_name_H-M   'P 1'
_cell_length_a   4.32923600
_cell_length_b   4.32923569
_cell_length_c   7.10025200
_cell_angle_alpha   90.00000000
_cell_angle_beta   90.00000000
_cell_angle_gamma   120.00000235
_symmetry_Int_Tables_number   1
_chemical_formula_structural   Be8V2IrW
_chemical_formula_sum   'Be8 V2 Ir1 W1'
_cell_volume   115.24626938
_cell_formula_units_Z   1
loop_
 _symmetry_equiv_pos_site_id
 _symmetry_equiv_pos_as_xyz
  1  'x, y, z'
loop_
 _atom_site_type_symbol
 _atom_site_label
 _atom_site_symmetry_multiplicity
 _atom_site_fract_x
 _atom_site_fract_y
 _atom_site_fract_z
 _atom_site_occupancy
  Be  Be0  1  0.000000  0.000000  0.000488  1
  Be  Be1  1  0.000000  0.000000  0.494688  1
  Be  Be2  1  0.829968  0.659938  0.248197  1
  Be  Be3  1  0.168744  0.831256  0.752218  1
  Be  Be4  1  0.662513  0.831256  0.752218  1
  Be  Be5  1  0.340062  0.170032  0.248197  1
  Be  Be6  1  0.829968  0.170032  0.248197  1
  Be  Be7  1  0.168744  0.337487  0.752218  1
  V  V8  1  0.666667  0.333333  0.938249  1
  V  V9  1  0.333333  0.666667  0.437043  1
  Ir  Ir10  1  0.333333  0.666667  0.064754  1
  W  W11  1  0.666667  0.333333  0.563533  1
