# generated using pymatgen
data_Zr2NbB2Ru5
_symmetry_space_group_name_H-M   'P 1'
_cell_length_a   9.50853800
_cell_length_b   9.50853800
_cell_length_c   3.12219000
_cell_angle_alpha   90.00000000
_cell_angle_beta   90.00000000
_cell_angle_gamma   90.00000000
_symmetry_Int_Tables_number   1
_chemical_formula_structural   Zr2NbB2Ru5
_chemical_formula_sum   'Zr4 Nb2 B4 Ru10'
_cell_volume   282.28436301
_cell_formula_units_Z   2
loop_
 _symmetry_equiv_pos_site_id
 _symmetry_equiv_pos_as_xyz
  1  'x, y, z'
loop_
 _atom_site_type_symbol
 _atom_site_label
 _atom_site_symmetry_multiplicity
 _atom_site_fract_x
 _atom_site_fract_y
 _atom_site_fract_z
 _atom_site_occupancy
  Zr  Zr0  1  0.675301  0.175301  0.000000  1
  Zr  Zr1  1  0.324699  0.824699  0.000000  1
  Zr  Zr2  1  0.175301  0.324699  0.000000  1
  Zr  Zr3  1  0.824699  0.675301  0.000000  1
  Nb  Nb4  1  0.000000  0.000000  0.000000  1
  Nb  Nb5  1  0.500000  0.500000  0.000000  1
  B  B6  1  0.121551  0.621551  0.000000  1
  B  B7  1  0.878449  0.378449  0.000000  1
  B  B8  1  0.621551  0.878449  0.000000  1
  B  B9  1  0.378449  0.121551  0.000000  1
  Ru  Ru10  1  0.218313  0.071093  0.500000  1
  Ru  Ru11  1  0.781687  0.928907  0.500000  1
  Ru  Ru12  1  0.071093  0.781687  0.500000  1
  Ru  Ru13  1  0.718313  0.428907  0.500000  1
  Ru  Ru14  1  0.928907  0.218313  0.500000  1
  Ru  Ru15  1  0.281687  0.571093  0.500000  1
  Ru  Ru16  1  0.571093  0.718313  0.500000  1
  Ru  Ru17  1  0.428907  0.281687  0.500000  1
  Ru  Ru18  1  0.500000  0.000000  0.500000  1
  Ru  Ru19  1  0.000000  0.500000  0.500000  1
