# generated using pymatgen
data_Tm3LuTc2(B8Rh)2
_symmetry_space_group_name_H-M   'P 1'
_cell_length_a   3.55283800
_cell_length_b   5.92653220
_cell_length_c   11.48059816
_cell_angle_alpha   90.25929004
_cell_angle_beta   90.00000000
_cell_angle_gamma   90.00000000
_symmetry_Int_Tables_number   1
_chemical_formula_structural   Tm3LuTc2(B8Rh)2
_chemical_formula_sum   'Tm3 Lu1 Tc2 B16 Rh2'
_cell_volume   241.73310065
_cell_formula_units_Z   1
loop_
 _symmetry_equiv_pos_site_id
 _symmetry_equiv_pos_as_xyz
  1  'x, y, z'
loop_
 _atom_site_type_symbol
 _atom_site_label
 _atom_site_symmetry_multiplicity
 _atom_site_fract_x
 _atom_site_fract_y
 _atom_site_fract_z
 _atom_site_occupancy
  Tm  Tm0  1  0.500000  0.371027  0.149016  1
  Tm  Tm1  1  0.500000  0.628974  0.850981  1
  Tm  Tm2  1  0.500000  0.130046  0.648292  1
  Lu  Lu3  1  0.500000  0.869836  0.351845  1
  Tc  Tc4  1  0.500000  0.364575  0.410367  1
  Tc  Tc5  1  0.500000  0.635382  0.589334  1
  B  B6  1  0.000000  0.113007  0.048466  1
  B  B7  1  0.000000  0.886940  0.951598  1
  B  B8  1  0.000000  0.387151  0.546966  1
  B  B9  1  0.000000  0.613384  0.452728  1
  B  B10  1  0.000000  0.134311  0.469517  1
  B  B11  1  0.000000  0.865536  0.530153  1
  B  B12  1  0.000000  0.364279  0.969948  1
  B  B13  1  0.000000  0.635785  0.030081  1
  B  B14  1  0.000000  0.021544  0.194281  1
  B  B15  1  0.000000  0.978298  0.805954  1
  B  B16  1  0.000000  0.477029  0.693027  1
  B  B17  1  0.000000  0.523314  0.306952  1
  B  B18  1  0.000000  0.208570  0.314236  1
  B  B19  1  0.000000  0.790950  0.685762  1
  B  B20  1  0.000000  0.291297  0.813459  1
  B  B21  1  0.000000  0.708791  0.186715  1
  Rh  Rh22  1  0.500000  0.141194  0.905203  1
  Rh  Rh23  1  0.500000  0.858779  0.095119  1
