# generated using pymatgen
data_RbPr(TaBr3)6
_symmetry_space_group_name_H-M   'P 1'
_cell_length_a   10.86769129
_cell_length_b   10.86769005
_cell_length_c   10.86769121
_cell_angle_alpha   55.45214673
_cell_angle_beta   55.45214181
_cell_angle_gamma   55.45214229
_symmetry_Int_Tables_number   1
_chemical_formula_structural   RbPr(TaBr3)6
_chemical_formula_sum   'Rb1 Pr1 Ta6 Br18'
_cell_volume   811.74842657
_cell_formula_units_Z   1
loop_
 _symmetry_equiv_pos_site_id
 _symmetry_equiv_pos_as_xyz
  1  'x, y, z'
loop_
 _atom_site_type_symbol
 _atom_site_label
 _atom_site_symmetry_multiplicity
 _atom_site_fract_x
 _atom_site_fract_y
 _atom_site_fract_z
 _atom_site_occupancy
  Rb  Rb0  1  0.221375  0.221375  0.221375  1
  Pr  Pr1  1  0.498291  0.498291  0.498291  1
  Ta  Ta2  1  0.812110  0.138588  0.920249  1
  Ta  Ta3  1  0.920249  0.812110  0.138588  1
  Ta  Ta4  1  0.138588  0.920249  0.812110  1
  Ta  Ta5  1  0.188824  0.861844  0.079248  1
  Ta  Ta6  1  0.079248  0.188824  0.861844  1
  Ta  Ta7  1  0.861844  0.079248  0.188824  1
  Br  Br8  1  0.863014  0.407717  0.730346  1
  Br  Br9  1  0.730346  0.863014  0.407717  1
  Br  Br10  1  0.407717  0.730346  0.863014  1
  Br  Br11  1  0.136376  0.592244  0.271950  1
  Br  Br12  1  0.271950  0.136376  0.592244  1
  Br  Br13  1  0.592244  0.271950  0.136376  1
  Br  Br14  1  0.536359  0.334570  0.813830  1
  Br  Br15  1  0.813830  0.536359  0.334570  1
  Br  Br16  1  0.334570  0.813830  0.536359  1
  Br  Br17  1  0.459705  0.667491  0.188687  1
  Br  Br18  1  0.188687  0.459705  0.667491  1
  Br  Br19  1  0.667491  0.188687  0.459705  1
  Br  Br20  1  0.667344  0.936437  0.071727  1
  Br  Br21  1  0.071727  0.667344  0.936437  1
  Br  Br22  1  0.936437  0.071727  0.667344  1
  Br  Br23  1  0.336026  0.062091  0.924696  1
  Br  Br24  1  0.924696  0.336026  0.062091  1
  Br  Br25  1  0.062091  0.924696  0.336026  1
