# generated using pymatgen
data_KRbPr4(CuSe4)2
_symmetry_space_group_name_H-M   'P 1'
_cell_length_a   7.64216939
_cell_length_b   7.64216926
_cell_length_c   14.74632600
_cell_angle_alpha   90.00000000
_cell_angle_beta   90.00000000
_cell_angle_gamma   147.58841853
_symmetry_Int_Tables_number   1
_chemical_formula_structural   KRbPr4(CuSe4)2
_chemical_formula_sum   'K1 Rb1 Pr4 Cu2 Se8'
_cell_volume   461.61495244
_cell_formula_units_Z   1
loop_
 _symmetry_equiv_pos_site_id
 _symmetry_equiv_pos_as_xyz
  1  'x, y, z'
loop_
 _atom_site_type_symbol
 _atom_site_label
 _atom_site_symmetry_multiplicity
 _atom_site_fract_x
 _atom_site_fract_y
 _atom_site_fract_z
 _atom_site_occupancy
  K  K0  1  0.891086  0.108914  0.750000  1
  Rb  Rb1  1  0.108006  0.891994  0.250000  1
  Pr  Pr2  1  0.635385  0.364615  0.935862  1
  Pr  Pr3  1  0.365818  0.634182  0.438116  1
  Pr  Pr4  1  0.635385  0.364615  0.564138  1
  Pr  Pr5  1  0.365818  0.634182  0.061884  1
  Cu  Cu6  1  0.160634  0.839366  0.750000  1
  Cu  Cu7  1  0.837480  0.162520  0.250000  1
  Se  Se8  1  0.000882  0.999118  0.500327  1
  Se  Se9  1  0.000882  0.999118  0.999673  1
  Se  Se10  1  0.737232  0.262768  0.113617  1
  Se  Se11  1  0.264297  0.735703  0.882933  1
  Se  Se12  1  0.566255  0.433745  0.750000  1
  Se  Se13  1  0.737232  0.262768  0.386383  1
  Se  Se14  1  0.429311  0.570689  0.250000  1
  Se  Se15  1  0.264297  0.735703  0.617067  1
