# generated using pymatgen
data_Zr2Te4I2O11
_symmetry_space_group_name_H-M   'P 1'
_cell_length_a   7.98169653
_cell_length_b   10.27786385
_cell_length_c   11.26949718
_cell_angle_alpha   115.79539426
_cell_angle_beta   106.06027410
_cell_angle_gamma   98.88283839
_symmetry_Int_Tables_number   1
_chemical_formula_structural   Zr2Te4I2O11
_chemical_formula_sum   'Zr4 Te8 I4 O22'
_cell_volume   758.46573259
_cell_formula_units_Z   2
loop_
 _symmetry_equiv_pos_site_id
 _symmetry_equiv_pos_as_xyz
  1  'x, y, z'
loop_
 _atom_site_type_symbol
 _atom_site_label
 _atom_site_symmetry_multiplicity
 _atom_site_fract_x
 _atom_site_fract_y
 _atom_site_fract_z
 _atom_site_occupancy
  Zr  Zr0  1  0.887345  0.111162  0.618591  1
  Zr  Zr1  1  0.112655  0.888838  0.381409  1
  Zr  Zr2  1  0.624721  0.389526  0.892480  1
  Zr  Zr3  1  0.375279  0.610474  0.107520  1
  Te  Te4  1  0.246634  0.015770  0.776265  1
  Te  Te5  1  0.753366  0.984230  0.223735  1
  Te  Te6  1  0.493247  0.255128  0.491622  1
  Te  Te7  1  0.506753  0.744872  0.508378  1
  Te  Te8  1  0.773004  0.485985  0.245487  1
  Te  Te9  1  0.226996  0.514015  0.754513  1
  Te  Te10  1  0.980234  0.244873  0.983278  1
  Te  Te11  1  0.019766  0.755127  0.016722  1
  I  I12  1  0.101033  0.369853  0.361572  1
  I  I13  1  0.898967  0.630147  0.638428  1
  I  I14  1  0.635392  0.881209  0.888535  1
  I  I15  1  0.364608  0.118791  0.111465  1
  O  O16  1  0.515322  0.352806  0.683684  1
  O  O17  1  0.484678  0.647194  0.316316  1
  O  O18  1  0.681268  0.164659  0.502425  1
  O  O19  1  0.318732  0.835341  0.497575  1
  O  O20  1  0.064284  0.118789  0.818157  1
  O  O21  1  0.935716  0.881211  0.181843  1
  O  O22  1  0.583519  0.496018  0.100268  1
  O  O23  1  0.416481  0.503982  0.899732  1
  O  O24  1  0.818300  0.373453  0.070636  1
  O  O25  1  0.181700  0.626547  0.929364  1
  O  O26  1  0.815256  0.245480  0.819171  1
  O  O27  1  0.184744  0.754520  0.180829  1
  O  O28  1  0.105361  0.995934  0.593703  1
  O  O29  1  0.894639  0.004066  0.406297  1
  O  O30  1  0.930968  0.678888  0.316455  1
  O  O31  1  0.069032  0.321112  0.683545  1
  O  O32  1  0.704048  0.919090  0.576256  1
  O  O33  1  0.295952  0.080910  0.423744  1
  O  O34  1  0.171640  0.420536  0.048627  1
  O  O35  1  0.828360  0.579464  0.951373  1
  O  O36  1  0.439909  0.183894  0.831987  1
  O  O37  1  0.560091  0.816106  0.168013  1
