# generated using pymatgen
data_LiCoPtS4
_symmetry_space_group_name_H-M   'P 1'
_cell_length_a   7.02893250
_cell_length_b   7.17992513
_cell_length_c   7.02893196
_cell_angle_alpha   59.28681006
_cell_angle_beta   58.50450876
_cell_angle_gamma   59.28680785
_symmetry_Int_Tables_number   1
_chemical_formula_structural   LiCoPtS4
_chemical_formula_sum   'Li2 Co2 Pt2 S8'
_cell_volume   245.22940996
_cell_formula_units_Z   2
loop_
 _symmetry_equiv_pos_site_id
 _symmetry_equiv_pos_as_xyz
  1  'x, y, z'
loop_
 _atom_site_type_symbol
 _atom_site_label
 _atom_site_symmetry_multiplicity
 _atom_site_fract_x
 _atom_site_fract_y
 _atom_site_fract_z
 _atom_site_occupancy
  Li  Li0  1  0.758029  0.741971  0.758029  1
  Li  Li1  1  0.491971  0.508029  0.491971  1
  Co  Co2  1  0.625000  0.125000  0.125000  1
  Co  Co3  1  0.125000  0.125000  0.625000  1
  Pt  Pt4  1  0.125000  0.125000  0.125000  1
  Pt  Pt5  1  0.125000  0.625000  0.125000  1
  S  S6  1  0.918538  0.352238  0.376987  1
  S  S7  1  0.376987  0.352238  0.918538  1
  S  S8  1  0.365775  0.343590  0.365775  1
  S  S9  1  0.331462  0.897762  0.873013  1
  S  S10  1  0.884225  0.325139  0.884225  1
  S  S11  1  0.873013  0.897762  0.331462  1
  S  S12  1  0.365775  0.924861  0.365775  1
  S  S13  1  0.884225  0.906410  0.884225  1
