# generated using pymatgen
data_K3Ho(AsO4)2
_symmetry_space_group_name_H-M   'P 1'
_cell_length_a   7.58205621
_cell_length_b   5.83921900
_cell_length_c   9.80686900
_cell_angle_alpha   90.00000000
_cell_angle_beta   91.87122773
_cell_angle_gamma   90.00000000
_symmetry_Int_Tables_number   1
_chemical_formula_structural   K3Ho(AsO4)2
_chemical_formula_sum   'K6 Ho2 As4 O16'
_cell_volume   433.95079045
_cell_formula_units_Z   2
loop_
 _symmetry_equiv_pos_site_id
 _symmetry_equiv_pos_as_xyz
  1  'x, y, z'
loop_
 _atom_site_type_symbol
 _atom_site_label
 _atom_site_symmetry_multiplicity
 _atom_site_fract_x
 _atom_site_fract_y
 _atom_site_fract_z
 _atom_site_occupancy
  K  K0  1  0.698614  0.495637  0.083755  1
  K  K1  1  0.007283  0.995042  0.192991  1
  K  K2  1  0.134083  0.489452  0.412437  1
  K  K3  1  0.865917  0.989451  0.587563  1
  K  K4  1  0.992717  0.495043  0.807009  1
  K  K5  1  0.301386  0.995636  0.916244  1
  Ho  Ho6  1  0.514284  0.994368  0.285134  1
  Ho  Ho7  1  0.485716  0.494368  0.714866  1
  As  As8  1  0.267026  0.495889  0.090418  1
  As  As9  1  0.683392  0.487431  0.429174  1
  As  As10  1  0.316608  0.987430  0.570826  1
  As  As11  1  0.732974  0.995890  0.909582  1
  O  O12  1  0.677876  0.996981  0.078557  1
  O  O13  1  0.045041  0.497536  0.109799  1
  O  O14  1  0.355298  0.255246  0.168342  1
  O  O15  1  0.355431  0.735799  0.169074  1
  O  O16  1  0.728668  0.721876  0.328602  1
  O  O17  1  0.741420  0.248071  0.336547  1
  O  O18  1  0.201449  0.998765  0.417177  1
  O  O19  1  0.467811  0.469297  0.475435  1
  O  O20  1  0.532189  0.969296  0.524565  1
  O  O21  1  0.798551  0.498764  0.582824  1
  O  O22  1  0.258580  0.748071  0.663454  1
  O  O23  1  0.271332  0.221877  0.671397  1
  O  O24  1  0.644569  0.235800  0.830925  1
  O  O25  1  0.644702  0.755247  0.831658  1
  O  O26  1  0.954959  0.997535  0.890200  1
  O  O27  1  0.322124  0.496982  0.921444  1
