# generated using pymatgen
data_NdDy(TaS2)8
_symmetry_space_group_name_H-M   'P 1'
_cell_length_a   6.69704400
_cell_length_b   6.69704343
_cell_length_c   14.01454300
_cell_angle_alpha   90.00000000
_cell_angle_beta   90.00000000
_cell_angle_gamma   120.00001269
_symmetry_Int_Tables_number   1
_chemical_formula_structural   NdDy(TaS2)8
_chemical_formula_sum   'Nd1 Dy1 Ta8 S16'
_cell_volume   544.34693795
_cell_formula_units_Z   1
loop_
 _symmetry_equiv_pos_site_id
 _symmetry_equiv_pos_as_xyz
  1  'x, y, z'
loop_
 _atom_site_type_symbol
 _atom_site_label
 _atom_site_symmetry_multiplicity
 _atom_site_fract_x
 _atom_site_fract_y
 _atom_site_fract_z
 _atom_site_occupancy
  Nd  Nd0  1  0.000000  0.000000  0.000000  1
  Dy  Dy1  1  0.000000  0.000000  0.500000  1
  Ta  Ta2  1  0.504863  0.495137  0.745905  1
  Ta  Ta3  1  0.009723  0.504863  0.254095  1
  Ta  Ta4  1  0.495137  0.990277  0.254095  1
  Ta  Ta5  1  0.504863  0.009723  0.745905  1
  Ta  Ta6  1  0.990277  0.495137  0.745905  1
  Ta  Ta7  1  0.495137  0.504863  0.254095  1
  Ta  Ta8  1  0.000000  0.000000  0.746938  1
  Ta  Ta9  1  0.000000  0.000000  0.253062  1
  S  S10  1  0.831601  0.168399  0.365001  1
  S  S11  1  0.831601  0.663202  0.365001  1
  S  S12  1  0.336798  0.168399  0.365001  1
  S  S13  1  0.660626  0.830313  0.857253  1
  S  S14  1  0.168399  0.336798  0.634999  1
  S  S15  1  0.169687  0.830313  0.857253  1
  S  S16  1  0.169687  0.339374  0.857253  1
  S  S17  1  0.830313  0.169687  0.142747  1
  S  S18  1  0.339374  0.169687  0.142747  1
  S  S19  1  0.663202  0.831601  0.634999  1
  S  S20  1  0.333333  0.666667  0.139744  1
  S  S21  1  0.666667  0.333333  0.631819  1
  S  S22  1  0.666667  0.333333  0.860256  1
  S  S23  1  0.333333  0.666667  0.368181  1
  S  S24  1  0.830313  0.660626  0.142747  1
  S  S25  1  0.168399  0.831601  0.634999  1
