# generated using pymatgen
data_Nd5TmTiAl23Ru8
_symmetry_space_group_name_H-M   'P 1'
_cell_length_a   8.88229700
_cell_length_b   8.90302421
_cell_length_c   9.67588500
_cell_angle_alpha   89.99843738
_cell_angle_beta   90.00000000
_cell_angle_gamma   119.92302032
_symmetry_Int_Tables_number   1
_chemical_formula_structural   Nd5TmTiAl23Ru8
_chemical_formula_sum   'Nd5 Tm1 Ti1 Al23 Ru8'
_cell_volume   663.16337611
_cell_formula_units_Z   1
loop_
 _symmetry_equiv_pos_site_id
 _symmetry_equiv_pos_as_xyz
  1  'x, y, z'
loop_
 _atom_site_type_symbol
 _atom_site_label
 _atom_site_symmetry_multiplicity
 _atom_site_fract_x
 _atom_site_fract_y
 _atom_site_fract_z
 _atom_site_occupancy
  Nd  Nd0  1  0.808043  0.616087  0.750232  1
  Nd  Nd1  1  0.617482  0.809475  0.250341  1
  Nd  Nd2  1  0.383494  0.191500  0.749911  1
  Nd  Nd3  1  0.191994  0.809475  0.250341  1
  Nd  Nd4  1  0.808004  0.191500  0.749911  1
  Tm  Tm5  1  0.194552  0.389103  0.250153  1
  Ti  Ti6  1  0.332570  0.665141  0.993730  1
  Al  Al7  1  0.666729  0.333458  0.989872  1
  Al  Al8  1  0.666459  0.332917  0.512705  1
  Al  Al9  1  0.332353  0.664706  0.482738  1
  Al  Al10  1  0.162329  0.324660  0.571689  1
  Al  Al11  1  0.836627  0.673254  0.423169  1
  Al  Al12  1  0.673736  0.836614  0.573691  1
  Al  Al13  1  0.836970  0.673939  0.079471  1
  Al  Al14  1  0.324832  0.164081  0.423253  1
  Al  Al15  1  0.159028  0.318055  0.928386  1
  Al  Al16  1  0.162877  0.836614  0.573691  1
  Al  Al17  1  0.324366  0.163944  0.079320  1
  Al  Al18  1  0.839248  0.164081  0.423253  1
  Al  Al19  1  0.680748  0.840510  0.925764  1
  Al  Al20  1  0.839579  0.163944  0.079320  1
  Al  Al21  1  0.159762  0.840510  0.925764  1
  Al  Al22  1  0.563333  0.126665  0.251581  1
  Al  Al23  1  0.438168  0.876337  0.749147  1
  Al  Al24  1  0.877823  0.437462  0.251798  1
  Al  Al25  1  0.122816  0.560715  0.749254  1
  Al  Al26  1  0.559640  0.437462  0.251798  1
  Al  Al27  1  0.437898  0.560715  0.749254  1
  Al  Al28  1  0.004027  0.008054  0.250173  1
  Al  Al29  1  0.999937  0.999873  0.749802  1
  Ru  Ru30  1  0.497213  0.994425  0.002447  1
  Ru  Ru31  1  0.006012  0.500950  0.003162  1
  Ru  Ru32  1  0.498784  0.997568  0.500450  1
  Ru  Ru33  1  0.494939  0.500950  0.003162  1
  Ru  Ru34  1  0.001920  0.498893  0.500565  1
  Ru  Ru35  1  0.496973  0.498893  0.500565  1
  Ru  Ru36  1  0.999340  0.998681  0.001700  1
  Ru  Ru37  1  0.999396  0.998793  0.498434  1
