# generated using pymatgen
data_KRb7(SiSe4)2
_symmetry_space_group_name_H-M   'P 1'
_cell_length_a   8.28986288
_cell_length_b   8.03544380
_cell_length_c   11.46644500
_cell_angle_alpha   81.39945083
_cell_angle_beta   73.37737704
_cell_angle_gamma   66.99991504
_symmetry_Int_Tables_number   1
_chemical_formula_structural   KRb7(SiSe4)2
_chemical_formula_sum   'K1 Rb7 Si2 Se8'
_cell_volume   673.09110621
_cell_formula_units_Z   1
loop_
 _symmetry_equiv_pos_site_id
 _symmetry_equiv_pos_as_xyz
  1  'x, y, z'
loop_
 _atom_site_type_symbol
 _atom_site_label
 _atom_site_symmetry_multiplicity
 _atom_site_fract_x
 _atom_site_fract_y
 _atom_site_fract_z
 _atom_site_occupancy
  K  K0  1  0.782461  0.281265  0.049729  1
  Rb  Rb1  1  0.582385  0.777651  0.140633  1
  Rb  Rb2  1  0.049279  0.762689  0.364272  1
  Rb  Rb3  1  0.491239  0.289030  0.430165  1
  Rb  Rb4  1  0.518637  0.707098  0.566616  1
  Rb  Rb5  1  0.953394  0.234998  0.637307  1
  Rb  Rb6  1  0.408461  0.219156  0.859936  1
  Rb  Rb7  1  0.216913  0.716842  0.944861  1
  Si  Si8  1  0.158484  0.233293  0.249043  1
  Si  Si9  1  0.841955  0.768627  0.752469  1
  Se  Se10  1  0.163058  0.058136  0.105835  1
  Se  Se11  1  0.339123  0.401649  0.165995  1
  Se  Se12  1  0.863029  0.428420  0.324520  1
  Se  Se13  1  0.281774  0.030002  0.393763  1
  Se  Se14  1  0.718318  0.970198  0.607136  1
  Se  Se15  1  0.139194  0.577262  0.675713  1
  Se  Se16  1  0.669053  0.593547  0.835005  1
  Se  Se17  1  0.823248  0.950141  0.897000  1
