# generated using pymatgen
data_Li3Dy4Si8Rh
_symmetry_space_group_name_H-M   'P 1'
_cell_length_a   3.80859700
_cell_length_b   7.46302336
_cell_length_c   10.09658838
_cell_angle_alpha   90.07106700
_cell_angle_beta   90.00000000
_cell_angle_gamma   90.00000000
_symmetry_Int_Tables_number   1
_chemical_formula_structural   Li3Dy4Si8Rh
_chemical_formula_sum   'Li3 Dy4 Si8 Rh1'
_cell_volume   286.98165712
_cell_formula_units_Z   1
loop_
 _symmetry_equiv_pos_site_id
 _symmetry_equiv_pos_as_xyz
  1  'x, y, z'
loop_
 _atom_site_type_symbol
 _atom_site_label
 _atom_site_symmetry_multiplicity
 _atom_site_fract_x
 _atom_site_fract_y
 _atom_site_fract_z
 _atom_site_occupancy
  Li  Li0  1  0.250000  0.491582  0.109812  1
  Li  Li1  1  0.750000  0.008497  0.604487  1
  Li  Li2  1  0.750000  0.503448  0.891552  1
  Dy  Dy3  1  0.250000  0.138129  0.866735  1
  Dy  Dy4  1  0.250000  0.641972  0.627653  1
  Dy  Dy5  1  0.750000  0.860762  0.134823  1
  Dy  Dy6  1  0.750000  0.369074  0.367804  1
  Si  Si7  1  0.250000  0.218472  0.564565  1
  Si  Si8  1  0.250000  0.730372  0.928445  1
  Si  Si9  1  0.750000  0.785815  0.431432  1
  Si  Si10  1  0.750000  0.263077  0.074086  1
  Si  Si11  1  0.250000  0.663906  0.321068  1
  Si  Si12  1  0.250000  0.154010  0.191429  1
  Si  Si13  1  0.750000  0.338911  0.675965  1
  Si  Si14  1  0.750000  0.843260  0.816689  1
  Rh  Rh15  1  0.250000  0.988711  0.393453  1
