# generated using pymatgen
data_Nd8In3Pd8Pb
_symmetry_space_group_name_H-M   'P 1'
_cell_length_a   7.91681400
_cell_length_b   7.91681400
_cell_length_c   7.71906600
_cell_angle_alpha   90.00000000
_cell_angle_beta   90.00000000
_cell_angle_gamma   90.00000000
_symmetry_Int_Tables_number   1
_chemical_formula_structural   Nd8In3Pd8Pb
_chemical_formula_sum   'Nd8 In3 Pd8 Pb1'
_cell_volume   483.79974766
_cell_formula_units_Z   1
loop_
 _symmetry_equiv_pos_site_id
 _symmetry_equiv_pos_as_xyz
  1  'x, y, z'
loop_
 _atom_site_type_symbol
 _atom_site_label
 _atom_site_symmetry_multiplicity
 _atom_site_fract_x
 _atom_site_fract_y
 _atom_site_fract_z
 _atom_site_occupancy
  Nd  Nd0  1  0.173023  0.176383  0.999253  1
  Nd  Nd1  1  0.826977  0.823617  0.999253  1
  Nd  Nd2  1  0.676383  0.326977  0.500747  1
  Nd  Nd3  1  0.323617  0.673023  0.500747  1
  Nd  Nd4  1  0.678415  0.324837  0.999204  1
  Nd  Nd5  1  0.321585  0.675163  0.999204  1
  Nd  Nd6  1  0.824837  0.821585  0.500796  1
  Nd  Nd7  1  0.175163  0.178415  0.500796  1
  In  In8  1  0.500000  0.000000  0.750000  1
  In  In9  1  0.000000  0.500000  0.250000  1
  In  In10  1  0.000000  0.500000  0.750000  1
  Pd  Pd11  1  0.370763  0.379966  0.247269  1
  Pd  Pd12  1  0.625077  0.626563  0.752576  1
  Pd  Pd13  1  0.629237  0.620034  0.247269  1
  Pd  Pd14  1  0.873437  0.125077  0.747424  1
  Pd  Pd15  1  0.879966  0.129237  0.252731  1
  Pd  Pd16  1  0.374923  0.373437  0.752576  1
  Pd  Pd17  1  0.120034  0.870763  0.252731  1
  Pd  Pd18  1  0.126563  0.874923  0.747424  1
  Pb  Pb19  1  0.500000  0.000000  0.250000  1
