# generated using pymatgen
data_YbDyBe25Ni
_symmetry_space_group_name_H-M   'P 1'
_cell_length_a   7.22236220
_cell_length_b   7.23523071
_cell_length_c   7.26683469
_cell_angle_alpha   59.67130668
_cell_angle_beta   59.92274835
_cell_angle_gamma   59.87870619
_symmetry_Int_Tables_number   1
_chemical_formula_structural   YbDyBe25Ni
_chemical_formula_sum   'Yb1 Dy1 Be25 Ni1'
_cell_volume   267.43687041
_cell_formula_units_Z   1
loop_
 _symmetry_equiv_pos_site_id
 _symmetry_equiv_pos_as_xyz
  1  'x, y, z'
loop_
 _atom_site_type_symbol
 _atom_site_label
 _atom_site_symmetry_multiplicity
 _atom_site_fract_x
 _atom_site_fract_y
 _atom_site_fract_z
 _atom_site_occupancy
  Yb  Yb0  1  0.250033  0.246457  0.253292  1
  Dy  Dy1  1  0.750556  0.749449  0.751528  1
  Be  Be2  1  0.498724  0.501560  0.500671  1
  Be  Be3  1  0.000411  0.999648  0.001819  1
  Be  Be4  1  0.064010  0.288927  0.713754  1
  Be  Be5  1  0.712742  0.934256  0.064897  1
  Be  Be6  1  0.065326  0.932823  0.288425  1
  Be  Be7  1  0.931248  0.066953  0.715865  1
  Be  Be8  1  0.933403  0.290718  0.063442  1
  Be  Be9  1  0.711695  0.064003  0.290025  1
  Be  Be10  1  0.565039  0.791304  0.436011  1
  Be  Be11  1  0.437527  0.790455  0.205419  1
  Be  Be12  1  0.791510  0.438407  0.565635  1
  Be  Be13  1  0.439366  0.206854  0.564803  1
  Be  Be14  1  0.791347  0.562840  0.208602  1
  Be  Be15  1  0.563334  0.206985  0.793355  1
  Be  Be16  1  0.207773  0.436503  0.790073  1
  Be  Be17  1  0.208278  0.563294  0.435187  1
  Be  Be18  1  0.709555  0.292102  0.934182  1
  Be  Be19  1  0.289800  0.063957  0.930114  1
  Be  Be20  1  0.289681  0.935480  0.711746  1
  Be  Be21  1  0.062989  0.712183  0.935243  1
  Be  Be22  1  0.933978  0.711862  0.286101  1
  Be  Be23  1  0.292290  0.709241  0.064347  1
  Be  Be24  1  0.566588  0.435001  0.207929  1
  Be  Be25  1  0.794514  0.203810  0.439781  1
  Be  Be26  1  0.434537  0.567500  0.787432  1
  Ni  Ni27  1  0.203745  0.797430  0.560326  1
