# generated using pymatgen
data_Dy13Tm3InAg3(PdRh)2
_symmetry_space_group_name_H-M   'P 1'
_cell_length_a   9.50005855
_cell_length_b   9.50005878
_cell_length_c   9.50733800
_cell_angle_alpha   60.39170221
_cell_angle_beta   60.39170139
_cell_angle_gamma   60.41311568
_symmetry_Int_Tables_number   1
_chemical_formula_structural   Dy13Tm3InAg3(PdRh)2
_chemical_formula_sum   'Dy13 Tm3 In1 Ag3 Pd2 Rh2'
_cell_volume   612.20391651
_cell_formula_units_Z   1
loop_
 _symmetry_equiv_pos_site_id
 _symmetry_equiv_pos_as_xyz
  1  'x, y, z'
loop_
 _atom_site_type_symbol
 _atom_site_label
 _atom_site_symmetry_multiplicity
 _atom_site_fract_x
 _atom_site_fract_y
 _atom_site_fract_z
 _atom_site_occupancy
  Dy  Dy0  1  0.935867  0.933381  0.560195  1
  Dy  Dy1  1  0.147339  0.141381  0.562409  1
  Dy  Dy2  1  0.564679  0.934173  0.562990  1
  Dy  Dy3  1  0.149285  0.145448  0.146848  1
  Dy  Dy4  1  0.311453  0.312128  0.692737  1
  Dy  Dy5  1  0.934623  0.565182  0.563924  1
  Dy  Dy6  1  0.563623  0.562915  0.935754  1
  Dy  Dy7  1  0.560070  0.933876  0.936083  1
  Dy  Dy8  1  0.935144  0.560197  0.934453  1
  Dy  Dy9  1  0.145243  0.564892  0.141948  1
  Dy  Dy10  1  0.312486  0.689283  0.688178  1
  Dy  Dy11  1  0.686541  0.311382  0.692975  1
  Dy  Dy12  1  0.560688  0.143466  0.146187  1
  Tm  Tm13  1  0.690056  0.312063  0.310325  1
  Tm  Tm14  1  0.685498  0.692981  0.310037  1
  Tm  Tm15  1  0.312990  0.692052  0.311754  1
  In  In16  1  0.920714  0.920966  0.920741  1
  Ag  Ag17  1  0.916935  0.917002  0.249260  1
  Ag  Ag18  1  0.249913  0.916673  0.917058  1
  Ag  Ag19  1  0.916973  0.249407  0.917400  1
  Pd  Pd20  1  0.356280  0.357254  0.354923  1
  Pd  Pd21  1  0.930997  0.357516  0.355383  1
  Rh  Rh22  1  0.355627  0.356106  0.932931  1
  Rh  Rh23  1  0.356979  0.930279  0.355511  1
