# generated using pymatgen
data_Dy3Ho3CoCl10
_symmetry_space_group_name_H-M   'P 1'
_cell_length_a   7.07513527
_cell_length_b   8.75071905
_cell_length_c   8.82346721
_cell_angle_alpha   108.65720342
_cell_angle_beta   105.91473278
_cell_angle_gamma   96.43876829
_symmetry_Int_Tables_number   1
_chemical_formula_structural   Dy3Ho3CoCl10
_chemical_formula_sum   'Dy3 Ho3 Co1 Cl10'
_cell_volume   485.61511852
_cell_formula_units_Z   1
loop_
 _symmetry_equiv_pos_site_id
 _symmetry_equiv_pos_as_xyz
  1  'x, y, z'
loop_
 _atom_site_type_symbol
 _atom_site_label
 _atom_site_symmetry_multiplicity
 _atom_site_fract_x
 _atom_site_fract_y
 _atom_site_fract_z
 _atom_site_occupancy
  Dy  Dy0  1  0.871398  0.239993  0.949095  1
  Dy  Dy1  1  0.128844  0.760101  0.050777  1
  Dy  Dy2  1  0.027202  0.897208  0.694844  1
  Ho  Ho3  1  0.972701  0.102239  0.303622  1
  Ho  Ho4  1  0.362461  0.188001  0.138974  1
  Ho  Ho5  1  0.637506  0.812206  0.861743  1
  Co  Co6  1  0.000095  0.999996  0.999743  1
  Cl  Cl7  1  0.909537  0.163020  0.627630  1
  Cl  Cl8  1  0.090674  0.837912  0.370982  1
  Cl  Cl9  1  0.454437  0.077958  0.827487  1
  Cl  Cl10  1  0.546370  0.922674  0.173538  1
  Cl  Cl11  1  0.215174  0.652742  0.749073  1
  Cl  Cl12  1  0.786019  0.346467  0.251767  1
  Cl  Cl13  1  0.242733  0.455218  0.080753  1
  Cl  Cl14  1  0.757547  0.544909  0.919829  1
  Cl  Cl15  1  0.647041  0.721573  0.548232  1
  Cl  Cl16  1  0.350259  0.277785  0.451912  1
