# generated using pymatgen
data_Ca4ZnNi
_symmetry_space_group_name_H-M   'P 1'
_cell_length_a   6.13004400
_cell_length_b   4.05665000
_cell_length_c   14.71453400
_cell_angle_alpha   90.00000000
_cell_angle_beta   90.00000000
_cell_angle_gamma   90.00000000
_symmetry_Int_Tables_number   1
_chemical_formula_structural   Ca4ZnNi
_chemical_formula_sum   'Ca8 Zn2 Ni2'
_cell_volume   365.91283541
_cell_formula_units_Z   2
loop_
 _symmetry_equiv_pos_site_id
 _symmetry_equiv_pos_as_xyz
  1  'x, y, z'
loop_
 _atom_site_type_symbol
 _atom_site_label
 _atom_site_symmetry_multiplicity
 _atom_site_fract_x
 _atom_site_fract_y
 _atom_site_fract_z
 _atom_site_occupancy
  Ca  Ca0  1  0.865675  0.750000  0.089338  1
  Ca  Ca1  1  0.375016  0.249999  0.168549  1
  Ca  Ca2  1  0.875016  0.249999  0.331451  1
  Ca  Ca3  1  0.365675  0.750000  0.410662  1
  Ca  Ca4  1  0.625763  0.249999  0.594026  1
  Ca  Ca5  1  0.135709  0.750000  0.663953  1
  Ca  Ca6  1  0.635709  0.750000  0.836048  1
  Ca  Ca7  1  0.125764  0.249999  0.905974  1
  Zn  Zn8  1  0.391853  0.750000  0.015748  1
  Zn  Zn9  1  0.891853  0.750000  0.484252  1
  Ni  Ni10  1  0.105981  0.249999  0.516234  1
  Ni  Ni11  1  0.605981  0.249999  0.983766  1
