# generated using pymatgen
data_Sm4Al18OsPd5
_symmetry_space_group_name_H-M   'P 1'
_cell_length_a   7.65775519
_cell_length_b   7.65775440
_cell_length_c   9.51890100
_cell_angle_alpha   90.09794022
_cell_angle_beta   90.09793272
_cell_angle_gamma   119.79674541
_symmetry_Int_Tables_number   1
_chemical_formula_structural   Sm4Al18OsPd5
_chemical_formula_sum   'Sm4 Al18 Os1 Pd5'
_cell_volume   484.39949679
_cell_formula_units_Z   1
loop_
 _symmetry_equiv_pos_site_id
 _symmetry_equiv_pos_as_xyz
  1  'x, y, z'
loop_
 _atom_site_type_symbol
 _atom_site_label
 _atom_site_symmetry_multiplicity
 _atom_site_fract_x
 _atom_site_fract_y
 _atom_site_fract_z
 _atom_site_occupancy
  Sm  Sm0  1  0.995211  0.669322  0.249321  1
  Sm  Sm1  1  0.006331  0.331003  0.750561  1
  Sm  Sm2  1  0.668997  0.993669  0.249439  1
  Sm  Sm3  1  0.330678  0.004789  0.750679  1
  Al  Al4  1  0.129323  0.131505  0.249282  1
  Al  Al5  1  0.868495  0.870677  0.750718  1
  Al  Al6  1  0.996865  0.333698  0.073619  1
  Al  Al7  1  0.995047  0.660025  0.926301  1
  Al  Al8  1  0.997664  0.666053  0.576783  1
  Al  Al9  1  0.333947  0.002336  0.423217  1
  Al  Al10  1  0.001915  0.334665  0.424534  1
  Al  Al11  1  0.665335  0.998085  0.575466  1
  Al  Al12  1  0.666302  0.003135  0.926381  1
  Al  Al13  1  0.339975  0.004953  0.073699  1
  Al  Al14  1  0.334676  0.335275  0.558201  1
  Al  Al15  1  0.664725  0.665324  0.441799  1
  Al  Al16  1  0.667241  0.661423  0.051615  1
  Al  Al17  1  0.338577  0.332759  0.948385  1
  Al  Al18  1  0.336753  0.544881  0.249135  1
  Al  Al19  1  0.660329  0.453918  0.754378  1
  Al  Al20  1  0.546082  0.339671  0.245622  1
  Al  Al21  1  0.455119  0.663247  0.750865  1
  Os  Os22  1  0.671859  0.328141  0.000000  1
  Pd  Pd23  1  0.328762  0.671238  0.000000  1
  Pd  Pd24  1  0.327837  0.672163  0.500000  1
  Pd  Pd25  1  0.671185  0.328815  0.500000  1
  Pd  Pd26  1  0.000957  0.999043  0.000000  1
  Pd  Pd27  1  0.999809  0.000191  0.500000  1
