# generated using pymatgen
data_Hf2As3PO14
_symmetry_space_group_name_H-M   'P 1'
_cell_length_a   5.51492112
_cell_length_b   7.11729668
_cell_length_c   8.84286697
_cell_angle_alpha   70.16705334
_cell_angle_beta   89.06002017
_cell_angle_gamma   89.03358294
_symmetry_Int_Tables_number   1
_chemical_formula_structural   Hf2As3PO14
_chemical_formula_sum   'Hf2 As3 P1 O14'
_cell_volume   326.43917622
_cell_formula_units_Z   1
loop_
 _symmetry_equiv_pos_site_id
 _symmetry_equiv_pos_as_xyz
  1  'x, y, z'
loop_
 _atom_site_type_symbol
 _atom_site_label
 _atom_site_symmetry_multiplicity
 _atom_site_fract_x
 _atom_site_fract_y
 _atom_site_fract_z
 _atom_site_occupancy
  Hf  Hf0  1  0.235255  0.197241  0.731602  1
  Hf  Hf1  1  0.762167  0.796201  0.264281  1
  As  As2  1  0.246431  0.111069  0.163238  1
  As  As3  1  0.282450  0.456555  0.313030  1
  As  As4  1  0.726055  0.548780  0.685642  1
  P  P5  1  0.742903  0.885737  0.839817  1
  O  O6  1  0.197052  0.272228  0.483592  1
  O  O7  1  0.992698  0.963646  0.769898  1
  O  O8  1  0.082079  0.648793  0.249264  1
  O  O9  1  0.294004  0.360917  0.151954  1
  O  O10  1  0.288082  0.127151  0.970576  1
  O  O11  1  0.458519  0.960695  0.283281  1
  O  O12  1  0.447332  0.452974  0.684767  1
  O  O13  1  0.568724  0.535422  0.318107  1
  O  O14  1  0.536498  0.014814  0.740836  1
  O  O15  1  0.721617  0.857790  0.019187  1
  O  O16  1  0.713155  0.662354  0.837144  1
  O  O17  1  0.939640  0.368103  0.753797  1
  O  O18  1  0.958583  0.053358  0.229595  1
  O  O19  1  0.806759  0.726171  0.510390  1
