# generated using pymatgen
data_YHoFe3Co9P7
_symmetry_space_group_name_H-M   'P 1'
_cell_length_a   8.98664200
_cell_length_b   8.98664177
_cell_length_c   3.61212700
_cell_angle_alpha   90.00000000
_cell_angle_beta   90.00000000
_cell_angle_gamma   120.00000085
_symmetry_Int_Tables_number   1
_chemical_formula_structural   YHoFe3Co9P7
_chemical_formula_sum   'Y1 Ho1 Fe3 Co9 P7'
_cell_volume   252.63208735
_cell_formula_units_Z   1
loop_
 _symmetry_equiv_pos_site_id
 _symmetry_equiv_pos_as_xyz
  1  'x, y, z'
loop_
 _atom_site_type_symbol
 _atom_site_label
 _atom_site_symmetry_multiplicity
 _atom_site_fract_x
 _atom_site_fract_y
 _atom_site_fract_z
 _atom_site_occupancy
  Y  Y0  1  0.000000  0.000000  0.000000  1
  Ho  Ho1  1  0.333333  0.666667  0.500000  1
  Fe  Fe2  1  0.542851  0.115820  0.500000  1
  Fe  Fe3  1  0.572969  0.457149  0.500000  1
  Fe  Fe4  1  0.884180  0.427031  0.500000  1
  Co  Co5  1  0.295505  0.901933  0.000000  1
  Co  Co6  1  0.606429  0.704495  0.000000  1
  Co  Co7  1  0.098067  0.393571  0.000000  1
  Co  Co8  1  0.783650  0.176168  0.000000  1
  Co  Co9  1  0.392517  0.216350  0.000000  1
  Co  Co10  1  0.823832  0.607483  0.000000  1
  Co  Co11  1  0.715613  0.948590  0.500000  1
  Co  Co12  1  0.232978  0.284387  0.500000  1
  Co  Co13  1  0.051410  0.767022  0.500000  1
  P  P14  1  0.553584  0.923706  0.000000  1
  P  P15  1  0.370121  0.446416  0.000000  1
  P  P16  1  0.076294  0.629879  0.000000  1
  P  P17  1  0.956373  0.221456  0.500000  1
  P  P18  1  0.265083  0.043627  0.500000  1
  P  P19  1  0.778544  0.734917  0.500000  1
  P  P20  1  0.666667  0.333333  0.000000  1
