# generated using pymatgen
data_NaEu4Se5
_symmetry_space_group_name_H-M   'P 1'
_cell_length_a   7.49988030
_cell_length_b   7.49988010
_cell_length_c   10.61324038
_cell_angle_alpha   61.78890389
_cell_angle_beta   61.78890289
_cell_angle_gamma   33.61128435
_symmetry_Int_Tables_number   1
_chemical_formula_structural   NaEu4Se5
_chemical_formula_sum   'Na1 Eu4 Se5'
_cell_volume   287.35707112
_cell_formula_units_Z   1
loop_
 _symmetry_equiv_pos_site_id
 _symmetry_equiv_pos_as_xyz
  1  'x, y, z'
loop_
 _atom_site_type_symbol
 _atom_site_label
 _atom_site_symmetry_multiplicity
 _atom_site_fract_x
 _atom_site_fract_y
 _atom_site_fract_z
 _atom_site_occupancy
  Na  Na0  1  0.000000  0.000000  0.000000  1
  Eu  Eu1  1  0.598516  0.598516  0.606255  1
  Eu  Eu2  1  0.202948  0.202948  0.194250  1
  Eu  Eu3  1  0.797052  0.797052  0.805750  1
  Eu  Eu4  1  0.401484  0.401484  0.393745  1
  Se  Se5  1  0.203219  0.203219  0.694560  1
  Se  Se6  1  0.796781  0.796781  0.305440  1
  Se  Se7  1  0.397068  0.397068  0.895940  1
  Se  Se8  1  0.000000  0.000000  0.500000  1
  Se  Se9  1  0.602932  0.602932  0.104060  1
