# generated using pymatgen
data_Ce10TlZnPb6
_symmetry_space_group_name_H-M   'P 1'
_cell_length_a   9.69145500
_cell_length_b   9.69145419
_cell_length_c   6.65177400
_cell_angle_alpha   90.00000000
_cell_angle_beta   90.00000000
_cell_angle_gamma   120.00000619
_symmetry_Int_Tables_number   1
_chemical_formula_structural   Ce10TlZnPb6
_chemical_formula_sum   'Ce10 Tl1 Zn1 Pb6'
_cell_volume   541.06073785
_cell_formula_units_Z   1
loop_
 _symmetry_equiv_pos_site_id
 _symmetry_equiv_pos_as_xyz
  1  'x, y, z'
loop_
 _atom_site_type_symbol
 _atom_site_label
 _atom_site_symmetry_multiplicity
 _atom_site_fract_x
 _atom_site_fract_y
 _atom_site_fract_z
 _atom_site_occupancy
  Ce  Ce0  1  0.666667  0.333333  0.500000  1
  Ce  Ce1  1  0.333333  0.666667  0.500000  1
  Ce  Ce2  1  0.333333  0.666667  0.000000  1
  Ce  Ce3  1  0.666667  0.333333  0.000000  1
  Ce  Ce4  1  0.714756  0.714756  0.258116  1
  Ce  Ce5  1  0.285244  0.000000  0.258116  1
  Ce  Ce6  1  0.000000  0.285244  0.258116  1
  Ce  Ce7  1  0.285244  0.285244  0.741884  1
  Ce  Ce8  1  0.714756  0.000000  0.741884  1
  Ce  Ce9  1  0.000000  0.714756  0.741884  1
  Tl  Tl10  1  0.000000  0.000000  0.000000  1
  Zn  Zn11  1  0.000000  0.000000  0.500000  1
  Pb  Pb12  1  0.368677  0.368677  0.247396  1
  Pb  Pb13  1  0.631323  0.000000  0.247396  1
  Pb  Pb14  1  0.000000  0.631323  0.247396  1
  Pb  Pb15  1  0.631323  0.631323  0.752604  1
  Pb  Pb16  1  0.368677  0.000000  0.752604  1
  Pb  Pb17  1  0.000000  0.368677  0.752604  1
