# generated using pymatgen
data_Ti8Tc3Os4Pd
_symmetry_space_group_name_H-M   'P 1'
_cell_length_a   6.22416700
_cell_length_b   6.22415300
_cell_length_c   6.20571900
_cell_angle_alpha   89.99994469
_cell_angle_beta   89.99967735
_cell_angle_gamma   89.99968702
_symmetry_Int_Tables_number   1
_chemical_formula_structural   Ti8Tc3Os4Pd
_chemical_formula_sum   'Ti8 Tc3 Os4 Pd1'
_cell_volume   240.41059479
_cell_formula_units_Z   1
loop_
 _symmetry_equiv_pos_site_id
 _symmetry_equiv_pos_as_xyz
  1  'x, y, z'
loop_
 _atom_site_type_symbol
 _atom_site_label
 _atom_site_symmetry_multiplicity
 _atom_site_fract_x
 _atom_site_fract_y
 _atom_site_fract_z
 _atom_site_occupancy
  Ti  Ti0  1  0.003711  0.996289  0.253672  1
  Ti  Ti1  1  0.003712  0.503710  0.253673  1
  Ti  Ti2  1  0.496287  0.996290  0.253677  1
  Ti  Ti3  1  0.496286  0.503716  0.253678  1
  Ti  Ti4  1  0.496292  0.996289  0.746323  1
  Ti  Ti5  1  0.496291  0.503706  0.746322  1
  Ti  Ti6  1  0.003710  0.996293  0.746330  1
  Ti  Ti7  1  0.003710  0.503710  0.746330  1
  Tc  Tc8  1  0.250005  0.749998  0.000009  1
  Tc  Tc9  1  0.750003  0.250003  0.499986  1
  Tc  Tc10  1  0.249998  0.749998  0.500003  1
  Os  Os11  1  0.250003  0.250002  0.000002  1
  Os  Os12  1  0.750000  0.749999  0.000003  1
  Os  Os13  1  0.250002  0.250002  0.499996  1
  Os  Os14  1  0.750000  0.749999  0.499997  1
  Pd  Pd15  1  0.749991  0.250002  0.999998  1
