# generated using pymatgen
data_NaPr6RuI12
_symmetry_space_group_name_H-M   'P 1'
_cell_length_a   10.13124356
_cell_length_b   10.13124300
_cell_length_c   10.13124391
_cell_angle_alpha   106.91715243
_cell_angle_beta   106.91715732
_cell_angle_gamma   106.91714794
_symmetry_Int_Tables_number   1
_chemical_formula_structural   NaPr6RuI12
_chemical_formula_sum   'Na1 Pr6 Ru1 I12'
_cell_volume   867.98183615
_cell_formula_units_Z   1
loop_
 _symmetry_equiv_pos_site_id
 _symmetry_equiv_pos_as_xyz
  1  'x, y, z'
loop_
 _atom_site_type_symbol
 _atom_site_label
 _atom_site_symmetry_multiplicity
 _atom_site_fract_x
 _atom_site_fract_y
 _atom_site_fract_z
 _atom_site_occupancy
  Na  Na0  1  0.500000  0.500000  0.500000  1
  Pr  Pr1  1  0.898160  0.694066  0.970534  1
  Pr  Pr2  1  0.970534  0.898160  0.694066  1
  Pr  Pr3  1  0.694066  0.970534  0.898160  1
  Pr  Pr4  1  0.101840  0.305934  0.029466  1
  Pr  Pr5  1  0.029466  0.101840  0.305934  1
  Pr  Pr6  1  0.305934  0.029466  0.101840  1
  Ru  Ru7  1  0.000000  0.000000  0.000000  1
  I  I8  1  0.625905  0.854487  0.547374  1
  I  I9  1  0.547374  0.625905  0.854487  1
  I  I10  1  0.854487  0.547374  0.625905  1
  I  I11  1  0.374095  0.145513  0.452626  1
  I  I12  1  0.452626  0.374095  0.145513  1
  I  I13  1  0.145513  0.452626  0.374095  1
  I  I14  1  0.683925  0.074838  0.224339  1
  I  I15  1  0.224339  0.683925  0.074838  1
  I  I16  1  0.074838  0.224339  0.683925  1
  I  I17  1  0.316075  0.925162  0.775661  1
  I  I18  1  0.775661  0.316075  0.925162  1
  I  I19  1  0.925162  0.775661  0.316075  1
