# generated using pymatgen
data_La16In4CoOs3
_symmetry_space_group_name_H-M   'P 1'
_cell_length_a   10.08240098
_cell_length_b   10.11767594
_cell_length_c   10.11767600
_cell_angle_alpha   59.99999326
_cell_angle_beta   59.88419063
_cell_angle_gamma   59.88419297
_symmetry_Int_Tables_number   1
_chemical_formula_structural   La16In4CoOs3
_chemical_formula_sum   'La16 In4 Co1 Os3'
_cell_volume   728.53102289
_cell_formula_units_Z   1
loop_
 _symmetry_equiv_pos_site_id
 _symmetry_equiv_pos_as_xyz
  1  'x, y, z'
loop_
 _atom_site_type_symbol
 _atom_site_label
 _atom_site_symmetry_multiplicity
 _atom_site_fract_x
 _atom_site_fract_y
 _atom_site_fract_z
 _atom_site_occupancy
  La  La0  1  0.902524  0.905710  0.905710  1
  La  La1  1  0.442601  0.437723  0.059839  1
  La  La2  1  0.060509  0.059474  0.440009  1
  La  La3  1  0.442601  0.059839  0.059839  1
  La  La4  1  0.306762  0.694205  0.304825  1
  La  La5  1  0.694540  0.689770  0.307845  1
  La  La6  1  0.694540  0.307845  0.307845  1
  La  La7  1  0.285880  0.904708  0.904708  1
  La  La8  1  0.902524  0.286057  0.905710  1
  La  La9  1  0.306762  0.694205  0.694205  1
  La  La10  1  0.902524  0.905710  0.286057  1
  La  La11  1  0.060509  0.440009  0.059474  1
  La  La12  1  0.306762  0.304825  0.694205  1
  La  La13  1  0.060509  0.440009  0.440009  1
  La  La14  1  0.442601  0.059839  0.437723  1
  La  La15  1  0.694540  0.307845  0.689770  1
  In  In16  1  0.670449  0.670121  0.989308  1
  In  In17  1  0.988948  0.670350  0.670350  1
  In  In18  1  0.670449  0.989308  0.670121  1
  In  In19  1  0.670449  0.670121  0.670121  1
  Co  Co20  1  0.661730  0.112756  0.112756  1
  Os  Os21  1  0.110430  0.111702  0.666167  1
  Os  Os22  1  0.110430  0.111702  0.111702  1
  Os  Os23  1  0.110430  0.666167  0.111702  1
