# generated using pymatgen
data_LaNd7(MoO6)4
_symmetry_space_group_name_H-M   'P 1'
_cell_length_a   5.60359646
_cell_length_b   10.25027864
_cell_length_c   10.24822902
_cell_angle_alpha   68.68507725
_cell_angle_beta   75.26942403
_cell_angle_gamma   75.24248167
_symmetry_Int_Tables_number   1
_chemical_formula_structural   LaNd7(MoO6)4
_chemical_formula_sum   'La1 Nd7 Mo4 O24'
_cell_volume   521.67702724
_cell_formula_units_Z   1
loop_
 _symmetry_equiv_pos_site_id
 _symmetry_equiv_pos_as_xyz
  1  'x, y, z'
loop_
 _atom_site_type_symbol
 _atom_site_label
 _atom_site_symmetry_multiplicity
 _atom_site_fract_x
 _atom_site_fract_y
 _atom_site_fract_z
 _atom_site_occupancy
  La  La0  1  0.884020  0.712566  0.943705  1
  Nd  Nd1  1  0.250378  0.366789  0.632568  1
  Nd  Nd2  1  0.749330  0.632505  0.368112  1
  Nd  Nd3  1  0.249487  0.891370  0.110071  1
  Nd  Nd4  1  0.749652  0.110790  0.890431  1
  Nd  Nd5  1  0.382040  0.946104  0.711040  1
  Nd  Nd6  1  0.618824  0.056324  0.288016  1
  Nd  Nd7  1  0.119477  0.287373  0.056578  1
  Mo  Mo8  1  0.060090  0.797631  0.506704  1
  Mo  Mo9  1  0.940414  0.202466  0.492328  1
  Mo  Mo10  1  0.440350  0.491811  0.203811  1
  Mo  Mo11  1  0.560091  0.506996  0.796675  1
  O  O12  1  0.083455  0.163157  0.686128  1
  O  O13  1  0.914914  0.837087  0.313654  1
  O  O14  1  0.414490  0.312755  0.836622  1
  O  O15  1  0.581576  0.685512  0.165325  1
  O  O16  1  0.361363  0.826498  0.383891  1
  O  O17  1  0.638446  0.173342  0.614796  1
  O  O18  1  0.138466  0.614587  0.175749  1
  O  O19  1  0.861828  0.385027  0.825590  1
  O  O20  1  0.141174  0.788607  0.672414  1
  O  O21  1  0.863830  0.212350  0.324946  1
  O  O22  1  0.362201  0.324661  0.213531  1
  O  O23  1  0.631701  0.676174  0.783771  1
  O  O24  1  0.234771  0.071372  0.473431  1
  O  O25  1  0.766704  0.929427  0.526160  1
  O  O26  1  0.270357  0.523101  0.930860  1
  O  O27  1  0.732513  0.472437  0.071704  1
  O  O28  1  0.019631  0.615809  0.544762  1
  O  O29  1  0.980875  0.383948  0.455346  1
  O  O30  1  0.482641  0.453345  0.385323  1
  O  O31  1  0.518528  0.543119  0.615242  1
  O  O32  1  0.575666  0.925491  0.891984  1
  O  O33  1  0.421421  0.076714  0.109205  1
  O  O34  1  0.921216  0.108833  0.076944  1
  O  O35  1  0.078081  0.893923  0.922585  1
