# generated using pymatgen
data_Th3PtAu5
_symmetry_space_group_name_H-M   'P 1'
_cell_length_a   7.83290900
_cell_length_b   7.83290859
_cell_length_c   3.89033000
_cell_angle_alpha   90.00000000
_cell_angle_beta   90.00000000
_cell_angle_gamma   119.99999749
_symmetry_Int_Tables_number   1
_chemical_formula_structural   Th3PtAu5
_chemical_formula_sum   'Th3 Pt1 Au5'
_cell_volume   206.71082706
_cell_formula_units_Z   1
loop_
 _symmetry_equiv_pos_site_id
 _symmetry_equiv_pos_as_xyz
  1  'x, y, z'
loop_
 _atom_site_type_symbol
 _atom_site_label
 _atom_site_symmetry_multiplicity
 _atom_site_fract_x
 _atom_site_fract_y
 _atom_site_fract_z
 _atom_site_occupancy
  Th  Th0  1  0.600388  0.988846  0.000000  1
  Th  Th1  1  0.011154  0.611541  0.000000  1
  Th  Th2  1  0.388459  0.399612  0.000000  1
  Pt  Pt3  1  0.333333  0.666667  0.500000  1
  Au  Au4  1  0.273949  0.001178  0.500000  1
  Au  Au5  1  0.998822  0.272772  0.500000  1
  Au  Au6  1  0.727228  0.726051  0.500000  1
  Au  Au7  1  0.666667  0.333333  0.500000  1
  Au  Au8  1  0.000000  0.000000  0.000000  1
