# generated using pymatgen
data_PrSmGd2Dy2Ta2O14
_symmetry_space_group_name_H-M   'P 1'
_cell_length_a   6.52724064
_cell_length_b   6.52723983
_cell_length_c   7.64330304
_cell_angle_alpha   89.96755023
_cell_angle_beta   90.03245148
_cell_angle_gamma   109.37909865
_symmetry_Int_Tables_number   1
_chemical_formula_structural   PrSmGd2Dy2Ta2O14
_chemical_formula_sum   'Pr1 Sm1 Gd2 Dy2 Ta2 O14'
_cell_volume   307.19217816
_cell_formula_units_Z   1
loop_
 _symmetry_equiv_pos_site_id
 _symmetry_equiv_pos_as_xyz
  1  'x, y, z'
loop_
 _atom_site_type_symbol
 _atom_site_label
 _atom_site_symmetry_multiplicity
 _atom_site_fract_x
 _atom_site_fract_y
 _atom_site_fract_z
 _atom_site_occupancy
  Pr  Pr0  1  0.496049  0.496049  0.500000  1
  Sm  Sm1  1  0.493987  0.493987  0.000000  1
  Gd  Gd2  1  0.532356  0.999351  0.751669  1
  Gd  Gd3  1  0.999351  0.532356  0.248331  1
  Dy  Dy4  1  0.465118  0.999076  0.248455  1
  Dy  Dy5  1  0.999076  0.465118  0.751545  1
  Ta  Ta6  1  0.999091  0.999091  0.500000  1
  Ta  Ta7  1  0.998824  0.998824  0.000000  1
  O  O8  1  0.683215  0.933308  0.463667  1
  O  O9  1  0.933308  0.683215  0.536333  1
  O  O10  1  0.683502  0.932904  0.035724  1
  O  O11  1  0.932904  0.683502  0.964276  1
  O  O12  1  0.321395  0.071067  0.527500  1
  O  O13  1  0.071067  0.321395  0.472500  1
  O  O14  1  0.321199  0.072626  0.972712  1
  O  O15  1  0.072626  0.321199  0.027288  1
  O  O16  1  0.937845  0.062623  0.749883  1
  O  O17  1  0.062623  0.937845  0.250117  1
  O  O18  1  0.363898  0.631590  0.754936  1
  O  O19  1  0.631590  0.363898  0.245064  1
  O  O20  1  0.641497  0.359478  0.754744  1
  O  O21  1  0.359478  0.641497  0.245256  1
