# generated using pymatgen
data_Y4Hf4Ir3Pt
_symmetry_space_group_name_H-M   'P 1'
_cell_length_a   4.60722800
_cell_length_b   7.07499824
_cell_length_c   8.26148712
_cell_angle_alpha   90.16594103
_cell_angle_beta   90.00000000
_cell_angle_gamma   90.00000000
_symmetry_Int_Tables_number   1
_chemical_formula_structural   Y4Hf4Ir3Pt
_chemical_formula_sum   'Y4 Hf4 Ir3 Pt1'
_cell_volume   269.29137879
_cell_formula_units_Z   1
loop_
 _symmetry_equiv_pos_site_id
 _symmetry_equiv_pos_as_xyz
  1  'x, y, z'
loop_
 _atom_site_type_symbol
 _atom_site_label
 _atom_site_symmetry_multiplicity
 _atom_site_fract_x
 _atom_site_fract_y
 _atom_site_fract_z
 _atom_site_occupancy
  Y  Y0  1  0.250000  0.984042  0.325314  1
  Y  Y1  1  0.250000  0.485485  0.178574  1
  Y  Y2  1  0.750000  0.012984  0.675436  1
  Y  Y3  1  0.750000  0.519195  0.820752  1
  Hf  Hf4  1  0.250000  0.359309  0.571916  1
  Hf  Hf5  1  0.250000  0.856027  0.928333  1
  Hf  Hf6  1  0.750000  0.639957  0.426516  1
  Hf  Hf7  1  0.750000  0.140260  0.076701  1
  Ir  Ir8  1  0.250000  0.729160  0.594544  1
  Ir  Ir9  1  0.750000  0.772188  0.092822  1
  Ir  Ir10  1  0.750000  0.270420  0.405574  1
  Pt  Pt11  1  0.250000  0.230972  0.903519  1
