# generated using pymatgen
data_CaPr4Ir3
_symmetry_space_group_name_H-M   'P 1'
_cell_length_a   11.35265700
_cell_length_b   11.35265700
_cell_length_c   6.52531900
_cell_angle_alpha   90.00000000
_cell_angle_beta   90.00000000
_cell_angle_gamma   90.00000000
_symmetry_Int_Tables_number   1
_chemical_formula_structural   CaPr4Ir3
_chemical_formula_sum   'Ca4 Pr16 Ir12'
_cell_volume   841.00152038
_cell_formula_units_Z   4
loop_
 _symmetry_equiv_pos_site_id
 _symmetry_equiv_pos_as_xyz
  1  'x, y, z'
loop_
 _atom_site_type_symbol
 _atom_site_label
 _atom_site_symmetry_multiplicity
 _atom_site_fract_x
 _atom_site_fract_y
 _atom_site_fract_z
 _atom_site_occupancy
  Ca  Ca0  1  0.000000  0.000000  0.000000  1
  Ca  Ca1  1  0.500000  0.500000  0.000000  1
  Ca  Ca2  1  0.500000  0.500000  0.500000  1
  Ca  Ca3  1  0.000000  0.000000  0.500000  1
  Pr  Pr4  1  0.089672  0.289649  0.114340  1
  Pr  Pr5  1  0.789649  0.410328  0.114340  1
  Pr  Pr6  1  0.210351  0.589672  0.114340  1
  Pr  Pr7  1  0.910328  0.710351  0.114340  1
  Pr  Pr8  1  0.410328  0.789649  0.385660  1
  Pr  Pr9  1  0.589672  0.210351  0.385660  1
  Pr  Pr10  1  0.289649  0.089672  0.385660  1
  Pr  Pr11  1  0.710351  0.910328  0.385660  1
  Pr  Pr12  1  0.410328  0.210351  0.885660  1
  Pr  Pr13  1  0.710351  0.089672  0.885660  1
  Pr  Pr14  1  0.289649  0.910328  0.885660  1
  Pr  Pr15  1  0.589672  0.789649  0.885660  1
  Pr  Pr16  1  0.089672  0.710351  0.614340  1
  Pr  Pr17  1  0.910328  0.289649  0.614340  1
  Pr  Pr18  1  0.210351  0.410328  0.614340  1
  Pr  Pr19  1  0.789649  0.589672  0.614340  1
  Ir  Ir20  1  0.157360  0.842640  0.250000  1
  Ir  Ir21  1  0.342640  0.342640  0.250000  1
  Ir  Ir22  1  0.657360  0.657360  0.250000  1
  Ir  Ir23  1  0.842640  0.157360  0.250000  1
  Ir  Ir24  1  0.342640  0.657360  0.750000  1
  Ir  Ir25  1  0.157360  0.157360  0.750000  1
  Ir  Ir26  1  0.842640  0.842640  0.750000  1
  Ir  Ir27  1  0.657360  0.342640  0.750000  1
  Ir  Ir28  1  0.000000  0.500000  0.382582  1
  Ir  Ir29  1  0.500000  0.000000  0.117418  1
  Ir  Ir30  1  0.500000  0.000000  0.617418  1
  Ir  Ir31  1  0.000000  0.500000  0.882582  1
