# generated using pymatgen
data_HoTh(Ga3Ir)3
_symmetry_space_group_name_H-M   'P 1'
_cell_length_a   7.66485803
_cell_length_b   7.66993789
_cell_length_c   9.49946200
_cell_angle_alpha   90.00000000
_cell_angle_beta   90.00000000
_cell_angle_gamma   119.82131819
_symmetry_Int_Tables_number   1
_chemical_formula_structural   HoTh(Ga3Ir)3
_chemical_formula_sum   'Ho2 Th2 Ga18 Ir6'
_cell_volume   484.51223160
_cell_formula_units_Z   2
loop_
 _symmetry_equiv_pos_site_id
 _symmetry_equiv_pos_as_xyz
  1  'x, y, z'
loop_
 _atom_site_type_symbol
 _atom_site_label
 _atom_site_symmetry_multiplicity
 _atom_site_fract_x
 _atom_site_fract_y
 _atom_site_fract_z
 _atom_site_occupancy
  Ho  Ho0  1  0.668042  0.996379  0.250000  1
  Ho  Ho1  1  0.331958  0.003621  0.750000  1
  Th  Th2  1  0.996273  0.668514  0.250000  1
  Th  Th3  1  0.003727  0.331486  0.750000  1
  Ga  Ga4  1  0.128003  0.129792  0.250000  1
  Ga  Ga5  1  0.871997  0.870208  0.750000  1
  Ga  Ga6  1  0.998676  0.329459  0.081376  1
  Ga  Ga7  1  0.001324  0.670541  0.918624  1
  Ga  Ga8  1  0.001324  0.670541  0.581376  1
  Ga  Ga9  1  0.339015  0.003015  0.421842  1
  Ga  Ga10  1  0.998676  0.329459  0.418624  1
  Ga  Ga11  1  0.660985  0.996985  0.578158  1
  Ga  Ga12  1  0.660985  0.996985  0.921842  1
  Ga  Ga13  1  0.339015  0.003015  0.078158  1
  Ga  Ga14  1  0.335788  0.331676  0.564015  1
  Ga  Ga15  1  0.664212  0.668324  0.435985  1
  Ga  Ga16  1  0.664212  0.668324  0.064015  1
  Ga  Ga17  1  0.335788  0.331676  0.935985  1
  Ga  Ga18  1  0.341523  0.546037  0.250000  1
  Ga  Ga19  1  0.658477  0.453963  0.750000  1
  Ga  Ga20  1  0.542294  0.336102  0.250000  1
  Ga  Ga21  1  0.457706  0.663898  0.750000  1
  Ir  Ir22  1  0.673347  0.330052  0.999915  1
  Ir  Ir23  1  0.326653  0.669948  0.000085  1
  Ir  Ir24  1  0.326653  0.669948  0.499915  1
  Ir  Ir25  1  0.673347  0.330052  0.500085  1
  Ir  Ir26  1  0.000000  0.000000  0.000000  1
  Ir  Ir27  1  0.000000  0.000000  0.500000  1
