# generated using pymatgen
data_Th2MgSi2
_symmetry_space_group_name_H-M   'P 1'
_cell_length_a   7.29128900
_cell_length_b   7.29128900
_cell_length_c   4.42972100
_cell_angle_alpha   90.00000000
_cell_angle_beta   90.00000000
_cell_angle_gamma   90.00000000
_symmetry_Int_Tables_number   1
_chemical_formula_structural   Th2MgSi2
_chemical_formula_sum   'Th4 Mg2 Si4'
_cell_volume   235.49679365
_cell_formula_units_Z   2
loop_
 _symmetry_equiv_pos_site_id
 _symmetry_equiv_pos_as_xyz
  1  'x, y, z'
loop_
 _atom_site_type_symbol
 _atom_site_label
 _atom_site_symmetry_multiplicity
 _atom_site_fract_x
 _atom_site_fract_y
 _atom_site_fract_z
 _atom_site_occupancy
  Th  Th0  1  0.681143  0.181143  0.500000  1
  Th  Th1  1  0.318857  0.818857  0.500000  1
  Th  Th2  1  0.181143  0.318857  0.500000  1
  Th  Th3  1  0.818857  0.681143  0.500000  1
  Mg  Mg4  1  0.500000  0.500000  0.000000  1
  Mg  Mg5  1  0.000000  0.000000  0.000000  1
  Si  Si6  1  0.117513  0.617513  0.000000  1
  Si  Si7  1  0.882487  0.382487  0.000000  1
  Si  Si8  1  0.617513  0.882487  0.000000  1
  Si  Si9  1  0.382487  0.117513  0.000000  1
