# generated using pymatgen
data_ThCuPd3Au
_symmetry_space_group_name_H-M   'P 1'
_cell_length_a   5.21573736
_cell_length_b   5.21573877
_cell_length_c   5.21573693
_cell_angle_alpha   63.06776173
_cell_angle_beta   63.06775063
_cell_angle_gamma   63.06776379
_symmetry_Int_Tables_number   1
_chemical_formula_structural   ThCuPd3Au
_chemical_formula_sum   'Th1 Cu1 Pd3 Au1'
_cell_volume   107.15981654
_cell_formula_units_Z   1
loop_
 _symmetry_equiv_pos_site_id
 _symmetry_equiv_pos_as_xyz
  1  'x, y, z'
loop_
 _atom_site_type_symbol
 _atom_site_label
 _atom_site_symmetry_multiplicity
 _atom_site_fract_x
 _atom_site_fract_y
 _atom_site_fract_z
 _atom_site_occupancy
  Th  Th0  1  0.999865  0.999865  0.999865  1
  Cu  Cu1  1  0.624079  0.624079  0.624079  1
  Pd  Pd2  1  0.623705  0.623705  0.126035  1
  Pd  Pd3  1  0.623705  0.126035  0.623705  1
  Pd  Pd4  1  0.126035  0.623705  0.623705  1
  Au  Au5  1  0.252612  0.252612  0.252612  1
