# generated using pymatgen
data_SrEu(Th2Te5)2
_symmetry_space_group_name_H-M   'P 1'
_cell_length_a   8.52404400
_cell_length_b   9.34213736
_cell_length_c   13.60677048
_cell_angle_alpha   89.95383479
_cell_angle_beta   90.00000000
_cell_angle_gamma   90.00000000
_symmetry_Int_Tables_number   1
_chemical_formula_structural   SrEu(Th2Te5)2
_chemical_formula_sum   'Sr2 Eu2 Th8 Te20'
_cell_volume   1083.54474324
_cell_formula_units_Z   2
loop_
 _symmetry_equiv_pos_site_id
 _symmetry_equiv_pos_as_xyz
  1  'x, y, z'
loop_
 _atom_site_type_symbol
 _atom_site_label
 _atom_site_symmetry_multiplicity
 _atom_site_fract_x
 _atom_site_fract_y
 _atom_site_fract_z
 _atom_site_occupancy
  Sr  Sr0  1  0.034169  0.496611  0.175095  1
  Sr  Sr1  1  0.534169  0.503389  0.324905  1
  Eu  Eu2  1  0.967174  0.502792  0.823228  1
  Eu  Eu3  1  0.467174  0.497208  0.676772  1
  Th  Th4  1  0.578141  0.251470  0.007698  1
  Th  Th5  1  0.921366  0.251702  0.509421  1
  Th  Th6  1  0.421366  0.748298  0.990579  1
  Th  Th7  1  0.078141  0.748530  0.492302  1
  Th  Th8  1  0.520010  0.003428  0.319446  1
  Th  Th9  1  0.020010  0.996572  0.180554  1
  Th  Th10  1  0.480357  0.996784  0.681783  1
  Th  Th11  1  0.980357  0.003216  0.818217  1
  Te  Te12  1  0.837053  0.953908  0.602015  1
  Te  Te13  1  0.824444  0.774981  0.318202  1
  Te  Te14  1  0.676256  0.771966  0.817437  1
  Te  Te15  1  0.176256  0.228034  0.682563  1
  Te  Te16  1  0.540544  0.224619  0.502532  1
  Te  Te17  1  0.040544  0.775381  0.997468  1
  Te  Te18  1  0.459049  0.775423  0.499549  1
  Te  Te19  1  0.959049  0.224577  0.000451  1
  Te  Te20  1  0.198126  0.758878  0.716912  1
  Te  Te21  1  0.698126  0.241122  0.783088  1
  Te  Te22  1  0.801993  0.237190  0.283768  1
  Te  Te23  1  0.663033  0.954066  0.101728  1
  Te  Te24  1  0.826639  0.543907  0.593351  1
  Te  Te25  1  0.326639  0.456093  0.906649  1
  Te  Te26  1  0.171646  0.455566  0.409682  1
  Te  Te27  1  0.671646  0.544434  0.090318  1
  Te  Te28  1  0.301993  0.762810  0.216232  1
  Te  Te29  1  0.337053  0.046092  0.897985  1
  Te  Te30  1  0.163033  0.045934  0.398272  1
  Te  Te31  1  0.324444  0.225019  0.181798  1
