# generated using pymatgen
data_Tl5As6
_symmetry_space_group_name_H-M   'P 1'
_cell_length_a   15.93779600
_cell_length_b   15.93779670
_cell_length_c   5.19277600
_cell_angle_alpha   90.00000000
_cell_angle_beta   90.00000000
_cell_angle_gamma   163.99331732
_symmetry_Int_Tables_number   1
_chemical_formula_structural   Tl5As6
_chemical_formula_sum   'Tl5 As6'
_cell_volume   363.72304846
_cell_formula_units_Z   1
loop_
 _symmetry_equiv_pos_site_id
 _symmetry_equiv_pos_as_xyz
  1  'x, y, z'
loop_
 _atom_site_type_symbol
 _atom_site_label
 _atom_site_symmetry_multiplicity
 _atom_site_fract_x
 _atom_site_fract_y
 _atom_site_fract_z
 _atom_site_occupancy
  Tl  Tl0  1  0.000000  0.000000  0.000000  1
  Tl  Tl1  1  0.616982  0.383016  0.000000  1
  Tl  Tl2  1  0.383016  0.616982  0.000000  1
  Tl  Tl3  1  0.803676  0.196322  0.500001  1
  Tl  Tl4  1  0.196322  0.803676  0.500001  1
  As  As5  1  0.731412  0.268586  0.000000  1
  As  As6  1  0.268586  0.731412  0.000000  1
  As  As7  1  0.918188  0.081811  0.500001  1
  As  As8  1  0.548239  0.451759  0.500001  1
  As  As9  1  0.451759  0.548239  0.500001  1
  As  As10  1  0.081811  0.918188  0.500001  1
