# generated using pymatgen
data_PrPu(TaN2)2
_symmetry_space_group_name_H-M   'P 1'
_cell_length_a   3.34349200
_cell_length_b   5.78280909
_cell_length_c   11.03064130
_cell_angle_alpha   89.92781975
_cell_angle_beta   90.00000000
_cell_angle_gamma   90.00000000
_symmetry_Int_Tables_number   1
_chemical_formula_structural   PrPu(TaN2)2
_chemical_formula_sum   'Pr2 Pu2 Ta4 N8'
_cell_volume   213.27480866
_cell_formula_units_Z   2
loop_
 _symmetry_equiv_pos_site_id
 _symmetry_equiv_pos_as_xyz
  1  'x, y, z'
loop_
 _atom_site_type_symbol
 _atom_site_label
 _atom_site_symmetry_multiplicity
 _atom_site_fract_x
 _atom_site_fract_y
 _atom_site_fract_z
 _atom_site_occupancy
  Pr  Pr0  1  0.250000  0.583179  0.860349  1
  Pr  Pr1  1  0.750000  0.416821  0.139651  1
  Pu  Pu2  1  0.750000  0.916938  0.364921  1
  Pu  Pu3  1  0.250000  0.083062  0.635079  1
  Ta  Ta4  1  0.250000  0.921215  0.112527  1
  Ta  Ta5  1  0.750000  0.078785  0.887473  1
  Ta  Ta6  1  0.750000  0.581595  0.606115  1
  Ta  Ta7  1  0.250000  0.418405  0.393885  1
  N  N8  1  0.250000  0.669049  0.251384  1
  N  N9  1  0.750000  0.330951  0.748616  1
  N  N10  1  0.750000  0.842637  0.740916  1
  N  N11  1  0.250000  0.157363  0.259084  1
  N  N12  1  0.250000  0.738358  0.509974  1
  N  N13  1  0.750000  0.261642  0.490026  1
  N  N14  1  0.750000  0.779021  0.012780  1
  N  N15  1  0.250000  0.220979  0.987220  1
