# generated using pymatgen
data_Dy4Mn13Tc7P12
_symmetry_space_group_name_H-M   'P 1'
_cell_length_a   3.77780500
_cell_length_b   10.75848993
_cell_length_c   12.13939986
_cell_angle_alpha   90.17847579
_cell_angle_beta   90.00000472
_cell_angle_gamma   89.99999467
_symmetry_Int_Tables_number   1
_chemical_formula_structural   Dy4Mn13Tc7P12
_chemical_formula_sum   'Dy4 Mn13 Tc7 P12'
_cell_volume   493.38502585
_cell_formula_units_Z   1
loop_
 _symmetry_equiv_pos_site_id
 _symmetry_equiv_pos_as_xyz
  1  'x, y, z'
loop_
 _atom_site_type_symbol
 _atom_site_label
 _atom_site_symmetry_multiplicity
 _atom_site_fract_x
 _atom_site_fract_y
 _atom_site_fract_z
 _atom_site_occupancy
  Dy  Dy0  1  0.250000  0.589657  0.710203  1
  Dy  Dy1  1  0.250000  0.911617  0.207706  1
  Dy  Dy2  1  0.750000  0.410580  0.289731  1
  Dy  Dy3  1  0.750000  0.087601  0.792312  1
  Mn  Mn4  1  0.750000  0.906602  0.003028  1
  Mn  Mn5  1  0.250000  0.212594  0.186909  1
  Mn  Mn6  1  0.250000  0.286790  0.686798  1
  Mn  Mn7  1  0.750000  0.788437  0.815190  1
  Mn  Mn8  1  0.750001  0.713439  0.313689  1
  Mn  Mn9  1  0.250000  0.882738  0.689005  1
  Mn  Mn10  1  0.250000  0.617166  0.188704  1
  Mn  Mn11  1  0.750000  0.116144  0.309289  1
  Mn  Mn12  1  0.750001  0.383005  0.811290  1
  Mn  Mn13  1  0.250000  0.466427  0.935442  1
  Mn  Mn14  1  0.250000  0.034828  0.435294  1
  Mn  Mn15  1  0.750000  0.536073  0.064722  1
  Mn  Mn16  1  0.750000  0.965082  0.564305  1
  Tc  Tc17  1  0.250000  0.710253  0.980695  1
  Tc  Tc18  1  0.250000  0.794978  0.478030  1
  Tc  Tc19  1  0.750000  0.294719  0.022165  1
  Tc  Tc20  1  0.750000  0.205223  0.520899  1
  Tc  Tc21  1  0.250000  0.413817  0.497551  1
  Tc  Tc22  1  0.250000  0.085112  0.995153  1
  Tc  Tc23  1  0.750000  0.586831  0.502839  1
  P  P24  1  0.250000  0.412777  0.115274  1
  P  P25  1  0.250000  0.086291  0.616504  1
  P  P26  1  0.750000  0.587423  0.884603  1
  P  P27  1  0.750000  0.913415  0.383573  1
  P  P28  1  0.250000  0.264725  0.878465  1
  P  P29  1  0.250000  0.234437  0.377693  1
  P  P30  1  0.750000  0.736160  0.122873  1
  P  P31  1  0.750000  0.765876  0.623511  1
  P  P32  1  0.250000  0.600652  0.378338  1
  P  P33  1  0.250000  0.902949  0.879534  1
  P  P34  1  0.750000  0.399162  0.621875  1
  P  P35  1  0.750000  0.096418  0.116807  1
