# generated using pymatgen
data_Ca9Th3(SiIr)8
_symmetry_space_group_name_H-M   'P 1'
_cell_length_a   5.84911700
_cell_length_b   7.78603629
_cell_length_c   13.26731200
_cell_angle_alpha   90.00000000
_cell_angle_beta   90.00000000
_cell_angle_gamma   90.21980014
_symmetry_Int_Tables_number   1
_chemical_formula_structural   Ca9Th3(SiIr)8
_chemical_formula_sum   'Ca9 Th3 Si8 Ir8'
_cell_volume   604.20801079
_cell_formula_units_Z   1
loop_
 _symmetry_equiv_pos_site_id
 _symmetry_equiv_pos_as_xyz
  1  'x, y, z'
loop_
 _atom_site_type_symbol
 _atom_site_label
 _atom_site_symmetry_multiplicity
 _atom_site_fract_x
 _atom_site_fract_y
 _atom_site_fract_z
 _atom_site_occupancy
  Ca  Ca0  1  0.630000  0.237417  0.250000  1
  Ca  Ca1  1  0.124047  0.380064  0.100854  1
  Ca  Ca2  1  0.874517  0.614795  0.902316  1
  Ca  Ca3  1  0.874517  0.614795  0.597684  1
  Ca  Ca4  1  0.867808  0.893391  0.399712  1
  Ca  Ca5  1  0.124047  0.380064  0.399146  1
  Ca  Ca6  1  0.128675  0.113213  0.600372  1
  Ca  Ca7  1  0.128675  0.113213  0.899628  1
  Ca  Ca8  1  0.867808  0.893391  0.100288  1
  Th  Th9  1  0.379359  0.761161  0.750000  1
  Th  Th10  1  0.376637  0.734340  0.250000  1
  Th  Th11  1  0.622007  0.263543  0.750000  1
  Si  Si12  1  0.157806  0.085751  0.250000  1
  Si  Si13  1  0.862803  0.906040  0.750000  1
  Si  Si14  1  0.855567  0.586569  0.250000  1
  Si  Si15  1  0.135580  0.407106  0.750000  1
  Si  Si16  1  0.583406  0.251087  0.001807  1
  Si  Si17  1  0.417489  0.751566  0.997224  1
  Si  Si18  1  0.417489  0.751566  0.502776  1
  Si  Si19  1  0.583406  0.251087  0.498193  1
  Ir  Ir20  1  0.363167  0.018719  0.091306  1
  Ir  Ir21  1  0.634566  0.979350  0.905608  1
  Ir  Ir22  1  0.634566  0.979350  0.594392  1
  Ir  Ir23  1  0.629910  0.530721  0.407594  1
  Ir  Ir24  1  0.363167  0.018719  0.408694  1
  Ir  Ir25  1  0.366537  0.476130  0.593044  1
  Ir  Ir26  1  0.366537  0.476130  0.906956  1
  Ir  Ir27  1  0.629910  0.530721  0.092406  1
