# generated using pymatgen
data_La15Yb4SmSn16
_symmetry_space_group_name_H-M   'P 1'
_cell_length_a   8.23427317
_cell_length_b   8.59887861
_cell_length_c   16.41493429
_cell_angle_alpha   90.04106535
_cell_angle_beta   89.98081748
_cell_angle_gamma   90.01290334
_symmetry_Int_Tables_number   1
_chemical_formula_structural   La15Yb4SmSn16
_chemical_formula_sum   'La15 Yb4 Sm1 Sn16'
_cell_volume   1162.26748884
_cell_formula_units_Z   1
loop_
 _symmetry_equiv_pos_site_id
 _symmetry_equiv_pos_as_xyz
  1  'x, y, z'
loop_
 _atom_site_type_symbol
 _atom_site_label
 _atom_site_symmetry_multiplicity
 _atom_site_fract_x
 _atom_site_fract_y
 _atom_site_fract_z
 _atom_site_occupancy
  La  La0  1  0.150156  0.326743  0.876315  1
  La  La1  1  0.350269  0.826701  0.123677  1
  La  La2  1  0.849783  0.672939  0.376909  1
  La  La3  1  0.349600  0.826358  0.376391  1
  La  La4  1  0.849945  0.673251  0.123504  1
  La  La5  1  0.649683  0.173315  0.875898  1
  La  La6  1  0.150031  0.326349  0.623715  1
  La  La7  1  0.495577  0.682906  0.597139  1
  La  La8  1  0.995436  0.817113  0.902614  1
  La  La9  1  0.504561  0.316818  0.097262  1
  La  La10  1  0.004441  0.183530  0.402849  1
  La  La11  1  0.504916  0.316804  0.403288  1
  La  La12  1  0.004665  0.182983  0.097193  1
  La  La13  1  0.495714  0.683034  0.902690  1
  La  La14  1  0.994749  0.816897  0.597332  1
  Yb  Yb15  1  0.817565  0.504548  0.749723  1
  Yb  Yb16  1  0.318147  0.995306  0.749780  1
  Yb  Yb17  1  0.182383  0.494896  0.250030  1
  Yb  Yb18  1  0.682296  0.005189  0.250048  1
  Sm  Sm19  1  0.650563  0.173579  0.623754  1
  Sn  Sn20  1  0.684542  0.967822  0.464184  1
  Sn  Sn21  1  0.185449  0.533916  0.037753  1
  Sn  Sn22  1  0.314329  0.034199  0.962216  1
  Sn  Sn23  1  0.812038  0.463379  0.538468  1
  Sn  Sn24  1  0.318906  0.035029  0.538234  1
  Sn  Sn25  1  0.814613  0.465986  0.962143  1
  Sn  Sn26  1  0.685357  0.966003  0.037671  1
  Sn  Sn27  1  0.185564  0.533982  0.462311  1
  Sn  Sn28  1  0.451284  0.394569  0.749403  1
  Sn  Sn29  1  0.947466  0.104019  0.748565  1
  Sn  Sn30  1  0.550297  0.603127  0.250030  1
  Sn  Sn31  1  0.050208  0.897097  0.249958  1
  Sn  Sn32  1  0.691111  0.861272  0.749293  1
  Sn  Sn33  1  0.191801  0.640249  0.749666  1
  Sn  Sn34  1  0.308190  0.140292  0.250007  1
  Sn  Sn35  1  0.808365  0.359799  0.249990  1
