# generated using pymatgen
data_DyYTm2(ReB6)2
_symmetry_space_group_name_H-M   'P 1'
_cell_length_a   3.66000100
_cell_length_b   9.13388700
_cell_length_c   11.52230800
_cell_angle_alpha   89.99843022
_cell_angle_beta   90.00000000
_cell_angle_gamma   90.00000000
_symmetry_Int_Tables_number   1
_chemical_formula_structural   DyYTm2(ReB6)2
_chemical_formula_sum   'Dy2 Y2 Tm4 Re4 B24'
_cell_volume   385.19116603
_cell_formula_units_Z   2
loop_
 _symmetry_equiv_pos_site_id
 _symmetry_equiv_pos_as_xyz
  1  'x, y, z'
loop_
 _atom_site_type_symbol
 _atom_site_label
 _atom_site_symmetry_multiplicity
 _atom_site_fract_x
 _atom_site_fract_y
 _atom_site_fract_z
 _atom_site_occupancy
  Dy  Dy0  1  0.000000  0.823272  0.086065  1
  Dy  Dy1  1  0.000000  0.176728  0.913935  1
  Y  Y2  1  0.000000  0.323113  0.413978  1
  Y  Y3  1  0.000000  0.676887  0.586022  1
  Tm  Tm4  1  0.000000  0.943334  0.370175  1
  Tm  Tm5  1  0.000000  0.056666  0.629825  1
  Tm  Tm6  1  0.000000  0.443331  0.129784  1
  Tm  Tm7  1  0.000000  0.556669  0.870216  1
  Re  Re8  1  0.000000  0.639513  0.320039  1
  Re  Re9  1  0.000000  0.360487  0.679961  1
  Re  Re10  1  0.000000  0.139245  0.179627  1
  Re  Re11  1  0.000000  0.860755  0.820373  1
  B  B12  1  0.500000  0.553622  0.432585  1
  B  B13  1  0.500000  0.446378  0.567415  1
  B  B14  1  0.500000  0.053567  0.067322  1
  B  B15  1  0.500000  0.946433  0.932678  1
  B  B16  1  0.500000  0.750286  0.418297  1
  B  B17  1  0.500000  0.249714  0.581703  1
  B  B18  1  0.500000  0.250189  0.081536  1
  B  B19  1  0.500000  0.749811  0.918464  1
  B  B20  1  0.500000  0.792773  0.265480  1
  B  B21  1  0.500000  0.207227  0.734520  1
  B  B22  1  0.500000  0.292730  0.234351  1
  B  B23  1  0.500000  0.707270  0.765649  1
  B  B24  1  0.500000  0.630523  0.185155  1
  B  B25  1  0.500000  0.369477  0.814845  1
  B  B26  1  0.500000  0.130367  0.314734  1
  B  B27  1  0.500000  0.869633  0.685266  1
  B  B28  1  0.500000  0.982012  0.212426  1
  B  B29  1  0.500000  0.017988  0.787574  1
  B  B30  1  0.500000  0.482140  0.287437  1
  B  B31  1  0.500000  0.517860  0.712563  1
  B  B32  1  0.500000  0.598780  0.027517  1
  B  B33  1  0.500000  0.401220  0.972483  1
  B  B34  1  0.500000  0.098688  0.472512  1
  B  B35  1  0.500000  0.901312  0.527488  1
