# generated using pymatgen
data_Y7BeI12
_symmetry_space_group_name_H-M   'P 1'
_cell_length_a   9.72518404
_cell_length_b   9.72518303
_cell_length_c   9.72518339
_cell_angle_alpha   107.52876218
_cell_angle_beta   107.52876352
_cell_angle_gamma   107.52875477
_symmetry_Int_Tables_number   1
_chemical_formula_structural   Y7BeI12
_chemical_formula_sum   'Y7 Be1 I12'
_cell_volume   754.69664510
_cell_formula_units_Z   1
loop_
 _symmetry_equiv_pos_site_id
 _symmetry_equiv_pos_as_xyz
  1  'x, y, z'
loop_
 _atom_site_type_symbol
 _atom_site_label
 _atom_site_symmetry_multiplicity
 _atom_site_fract_x
 _atom_site_fract_y
 _atom_site_fract_z
 _atom_site_occupancy
  Y  Y0  1  0.702371  0.973745  0.903437  1
  Y  Y1  1  0.973745  0.903437  0.702371  1
  Y  Y2  1  0.500000  0.500000  0.500000  1
  Y  Y3  1  0.096563  0.297629  0.026255  1
  Y  Y4  1  0.297629  0.026255  0.096563  1
  Y  Y5  1  0.903437  0.702371  0.973745  1
  Y  Y6  1  0.026255  0.096563  0.297629  1
  Be  Be7  1  0.000000  0.000000  0.000000  1
  I  I8  1  0.072806  0.226817  0.679107  1
  I  I9  1  0.385139  0.154986  0.463947  1
  I  I10  1  0.614861  0.845014  0.536053  1
  I  I11  1  0.226817  0.679107  0.072806  1
  I  I12  1  0.773183  0.320893  0.927194  1
  I  I13  1  0.679107  0.072806  0.226817  1
  I  I14  1  0.536053  0.614861  0.845014  1
  I  I15  1  0.845014  0.536053  0.614861  1
  I  I16  1  0.927194  0.773183  0.320893  1
  I  I17  1  0.320893  0.927194  0.773183  1
  I  I18  1  0.463947  0.385139  0.154986  1
  I  I19  1  0.154986  0.463947  0.385139  1
