# generated using pymatgen
data_YbTaNbF12
_symmetry_space_group_name_H-M   'P 1'
_cell_length_a   5.43792834
_cell_length_b   5.88443778
_cell_length_c   9.47424059
_cell_angle_alpha   105.10110588
_cell_angle_beta   90.46338309
_cell_angle_gamma   118.81770728
_symmetry_Int_Tables_number   1
_chemical_formula_structural   YbTaNbF12
_chemical_formula_sum   'Yb1 Ta1 Nb1 F12'
_cell_volume   253.22820650
_cell_formula_units_Z   1
loop_
 _symmetry_equiv_pos_site_id
 _symmetry_equiv_pos_as_xyz
  1  'x, y, z'
loop_
 _atom_site_type_symbol
 _atom_site_label
 _atom_site_symmetry_multiplicity
 _atom_site_fract_x
 _atom_site_fract_y
 _atom_site_fract_z
 _atom_site_occupancy
  Yb  Yb0  1  0.000021  0.999914  0.999484  1
  Ta  Ta1  1  0.222802  0.491058  0.735007  1
  Nb  Nb2  1  0.778054  0.509992  0.266614  1
  F  F3  1  0.826229  0.265203  0.703571  1
  F  F4  1  0.176112  0.736190  0.295894  1
  F  F5  1  0.185769  0.733902  0.915786  1
  F  F6  1  0.705152  0.719129  0.428634  1
  F  F7  1  0.293428  0.282509  0.572807  1
  F  F8  1  0.784104  0.272361  0.365190  1
  F  F9  1  0.215806  0.725036  0.634931  1
  F  F10  1  0.363059  0.270756  0.187565  1
  F  F11  1  0.635302  0.728590  0.811979  1
  F  F12  1  0.765892  0.721080  0.133120  1
  F  F13  1  0.234159  0.279692  0.866081  1
  F  F14  1  0.814109  0.264589  0.083335  1
