# generated using pymatgen
data_Li2TbPaRh2
_symmetry_space_group_name_H-M   'P 1'
_cell_length_a   3.76284100
_cell_length_b   7.13290012
_cell_length_c   8.59301622
_cell_angle_alpha   93.00527019
_cell_angle_beta   90.00000000
_cell_angle_gamma   90.00000000
_symmetry_Int_Tables_number   1
_chemical_formula_structural   Li2TbPaRh2
_chemical_formula_sum   'Li4 Tb2 Pa2 Rh4'
_cell_volume   230.31909900
_cell_formula_units_Z   2
loop_
 _symmetry_equiv_pos_site_id
 _symmetry_equiv_pos_as_xyz
  1  'x, y, z'
loop_
 _atom_site_type_symbol
 _atom_site_label
 _atom_site_symmetry_multiplicity
 _atom_site_fract_x
 _atom_site_fract_y
 _atom_site_fract_z
 _atom_site_occupancy
  Li  Li0  1  0.250000  0.121787  0.942168  1
  Li  Li1  1  0.750000  0.878213  0.057832  1
  Li  Li2  1  0.250000  0.622536  0.553327  1
  Li  Li3  1  0.750000  0.377464  0.446673  1
  Tb  Tb4  1  0.250000  0.056064  0.318393  1
  Tb  Tb5  1  0.750000  0.943936  0.681607  1
  Pa  Pa6  1  0.250000  0.546713  0.190868  1
  Pa  Pa7  1  0.750000  0.453287  0.809132  1
  Rh  Rh8  1  0.750000  0.746539  0.354376  1
  Rh  Rh9  1  0.250000  0.253461  0.645624  1
  Rh  Rh10  1  0.750000  0.289898  0.119085  1
  Rh  Rh11  1  0.250000  0.710102  0.880915  1
