# generated using pymatgen
data_La2YCoCu4(Ni4B)2
_symmetry_space_group_name_H-M   'P 1'
_cell_length_a   5.11619749
_cell_length_b   5.14350934
_cell_length_c   10.89212700
_cell_angle_alpha   90.07663932
_cell_angle_beta   89.84594776
_cell_angle_gamma   119.82448353
_symmetry_Int_Tables_number   1
_chemical_formula_structural   La2YCoCu4(Ni4B)2
_chemical_formula_sum   'La2 Y1 Co1 Cu4 Ni8 B2'
_cell_volume   248.66460955
_cell_formula_units_Z   1
loop_
 _symmetry_equiv_pos_site_id
 _symmetry_equiv_pos_as_xyz
  1  'x, y, z'
loop_
 _atom_site_type_symbol
 _atom_site_label
 _atom_site_symmetry_multiplicity
 _atom_site_fract_x
 _atom_site_fract_y
 _atom_site_fract_z
 _atom_site_occupancy
  La  La0  1  0.000390  0.000000  0.327942  1
  La  La1  1  0.999979  0.000000  0.668379  1
  Y  Y2  1  0.999849  0.000000  0.001440  1
  Co  Co3  1  0.499653  0.000000  0.124863  1
  Cu  Cu4  1  0.335043  0.669401  0.315861  1
  Cu  Cu5  1  0.665641  0.330599  0.315861  1
  Cu  Cu6  1  0.666771  0.333737  0.684163  1
  Cu  Cu7  1  0.333033  0.666263  0.684163  1
  Ni  Ni8  1  0.500394  0.000000  0.500033  1
  Ni  Ni9  1  0.500081  0.499849  0.500033  1
  Ni  Ni10  1  0.000232  0.500151  0.500033  1
  Ni  Ni11  1  0.499481  0.499950  0.127883  1
  Ni  Ni12  1  0.999531  0.500050  0.127883  1
  Ni  Ni13  1  0.500093  0.000000  0.872272  1
  Ni  Ni14  1  0.500160  0.500067  0.873173  1
  Ni  Ni15  1  0.000093  0.499933  0.873173  1
  B  B16  1  0.335758  0.672039  0.001421  1
  B  B17  1  0.663719  0.327961  0.001421  1
