# generated using pymatgen
data_Sr4TaNb(RhO6)2
_symmetry_space_group_name_H-M   'P 1'
_cell_length_a   5.68417989
_cell_length_b   5.67233019
_cell_length_c   8.05445807
_cell_angle_alpha   89.98858964
_cell_angle_beta   90.02374682
_cell_angle_gamma   89.97233504
_symmetry_Int_Tables_number   1
_chemical_formula_structural   Sr4TaNb(RhO6)2
_chemical_formula_sum   'Sr4 Ta1 Nb1 Rh2 O12'
_cell_volume   259.69617098
_cell_formula_units_Z   1
loop_
 _symmetry_equiv_pos_site_id
 _symmetry_equiv_pos_as_xyz
  1  'x, y, z'
loop_
 _atom_site_type_symbol
 _atom_site_label
 _atom_site_symmetry_multiplicity
 _atom_site_fract_x
 _atom_site_fract_y
 _atom_site_fract_z
 _atom_site_occupancy
  Sr  Sr0  1  0.001260  0.981395  0.750829  1
  Sr  Sr1  1  0.498770  0.481291  0.749593  1
  Sr  Sr2  1  0.501230  0.518709  0.250407  1
  Sr  Sr3  1  0.998740  0.018605  0.249171  1
  Ta  Ta4  1  0.000000  0.500000  0.500000  1
  Nb  Nb5  1  0.500000  0.000000  0.000000  1
  Rh  Rh6  1  0.500000  0.000000  0.500000  1
  Rh  Rh7  1  0.000000  0.500000  0.000000  1
  O  O8  1  0.723386  0.285497  0.476750  1
  O  O9  1  0.778857  0.784422  0.023156  1
  O  O10  1  0.214117  0.222919  0.524095  1
  O  O11  1  0.284750  0.720748  0.975891  1
  O  O12  1  0.276614  0.714503  0.523250  1
  O  O13  1  0.221143  0.215578  0.976844  1
  O  O14  1  0.785883  0.777081  0.475905  1
  O  O15  1  0.715250  0.279252  0.024109  1
  O  O16  1  0.046763  0.493712  0.254349  1
  O  O17  1  0.453294  0.993794  0.247327  1
  O  O18  1  0.546706  0.006206  0.752673  1
  O  O19  1  0.953237  0.506288  0.745651  1
