# generated using pymatgen
data_Th4B16Mo3W
_symmetry_space_group_name_H-M   'P 1'
_cell_length_a   6.12087700
_cell_length_b   11.83755986
_cell_length_c   3.77753100
_cell_angle_alpha   90.00000000
_cell_angle_beta   90.00000000
_cell_angle_gamma   90.03141342
_symmetry_Int_Tables_number   1
_chemical_formula_structural   Th4B16Mo3W
_chemical_formula_sum   'Th4 B16 Mo3 W1'
_cell_volume   273.70568147
_cell_formula_units_Z   1
loop_
 _symmetry_equiv_pos_site_id
 _symmetry_equiv_pos_as_xyz
  1  'x, y, z'
loop_
 _atom_site_type_symbol
 _atom_site_label
 _atom_site_symmetry_multiplicity
 _atom_site_fract_x
 _atom_site_fract_y
 _atom_site_fract_z
 _atom_site_occupancy
  Th  Th0  1  0.623760  0.349277  0.000000  1
  Th  Th1  1  0.376194  0.650948  0.000000  1
  Th  Th2  1  0.124152  0.151131  0.000000  1
  Th  Th3  1  0.876131  0.848765  0.000000  1
  B  B4  1  0.783281  0.183906  0.500000  1
  B  B5  1  0.217059  0.816389  0.500000  1
  B  B6  1  0.282852  0.316446  0.500000  1
  B  B7  1  0.717125  0.683532  0.500000  1
  B  B8  1  0.861028  0.031970  0.500000  1
  B  B9  1  0.138929  0.967721  0.500000  1
  B  B10  1  0.360679  0.467748  0.500000  1
  B  B11  1  0.639179  0.532399  0.500000  1
  B  B12  1  0.888292  0.454555  0.500000  1
  B  B13  1  0.111887  0.545564  0.500000  1
  B  B14  1  0.387850  0.045339  0.500000  1
  B  B15  1  0.611729  0.954189  0.500000  1
  B  B16  1  0.975189  0.310219  0.500000  1
  B  B17  1  0.024892  0.689813  0.500000  1
  B  B18  1  0.474733  0.189874  0.500000  1
  B  B19  1  0.524797  0.810111  0.500000  1
  Mo  Mo20  1  0.370638  0.913701  0.000000  1
  Mo  Mo21  1  0.129655  0.413778  0.000000  1
  Mo  Mo22  1  0.870358  0.586304  0.000000  1
  W  W23  1  0.629611  0.086321  0.000000  1
