# generated using pymatgen
data_Sc8Ta11NbSi16
_symmetry_space_group_name_H-M   'P 1'
_cell_length_a   6.70455806
_cell_length_b   6.88479404
_cell_length_c   13.12781405
_cell_angle_alpha   89.99950210
_cell_angle_beta   89.99031420
_cell_angle_gamma   90.01262346
_symmetry_Int_Tables_number   1
_chemical_formula_structural   Sc8Ta11NbSi16
_chemical_formula_sum   'Sc8 Ta11 Nb1 Si16'
_cell_volume   605.97332771
_cell_formula_units_Z   1
loop_
 _symmetry_equiv_pos_site_id
 _symmetry_equiv_pos_as_xyz
  1  'x, y, z'
loop_
 _atom_site_type_symbol
 _atom_site_label
 _atom_site_symmetry_multiplicity
 _atom_site_fract_x
 _atom_site_fract_y
 _atom_site_fract_z
 _atom_site_occupancy
  Sc  Sc0  1  0.499434  0.673740  0.595077  1
  Sc  Sc1  1  0.999169  0.826211  0.905032  1
  Sc  Sc2  1  0.500821  0.326279  0.095090  1
  Sc  Sc3  1  0.000683  0.173728  0.404791  1
  Sc  Sc4  1  0.500719  0.326489  0.404814  1
  Sc  Sc5  1  0.000689  0.173595  0.095113  1
  Sc  Sc6  1  0.499257  0.673714  0.905046  1
  Sc  Sc7  1  0.999259  0.825872  0.595014  1
  Ta  Ta8  1  0.660820  0.174915  0.625018  1
  Ta  Ta9  1  0.161104  0.324823  0.875139  1
  Ta  Ta10  1  0.338933  0.824948  0.124901  1
  Ta  Ta11  1  0.838890  0.675291  0.375038  1
  Ta  Ta12  1  0.338686  0.824844  0.375059  1
  Ta  Ta13  1  0.839055  0.675164  0.124952  1
  Ta  Ta14  1  0.661024  0.175174  0.875098  1
  Ta  Ta15  1  0.835996  0.493585  0.750143  1
  Ta  Ta16  1  0.336600  0.006306  0.750122  1
  Ta  Ta17  1  0.163681  0.506414  0.249886  1
  Ta  Ta18  1  0.663708  0.993525  0.249995  1
  Nb  Nb19  1  0.161417  0.324999  0.624653  1
  Si  Si20  1  0.670256  0.967752  0.460974  1
  Si  Si21  1  0.170400  0.532395  0.039076  1
  Si  Si22  1  0.329577  0.032264  0.960980  1
  Si  Si23  1  0.829350  0.467610  0.539052  1
  Si  Si24  1  0.330075  0.032213  0.539035  1
  Si  Si25  1  0.829644  0.467696  0.960984  1
  Si  Si26  1  0.670401  0.967730  0.039101  1
  Si  Si27  1  0.170302  0.532271  0.460722  1
  Si  Si28  1  0.457354  0.386900  0.750062  1
  Si  Si29  1  0.957660  0.113263  0.749843  1
  Si  Si30  1  0.542451  0.613090  0.249986  1
  Si  Si31  1  0.042480  0.886974  0.249972  1
  Si  Si32  1  0.703382  0.861592  0.750065  1
  Si  Si33  1  0.203264  0.638654  0.750177  1
  Si  Si34  1  0.296749  0.138499  0.250047  1
  Si  Si35  1  0.796710  0.361480  0.249942  1
