# generated using pymatgen
data_TbSm2Gd(SeO2)2
_symmetry_space_group_name_H-M   'P 1'
_cell_length_a   3.89916600
_cell_length_b   3.91171826
_cell_length_c   12.38022222
_cell_angle_alpha   91.30178763
_cell_angle_beta   90.00000000
_cell_angle_gamma   90.00000000
_symmetry_Int_Tables_number   1
_chemical_formula_structural   TbSm2Gd(SeO2)2
_chemical_formula_sum   'Tb1 Sm2 Gd1 Se2 O4'
_cell_volume   188.77984582
_cell_formula_units_Z   1
loop_
 _symmetry_equiv_pos_site_id
 _symmetry_equiv_pos_as_xyz
  1  'x, y, z'
loop_
 _atom_site_type_symbol
 _atom_site_label
 _atom_site_symmetry_multiplicity
 _atom_site_fract_x
 _atom_site_fract_y
 _atom_site_fract_z
 _atom_site_occupancy
  Tb  Tb0  1  0.000000  0.921261  0.656158  1
  Sm  Sm1  1  0.500000  0.438243  0.843049  1
  Sm  Sm2  1  0.500000  0.560406  0.156565  1
  Gd  Gd3  1  0.000000  0.075856  0.346416  1
  Se  Se4  1  0.000000  0.000016  0.999181  1
  Se  Se5  1  0.500000  0.507112  0.500346  1
  O  O6  1  0.500000  0.064000  0.251854  1
  O  O7  1  0.000000  0.433617  0.745885  1
  O  O8  1  0.000000  0.564694  0.253120  1
  O  O9  1  0.500000  0.934796  0.747423  1
