# generated using pymatgen
data_CaP6(WO6)4
_symmetry_space_group_name_H-M   'P 1'
_cell_length_a   8.59548640
_cell_length_b   8.64575467
_cell_length_c   9.13074501
_cell_angle_alpha   61.93510193
_cell_angle_beta   117.86490124
_cell_angle_gamma   119.78212318
_symmetry_Int_Tables_number   1
_chemical_formula_structural   CaP6(WO6)4
_chemical_formula_sum   'Ca1 P6 W4 O24'
_cell_volume   494.88961504
_cell_formula_units_Z   1
loop_
 _symmetry_equiv_pos_site_id
 _symmetry_equiv_pos_as_xyz
  1  'x, y, z'
loop_
 _atom_site_type_symbol
 _atom_site_label
 _atom_site_symmetry_multiplicity
 _atom_site_fract_x
 _atom_site_fract_y
 _atom_site_fract_z
 _atom_site_occupancy
  Ca  Ca0  1  0.000000  0.000000  0.000000  1
  P  P1  1  0.033134  0.247759  0.245904  1
  P  P2  1  0.461239  0.967555  0.247089  1
  P  P3  1  0.752937  0.539891  0.245077  1
  P  P4  1  0.247063  0.460108  0.754923  1
  P  P5  1  0.538761  0.032445  0.752911  1
  P  P6  1  0.966866  0.752241  0.754095  1
  W  W7  1  0.355346  0.645791  0.062496  1
  W  W8  1  0.144305  0.853434  0.437567  1
  W  W9  1  0.855695  0.146566  0.562433  1
  W  W10  1  0.644654  0.354209  0.937504  1
  O  O11  1  0.475907  0.154233  0.097325  1
  O  O12  1  0.769535  0.520143  0.093726  1
  O  O13  1  0.843489  0.228993  0.098842  1
  O  O14  1  0.473003  0.820048  0.208318  1
  O  O15  1  0.553434  0.521181  0.213937  1
  O  O16  1  0.180805  0.444495  0.215564  1
  O  O17  1  0.258846  0.900610  0.258717  1
  O  O18  1  0.895062  0.741448  0.251719  1
  O  O19  1  0.096817  0.102551  0.253399  1
  O  O20  1  0.811182  0.394740  0.418382  1
  O  O21  1  0.006999  0.190996  0.423304  1
  O  O22  1  0.609109  0.990104  0.421307  1
  O  O23  1  0.390891  0.009896  0.578692  1
  O  O24  1  0.993001  0.809004  0.576695  1
  O  O25  1  0.188819  0.605260  0.581619  1
  O  O26  1  0.903183  0.897450  0.746601  1
  O  O27  1  0.104938  0.258552  0.748280  1
  O  O28  1  0.741154  0.099389  0.741283  1
  O  O29  1  0.819194  0.555505  0.784436  1
  O  O30  1  0.446566  0.478820  0.786063  1
  O  O31  1  0.526997  0.179953  0.791682  1
  O  O32  1  0.156511  0.771007  0.901158  1
  O  O33  1  0.230464  0.479857  0.906273  1
  O  O34  1  0.524093  0.845767  0.902675  1
