# generated using pymatgen
data_YHoSi6AsRh12
_symmetry_space_group_name_H-M   'P 1'
_cell_length_a   9.79142200
_cell_length_b   9.79142357
_cell_length_c   3.84939500
_cell_angle_alpha   90.00000000
_cell_angle_beta   90.00000000
_cell_angle_gamma   119.99999471
_symmetry_Int_Tables_number   1
_chemical_formula_structural   YHoSi6AsRh12
_chemical_formula_sum   'Y1 Ho1 Si6 As1 Rh12'
_cell_volume   319.60586433
_cell_formula_units_Z   1
loop_
 _symmetry_equiv_pos_site_id
 _symmetry_equiv_pos_as_xyz
  1  'x, y, z'
loop_
 _atom_site_type_symbol
 _atom_site_label
 _atom_site_symmetry_multiplicity
 _atom_site_fract_x
 _atom_site_fract_y
 _atom_site_fract_z
 _atom_site_occupancy
  Y  Y0  1  0.333333  0.666667  0.249395  1
  Ho  Ho1  1  0.666667  0.333333  0.750638  1
  Si  Si2  1  0.402846  0.112083  0.248879  1
  Si  Si3  1  0.709237  0.597154  0.248879  1
  Si  Si4  1  0.887917  0.290763  0.248879  1
  Si  Si5  1  0.597420  0.888141  0.751126  1
  Si  Si6  1  0.290721  0.402580  0.751126  1
  Si  Si7  1  0.111859  0.709279  0.751126  1
  As  As8  1  0.000000  0.000000  0.499912  1
  Rh  Rh9  1  0.444921  0.381041  0.249244  1
  Rh  Rh10  1  0.936120  0.555079  0.249244  1
  Rh  Rh11  1  0.618959  0.063880  0.249244  1
  Rh  Rh12  1  0.555612  0.618748  0.750748  1
  Rh  Rh13  1  0.063137  0.444388  0.750748  1
  Rh  Rh14  1  0.381252  0.936863  0.750748  1
  Rh  Rh15  1  0.146135  0.880124  0.250001  1
  Rh  Rh16  1  0.733990  0.853865  0.250001  1
  Rh  Rh17  1  0.119876  0.266010  0.250001  1
  Rh  Rh18  1  0.853850  0.119930  0.750019  1
  Rh  Rh19  1  0.266080  0.146150  0.750019  1
  Rh  Rh20  1  0.880070  0.733920  0.750019  1
