# generated using pymatgen
data_SmDy3ReRu7
_symmetry_space_group_name_H-M   'P 1'
_cell_length_a   5.21364856
_cell_length_b   5.46092912
_cell_length_c   9.03287005
_cell_angle_alpha   89.99999626
_cell_angle_beta   90.01057669
_cell_angle_gamma   121.58175323
_symmetry_Int_Tables_number   1
_chemical_formula_structural   SmDy3ReRu7
_chemical_formula_sum   'Sm1 Dy3 Re1 Ru7'
_cell_volume   219.08845035
_cell_formula_units_Z   1
loop_
 _symmetry_equiv_pos_site_id
 _symmetry_equiv_pos_as_xyz
  1  'x, y, z'
loop_
 _atom_site_type_symbol
 _atom_site_label
 _atom_site_symmetry_multiplicity
 _atom_site_fract_x
 _atom_site_fract_y
 _atom_site_fract_z
 _atom_site_occupancy
  Sm  Sm0  1  0.325604  0.662803  0.433615  1
  Dy  Dy1  1  0.653585  0.326792  0.565900  1
  Dy  Dy2  1  0.653585  0.326792  0.934876  1
  Dy  Dy3  1  0.327370  0.663686  0.066473  1
  Re  Re4  1  0.689911  0.844956  0.751167  1
  Ru  Ru5  1  0.974388  0.987195  0.500123  1
  Ru  Ru6  1  0.973621  0.986811  0.000184  1
  Ru  Ru7  1  0.837620  0.166579  0.248229  1
  Ru  Ru8  1  0.837620  0.671041  0.248229  1
  Ru  Ru9  1  0.357206  0.178604  0.248392  1
  Ru  Ru10  1  0.184744  0.829108  0.751406  1
  Ru  Ru11  1  0.184744  0.355637  0.751406  1
