# generated using pymatgen
data_Tb12Co4BiPd
_symmetry_space_group_name_H-M   'P 1'
_cell_length_a   8.38957155
_cell_length_b   8.38957106
_cell_length_c   8.38957200
_cell_angle_alpha   110.94136212
_cell_angle_beta   110.41256129
_cell_angle_gamma   107.08620570
_symmetry_Int_Tables_number   1
_chemical_formula_structural   Tb12Co4BiPd
_chemical_formula_sum   'Tb12 Co4 Bi1 Pd1'
_cell_volume   453.96874300
_cell_formula_units_Z   1
loop_
 _symmetry_equiv_pos_site_id
 _symmetry_equiv_pos_as_xyz
  1  'x, y, z'
loop_
 _atom_site_type_symbol
 _atom_site_label
 _atom_site_symmetry_multiplicity
 _atom_site_fract_x
 _atom_site_fract_y
 _atom_site_fract_z
 _atom_site_occupancy
  Tb  Tb0  1  0.815173  0.706755  0.521928  1
  Tb  Tb1  1  0.184827  0.293245  0.478072  1
  Tb  Tb2  1  0.184827  0.706755  0.891583  1
  Tb  Tb3  1  0.815173  0.293245  0.108417  1
  Tb  Tb4  1  0.688365  0.379344  0.690979  1
  Tb  Tb5  1  0.311635  0.620656  0.309021  1
  Tb  Tb6  1  0.688365  0.997386  0.309021  1
  Tb  Tb7  1  0.311635  0.002614  0.690979  1
  Tb  Tb8  1  0.591026  0.791349  0.799678  1
  Tb  Tb9  1  0.408974  0.208651  0.200322  1
  Tb  Tb10  1  0.991673  0.791349  0.200322  1
  Tb  Tb11  1  0.008327  0.208651  0.799678  1
  Co  Co12  1  0.620283  0.000000  0.620283  1
  Co  Co13  1  0.379717  0.000000  0.379717  1
  Co  Co14  1  0.111403  0.611403  0.500000  1
  Co  Co15  1  0.888597  0.388597  0.500000  1
  Bi  Bi16  1  0.500000  0.500000  0.000000  1
  Pd  Pd17  1  0.000000  0.000000  0.000000  1
