# generated using pymatgen
data_Ca7Pr(Si3Pd)4
_symmetry_space_group_name_H-M   'P 1'
_cell_length_a   8.26937300
_cell_length_b   8.26937317
_cell_length_c   8.47805400
_cell_angle_alpha   90.00000000
_cell_angle_beta   90.00000000
_cell_angle_gamma   120.00000332
_symmetry_Int_Tables_number   1
_chemical_formula_structural   Ca7Pr(Si3Pd)4
_chemical_formula_sum   'Ca7 Pr1 Si12 Pd4'
_cell_volume   502.07889730
_cell_formula_units_Z   1
loop_
 _symmetry_equiv_pos_site_id
 _symmetry_equiv_pos_as_xyz
  1  'x, y, z'
loop_
 _atom_site_type_symbol
 _atom_site_label
 _atom_site_symmetry_multiplicity
 _atom_site_fract_x
 _atom_site_fract_y
 _atom_site_fract_z
 _atom_site_occupancy
  Ca  Ca0  1  0.498981  0.501019  0.750000  1
  Ca  Ca1  1  0.500964  0.499036  0.250000  1
  Ca  Ca2  1  0.002039  0.501019  0.750000  1
  Ca  Ca3  1  0.998072  0.499036  0.250000  1
  Ca  Ca4  1  0.498981  0.997961  0.750000  1
  Ca  Ca5  1  0.500964  0.001928  0.250000  1
  Ca  Ca6  1  0.000000  0.000000  0.750000  1
  Pr  Pr7  1  0.000000  0.000000  0.250000  1
  Si  Si8  1  0.834621  0.165379  0.999433  1
  Si  Si9  1  0.165348  0.834652  0.000925  1
  Si  Si10  1  0.330758  0.165379  0.999433  1
  Si  Si11  1  0.165348  0.834652  0.499075  1
  Si  Si12  1  0.669304  0.834652  0.000925  1
  Si  Si13  1  0.834621  0.165379  0.500567  1
  Si  Si14  1  0.834621  0.669242  0.999433  1
  Si  Si15  1  0.669304  0.834652  0.499075  1
  Si  Si16  1  0.165348  0.330696  0.000925  1
  Si  Si17  1  0.330758  0.165379  0.500567  1
  Si  Si18  1  0.165348  0.330696  0.499075  1
  Si  Si19  1  0.834621  0.669242  0.500567  1
  Pd  Pd20  1  0.666667  0.333333  0.995174  1
  Pd  Pd21  1  0.333333  0.666667  0.000670  1
  Pd  Pd22  1  0.333333  0.666667  0.499330  1
  Pd  Pd23  1  0.666667  0.333333  0.504826  1
