# generated using pymatgen
data_Ce2Co2Si5Os
_symmetry_space_group_name_H-M   'P 1'
_cell_length_a   8.00678466
_cell_length_b   8.00678390
_cell_length_c   8.00678442
_cell_angle_alpha   137.79497317
_cell_angle_beta   105.48380601
_cell_angle_gamma   89.55814517
_symmetry_Int_Tables_number   1
_chemical_formula_structural   Ce2Co2Si5Os
_chemical_formula_sum   'Ce4 Co4 Si10 Os2'
_cell_volume   317.67469691
_cell_formula_units_Z   2
loop_
 _symmetry_equiv_pos_site_id
 _symmetry_equiv_pos_as_xyz
  1  'x, y, z'
loop_
 _atom_site_type_symbol
 _atom_site_label
 _atom_site_symmetry_multiplicity
 _atom_site_fract_x
 _atom_site_fract_y
 _atom_site_fract_z
 _atom_site_occupancy
  Ce  Ce0  1  0.866041  0.629929  0.236112  1
  Ce  Ce1  1  0.133959  0.370071  0.763888  1
  Ce  Ce2  1  0.393817  0.129929  0.263888  1
  Ce  Ce3  1  0.606183  0.870071  0.736112  1
  Co  Co4  1  0.250978  0.862745  0.388232  1
  Co  Co5  1  0.749022  0.137255  0.611768  1
  Co  Co6  1  0.474513  0.362745  0.111768  1
  Co  Co7  1  0.525487  0.637255  0.888232  1
  Si  Si8  1  0.500000  0.750000  0.250000  1
  Si  Si9  1  0.500000  0.250000  0.750000  1
  Si  Si10  1  0.234891  0.984891  0.750000  1
  Si  Si11  1  0.765109  0.515109  0.750000  1
  Si  Si12  1  0.765109  0.015109  0.250000  1
  Si  Si13  1  0.234891  0.484891  0.250000  1
  Si  Si14  1  0.049128  0.892001  0.157126  1
  Si  Si15  1  0.950872  0.107999  0.842874  1
  Si  Si16  1  0.734874  0.392001  0.342874  1
  Si  Si17  1  0.265126  0.607999  0.657126  1
  Os  Os18  1  0.000000  0.750000  0.750000  1
  Os  Os19  1  0.000000  0.250000  0.250000  1
