# generated using pymatgen
data_Be8VSiTc2
_symmetry_space_group_name_H-M   'P 1'
_cell_length_a   4.33631300
_cell_length_b   4.33631393
_cell_length_c   7.03653100
_cell_angle_alpha   90.00000000
_cell_angle_beta   90.00000000
_cell_angle_gamma   120.00000055
_symmetry_Int_Tables_number   1
_chemical_formula_structural   Be8VSiTc2
_chemical_formula_sum   'Be8 V1 Si1 Tc2'
_cell_volume   114.58573970
_cell_formula_units_Z   1
loop_
 _symmetry_equiv_pos_site_id
 _symmetry_equiv_pos_as_xyz
  1  'x, y, z'
loop_
 _atom_site_type_symbol
 _atom_site_label
 _atom_site_symmetry_multiplicity
 _atom_site_fract_x
 _atom_site_fract_y
 _atom_site_fract_z
 _atom_site_occupancy
  Be  Be0  1  0.000000  0.000000  0.002331  1
  Be  Be1  1  0.000000  0.000000  0.511654  1
  Be  Be2  1  0.831336  0.662672  0.247711  1
  Be  Be3  1  0.170621  0.829379  0.751757  1
  Be  Be4  1  0.658757  0.829379  0.751757  1
  Be  Be5  1  0.337328  0.168664  0.247711  1
  Be  Be6  1  0.831336  0.168664  0.247711  1
  Be  Be7  1  0.170621  0.341243  0.751757  1
  V  V8  1  0.333333  0.666667  0.436256  1
  Si  Si9  1  0.666667  0.333333  0.934264  1
  Tc  Tc10  1  0.333333  0.666667  0.062096  1
  Tc  Tc11  1  0.666667  0.333333  0.554990  1
