# generated using pymatgen
data_HoEr15In6CoAu
_symmetry_space_group_name_H-M   'P 1'
_cell_length_a   10.42290700
_cell_length_b   10.42378297
_cell_length_c   6.88335500
_cell_angle_alpha   90.00314357
_cell_angle_beta   90.00000000
_cell_angle_gamma   119.99721698
_symmetry_Int_Tables_number   1
_chemical_formula_structural   HoEr15In6CoAu
_chemical_formula_sum   'Ho1 Er15 In6 Co1 Au1'
_cell_volume   647.67510054
_cell_formula_units_Z   1
loop_
 _symmetry_equiv_pos_site_id
 _symmetry_equiv_pos_as_xyz
  1  'x, y, z'
loop_
 _atom_site_type_symbol
 _atom_site_label
 _atom_site_symmetry_multiplicity
 _atom_site_fract_x
 _atom_site_fract_y
 _atom_site_fract_z
 _atom_site_occupancy
  Ho  Ho0  1  0.525551  0.051101  0.797073  1
  Er  Er1  1  0.948904  0.474479  0.797149  1
  Er  Er2  1  0.525575  0.474479  0.797149  1
  Er  Er3  1  0.464974  0.929950  0.294239  1
  Er  Er4  1  0.069978  0.534938  0.294274  1
  Er  Er5  1  0.464959  0.534938  0.294274  1
  Er  Er6  1  0.826816  0.653634  0.501162  1
  Er  Er7  1  0.346352  0.173230  0.501037  1
  Er  Er8  1  0.826877  0.173230  0.501037  1
  Er  Er9  1  0.177593  0.355186  0.005979  1
  Er  Er10  1  0.644642  0.822223  0.005978  1
  Er  Er11  1  0.177582  0.822223  0.005978  1
  Er  Er12  1  0.666697  0.333393  0.155138  1
  Er  Er13  1  0.333283  0.666567  0.684157  1
  Er  Er14  1  0.000020  0.000039  0.777160  1
  Er  Er15  1  0.000016  0.000032  0.276767  1
  In  In16  1  0.837207  0.674416  0.031526  1
  In  In17  1  0.325557  0.162834  0.031580  1
  In  In18  1  0.837274  0.162834  0.031580  1
  In  In19  1  0.163154  0.326307  0.538478  1
  In  In20  1  0.673657  0.836866  0.538488  1
  In  In21  1  0.163209  0.836866  0.538488  1
  Co  Co22  1  0.333346  0.666693  0.070547  1
  Au  Au23  1  0.666772  0.333543  0.566665  1
