# generated using pymatgen
data_Ca4Zn6PdRu
_symmetry_space_group_name_H-M   'P 1'
_cell_length_a   5.51003300
_cell_length_b   5.51003400
_cell_length_c   8.98654200
_cell_angle_alpha   90.00000000
_cell_angle_beta   90.00000000
_cell_angle_gamma   119.99998798
_symmetry_Int_Tables_number   1
_chemical_formula_structural   Ca4Zn6PdRu
_chemical_formula_sum   'Ca4 Zn6 Pd1 Ru1'
_cell_volume   236.28261654
_cell_formula_units_Z   1
loop_
 _symmetry_equiv_pos_site_id
 _symmetry_equiv_pos_as_xyz
  1  'x, y, z'
loop_
 _atom_site_type_symbol
 _atom_site_label
 _atom_site_symmetry_multiplicity
 _atom_site_fract_x
 _atom_site_fract_y
 _atom_site_fract_z
 _atom_site_occupancy
  Ca  Ca0  1  0.333333  0.666667  0.057164  1
  Ca  Ca1  1  0.666667  0.333333  0.555059  1
  Ca  Ca2  1  0.666667  0.333333  0.942836  1
  Ca  Ca3  1  0.333333  0.666667  0.444941  1
  Zn  Zn4  1  0.837958  0.675916  0.254825  1
  Zn  Zn5  1  0.162042  0.837958  0.745175  1
  Zn  Zn6  1  0.675916  0.837958  0.745175  1
  Zn  Zn7  1  0.324084  0.162042  0.254825  1
  Zn  Zn8  1  0.837958  0.162042  0.254825  1
  Zn  Zn9  1  0.162042  0.324084  0.745175  1
  Pd  Pd10  1  0.000000  0.000000  0.000000  1
  Ru  Ru11  1  0.000000  0.000000  0.500000  1
