# generated using pymatgen
data_HoLu7Ga3Ir
_symmetry_space_group_name_H-M   'P 1'
_cell_length_a   9.86359400
_cell_length_b   9.86359402
_cell_length_c   6.88761000
_cell_angle_alpha   90.00000000
_cell_angle_beta   90.00000000
_cell_angle_gamma   119.99999993
_symmetry_Int_Tables_number   1
_chemical_formula_structural   HoLu7Ga3Ir
_chemical_formula_sum   'Ho2 Lu14 Ga6 Ir2'
_cell_volume   580.32269662
_cell_formula_units_Z   2
loop_
 _symmetry_equiv_pos_site_id
 _symmetry_equiv_pos_as_xyz
  1  'x, y, z'
loop_
 _atom_site_type_symbol
 _atom_site_label
 _atom_site_symmetry_multiplicity
 _atom_site_fract_x
 _atom_site_fract_y
 _atom_site_fract_z
 _atom_site_occupancy
  Ho  Ho0  1  0.000000  0.000000  0.232767  1
  Ho  Ho1  1  0.000000  0.000000  0.732767  1
  Lu  Lu2  1  0.171668  0.828332  0.509650  1
  Lu  Lu3  1  0.656663  0.828332  0.509650  1
  Lu  Lu4  1  0.171668  0.343337  0.509650  1
  Lu  Lu5  1  0.828332  0.171668  0.009650  1
  Lu  Lu6  1  0.343337  0.171668  0.009650  1
  Lu  Lu7  1  0.828332  0.656663  0.009650  1
  Lu  Lu8  1  0.333333  0.666667  0.837821  1
  Lu  Lu9  1  0.666667  0.333333  0.337821  1
  Lu  Lu10  1  0.465935  0.534065  0.205794  1
  Lu  Lu11  1  0.068131  0.534065  0.205794  1
  Lu  Lu12  1  0.465935  0.931869  0.205794  1
  Lu  Lu13  1  0.534065  0.465935  0.705794  1
  Lu  Lu14  1  0.931869  0.465935  0.705794  1
  Lu  Lu15  1  0.534065  0.068131  0.705794  1
  Ga  Ga16  1  0.163736  0.836264  0.958657  1
  Ga  Ga17  1  0.672525  0.836264  0.958657  1
  Ga  Ga18  1  0.163736  0.327475  0.958657  1
  Ga  Ga19  1  0.836264  0.163736  0.458657  1
  Ga  Ga20  1  0.327475  0.163736  0.458657  1
  Ga  Ga21  1  0.836264  0.672525  0.458657  1
  Ir  Ir22  1  0.333333  0.666667  0.444130  1
  Ir  Ir23  1  0.666667  0.333333  0.944130  1
