# generated using pymatgen
data_NdY3(Er3Pt4)2
_symmetry_space_group_name_H-M   'P 1'
_cell_length_a   7.49193600
_cell_length_b   7.55811506
_cell_length_c   14.72988511
_cell_angle_alpha   90.01407885
_cell_angle_beta   90.00000000
_cell_angle_gamma   90.00000000
_symmetry_Int_Tables_number   1
_chemical_formula_structural   NdY3(Er3Pt4)2
_chemical_formula_sum   'Nd2 Y6 Er12 Pt16'
_cell_volume   834.07845671
_cell_formula_units_Z   2
loop_
 _symmetry_equiv_pos_site_id
 _symmetry_equiv_pos_as_xyz
  1  'x, y, z'
loop_
 _atom_site_type_symbol
 _atom_site_label
 _atom_site_symmetry_multiplicity
 _atom_site_fract_x
 _atom_site_fract_y
 _atom_site_fract_z
 _atom_site_occupancy
  Nd  Nd0  1  0.000126  0.822443  0.407756  1
  Nd  Nd1  1  0.500126  0.677557  0.092244  1
  Y  Y2  1  0.501570  0.320680  0.593187  1
  Y  Y3  1  0.001570  0.179320  0.906813  1
  Y  Y4  1  0.001832  0.180905  0.593826  1
  Y  Y5  1  0.501832  0.319095  0.906174  1
  Y  Y6  1  0.498187  0.678412  0.406805  1
  Y  Y7  1  0.998187  0.821588  0.093195  1
  Er  Er8  1  0.680653  0.989709  0.249838  1
  Er  Er9  1  0.180653  0.510291  0.250162  1
  Er  Er10  1  0.818925  0.489052  0.749964  1
  Er  Er11  1  0.318925  0.010948  0.750036  1
  Er  Er12  1  0.655540  0.832140  0.622548  1
  Er  Er13  1  0.155540  0.667860  0.877452  1
  Er  Er14  1  0.843399  0.332456  0.377859  1
  Er  Er15  1  0.343399  0.167544  0.122141  1
  Er  Er16  1  0.345104  0.168250  0.377626  1
  Er  Er17  1  0.845104  0.331750  0.122374  1
  Er  Er18  1  0.157600  0.666396  0.623052  1
  Er  Er19  1  0.657600  0.833604  0.876948  1
  Pt  Pt20  1  0.815808  0.639894  0.249242  1
  Pt  Pt21  1  0.315808  0.860106  0.250758  1
  Pt  Pt22  1  0.683904  0.141436  0.749944  1
  Pt  Pt23  1  0.183904  0.358564  0.750056  1
  Pt  Pt24  1  0.546406  0.381807  0.250792  1
  Pt  Pt25  1  0.046406  0.118193  0.249208  1
  Pt  Pt26  1  0.953407  0.884109  0.749850  1
  Pt  Pt27  1  0.453407  0.615891  0.750150  1
  Pt  Pt28  1  0.817165  0.531729  0.542981  1
  Pt  Pt29  1  0.317165  0.968271  0.957019  1
  Pt  Pt30  1  0.678284  0.036513  0.458691  1
  Pt  Pt31  1  0.178284  0.463487  0.041309  1
  Pt  Pt32  1  0.183256  0.463037  0.459081  1
  Pt  Pt33  1  0.683256  0.036963  0.040919  1
  Pt  Pt34  1  0.318836  0.967742  0.543470  1
  Pt  Pt35  1  0.818836  0.532258  0.956530  1
