# generated using pymatgen
data_La8Zn7SnPt8
_symmetry_space_group_name_H-M   'P 1'
_cell_length_a   4.14261400
_cell_length_b   7.56341003
_cell_length_c   16.86803600
_cell_angle_alpha   89.56996381
_cell_angle_beta   90.00000000
_cell_angle_gamma   90.00000000
_symmetry_Int_Tables_number   1
_chemical_formula_structural   La8Zn7SnPt8
_chemical_formula_sum   'La8 Zn7 Sn1 Pt8'
_cell_volume   528.49928058
_cell_formula_units_Z   1
loop_
 _symmetry_equiv_pos_site_id
 _symmetry_equiv_pos_as_xyz
  1  'x, y, z'
loop_
 _atom_site_type_symbol
 _atom_site_label
 _atom_site_symmetry_multiplicity
 _atom_site_fract_x
 _atom_site_fract_y
 _atom_site_fract_z
 _atom_site_occupancy
  La  La0  1  0.750000  0.329495  0.441222  1
  La  La1  1  0.250000  0.047496  0.716152  1
  La  La2  1  0.250000  0.547008  0.783162  1
  La  La3  1  0.250000  0.671100  0.559131  1
  La  La4  1  0.750000  0.828107  0.056744  1
  La  La5  1  0.250000  0.168664  0.939282  1
  La  La6  1  0.750000  0.458652  0.218807  1
  La  La7  1  0.750000  0.946002  0.286658  1
  Zn  Zn8  1  0.250000  0.001368  0.439992  1
  Zn  Zn9  1  0.750000  0.873194  0.849570  1
  Zn  Zn10  1  0.750000  0.001054  0.560403  1
  Zn  Zn11  1  0.250000  0.500292  0.059755  1
  Zn  Zn12  1  0.750000  0.375012  0.649547  1
  Zn  Zn13  1  0.750000  0.497478  0.939815  1
  Zn  Zn14  1  0.250000  0.621176  0.350927  1
  Sn  Sn15  1  0.250000  0.125786  0.150641  1
  Pt  Pt16  1  0.750000  0.252527  0.814272  1
  Pt  Pt17  1  0.250000  0.248101  0.316402  1
  Pt  Pt18  1  0.250000  0.737153  0.931912  1
  Pt  Pt19  1  0.250000  0.241396  0.566981  1
  Pt  Pt20  1  0.250000  0.745031  0.184301  1
  Pt  Pt21  1  0.750000  0.760244  0.435787  1
  Pt  Pt22  1  0.750000  0.270592  0.063401  1
  Pt  Pt23  1  0.750000  0.753073  0.685134  1
