# generated using pymatgen
data_SrNp7H24
_symmetry_space_group_name_H-M   'P 1'
_cell_length_a   6.66472800
_cell_length_b   6.66472800
_cell_length_c   6.66472800
_cell_angle_alpha   90.00000000
_cell_angle_beta   90.00000000
_cell_angle_gamma   90.00000000
_symmetry_Int_Tables_number   1
_chemical_formula_structural   SrNp7H24
_chemical_formula_sum   'Sr1 Np7 H24'
_cell_volume   296.03788257
_cell_formula_units_Z   1
loop_
 _symmetry_equiv_pos_site_id
 _symmetry_equiv_pos_as_xyz
  1  'x, y, z'
loop_
 _atom_site_type_symbol
 _atom_site_label
 _atom_site_symmetry_multiplicity
 _atom_site_fract_x
 _atom_site_fract_y
 _atom_site_fract_z
 _atom_site_occupancy
  Sr  Sr0  1  0.500000  0.500000  0.500000  1
  Np  Np1  1  0.000000  0.000000  0.000000  1
  Np  Np2  1  0.249301  0.000000  0.500000  1
  Np  Np3  1  0.750699  0.000000  0.500000  1
  Np  Np4  1  0.000000  0.500000  0.249301  1
  Np  Np5  1  0.000000  0.500000  0.750699  1
  Np  Np6  1  0.500000  0.750699  0.000000  1
  Np  Np7  1  0.500000  0.249301  0.000000  1
  H  H8  1  0.000000  0.153930  0.300801  1
  H  H9  1  0.500000  0.174232  0.660259  1
  H  H10  1  0.500000  0.825768  0.339741  1
  H  H11  1  0.825768  0.660259  0.500000  1
  H  H12  1  0.174232  0.660259  0.500000  1
  H  H13  1  0.339741  0.500000  0.825768  1
  H  H14  1  0.660259  0.500000  0.825768  1
  H  H15  1  0.300801  0.000000  0.153930  1
  H  H16  1  0.153930  0.300801  0.000000  1
  H  H17  1  0.846070  0.699199  0.000000  1
  H  H18  1  0.300801  0.000000  0.846070  1
  H  H19  1  0.846070  0.300801  0.000000  1
  H  H20  1  0.699199  0.000000  0.153930  1
  H  H21  1  0.699199  0.000000  0.846070  1
  H  H22  1  0.153930  0.699199  0.000000  1
  H  H23  1  0.000000  0.846070  0.699199  1
  H  H24  1  0.000000  0.153930  0.699199  1
  H  H25  1  0.000000  0.846070  0.300801  1
  H  H26  1  0.660259  0.500000  0.174232  1
  H  H27  1  0.339741  0.500000  0.174232  1
  H  H28  1  0.825768  0.339741  0.500000  1
  H  H29  1  0.174232  0.339741  0.500000  1
  H  H30  1  0.500000  0.825768  0.660259  1
  H  H31  1  0.500000  0.174232  0.339741  1
