# generated using pymatgen
data_Tb16Dy3ErSn16
_symmetry_space_group_name_H-M   'P 1'
_cell_length_a   8.05225500
_cell_length_b   8.20301188
_cell_length_c   15.50537500
_cell_angle_alpha   90.00000000
_cell_angle_beta   90.00000000
_cell_angle_gamma   89.97425603
_symmetry_Int_Tables_number   1
_chemical_formula_structural   Tb16Dy3ErSn16
_chemical_formula_sum   'Tb16 Dy3 Er1 Sn16'
_cell_volume   1024.17245381
_cell_formula_units_Z   1
loop_
 _symmetry_equiv_pos_site_id
 _symmetry_equiv_pos_as_xyz
  1  'x, y, z'
loop_
 _atom_site_type_symbol
 _atom_site_label
 _atom_site_symmetry_multiplicity
 _atom_site_fract_x
 _atom_site_fract_y
 _atom_site_fract_z
 _atom_site_occupancy
  Tb  Tb0  1  0.367663  0.836038  0.878086  1
  Tb  Tb1  1  0.868002  0.663693  0.621910  1
  Tb  Tb2  1  0.632228  0.163850  0.378124  1
  Tb  Tb3  1  0.132217  0.336143  0.121750  1
  Tb  Tb4  1  0.632228  0.163850  0.121876  1
  Tb  Tb5  1  0.132217  0.336143  0.378250  1
  Tb  Tb6  1  0.367663  0.836038  0.621914  1
  Tb  Tb7  1  0.868002  0.663693  0.878090  1
  Tb  Tb8  1  0.520876  0.320432  0.902197  1
  Tb  Tb9  1  0.021093  0.179801  0.597792  1
  Tb  Tb10  1  0.479041  0.679673  0.402273  1
  Tb  Tb11  1  0.978990  0.820324  0.097786  1
  Tb  Tb12  1  0.479041  0.679673  0.097727  1
  Tb  Tb13  1  0.978990  0.820324  0.402214  1
  Tb  Tb14  1  0.520876  0.320432  0.597803  1
  Tb  Tb15  1  0.021093  0.179801  0.902208  1
  Dy  Dy16  1  0.698696  0.997500  0.750000  1
  Dy  Dy17  1  0.801228  0.497406  0.250000  1
  Dy  Dy18  1  0.301234  0.002585  0.250000  1
  Er  Er19  1  0.198957  0.502789  0.750000  1
  Sn  Sn20  1  0.292274  0.035091  0.041814  1
  Sn  Sn21  1  0.792259  0.464766  0.458179  1
  Sn  Sn22  1  0.707734  0.964853  0.541926  1
  Sn  Sn23  1  0.207703  0.535066  0.957724  1
  Sn  Sn24  1  0.707734  0.964853  0.958074  1
  Sn  Sn25  1  0.207703  0.535066  0.542276  1
  Sn  Sn26  1  0.292274  0.035091  0.458186  1
  Sn  Sn27  1  0.792259  0.464766  0.041821  1
  Sn  Sn28  1  0.564840  0.618317  0.750000  1
  Sn  Sn29  1  0.065700  0.881040  0.750000  1
  Sn  Sn30  1  0.434350  0.381383  0.250000  1
  Sn  Sn31  1  0.934477  0.118659  0.250000  1
  Sn  Sn32  1  0.329064  0.148035  0.750000  1
  Sn  Sn33  1  0.829519  0.353067  0.750000  1
  Sn  Sn34  1  0.670790  0.852698  0.250000  1
  Sn  Sn35  1  0.170982  0.647058  0.250000  1
