# generated using pymatgen
data_Tm4Si4TcRh3
_symmetry_space_group_name_H-M   'P 1'
_cell_length_a   4.24320700
_cell_length_b   6.87777672
_cell_length_c   7.29554539
_cell_angle_alpha   90.00522803
_cell_angle_beta   90.00000000
_cell_angle_gamma   90.00000000
_symmetry_Int_Tables_number   1
_chemical_formula_structural   Tm4Si4TcRh3
_chemical_formula_sum   'Tm4 Si4 Tc1 Rh3'
_cell_volume   212.91195787
_cell_formula_units_Z   1
loop_
 _symmetry_equiv_pos_site_id
 _symmetry_equiv_pos_as_xyz
  1  'x, y, z'
loop_
 _atom_site_type_symbol
 _atom_site_label
 _atom_site_symmetry_multiplicity
 _atom_site_fract_x
 _atom_site_fract_y
 _atom_site_fract_z
 _atom_site_occupancy
  Tm  Tm0  1  0.250000  0.001592  0.812229  1
  Tm  Tm1  1  0.750000  0.000077  0.187002  1
  Tm  Tm2  1  0.250000  0.497057  0.690679  1
  Tm  Tm3  1  0.750000  0.506309  0.310186  1
  Si  Si4  1  0.250000  0.297299  0.109976  1
  Si  Si5  1  0.750000  0.703773  0.886688  1
  Si  Si6  1  0.250000  0.796182  0.398699  1
  Si  Si7  1  0.750000  0.202408  0.605215  1
  Tc  Tc8  1  0.750000  0.843925  0.566531  1
  Rh  Rh9  1  0.250000  0.156303  0.432110  1
  Rh  Rh10  1  0.750000  0.342008  0.935708  1
  Rh  Rh11  1  0.250000  0.653068  0.064975  1
