# generated using pymatgen
data_Ca12Ta7Re12WN48
_symmetry_space_group_name_H-M   'P 1'
_cell_length_a   11.23120940
_cell_length_b   11.21931249
_cell_length_c   11.23120879
_cell_angle_alpha   109.44976696
_cell_angle_beta   109.49266931
_cell_angle_gamma   109.44976745
_symmetry_Int_Tables_number   1
_chemical_formula_structural   Ca12Ta7Re12WN48
_chemical_formula_sum   'Ca12 Ta7 Re12 W1 N48'
_cell_volume   1089.71336088
_cell_formula_units_Z   1
loop_
 _symmetry_equiv_pos_site_id
 _symmetry_equiv_pos_as_xyz
  1  'x, y, z'
loop_
 _atom_site_type_symbol
 _atom_site_label
 _atom_site_symmetry_multiplicity
 _atom_site_fract_x
 _atom_site_fract_y
 _atom_site_fract_z
 _atom_site_occupancy
  Ca  Ca0  1  0.250122  0.374739  0.124909  1
  Ca  Ca1  1  0.375091  0.749830  0.125213  1
  Ca  Ca2  1  0.374787  0.124617  0.249878  1
  Ca  Ca3  1  0.875636  0.624421  0.250843  1
  Ca  Ca4  1  0.750843  0.126422  0.375207  1
  Ca  Ca5  1  0.124793  0.251216  0.375636  1
  Ca  Ca6  1  0.875207  0.748784  0.624364  1
  Ca  Ca7  1  0.249157  0.873578  0.624793  1
  Ca  Ca8  1  0.124364  0.375579  0.749157  1
  Ca  Ca9  1  0.625213  0.875383  0.750122  1
  Ca  Ca10  1  0.624909  0.250170  0.874787  1
  Ca  Ca11  1  0.749878  0.625261  0.875091  1
  Ta  Ta12  1  0.000000  0.000000  0.000000  1
  Ta  Ta13  1  0.500000  0.000000  0.000000  1
  Ta  Ta14  1  0.000000  0.500000  0.000000  1
  Ta  Ta15  1  0.500000  0.500000  0.000000  1
  Ta  Ta16  1  0.000000  0.000000  0.500000  1
  Ta  Ta17  1  0.500000  0.000000  0.500000  1
  Ta  Ta18  1  0.500000  0.500000  0.500000  1
  Re  Re19  1  0.875013  0.250229  0.124709  1
  Re  Re20  1  0.750129  0.875485  0.124818  1
  Re  Re21  1  0.624709  0.374480  0.249696  1
  Re  Re22  1  0.125311  0.874644  0.250129  1
  Re  Re23  1  0.250304  0.624784  0.375013  1
  Re  Re24  1  0.624818  0.749332  0.374689  1
  Re  Re25  1  0.375182  0.250668  0.625311  1
  Re  Re26  1  0.749696  0.375216  0.624987  1
  Re  Re27  1  0.874689  0.125356  0.749871  1
  Re  Re28  1  0.375291  0.625520  0.750304  1
  Re  Re29  1  0.249871  0.124515  0.875182  1
  Re  Re30  1  0.124987  0.749771  0.875291  1
  W  W31  1  0.000000  0.500000  0.500000  1
  N  N32  1  0.196983  0.113448  0.010857  1
  N  N33  1  0.314366  0.897092  0.010162  1
  N  N34  1  0.886260  0.396730  0.082890  1
  N  N35  1  0.697268  0.687529  0.083907  1
  N  N36  1  0.614117  0.418119  0.103352  1
  N  N37  1  0.989600  0.686391  0.103325  1
  N  N38  1  0.010765  0.195998  0.114117  1
  N  N39  1  0.603325  0.916934  0.113726  1
  N  N40  1  0.195796  0.582727  0.185634  1
  N  N41  1  0.489143  0.602591  0.186125  1
  N  N42  1  0.113360  0.009738  0.197268  1
  N  N43  1  0.582890  0.186159  0.196630  1
  N  N44  1  0.489838  0.386930  0.304204  1
  N  N45  1  0.313875  0.916465  0.303017  1
  N  N46  1  0.897031  0.010805  0.313871  1
  N  N47  1  0.919086  0.309369  0.314799  1
  N  N48  1  0.303370  0.489530  0.386260  1
  N  N49  1  0.583907  0.896378  0.386640  1
  N  N50  1  0.814799  0.505429  0.395712  1
  N  N51  1  0.083161  0.886226  0.397031  1
  N  N52  1  0.104288  0.609717  0.419086  1
  N  N53  1  0.813871  0.803065  0.416839  1
  N  N54  1  0.603352  0.185232  0.489235  1
  N  N55  1  0.386274  0.303208  0.489600  1
  N  N56  1  0.613726  0.696792  0.510400  1
  N  N57  1  0.396648  0.814768  0.510765  1
  N  N58  1  0.186129  0.196935  0.583161  1
  N  N59  1  0.895712  0.390283  0.580914  1
  N  N60  1  0.916839  0.113774  0.602969  1
  N  N61  1  0.185201  0.494571  0.604288  1
  N  N62  1  0.416093  0.103622  0.613360  1
  N  N63  1  0.696630  0.510470  0.613740  1
  N  N64  1  0.080914  0.690631  0.685201  1
  N  N65  1  0.102969  0.989195  0.686129  1
  N  N66  1  0.686125  0.083535  0.696983  1
  N  N67  1  0.510162  0.613070  0.695796  1
  N  N68  1  0.417110  0.813841  0.803370  1
  N  N69  1  0.886640  0.990262  0.802732  1
  N  N70  1  0.510857  0.397409  0.813875  1
  N  N71  1  0.804204  0.417273  0.814366  1
  N  N72  1  0.396675  0.083066  0.886274  1
  N  N73  1  0.989235  0.804002  0.885883  1
  N  N74  1  0.010400  0.313609  0.896675  1
  N  N75  1  0.385883  0.581881  0.896648  1
  N  N76  1  0.302732  0.312471  0.916093  1
  N  N77  1  0.113740  0.603270  0.917110  1
  N  N78  1  0.685634  0.102908  0.989838  1
  N  N79  1  0.803017  0.886552  0.989143  1
