# generated using pymatgen
data_Ca4Sn4As2Rh7
_symmetry_space_group_name_H-M   'P 1'
_cell_length_a   7.50851620
_cell_length_b   7.50851813
_cell_length_c   7.53917203
_cell_angle_alpha   109.38956246
_cell_angle_beta   109.38957283
_cell_angle_gamma   109.46982500
_symmetry_Int_Tables_number   1
_chemical_formula_structural   Ca4Sn4As2Rh7
_chemical_formula_sum   'Ca4 Sn4 As2 Rh7'
_cell_volume   327.86083412
_cell_formula_units_Z   1
loop_
 _symmetry_equiv_pos_site_id
 _symmetry_equiv_pos_as_xyz
  1  'x, y, z'
loop_
 _atom_site_type_symbol
 _atom_site_label
 _atom_site_symmetry_multiplicity
 _atom_site_fract_x
 _atom_site_fract_y
 _atom_site_fract_z
 _atom_site_occupancy
  Ca  Ca0  1  0.458741  0.458741  0.464639  1
  Ca  Ca1  1  0.007494  0.507494  0.014988  1
  Ca  Ca2  1  0.507494  0.007494  0.014988  1
  Ca  Ca3  1  0.005898  0.005898  0.464639  1
  Sn  Sn4  1  0.700677  0.989753  0.690430  1
  Sn  Sn5  1  0.671395  0.671395  0.979459  1
  Sn  Sn6  1  0.308064  0.308064  0.979459  1
  Sn  Sn7  1  0.989753  0.700677  0.690430  1
  As  As8  1  0.993445  0.341588  0.335033  1
  As  As9  1  0.341588  0.993445  0.335033  1
  Rh  Rh10  1  0.503141  0.748777  0.251917  1
  Rh  Rh11  1  0.752350  0.252350  0.504700  1
  Rh  Rh12  1  0.252350  0.752350  0.504700  1
  Rh  Rh13  1  0.236850  0.503993  0.740841  1
  Rh  Rh14  1  0.017990  0.017990  0.035978  1
  Rh  Rh15  1  0.503993  0.236850  0.740841  1
  Rh  Rh16  1  0.748777  0.503141  0.251917  1
