# generated using pymatgen
data_Dy11In9CoNi3
_symmetry_space_group_name_H-M   'P 1'
_cell_length_a   3.62288200
_cell_length_b   13.02657240
_cell_length_c   13.02400787
_cell_angle_alpha   112.55907594
_cell_angle_beta   90.00000000
_cell_angle_gamma   90.00000000
_symmetry_Int_Tables_number   1
_chemical_formula_structural   Dy11In9CoNi3
_chemical_formula_sum   'Dy11 In9 Co1 Ni3'
_cell_volume   567.62117991
_cell_formula_units_Z   1
loop_
 _symmetry_equiv_pos_site_id
 _symmetry_equiv_pos_as_xyz
  1  'x, y, z'
loop_
 _atom_site_type_symbol
 _atom_site_label
 _atom_site_symmetry_multiplicity
 _atom_site_fract_x
 _atom_site_fract_y
 _atom_site_fract_z
 _atom_site_occupancy
  Dy  Dy0  1  0.000000  0.917809  0.582474  1
  Dy  Dy1  1  0.000000  0.080903  0.417452  1
  Dy  Dy2  1  0.000000  0.582996  0.919777  1
  Dy  Dy3  1  0.000000  0.416933  0.079792  1
  Dy  Dy4  1  0.000000  0.160060  0.840146  1
  Dy  Dy5  1  0.000000  0.840358  0.160787  1
  Dy  Dy6  1  0.000000  0.374615  0.625935  1
  Dy  Dy7  1  0.000000  0.628826  0.378092  1
  Dy  Dy8  1  0.000000  0.688740  0.684134  1
  Dy  Dy9  1  0.000000  0.312830  0.312597  1
  Dy  Dy10  1  0.000000  0.999825  0.999352  1
  In  In11  1  0.500000  0.157715  0.633082  1
  In  In12  1  0.500000  0.840981  0.368357  1
  In  In13  1  0.500000  0.632202  0.158414  1
  In  In14  1  0.500000  0.367550  0.841735  1
  In  In15  1  0.500000  0.920891  0.779205  1
  In  In16  1  0.500000  0.076377  0.218720  1
  In  In17  1  0.500000  0.780419  0.922343  1
  In  In18  1  0.500000  0.219124  0.077446  1
  In  In19  1  0.500000  0.500527  0.499880  1
  Co  Co20  1  0.500000  0.754494  0.550629  1
  Ni  Ni21  1  0.500000  0.247935  0.450027  1
  Ni  Ni22  1  0.500000  0.548835  0.752688  1
  Ni  Ni23  1  0.500000  0.449056  0.246937  1
