# generated using pymatgen
data_Sr3In2P6PbO22
_symmetry_space_group_name_H-M   'P 1'
_cell_length_a   6.68405423
_cell_length_b   7.04561433
_cell_length_c   20.16706947
_cell_angle_alpha   90.05719790
_cell_angle_beta   99.52788231
_cell_angle_gamma   90.06330549
_symmetry_Int_Tables_number   1
_chemical_formula_structural   Sr3In2P6PbO22
_chemical_formula_sum   'Sr6 In4 P12 Pb2 O44'
_cell_volume   936.63055783
_cell_formula_units_Z   2
loop_
 _symmetry_equiv_pos_site_id
 _symmetry_equiv_pos_as_xyz
  1  'x, y, z'
loop_
 _atom_site_type_symbol
 _atom_site_label
 _atom_site_symmetry_multiplicity
 _atom_site_fract_x
 _atom_site_fract_y
 _atom_site_fract_z
 _atom_site_occupancy
  Sr  Sr0  1  0.680918  0.370326  0.076114  1
  Sr  Sr1  1  0.331208  0.521541  0.224982  1
  Sr  Sr2  1  0.667637  0.022229  0.273614  1
  Sr  Sr3  1  0.319036  0.870207  0.423987  1
  Sr  Sr4  1  0.680633  0.128856  0.575022  1
  Sr  Sr5  1  0.331193  0.979197  0.725299  1
  In  In6  1  0.944919  0.867302  0.121766  1
  In  In7  1  0.054168  0.366779  0.378609  1
  In  In8  1  0.945827  0.633139  0.620078  1
  In  In9  1  0.054210  0.132403  0.879116  1
  P  P10  1  0.178307  0.206071  0.047517  1
  P  P11  1  0.429616  0.862788  0.089264  1
  P  P12  1  0.819472  0.525204  0.226327  1
  P  P13  1  0.180970  0.025055  0.274054  1
  P  P14  1  0.571605  0.361650  0.411949  1
  P  P15  1  0.821449  0.707887  0.452583  1
  P  P16  1  0.178334  0.291900  0.547014  1
  P  P17  1  0.428131  0.638567  0.587854  1
  P  P18  1  0.819917  0.975418  0.725640  1
  P  P19  1  0.180483  0.474859  0.773116  1
  P  P20  1  0.571572  0.137085  0.912236  1
  P  P21  1  0.820083  0.794086  0.953965  1
  Pb  Pb22  1  0.669392  0.480484  0.772851  1
  Pb  Pb23  1  0.328708  0.627907  0.924216  1
  O  O24  1  0.890647  0.717985  0.025601  1
  O  O25  1  0.307849  0.014311  0.036464  1
  O  O26  1  0.476009  0.693504  0.047762  1
  O  O27  1  0.990486  0.142115  0.078245  1
  O  O28  1  0.313719  0.340631  0.092868  1
  O  O29  1  0.625341  0.964745  0.123862  1
  O  O30  1  0.283915  0.815580  0.139079  1
  O  O31  1  0.912511  0.586399  0.161677  1
  O  O32  1  0.689547  0.347069  0.204990  1
  O  O33  1  0.989688  0.982062  0.221036  1
  O  O34  1  0.316901  0.179298  0.252096  1
  O  O35  1  0.683268  0.679080  0.248278  1
  O  O36  1  0.010659  0.482334  0.279432  1
  O  O37  1  0.310703  0.847104  0.295288  1
  O  O38  1  0.088383  0.086159  0.338844  1
  O  O39  1  0.715924  0.314614  0.361688  1
  O  O40  1  0.374624  0.460797  0.377642  1
  O  O41  1  0.686112  0.841625  0.407198  1
  O  O42  1  0.009767  0.642972  0.422461  1
  O  O43  1  0.531499  0.194527  0.455248  1
  O  O44  1  0.692864  0.516293  0.464077  1
  O  O45  1  0.109097  0.217038  0.474898  1
  O  O46  1  0.890571  0.783910  0.524679  1
  O  O47  1  0.307009  0.483850  0.535913  1
  O  O48  1  0.468299  0.805661  0.544583  1
  O  O49  1  0.990185  0.356404  0.577447  1
  O  O50  1  0.313559  0.158175  0.592503  1
  O  O51  1  0.625646  0.539757  0.622187  1
  O  O52  1  0.283984  0.685688  0.638177  1
  O  O53  1  0.912382  0.912396  0.661205  1
  O  O54  1  0.688814  0.152037  0.703267  1
  O  O55  1  0.990178  0.518579  0.719618  1
  O  O56  1  0.316066  0.322539  0.749628  1
  O  O57  1  0.680489  0.823402  0.747801  1
  O  O58  1  0.009742  0.018745  0.778956  1
  O  O59  1  0.308482  0.654986  0.794597  1
  O  O60  1  0.089786  0.410333  0.837468  1
  O  O61  1  0.717933  0.178279  0.862340  1
  O  O62  1  0.373265  0.042322  0.876676  1
  O  O63  1  0.683848  0.658449  0.908567  1
  O  O64  1  0.003237  0.860380  0.922025  1
  O  O65  1  0.534388  0.305400  0.955696  1
  O  O66  1  0.687244  0.982636  0.965346  1
  O  O67  1  0.107594  0.278897  0.975420  1
