# generated using pymatgen
data_K2GaH8S
_symmetry_space_group_name_H-M   'P 1'
_cell_length_a   5.74667400
_cell_length_b   6.85531696
_cell_length_c   10.12623855
_cell_angle_alpha   88.59990790
_cell_angle_beta   90.00000000
_cell_angle_gamma   90.00000000
_symmetry_Int_Tables_number   1
_chemical_formula_structural   K2GaH8S
_chemical_formula_sum   'K4 Ga2 H16 S2'
_cell_volume   398.80682008
_cell_formula_units_Z   2
loop_
 _symmetry_equiv_pos_site_id
 _symmetry_equiv_pos_as_xyz
  1  'x, y, z'
loop_
 _atom_site_type_symbol
 _atom_site_label
 _atom_site_symmetry_multiplicity
 _atom_site_fract_x
 _atom_site_fract_y
 _atom_site_fract_z
 _atom_site_occupancy
  K  K0  1  0.250000  0.295881  0.652242  1
  K  K1  1  0.250000  0.199338  0.138240  1
  K  K2  1  0.750000  0.636393  0.243819  1
  K  K3  1  0.750000  0.869076  0.761014  1
  Ga  Ga4  1  0.750000  0.312965  0.925613  1
  Ga  Ga5  1  0.750000  0.189145  0.421734  1
  H  H6  1  0.250000  0.708326  0.966141  1
  H  H7  1  0.250000  0.754228  0.407005  1
  H  H8  1  0.750000  0.327690  0.083443  1
  H  H9  1  0.750000  0.168612  0.579901  1
  H  H10  1  0.250000  0.771020  0.332395  1
  H  H11  1  0.250000  0.736906  0.785814  1
  H  H12  1  0.750000  0.519091  0.852639  1
  H  H13  1  0.750000  0.980909  0.355585  1
  H  H14  1  0.980245  0.190066  0.885461  1
  H  H15  1  0.518938  0.311270  0.378765  1
  H  H16  1  0.684166  0.911819  0.053389  1
  H  H17  1  0.816116  0.609640  0.551666  1
  H  H18  1  0.815834  0.911819  0.053389  1
  H  H19  1  0.683884  0.609640  0.551666  1
  H  H20  1  0.519755  0.190066  0.885461  1
  H  H21  1  0.981062  0.311270  0.378765  1
  S  S22  1  0.250000  0.699761  0.099895  1
  S  S23  1  0.250000  0.785068  0.655961  1
