# generated using pymatgen
data_V12Ir3Pt
_symmetry_space_group_name_H-M   'P 1'
_cell_length_a   4.78988700
_cell_length_b   4.79160400
_cell_length_c   9.59168900
_cell_angle_alpha   90.00000000
_cell_angle_beta   90.00000000
_cell_angle_gamma   90.00000000
_symmetry_Int_Tables_number   1
_chemical_formula_structural   V12Ir3Pt
_chemical_formula_sum   'V12 Ir3 Pt1'
_cell_volume   220.14117263
_cell_formula_units_Z   1
loop_
 _symmetry_equiv_pos_site_id
 _symmetry_equiv_pos_as_xyz
  1  'x, y, z'
loop_
 _atom_site_type_symbol
 _atom_site_label
 _atom_site_symmetry_multiplicity
 _atom_site_fract_x
 _atom_site_fract_y
 _atom_site_fract_z
 _atom_site_occupancy
  V  V0  1  0.000000  0.500000  0.125354  1
  V  V1  1  0.000000  0.500000  0.625546  1
  V  V2  1  0.500000  0.249843  0.747514  1
  V  V3  1  0.500000  0.249843  0.252486  1
  V  V4  1  0.752307  0.000000  0.000000  1
  V  V5  1  0.750283  0.000000  0.500000  1
  V  V6  1  0.000000  0.500000  0.874646  1
  V  V7  1  0.000000  0.500000  0.374454  1
  V  V8  1  0.500000  0.750157  0.747514  1
  V  V9  1  0.500000  0.750157  0.252486  1
  V  V10  1  0.247693  0.000000  0.000000  1
  V  V11  1  0.249717  0.000000  0.500000  1
  Ir  Ir12  1  0.500000  0.500000  0.500000  1
  Ir  Ir13  1  0.000000  0.000000  0.750422  1
  Ir  Ir14  1  0.000000  0.000000  0.249578  1
  Pt  Pt15  1  0.500000  0.500000  0.000000  1
