# generated using pymatgen
data_Yb6MnSi24Ru7
_symmetry_space_group_name_H-M   'P 1'
_cell_length_a   10.10013975
_cell_length_b   10.10013850
_cell_length_c   8.14171024
_cell_angle_alpha   89.98873473
_cell_angle_beta   89.98873566
_cell_angle_gamma   132.42587830
_symmetry_Int_Tables_number   1
_chemical_formula_structural   Yb6MnSi24Ru7
_chemical_formula_sum   'Yb6 Mn1 Si24 Ru7'
_cell_volume   613.07745203
_cell_formula_units_Z   1
loop_
 _symmetry_equiv_pos_site_id
 _symmetry_equiv_pos_as_xyz
  1  'x, y, z'
loop_
 _atom_site_type_symbol
 _atom_site_label
 _atom_site_symmetry_multiplicity
 _atom_site_fract_x
 _atom_site_fract_y
 _atom_site_fract_z
 _atom_site_occupancy
  Yb  Yb0  1  0.000383  0.999617  0.000000  1
  Yb  Yb1  1  0.499741  0.500259  0.500000  1
  Yb  Yb2  1  0.003384  0.503180  0.248966  1
  Yb  Yb3  1  0.995870  0.496197  0.749763  1
  Yb  Yb4  1  0.496820  0.996616  0.751034  1
  Yb  Yb5  1  0.503803  0.004130  0.250237  1
  Mn  Mn6  1  0.831081  0.168919  0.000000  1
  Si  Si7  1  0.709280  0.290720  0.000000  1
  Si  Si8  1  0.295285  0.704715  0.000000  1
  Si  Si9  1  0.795093  0.204907  0.500000  1
  Si  Si10  1  0.205218  0.794782  0.500000  1
  Si  Si11  1  0.333448  0.332367  0.167399  1
  Si  Si12  1  0.667633  0.666552  0.832601  1
  Si  Si13  1  0.167235  0.167030  0.667451  1
  Si  Si14  1  0.832970  0.832765  0.332549  1
  Si  Si15  1  0.846734  0.612554  0.006910  1
  Si  Si16  1  0.143025  0.378099  0.987916  1
  Si  Si17  1  0.652769  0.886779  0.510087  1
  Si  Si18  1  0.113221  0.347231  0.489913  1
  Si  Si19  1  0.346478  0.113706  0.493284  1
  Si  Si20  1  0.886294  0.653522  0.506716  1
  Si  Si21  1  0.387446  0.153266  0.993090  1
  Si  Si22  1  0.621901  0.856975  0.012084  1
  Si  Si23  1  0.896076  0.130395  0.260151  1
  Si  Si24  1  0.107933  0.875408  0.730895  1
  Si  Si25  1  0.608068  0.374292  0.769578  1
  Si  Si26  1  0.625708  0.391932  0.230422  1
  Si  Si27  1  0.395694  0.629582  0.231246  1
  Si  Si28  1  0.370418  0.604306  0.768754  1
  Si  Si29  1  0.869605  0.103924  0.739849  1
  Si  Si30  1  0.124592  0.892067  0.269105  1
  Ru  Ru31  1  0.169580  0.830420  0.000000  1
  Ru  Ru32  1  0.669369  0.330631  0.500000  1
  Ru  Ru33  1  0.330600  0.669400  0.500000  1
  Ru  Ru34  1  0.125002  0.126608  0.374553  1
  Ru  Ru35  1  0.873392  0.874998  0.625447  1
  Ru  Ru36  1  0.373715  0.374865  0.875346  1
  Ru  Ru37  1  0.625135  0.626285  0.124654  1
