# generated using pymatgen
data_Li28Sc2Si7As
_symmetry_space_group_name_H-M   'P 1'
_cell_length_a   9.21069637
_cell_length_b   9.20907133
_cell_length_c   9.21261473
_cell_angle_alpha   109.62605068
_cell_angle_beta   109.51683347
_cell_angle_gamma   109.30239751
_symmetry_Int_Tables_number   1
_chemical_formula_structural   Li28Sc2Si7As
_chemical_formula_sum   'Li28 Sc2 Si7 As1'
_cell_volume   601.30808355
_cell_formula_units_Z   1
loop_
 _symmetry_equiv_pos_site_id
 _symmetry_equiv_pos_as_xyz
  1  'x, y, z'
loop_
 _atom_site_type_symbol
 _atom_site_label
 _atom_site_symmetry_multiplicity
 _atom_site_fract_x
 _atom_site_fract_y
 _atom_site_fract_z
 _atom_site_occupancy
  Li  Li0  1  0.072851  0.543576  0.282488  1
  Li  Li1  1  0.263518  0.793074  0.719876  1
  Li  Li2  1  0.178751  0.957669  0.970882  1
  Li  Li3  1  0.983554  0.201589  0.026176  1
  Li  Li4  1  0.042030  0.013924  0.219775  1
  Li  Li5  1  0.793231  0.821122  0.779479  1
  Li  Li6  1  0.459131  0.739834  0.533163  1
  Li  Li7  1  0.206112  0.929638  0.472645  1
  Li  Li8  1  0.723042  0.342453  0.063708  1
  Li  Li9  1  0.965481  0.405516  0.879448  1
  Li  Li10  1  0.281169  0.663295  0.937816  1
  Li  Li11  1  0.527229  0.088541  0.119274  1
  Li  Li12  1  0.694727  0.868073  0.092930  1
  Li  Li13  1  0.478022  0.884500  0.327247  1
  Li  Li14  1  0.556470  0.152548  0.674510  1
  Li  Li15  1  0.773994  0.598492  0.905664  1
  Li  Li16  1  0.849385  0.523042  0.406709  1
  Li  Li17  1  0.403280  0.306840  0.173611  1
  Li  Li18  1  0.130950  0.224600  0.820100  1
  Li  Li19  1  0.117006  0.444273  0.594062  1
  Li  Li20  1  0.910362  0.029658  0.435956  1
  Li  Li21  1  0.336378  0.275264  0.618601  1
  Li  Li22  1  0.594081  0.471215  0.565988  1
  Li  Li23  1  0.660960  0.721376  0.382630  1
  Li  Li24  1  0.002690  0.874009  0.628378  1
  Li  Li25  1  0.246942  0.372201  0.374805  1
  Li  Li26  1  0.122726  0.756304  0.126586  1
  Li  Li27  1  0.623906  0.998114  0.872487  1
  Sc  Sc28  1  0.502193  0.500345  0.997751  1
  Sc  Sc29  1  0.750476  0.249422  0.498497  1
  Si  Si30  1  0.374774  0.135147  0.842478  1
  Si  Si31  1  0.958874  0.616579  0.742312  1
  Si  Si32  1  0.878231  0.218711  0.259351  1
  Si  Si33  1  0.382489  0.123129  0.340191  1
  Si  Si34  1  0.782580  0.041750  0.659028  1
  Si  Si35  1  0.466280  0.624567  0.757933  1
  Si  Si36  1  0.865912  0.707597  0.240263  1
  As  As37  1  0.290222  0.532011  0.157202  1
