# generated using pymatgen
data_Ho4Sc4B24Ir3Ru
_symmetry_space_group_name_H-M   'P 1'
_cell_length_a   3.54747500
_cell_length_b   8.99682437
_cell_length_c   11.36831847
_cell_angle_alpha   90.03287357
_cell_angle_beta   90.00000000
_cell_angle_gamma   90.00000000
_symmetry_Int_Tables_number   1
_chemical_formula_structural   Ho4Sc4B24Ir3Ru
_chemical_formula_sum   'Ho4 Sc4 B24 Ir3 Ru1'
_cell_volume   362.83130087
_cell_formula_units_Z   1
loop_
 _symmetry_equiv_pos_site_id
 _symmetry_equiv_pos_as_xyz
  1  'x, y, z'
loop_
 _atom_site_type_symbol
 _atom_site_label
 _atom_site_symmetry_multiplicity
 _atom_site_fract_x
 _atom_site_fract_y
 _atom_site_fract_z
 _atom_site_occupancy
  Ho  Ho0  1  0.500000  0.318581  0.413101  1
  Ho  Ho1  1  0.500000  0.680560  0.586122  1
  Ho  Ho2  1  0.500000  0.180418  0.914915  1
  Ho  Ho3  1  0.500000  0.821025  0.086536  1
  Sc  Sc4  1  0.500000  0.442775  0.124093  1
  Sc  Sc5  1  0.500000  0.555157  0.875960  1
  Sc  Sc6  1  0.500000  0.054986  0.623846  1
  Sc  Sc7  1  0.500000  0.947023  0.374994  1
  B  B8  1  0.000000  0.100606  0.473136  1
  B  B9  1  0.000000  0.899288  0.527310  1
  B  B10  1  0.000000  0.399524  0.972643  1
  B  B11  1  0.000000  0.600900  0.027051  1
  B  B12  1  0.000000  0.129659  0.317492  1
  B  B13  1  0.000000  0.869990  0.681342  1
  B  B14  1  0.000000  0.370151  0.818627  1
  B  B15  1  0.000000  0.629806  0.181541  1
  B  B16  1  0.000000  0.055236  0.066569  1
  B  B17  1  0.000000  0.945350  0.934193  1
  B  B18  1  0.000000  0.444998  0.565658  1
  B  B19  1  0.000000  0.554853  0.434212  1
  B  B20  1  0.000000  0.481708  0.285232  1
  B  B21  1  0.000000  0.518391  0.714791  1
  B  B22  1  0.000000  0.018367  0.785033  1
  B  B23  1  0.000000  0.982601  0.214793  1
  B  B24  1  0.000000  0.253758  0.081159  1
  B  B25  1  0.000000  0.745621  0.919795  1
  B  B26  1  0.000000  0.245657  0.580070  1
  B  B27  1  0.000000  0.754312  0.419804  1
  B  B28  1  0.000000  0.294852  0.234735  1
  B  B29  1  0.000000  0.704235  0.764507  1
  B  B30  1  0.000000  0.204416  0.735584  1
  B  B31  1  0.000000  0.795588  0.264948  1
  Ir  Ir32  1  0.500000  0.859142  0.819160  1
  Ir  Ir33  1  0.500000  0.358934  0.681086  1
  Ir  Ir34  1  0.500000  0.640812  0.318597  1
  Ru  Ru35  1  0.500000  0.140720  0.181365  1
