# generated using pymatgen
data_Ho7Er(SiBr6)2
_symmetry_space_group_name_H-M   'P 1'
_cell_length_a   4.03218800
_cell_length_b   13.15116517
_cell_length_c   13.93574018
_cell_angle_alpha   90.01861855
_cell_angle_beta   90.00000000
_cell_angle_gamma   90.00000000
_symmetry_Int_Tables_number   1
_chemical_formula_structural   Ho7Er(SiBr6)2
_chemical_formula_sum   'Ho7 Er1 Si2 Br12'
_cell_volume   738.98397895
_cell_formula_units_Z   1
loop_
 _symmetry_equiv_pos_site_id
 _symmetry_equiv_pos_as_xyz
  1  'x, y, z'
loop_
 _atom_site_type_symbol
 _atom_site_label
 _atom_site_symmetry_multiplicity
 _atom_site_fract_x
 _atom_site_fract_y
 _atom_site_fract_z
 _atom_site_occupancy
  Ho  Ho0  1  0.500000  0.118139  0.341117  1
  Ho  Ho1  1  0.500000  0.881870  0.658895  1
  Ho  Ho2  1  0.500000  0.618099  0.158839  1
  Ho  Ho3  1  0.000000  0.117751  0.578149  1
  Ho  Ho4  1  0.000000  0.882241  0.421859  1
  Ho  Ho5  1  0.000000  0.617787  0.921871  1
  Ho  Ho6  1  0.000000  0.382239  0.078166  1
  Er  Er7  1  0.500000  0.381896  0.841164  1
  Si  Si8  1  0.500000  0.000010  0.500010  1
  Si  Si9  1  0.500000  0.499812  0.999740  1
  Br  Br10  1  0.500000  0.243653  0.162621  1
  Br  Br11  1  0.500000  0.756334  0.837363  1
  Br  Br12  1  0.500000  0.743626  0.337338  1
  Br  Br13  1  0.500000  0.256546  0.662905  1
  Br  Br14  1  0.000000  0.256066  0.411239  1
  Br  Br15  1  0.000000  0.743935  0.588780  1
  Br  Br16  1  0.000000  0.756001  0.088796  1
  Br  Br17  1  0.000000  0.244345  0.910940  1
  Br  Br18  1  0.000000  0.001589  0.242536  1
  Br  Br19  1  0.000000  0.998422  0.757475  1
  Br  Br20  1  0.000000  0.501618  0.257424  1
  Br  Br21  1  0.000000  0.498020  0.742776  1
