# generated using pymatgen
data_Tb6Al24Fe5Au3
_symmetry_space_group_name_H-M   'P 1'
_cell_length_a   8.81724405
_cell_length_b   8.86718008
_cell_length_c   9.44495644
_cell_angle_alpha   90.01041481
_cell_angle_beta   90.02604145
_cell_angle_gamma   119.79445223
_symmetry_Int_Tables_number   1
_chemical_formula_structural   Tb6Al24Fe5Au3
_chemical_formula_sum   'Tb6 Al24 Fe5 Au3'
_cell_volume   640.83274232
_cell_formula_units_Z   1
loop_
 _symmetry_equiv_pos_site_id
 _symmetry_equiv_pos_as_xyz
  1  'x, y, z'
loop_
 _atom_site_type_symbol
 _atom_site_label
 _atom_site_symmetry_multiplicity
 _atom_site_fract_x
 _atom_site_fract_y
 _atom_site_fract_z
 _atom_site_occupancy
  Tb  Tb0  1  0.384320  0.190131  0.244835  1
  Tb  Tb1  1  0.806819  0.191724  0.250056  1
  Tb  Tb2  1  0.809383  0.616671  0.250964  1
  Tb  Tb3  1  0.615680  0.809869  0.755165  1
  Tb  Tb4  1  0.193181  0.808276  0.749944  1
  Tb  Tb5  1  0.190617  0.383329  0.749036  1
  Al  Al6  1  0.441936  0.884456  0.249534  1
  Al  Al7  1  0.124465  0.563510  0.236719  1
  Al  Al8  1  0.432729  0.569357  0.249630  1
  Al  Al9  1  0.558064  0.115544  0.750466  1
  Al  Al10  1  0.875535  0.436490  0.763281  1
  Al  Al11  1  0.567271  0.430643  0.750370  1
  Al  Al12  1  0.171720  0.852020  0.420222  1
  Al  Al13  1  0.155248  0.310048  0.419282  1
  Al  Al14  1  0.681881  0.853754  0.422772  1
  Al  Al15  1  0.828280  0.147980  0.579778  1
  Al  Al16  1  0.844752  0.689952  0.580718  1
  Al  Al17  1  0.318119  0.146246  0.577228  1
  Al  Al18  1  0.837368  0.160800  0.925127  1
  Al  Al19  1  0.854383  0.682022  0.927739  1
  Al  Al20  1  0.319674  0.146565  0.924603  1
  Al  Al21  1  0.162632  0.839200  0.074873  1
  Al  Al22  1  0.145617  0.317978  0.072261  1
  Al  Al23  1  0.680326  0.853435  0.075397  1
  Al  Al24  1  0.343401  0.686482  0.526574  1
  Al  Al25  1  0.656599  0.313518  0.473426  1
  Al  Al26  1  0.675061  0.325384  0.024915  1
  Al  Al27  1  0.324939  0.674616  0.975085  1
  Al  Al28  1  0.999306  0.997197  0.248822  1
  Al  Al29  1  0.000694  0.002803  0.751178  1
  Fe  Fe30  1  0.000000  0.000000  0.500000  1
  Fe  Fe31  1  0.000000  0.000000  0.000000  1
  Fe  Fe32  1  0.500000  0.000000  0.500000  1
  Fe  Fe33  1  0.500000  0.000000  0.000000  1
  Fe  Fe34  1  0.000000  0.500000  0.000000  1
  Au  Au35  1  0.000000  0.500000  0.500000  1
  Au  Au36  1  0.500000  0.500000  0.500000  1
  Au  Au37  1  0.500000  0.500000  0.000000  1
