# generated using pymatgen
data_CeHf(IO3)8
_symmetry_space_group_name_H-M   'P 1'
_cell_length_a   8.72512900
_cell_length_b   8.72512900
_cell_length_c   7.64293900
_cell_angle_alpha   90.00000000
_cell_angle_beta   90.00000000
_cell_angle_gamma   90.00000000
_symmetry_Int_Tables_number   1
_chemical_formula_structural   CeHf(IO3)8
_chemical_formula_sum   'Ce1 Hf1 I8 O24'
_cell_volume   581.84071298
_cell_formula_units_Z   1
loop_
 _symmetry_equiv_pos_site_id
 _symmetry_equiv_pos_as_xyz
  1  'x, y, z'
loop_
 _atom_site_type_symbol
 _atom_site_label
 _atom_site_symmetry_multiplicity
 _atom_site_fract_x
 _atom_site_fract_y
 _atom_site_fract_z
 _atom_site_occupancy
  Ce  Ce0  1  0.000000  0.500000  0.055733  1
  Hf  Hf1  1  0.500000  0.000000  0.949999  1
  I  I2  1  0.748902  0.731726  0.724083  1
  I  I3  1  0.768274  0.248902  0.724083  1
  I  I4  1  0.286151  0.762647  0.274093  1
  I  I5  1  0.262647  0.213849  0.274093  1
  I  I6  1  0.737353  0.786151  0.274093  1
  I  I7  1  0.713849  0.237353  0.274093  1
  I  I8  1  0.251098  0.268274  0.724083  1
  I  I9  1  0.231726  0.751098  0.724083  1
  O  O10  1  0.206836  0.599255  0.892943  1
  O  O11  1  0.099255  0.293164  0.892943  1
  O  O12  1  0.900745  0.706836  0.892943  1
  O  O13  1  0.793164  0.400745  0.892943  1
  O  O14  1  0.303068  0.913889  0.099543  1
  O  O15  1  0.413889  0.196932  0.099543  1
  O  O16  1  0.586111  0.803068  0.099543  1
  O  O17  1  0.696932  0.086111  0.099543  1
  O  O18  1  0.430306  0.800042  0.787925  1
  O  O19  1  0.300042  0.069694  0.787925  1
  O  O20  1  0.732439  0.389242  0.551468  1
  O  O21  1  0.889242  0.767561  0.551468  1
  O  O22  1  0.110758  0.232439  0.551468  1
  O  O23  1  0.267561  0.610758  0.551468  1
  O  O24  1  0.744653  0.093015  0.444283  1
  O  O25  1  0.593015  0.755347  0.444283  1
  O  O26  1  0.406985  0.244653  0.444283  1
  O  O27  1  0.255347  0.906985  0.444283  1
  O  O28  1  0.914692  0.286334  0.224228  1
  O  O29  1  0.786334  0.585308  0.224228  1
  O  O30  1  0.213666  0.414692  0.224228  1
  O  O31  1  0.085308  0.713666  0.224228  1
  O  O32  1  0.569694  0.199958  0.787925  1
  O  O33  1  0.699958  0.930306  0.787925  1
