# generated using pymatgen
data_YHoCo9P6Ru
_symmetry_space_group_name_H-M   'P 1'
_cell_length_a   3.67032100
_cell_length_b   10.33229000
_cell_length_c   11.75457400
_cell_angle_alpha   90.00000000
_cell_angle_beta   90.00000000
_cell_angle_gamma   90.00000000
_symmetry_Int_Tables_number   1
_chemical_formula_structural   YHoCo9P6Ru
_chemical_formula_sum   'Y2 Ho2 Co18 P12 Ru2'
_cell_volume   445.76660532
_cell_formula_units_Z   2
loop_
 _symmetry_equiv_pos_site_id
 _symmetry_equiv_pos_as_xyz
  1  'x, y, z'
loop_
 _atom_site_type_symbol
 _atom_site_label
 _atom_site_symmetry_multiplicity
 _atom_site_fract_x
 _atom_site_fract_y
 _atom_site_fract_z
 _atom_site_occupancy
  Y  Y0  1  0.250000  0.582458  0.702202  1
  Y  Y1  1  0.250000  0.917542  0.202202  1
  Ho  Ho2  1  0.750000  0.413856  0.295621  1
  Ho  Ho3  1  0.750000  0.086144  0.795621  1
  Co  Co4  1  0.750000  0.283497  0.008396  1
  Co  Co5  1  0.750000  0.216503  0.508396  1
  Co  Co6  1  0.250000  0.405964  0.487444  1
  Co  Co7  1  0.250000  0.094036  0.987444  1
  Co  Co8  1  0.750000  0.590598  0.509730  1
  Co  Co9  1  0.750000  0.909402  0.009730  1
  Co  Co10  1  0.250000  0.220982  0.176551  1
  Co  Co11  1  0.250000  0.279018  0.676551  1
  Co  Co12  1  0.750000  0.778620  0.823127  1
  Co  Co13  1  0.750000  0.721380  0.323127  1
  Co  Co14  1  0.250000  0.887061  0.701891  1
  Co  Co15  1  0.250000  0.612939  0.201891  1
  Co  Co16  1  0.750000  0.117000  0.301150  1
  Co  Co17  1  0.750000  0.383000  0.801150  1
  Co  Co18  1  0.250000  0.464463  0.932683  1
  Co  Co19  1  0.250000  0.035537  0.432683  1
  Co  Co20  1  0.750000  0.532399  0.069123  1
  Co  Co21  1  0.750000  0.967601  0.569123  1
  P  P22  1  0.250000  0.417060  0.112238  1
  P  P23  1  0.250000  0.082940  0.612238  1
  P  P24  1  0.750000  0.578666  0.887295  1
  P  P25  1  0.750000  0.921334  0.387295  1
  P  P26  1  0.250000  0.270166  0.869103  1
  P  P27  1  0.250000  0.229834  0.369103  1
  P  P28  1  0.750000  0.728361  0.132788  1
  P  P29  1  0.750000  0.771639  0.632788  1
  P  P30  1  0.250000  0.594521  0.390285  1
  P  P31  1  0.250000  0.905479  0.890285  1
  P  P32  1  0.750000  0.396757  0.608508  1
  P  P33  1  0.750000  0.103243  0.108508  1
  Ru  Ru34  1  0.250000  0.715294  0.991864  1
  Ru  Ru35  1  0.250000  0.784706  0.491864  1
