# generated using pymatgen
data_LuNp3O8
_symmetry_space_group_name_H-M   'P 1'
_cell_length_a   6.54049133
_cell_length_b   6.54049195
_cell_length_c   6.54049102
_cell_angle_alpha   131.79751655
_cell_angle_beta   131.79752056
_cell_angle_gamma   70.54900872
_symmetry_Int_Tables_number   1
_chemical_formula_structural   LuNp3O8
_chemical_formula_sum   'Lu1 Np3 O8'
_cell_volume   152.35506111
_cell_formula_units_Z   1
loop_
 _symmetry_equiv_pos_site_id
 _symmetry_equiv_pos_as_xyz
  1  'x, y, z'
loop_
 _atom_site_type_symbol
 _atom_site_label
 _atom_site_symmetry_multiplicity
 _atom_site_fract_x
 _atom_site_fract_y
 _atom_site_fract_z
 _atom_site_occupancy
  Lu  Lu0  1  0.000000  0.000000  0.000000  1
  Np  Np1  1  0.250000  0.750000  0.500000  1
  Np  Np2  1  0.500000  0.500000  0.000000  1
  Np  Np3  1  0.750000  0.250000  0.500000  1
  O  O4  1  0.623207  0.623207  0.497696  1
  O  O5  1  0.874489  0.376793  0.000000  1
  O  O6  1  0.125511  0.125511  0.502304  1
  O  O7  1  0.376793  0.874489  0.000000  1
  O  O8  1  0.376793  0.376793  0.502304  1
  O  O9  1  0.623207  0.125511  0.000000  1
  O  O10  1  0.874489  0.874489  0.497696  1
  O  O11  1  0.125511  0.623207  0.000000  1
