# generated using pymatgen
data_Pu4Rh3
_symmetry_space_group_name_H-M   'P 1'
_cell_length_a   7.40450203
_cell_length_b   7.40456252
_cell_length_c   7.40432003
_cell_angle_alpha   109.48026084
_cell_angle_beta   109.46756311
_cell_angle_gamma   109.46553023
_symmetry_Int_Tables_number   1
_chemical_formula_structural   Pu4Rh3
_chemical_formula_sum   'Pu8 Rh6'
_cell_volume   312.50731975
_cell_formula_units_Z   2
loop_
 _symmetry_equiv_pos_site_id
 _symmetry_equiv_pos_as_xyz
  1  'x, y, z'
loop_
 _atom_site_type_symbol
 _atom_site_label
 _atom_site_symmetry_multiplicity
 _atom_site_fract_x
 _atom_site_fract_y
 _atom_site_fract_z
 _atom_site_occupancy
  Pu  Pu0  1  0.137190  0.000094  0.000060  1
  Pu  Pu1  1  0.637132  0.000023  0.999962  1
  Pu  Pu2  1  0.499895  0.499887  0.137066  1
  Pu  Pu3  1  0.362926  0.862883  0.362783  1
  Pu  Pu4  1  0.999981  0.137098  0.499991  1
  Pu  Pu5  1  0.999963  0.637095  0.500031  1
  Pu  Pu6  1  0.500089  0.500070  0.637206  1
  Pu  Pu7  1  0.862828  0.362867  0.862923  1
  Rh  Rh8  1  0.874956  0.750014  0.124878  1
  Rh  Rh9  1  0.124946  0.374884  0.249891  1
  Rh  Rh10  1  0.624948  0.249957  0.374931  1
  Rh  Rh11  1  0.750083  0.875076  0.625137  1
  Rh  Rh12  1  0.375062  0.125013  0.750089  1
  Rh  Rh13  1  0.250003  0.625037  0.875053  1
