# generated using pymatgen
data_Lu3In3CuNiRu
_symmetry_space_group_name_H-M   'P 1'
_cell_length_a   7.60360000
_cell_length_b   7.60360021
_cell_length_c   3.64171600
_cell_angle_alpha   90.00000000
_cell_angle_beta   90.00000000
_cell_angle_gamma   119.99999910
_symmetry_Int_Tables_number   1
_chemical_formula_structural   Lu3In3CuNiRu
_chemical_formula_sum   'Lu3 In3 Cu1 Ni1 Ru1'
_cell_volume   182.33718503
_cell_formula_units_Z   1
loop_
 _symmetry_equiv_pos_site_id
 _symmetry_equiv_pos_as_xyz
  1  'x, y, z'
loop_
 _atom_site_type_symbol
 _atom_site_label
 _atom_site_symmetry_multiplicity
 _atom_site_fract_x
 _atom_site_fract_y
 _atom_site_fract_z
 _atom_site_occupancy
  Lu  Lu0  1  0.585532  0.978313  0.000000  1
  Lu  Lu1  1  0.021687  0.607219  0.000000  1
  Lu  Lu2  1  0.392781  0.414468  0.000000  1
  In  In3  1  0.260455  0.006727  0.500000  1
  In  In4  1  0.993273  0.253728  0.500000  1
  In  In5  1  0.746272  0.739545  0.500000  1
  Cu  Cu6  1  0.666667  0.333333  0.500000  1
  Ni  Ni7  1  0.000000  0.000000  0.000000  1
  Ru  Ru8  1  0.333333  0.666667  0.500000  1
