# generated using pymatgen
data_Tb2LuBe2Co9B4
_symmetry_space_group_name_H-M   'P 1'
_cell_length_a   5.05038800
_cell_length_b   5.04423155
_cell_length_c   9.36862200
_cell_angle_alpha   90.00008435
_cell_angle_beta   89.99980882
_cell_angle_gamma   120.04038183
_symmetry_Int_Tables_number   1
_chemical_formula_structural   Tb2LuBe2Co9B4
_chemical_formula_sum   'Tb2 Lu1 Be2 Co9 B4'
_cell_volume   206.60900309
_cell_formula_units_Z   1
loop_
 _symmetry_equiv_pos_site_id
 _symmetry_equiv_pos_as_xyz
  1  'x, y, z'
loop_
 _atom_site_type_symbol
 _atom_site_label
 _atom_site_symmetry_multiplicity
 _atom_site_fract_x
 _atom_site_fract_y
 _atom_site_fract_z
 _atom_site_occupancy
  Tb  Tb0  1  0.999993  0.000000  0.999153  1
  Tb  Tb1  1  0.999993  0.000000  0.338306  1
  Lu  Lu2  1  0.999994  0.000000  0.662597  1
  Be  Be3  1  0.333200  0.666418  0.999002  1
  Be  Be4  1  0.666781  0.333582  0.999002  1
  Co  Co5  1  0.499995  0.000000  0.501452  1
  Co  Co6  1  0.499995  0.500000  0.501477  1
  Co  Co7  1  0.999995  0.500000  0.501477  1
  Co  Co8  1  0.499994  0.000000  0.190115  1
  Co  Co9  1  0.499993  0.500000  0.190079  1
  Co  Co10  1  0.999994  0.500000  0.190079  1
  Co  Co11  1  0.499995  0.000000  0.808446  1
  Co  Co12  1  0.499995  0.500000  0.808439  1
  Co  Co13  1  0.999995  0.500000  0.808439  1
  B  B14  1  0.333352  0.666714  0.342800  1
  B  B15  1  0.666638  0.333286  0.342800  1
  B  B16  1  0.666633  0.333270  0.658167  1
  B  B17  1  0.333362  0.666730  0.658167  1
