# generated using pymatgen
data_BaSr3Ge2(S2O7)8
_symmetry_space_group_name_H-M   'P 1'
_cell_length_a   13.38987179
_cell_length_b   7.18160740
_cell_length_c   13.74056433
_cell_angle_alpha   65.95141261
_cell_angle_beta   90.17561809
_cell_angle_gamma   90.49568980
_symmetry_Int_Tables_number   1
_chemical_formula_structural   BaSr3Ge2(S2O7)8
_chemical_formula_sum   'Ba1 Sr3 Ge2 S16 O56'
_cell_volume   1206.56950274
_cell_formula_units_Z   1
loop_
 _symmetry_equiv_pos_site_id
 _symmetry_equiv_pos_as_xyz
  1  'x, y, z'
loop_
 _atom_site_type_symbol
 _atom_site_label
 _atom_site_symmetry_multiplicity
 _atom_site_fract_x
 _atom_site_fract_y
 _atom_site_fract_z
 _atom_site_occupancy
  Ba  Ba0  1  0.863023  0.141832  0.158965  1
  Sr  Sr1  1  0.634688  0.145807  0.658468  1
  Sr  Sr2  1  0.137143  0.861179  0.838436  1
  Sr  Sr3  1  0.363993  0.856652  0.343115  1
  Ge  Ge4  1  0.497723  0.501566  0.999213  1
  Ge  Ge5  1  0.000529  0.499960  0.499907  1
  S  S6  1  0.643538  0.223839  0.937458  1
  S  S7  1  0.850339  0.215744  0.444912  1
  S  S8  1  0.350860  0.779242  0.058355  1
  S  S9  1  0.149758  0.779275  0.558997  1
  S  S10  1  0.980387  0.682900  0.105423  1
  S  S11  1  0.527660  0.685617  0.604685  1
  S  S12  1  0.033808  0.319078  0.890190  1
  S  S13  1  0.468703  0.316890  0.396559  1
  S  S14  1  0.715828  0.624825  0.910356  1
  S  S15  1  0.780961  0.614688  0.415014  1
  S  S16  1  0.280847  0.376438  0.088320  1
  S  S17  1  0.217859  0.378170  0.588969  1
  S  S18  1  0.577396  0.241625  0.228865  1
  S  S19  1  0.917649  0.236752  0.728631  1
  S  S20  1  0.416751  0.763863  0.770273  1
  S  S21  1  0.088034  0.759639  0.274221  1
  O  O22  1  0.611624  0.147658  0.861030  1
  O  O23  1  0.879336  0.132354  0.370984  1
  O  O24  1  0.380566  0.861050  0.133132  1
  O  O25  1  0.121103  0.862338  0.633203  1
  O  O26  1  0.577328  0.295622  0.328997  1
  O  O27  1  0.921250  0.289896  0.829043  1
  O  O28  1  0.417589  0.709328  0.670234  1
  O  O29  1  0.087880  0.715609  0.170798  1
  O  O30  1  0.524566  0.052756  0.250727  1
  O  O31  1  0.970324  0.050133  0.748484  1
  O  O32  1  0.470239  0.951959  0.748728  1
  O  O33  1  0.038753  0.948935  0.254842  1
  O  O34  1  0.555961  0.257367  0.999233  1
  O  O35  1  0.940628  0.254396  0.502301  1
  O  O36  1  0.440496  0.746203  0.998588  1
  O  O37  1  0.059471  0.744348  0.499986  1
  O  O38  1  0.903489  0.800740  0.127471  1
  O  O39  1  0.601100  0.812528  0.626726  1
  O  O40  1  0.106033  0.196957  0.864612  1
  O  O41  1  0.394997  0.189204  0.375538  1
  O  O42  1  0.682012  0.457132  0.861505  1
  O  O43  1  0.813318  0.446963  0.366179  1
  O  O44  1  0.314715  0.545580  0.136317  1
  O  O45  1  0.185032  0.546436  0.637313  1
  O  O46  1  0.520638  0.423181  0.146968  1
  O  O47  1  0.973961  0.422221  0.646568  1
  O  O48  1  0.473694  0.581216  0.851784  1
  O  O49  1  0.026903  0.577195  0.352420  1
  O  O50  1  0.722192  0.118241  0.009870  1
  O  O51  1  0.772036  0.115147  0.519746  1
  O  O52  1  0.272036  0.878158  0.984372  1
  O  O53  1  0.228823  0.878597  0.484915  1
  O  O54  1  0.623972  0.640592  0.971824  1
  O  O55  1  0.876564  0.644526  0.467610  1
  O  O56  1  0.373232  0.358459  0.027928  1
  O  O57  1  0.124544  0.357318  0.530180  1
  O  O58  1  0.730370  0.807618  0.815987  1
  O  O59  1  0.759544  0.792791  0.320738  1
  O  O60  1  0.266013  0.194736  0.183230  1
  O  O61  1  0.233543  0.196748  0.683509  1
  O  O62  1  0.798427  0.541357  0.981207  1
  O  O63  1  0.703214  0.524361  0.491968  1
  O  O64  1  0.199228  0.460464  0.016404  1
  O  O65  1  0.299334  0.464133  0.516620  1
  O  O66  1  0.966294  0.464612  0.156391  1
  O  O67  1  0.545524  0.468655  0.655144  1
  O  O68  1  0.050473  0.537108  0.839339  1
  O  O69  1  0.450099  0.533612  0.346406  1
  O  O70  1  0.018375  0.763807  0.997758  1
  O  O71  1  0.488983  0.762595  0.497292  1
  O  O72  1  0.998852  0.239237  0.998845  1
  O  O73  1  0.509187  0.240270  0.503145  1
  O  O74  1  0.681221  0.249618  0.200863  1
  O  O75  1  0.813007  0.242055  0.702853  1
  O  O76  1  0.312694  0.756617  0.798168  1
  O  O77  1  0.191735  0.743683  0.304642  1
