# generated using pymatgen
data_Sc5ZnB4RuRh9
_symmetry_space_group_name_H-M   'P 1'
_cell_length_a   9.47625311
_cell_length_b   9.47427508
_cell_length_c   3.06730900
_cell_angle_alpha   90.00000000
_cell_angle_beta   90.00000000
_cell_angle_gamma   89.67081953
_symmetry_Int_Tables_number   1
_chemical_formula_structural   Sc5ZnB4RuRh9
_chemical_formula_sum   'Sc5 Zn1 B4 Ru1 Rh9'
_cell_volume   275.38038545
_cell_formula_units_Z   1
loop_
 _symmetry_equiv_pos_site_id
 _symmetry_equiv_pos_as_xyz
  1  'x, y, z'
loop_
 _atom_site_type_symbol
 _atom_site_label
 _atom_site_symmetry_multiplicity
 _atom_site_fract_x
 _atom_site_fract_y
 _atom_site_fract_z
 _atom_site_occupancy
  Sc  Sc0  1  0.825928  0.320464  0.000000  1
  Sc  Sc1  1  0.325390  0.171038  0.000000  1
  Sc  Sc2  1  0.674610  0.828962  0.000000  1
  Sc  Sc3  1  0.174072  0.679536  0.000000  1
  Sc  Sc4  1  0.500000  0.500000  0.000000  1
  Zn  Zn5  1  0.000000  0.000000  0.000000  1
  B  B6  1  0.626312  0.116923  0.000000  1
  B  B7  1  0.120489  0.369959  0.000000  1
  B  B8  1  0.879511  0.630041  0.000000  1
  B  B9  1  0.373688  0.883077  0.000000  1
  Ru  Ru10  1  0.500000  0.000000  0.500000  1
  Rh  Rh11  1  0.069219  0.217125  0.500000  1
  Rh  Rh12  1  0.215442  0.930527  0.500000  1
  Rh  Rh13  1  0.784558  0.069473  0.500000  1
  Rh  Rh14  1  0.930781  0.782875  0.500000  1
  Rh  Rh15  1  0.423777  0.721835  0.500000  1
  Rh  Rh16  1  0.576223  0.278165  0.500000  1
  Rh  Rh17  1  0.723356  0.574401  0.500000  1
  Rh  Rh18  1  0.276644  0.425599  0.500000  1
  Rh  Rh19  1  0.000000  0.500000  0.500000  1
