# generated using pymatgen
data_Dy3Zr(Al3Ir)6
_symmetry_space_group_name_H-M   'P 1'
_cell_length_a   7.54172509
_cell_length_b   7.53322644
_cell_length_c   9.42789500
_cell_angle_alpha   90.00000000
_cell_angle_beta   90.00000000
_cell_angle_gamma   119.59725966
_symmetry_Int_Tables_number   1
_chemical_formula_structural   Dy3Zr(Al3Ir)6
_chemical_formula_sum   'Dy3 Zr1 Al18 Ir6'
_cell_volume   465.74189881
_cell_formula_units_Z   1
loop_
 _symmetry_equiv_pos_site_id
 _symmetry_equiv_pos_as_xyz
  1  'x, y, z'
loop_
 _atom_site_type_symbol
 _atom_site_label
 _atom_site_symmetry_multiplicity
 _atom_site_fract_x
 _atom_site_fract_y
 _atom_site_fract_z
 _atom_site_occupancy
  Dy  Dy0  1  0.005606  0.328260  0.250000  1
  Dy  Dy1  1  0.670555  0.995561  0.750000  1
  Dy  Dy2  1  0.329705  0.006320  0.250000  1
  Zr  Zr3  1  0.996533  0.671417  0.750000  1
  Al  Al4  1  0.125628  0.123049  0.750000  1
  Al  Al5  1  0.871157  0.869899  0.250000  1
  Al  Al6  1  0.000465  0.337489  0.578247  1
  Al  Al7  1  0.999326  0.665209  0.429620  1
  Al  Al8  1  0.999326  0.665209  0.070380  1
  Al  Al9  1  0.332323  0.998354  0.921656  1
  Al  Al10  1  0.000465  0.337489  0.921753  1
  Al  Al11  1  0.664851  0.998302  0.074273  1
  Al  Al12  1  0.664851  0.998302  0.425727  1
  Al  Al13  1  0.332323  0.998354  0.578344  1
  Al  Al14  1  0.333783  0.333841  0.051216  1
  Al  Al15  1  0.668580  0.666765  0.943954  1
  Al  Al16  1  0.668580  0.666765  0.556046  1
  Al  Al17  1  0.333783  0.333841  0.448784  1
  Al  Al18  1  0.335715  0.548906  0.750000  1
  Al  Al19  1  0.661201  0.452850  0.250000  1
  Al  Al20  1  0.554252  0.343999  0.750000  1
  Al  Al21  1  0.451556  0.660030  0.250000  1
  Ir  Ir22  1  0.672193  0.328080  0.500663  1
  Ir  Ir23  1  0.327956  0.672153  0.501347  1
  Ir  Ir24  1  0.327956  0.672153  0.998653  1
  Ir  Ir25  1  0.672193  0.328080  0.999337  1
  Ir  Ir26  1  0.999569  0.999660  0.500614  1
  Ir  Ir27  1  0.999569  0.999660  0.999386  1
