# generated using pymatgen
data_DyHoEr2(B6Ru)2
_symmetry_space_group_name_H-M   'P 1'
_cell_length_a   3.64349200
_cell_length_b   9.11282601
_cell_length_c   11.48776601
_cell_angle_alpha   90.00431119
_cell_angle_beta   90.00000000
_cell_angle_gamma   90.00000000
_symmetry_Int_Tables_number   1
_chemical_formula_structural   DyHoEr2(B6Ru)2
_chemical_formula_sum   'Dy2 Ho2 Er4 B24 Ru4'
_cell_volume   381.42264920
_cell_formula_units_Z   2
loop_
 _symmetry_equiv_pos_site_id
 _symmetry_equiv_pos_as_xyz
  1  'x, y, z'
loop_
 _atom_site_type_symbol
 _atom_site_label
 _atom_site_symmetry_multiplicity
 _atom_site_fract_x
 _atom_site_fract_y
 _atom_site_fract_z
 _atom_site_occupancy
  Dy  Dy0  1  0.000000  0.322493  0.414051  1
  Dy  Dy1  1  0.000000  0.677507  0.585949  1
  Ho  Ho2  1  0.000000  0.822441  0.085857  1
  Ho  Ho3  1  0.000000  0.177559  0.914143  1
  Er  Er4  1  0.000000  0.944051  0.372353  1
  Er  Er5  1  0.000000  0.055949  0.627647  1
  Er  Er6  1  0.000000  0.444085  0.127500  1
  Er  Er7  1  0.000000  0.555915  0.872500  1
  B  B8  1  0.500000  0.554408  0.432920  1
  B  B9  1  0.500000  0.445592  0.567080  1
  B  B10  1  0.500000  0.054272  0.066856  1
  B  B11  1  0.500000  0.945728  0.933144  1
  B  B12  1  0.500000  0.748690  0.419633  1
  B  B13  1  0.500000  0.251310  0.580367  1
  B  B14  1  0.500000  0.248577  0.080139  1
  B  B15  1  0.500000  0.751423  0.919861  1
  B  B16  1  0.500000  0.791780  0.266009  1
  B  B17  1  0.500000  0.208220  0.733991  1
  B  B18  1  0.500000  0.291646  0.233752  1
  B  B19  1  0.500000  0.708354  0.766248  1
  B  B20  1  0.500000  0.631981  0.184825  1
  B  B21  1  0.500000  0.368019  0.815175  1
  B  B22  1  0.500000  0.131810  0.315002  1
  B  B23  1  0.500000  0.868190  0.684998  1
  B  B24  1  0.500000  0.983493  0.212932  1
  B  B25  1  0.500000  0.016507  0.787068  1
  B  B26  1  0.500000  0.483714  0.286886  1
  B  B27  1  0.500000  0.516286  0.713114  1
  B  B28  1  0.500000  0.607506  0.029606  1
  B  B29  1  0.500000  0.392494  0.970394  1
  B  B30  1  0.500000  0.107170  0.470483  1
  B  B31  1  0.500000  0.892830  0.529517  1
  Ru  Ru32  1  0.000000  0.638419  0.320684  1
  Ru  Ru33  1  0.000000  0.361581  0.679316  1
  Ru  Ru34  1  0.000000  0.138057  0.178889  1
  Ru  Ru35  1  0.000000  0.861943  0.821111  1
