# generated using pymatgen
data_Er6Si19Ni30
_symmetry_space_group_name_H-M   'P 1'
_cell_length_a   3.65867300
_cell_length_b   15.05220123
_cell_length_c   15.05220100
_cell_angle_alpha   119.99999730
_cell_angle_beta   90.00000000
_cell_angle_gamma   90.00000000
_symmetry_Int_Tables_number   1
_chemical_formula_structural   Er6Si19Ni30
_chemical_formula_sum   'Er6 Si19 Ni30'
_cell_volume   717.88398278
_cell_formula_units_Z   1
loop_
 _symmetry_equiv_pos_site_id
 _symmetry_equiv_pos_as_xyz
  1  'x, y, z'
loop_
 _atom_site_type_symbol
 _atom_site_label
 _atom_site_symmetry_multiplicity
 _atom_site_fract_x
 _atom_site_fract_y
 _atom_site_fract_z
 _atom_site_occupancy
  Er  Er0  1  0.500000  0.295186  0.899776  1
  Er  Er1  1  0.500000  0.100224  0.395410  1
  Er  Er2  1  0.500000  0.604590  0.704814  1
  Er  Er3  1  0.000000  0.704897  0.098054  1
  Er  Er4  1  0.000000  0.901946  0.606843  1
  Er  Er5  1  0.000000  0.393157  0.295103  1
  Si  Si6  1  0.500000  0.680939  0.235097  1
  Si  Si7  1  0.500000  0.764903  0.445841  1
  Si  Si8  1  0.500000  0.554159  0.319061  1
  Si  Si9  1  0.000000  0.318112  0.763256  1
  Si  Si10  1  0.000000  0.236744  0.554856  1
  Si  Si11  1  0.000000  0.445144  0.681888  1
  Si  Si12  1  0.500000  0.883084  0.746772  1
  Si  Si13  1  0.500000  0.253228  0.136312  1
  Si  Si14  1  0.500000  0.863688  0.116916  1
  Si  Si15  1  0.000000  0.122938  0.256943  1
  Si  Si16  1  0.000000  0.743057  0.865994  1
  Si  Si17  1  0.000000  0.134006  0.877062  1
  Si  Si18  1  0.500000  0.061244  0.627876  1
  Si  Si19  1  0.500000  0.372124  0.433368  1
  Si  Si20  1  0.500000  0.566632  0.938756  1
  Si  Si21  1  0.000000  0.938139  0.370579  1
  Si  Si22  1  0.000000  0.629421  0.567560  1
  Si  Si23  1  0.000000  0.432440  0.061861  1
  Si  Si24  1  0.500000  0.000000  0.000000  1
  Ni  Ni25  1  0.500000  0.425230  0.773668  1
  Ni  Ni26  1  0.500000  0.226332  0.651562  1
  Ni  Ni27  1  0.500000  0.348439  0.574770  1
  Ni  Ni28  1  0.000000  0.573938  0.226670  1
  Ni  Ni29  1  0.000000  0.773330  0.347268  1
  Ni  Ni30  1  0.000000  0.652732  0.426062  1
  Ni  Ni31  1  0.500000  0.535364  0.073991  1
  Ni  Ni32  1  0.500000  0.926009  0.461374  1
  Ni  Ni33  1  0.500000  0.538626  0.464636  1
  Ni  Ni34  1  0.000000  0.462748  0.925500  1
  Ni  Ni35  1  0.000000  0.074500  0.537249  1
  Ni  Ni36  1  0.000000  0.462751  0.537252  1
  Ni  Ni37  1  0.500000  0.046733  0.772942  1
  Ni  Ni38  1  0.500000  0.227058  0.273791  1
  Ni  Ni39  1  0.500000  0.726209  0.953267  1
  Ni  Ni40  1  0.000000  0.950269  0.222912  1
  Ni  Ni41  1  0.000000  0.777088  0.727357  1
  Ni  Ni42  1  0.000000  0.272643  0.049731  1
  Ni  Ni43  1  0.500000  0.735245  0.583514  1
  Ni  Ni44  1  0.500000  0.416486  0.151731  1
  Ni  Ni45  1  0.500000  0.848269  0.264755  1
  Ni  Ni46  1  0.000000  0.266975  0.418757  1
  Ni  Ni47  1  0.000000  0.581243  0.848219  1
  Ni  Ni48  1  0.000000  0.151781  0.733025  1
  Ni  Ni49  1  0.500000  0.130128  0.968720  1
  Ni  Ni50  1  0.500000  0.031280  0.161409  1
  Ni  Ni51  1  0.500000  0.838591  0.869872  1
  Ni  Ni52  1  0.000000  0.899721  0.023299  1
  Ni  Ni53  1  0.000000  0.976701  0.876421  1
  Ni  Ni54  1  0.000000  0.123579  0.100279  1
