# generated using pymatgen
data_Eu7Dy(MoO6)4
_symmetry_space_group_name_H-M   'P 1'
_cell_length_a   10.16311392
_cell_length_b   10.16311415
_cell_length_c   5.51251700
_cell_angle_alpha   75.05737380
_cell_angle_beta   75.05736763
_cell_angle_gamma   68.19618185
_symmetry_Int_Tables_number   1
_chemical_formula_structural   Eu7Dy(MoO6)4
_chemical_formula_sum   'Eu7 Dy1 Mo4 O24'
_cell_volume   502.36633043
_cell_formula_units_Z   1
loop_
 _symmetry_equiv_pos_site_id
 _symmetry_equiv_pos_as_xyz
  1  'x, y, z'
loop_
 _atom_site_type_symbol
 _atom_site_label
 _atom_site_symmetry_multiplicity
 _atom_site_fract_x
 _atom_site_fract_y
 _atom_site_fract_z
 _atom_site_occupancy
  Eu  Eu0  1  0.289122  0.054402  0.615695  1
  Eu  Eu1  1  0.945598  0.710878  0.884305  1
  Eu  Eu2  1  0.711127  0.947268  0.383688  1
  Eu  Eu3  1  0.052732  0.288873  0.116312  1
  Eu  Eu4  1  0.887286  0.112714  0.750000  1
  Eu  Eu5  1  0.111140  0.888860  0.250000  1
  Eu  Eu6  1  0.367072  0.632928  0.750000  1
  Dy  Dy7  1  0.634174  0.365826  0.250000  1
  Mo  Mo8  1  0.795350  0.508806  0.561380  1
  Mo  Mo9  1  0.491194  0.204650  0.938620  1
  Mo  Mo10  1  0.204545  0.490226  0.438906  1
  Mo  Mo11  1  0.509774  0.795455  0.061094  1
  O  O12  1  0.821819  0.383361  0.868619  1
  O  O13  1  0.616639  0.178181  0.631381  1
  O  O14  1  0.171158  0.616231  0.138068  1
  O  O15  1  0.383769  0.828842  0.361932  1
  O  O16  1  0.932684  0.519831  0.266733  1
  O  O17  1  0.480169  0.067316  0.233267  1
  O  O18  1  0.067451  0.477660  0.735982  1
  O  O19  1  0.522340  0.932549  0.764018  1
  O  O20  1  0.784123  0.677946  0.634032  1
  O  O21  1  0.322054  0.215877  0.865968  1
  O  O22  1  0.214425  0.321003  0.366785  1
  O  O23  1  0.678997  0.785575  0.133215  1
  O  O24  1  0.076788  0.104302  0.930582  1
  O  O25  1  0.895698  0.923212  0.569418  1
  O  O26  1  0.922731  0.896116  0.068977  1
  O  O27  1  0.103884  0.077269  0.431023  1
  O  O28  1  0.311214  0.837427  0.918257  1
  O  O29  1  0.162573  0.688786  0.581743  1
  O  O30  1  0.690741  0.165477  0.086906  1
  O  O31  1  0.834523  0.309259  0.413094  1
  O  O32  1  0.545923  0.611779  0.020280  1
  O  O33  1  0.388221  0.454077  0.479720  1
  O  O34  1  0.457224  0.384259  0.991293  1
  O  O35  1  0.615741  0.542776  0.508707  1
