# generated using pymatgen
data_Li4TbNd2DySi6
_symmetry_space_group_name_H-M   'P 1'
_cell_length_a   9.36710807
_cell_length_b   9.36710712
_cell_length_c   6.79332300
_cell_angle_alpha   90.00000000
_cell_angle_beta   90.00000000
_cell_angle_gamma   153.18679527
_symmetry_Int_Tables_number   1
_chemical_formula_structural   Li4TbNd2DySi6
_chemical_formula_sum   'Li4 Tb1 Nd2 Dy1 Si6'
_cell_volume   268.87472082
_cell_formula_units_Z   1
loop_
 _symmetry_equiv_pos_site_id
 _symmetry_equiv_pos_as_xyz
  1  'x, y, z'
loop_
 _atom_site_type_symbol
 _atom_site_label
 _atom_site_symmetry_multiplicity
 _atom_site_fract_x
 _atom_site_fract_y
 _atom_site_fract_z
 _atom_site_occupancy
  Li  Li0  1  0.190217  0.809783  0.059682  1
  Li  Li1  1  0.190217  0.809783  0.440318  1
  Li  Li2  1  0.809715  0.190285  0.940155  1
  Li  Li3  1  0.809715  0.190285  0.559845  1
  Tb  Tb4  1  0.343950  0.656050  0.250000  1
  Nd  Nd5  1  0.553604  0.446396  0.250000  1
  Nd  Nd6  1  0.446495  0.553505  0.750000  1
  Dy  Dy7  1  0.656005  0.343995  0.750000  1
  Si  Si8  1  0.722874  0.277126  0.250000  1
  Si  Si9  1  0.276964  0.723036  0.750000  1
  Si  Si10  1  0.059475  0.940525  0.925266  1
  Si  Si11  1  0.940646  0.059354  0.074575  1
  Si  Si12  1  0.940646  0.059354  0.425425  1
  Si  Si13  1  0.059475  0.940525  0.574734  1
