# generated using pymatgen
data_Sm2Ga9OsPd2
_symmetry_space_group_name_H-M   'P 1'
_cell_length_a   7.68220742
_cell_length_b   7.68220843
_cell_length_c   9.65366631
_cell_angle_alpha   90.08095681
_cell_angle_beta   90.08096544
_cell_angle_gamma   119.83277126
_symmetry_Int_Tables_number   1
_chemical_formula_structural   Sm2Ga9OsPd2
_chemical_formula_sum   'Sm4 Ga18 Os2 Pd4'
_cell_volume   494.22268208
_cell_formula_units_Z   2
loop_
 _symmetry_equiv_pos_site_id
 _symmetry_equiv_pos_as_xyz
  1  'x, y, z'
loop_
 _atom_site_type_symbol
 _atom_site_label
 _atom_site_symmetry_multiplicity
 _atom_site_fract_x
 _atom_site_fract_y
 _atom_site_fract_z
 _atom_site_occupancy
  Sm  Sm0  1  0.996063  0.668604  0.249741  1
  Sm  Sm1  1  0.003937  0.331396  0.750259  1
  Sm  Sm2  1  0.668604  0.996063  0.249741  1
  Sm  Sm3  1  0.331396  0.003937  0.750259  1
  Ga  Ga4  1  0.130618  0.130618  0.248953  1
  Ga  Ga5  1  0.869382  0.869382  0.751047  1
  Ga  Ga6  1  0.999827  0.339794  0.075864  1
  Ga  Ga7  1  0.000173  0.660206  0.924136  1
  Ga  Ga8  1  0.997559  0.665801  0.581845  1
  Ga  Ga9  1  0.334199  0.002441  0.418155  1
  Ga  Ga10  1  0.002441  0.334199  0.418155  1
  Ga  Ga11  1  0.665801  0.997559  0.581845  1
  Ga  Ga12  1  0.660206  0.000173  0.924136  1
  Ga  Ga13  1  0.339794  0.999827  0.075864  1
  Ga  Ga14  1  0.336106  0.336106  0.570510  1
  Ga  Ga15  1  0.663894  0.663894  0.429490  1
  Ga  Ga16  1  0.663250  0.663250  0.057518  1
  Ga  Ga17  1  0.336750  0.336750  0.942482  1
  Ga  Ga18  1  0.337961  0.545087  0.245640  1
  Ga  Ga19  1  0.662039  0.454913  0.754360  1
  Ga  Ga20  1  0.545087  0.337961  0.245640  1
  Ga  Ga21  1  0.454913  0.662039  0.754360  1
  Os  Os22  1  0.671850  0.328150  0.000000  1
  Os  Os23  1  0.328150  0.671850  0.000000  1
  Pd  Pd24  1  0.329588  0.670412  0.500000  1
  Pd  Pd25  1  0.670412  0.329588  0.500000  1
  Pd  Pd26  1  0.000000  0.000000  0.000000  1
  Pd  Pd27  1  0.000000  0.000000  0.500000  1
