# generated using pymatgen
data_Li8Dy2Er6Sn5Sb3
_symmetry_space_group_name_H-M   'P 1'
_cell_length_a   9.34170000
_cell_length_b   9.34169905
_cell_length_c   7.16151900
_cell_angle_alpha   90.00000000
_cell_angle_beta   90.00000000
_cell_angle_gamma   119.99999627
_symmetry_Int_Tables_number   1
_chemical_formula_structural   Li8Dy2Er6Sn5Sb3
_chemical_formula_sum   'Li8 Dy2 Er6 Sn5 Sb3'
_cell_volume   541.23713314
_cell_formula_units_Z   1
loop_
 _symmetry_equiv_pos_site_id
 _symmetry_equiv_pos_as_xyz
  1  'x, y, z'
loop_
 _atom_site_type_symbol
 _atom_site_label
 _atom_site_symmetry_multiplicity
 _atom_site_fract_x
 _atom_site_fract_y
 _atom_site_fract_z
 _atom_site_occupancy
  Li  Li0  1  0.166833  0.333665  0.282388  1
  Li  Li1  1  0.166833  0.833167  0.282388  1
  Li  Li2  1  0.666335  0.833167  0.282388  1
  Li  Li3  1  0.833028  0.666054  0.785128  1
  Li  Li4  1  0.833028  0.166972  0.785128  1
  Li  Li5  1  0.333946  0.166972  0.785128  1
  Li  Li6  1  0.333333  0.666667  0.677985  1
  Li  Li7  1  0.666667  0.333333  0.182488  1
  Dy  Dy8  1  0.000000  0.000000  0.497091  1
  Dy  Dy9  1  0.000000  0.000000  0.002999  1
  Er  Er10  1  0.511812  0.023622  0.490958  1
  Er  Er11  1  0.511812  0.488188  0.490958  1
  Er  Er12  1  0.976378  0.488188  0.490958  1
  Er  Er13  1  0.490198  0.980397  0.995840  1
  Er  Er14  1  0.490198  0.509802  0.995840  1
  Er  Er15  1  0.019603  0.509802  0.995840  1
  Sn  Sn16  1  0.832645  0.665291  0.232749  1
  Sn  Sn17  1  0.832645  0.167355  0.232749  1
  Sn  Sn18  1  0.334709  0.167355  0.232749  1
  Sn  Sn19  1  0.333333  0.666667  0.259848  1
  Sn  Sn20  1  0.666667  0.333333  0.760171  1
  Sb  Sb21  1  0.166960  0.333920  0.733409  1
  Sb  Sb22  1  0.166960  0.833040  0.733409  1
  Sb  Sb23  1  0.666080  0.833040  0.733409  1
