# generated using pymatgen
data_Sr6Li12NbSb3O22
_symmetry_space_group_name_H-M   'P 1'
_cell_length_a   5.87395100
_cell_length_b   8.47945100
_cell_length_c   10.71510500
_cell_angle_alpha   90.00000000
_cell_angle_beta   90.00000000
_cell_angle_gamma   90.00000000
_symmetry_Int_Tables_number   1
_chemical_formula_structural   Sr6Li12NbSb3O22
_chemical_formula_sum   'Sr6 Li12 Nb1 Sb3 O22'
_cell_volume   533.69666061
_cell_formula_units_Z   1
loop_
 _symmetry_equiv_pos_site_id
 _symmetry_equiv_pos_as_xyz
  1  'x, y, z'
loop_
 _atom_site_type_symbol
 _atom_site_label
 _atom_site_symmetry_multiplicity
 _atom_site_fract_x
 _atom_site_fract_y
 _atom_site_fract_z
 _atom_site_occupancy
  Sr  Sr0  1  0.502302  0.265152  0.499196  1
  Sr  Sr1  1  0.502302  0.734848  0.499196  1
  Sr  Sr2  1  0.502302  0.734848  0.000804  1
  Sr  Sr3  1  0.502302  0.265152  0.000804  1
  Sr  Sr4  1  0.614951  0.000000  0.750000  1
  Sr  Sr5  1  0.385679  0.000000  0.250000  1
  Li  Li6  1  0.998566  0.356190  0.502333  1
  Li  Li7  1  0.998566  0.643810  0.502333  1
  Li  Li8  1  0.998566  0.643810  0.997667  1
  Li  Li9  1  0.998566  0.356190  0.997667  1
  Li  Li10  1  0.151003  0.146625  0.750000  1
  Li  Li11  1  0.850803  0.854079  0.250000  1
  Li  Li12  1  0.151003  0.853375  0.750000  1
  Li  Li13  1  0.850803  0.145921  0.250000  1
  Li  Li14  1  0.781554  0.314110  0.750000  1
  Li  Li15  1  0.215985  0.686157  0.250000  1
  Li  Li16  1  0.781554  0.685890  0.750000  1
  Li  Li17  1  0.215985  0.313843  0.250000  1
  Nb  Nb18  1  0.737021  0.500000  0.250000  1
  Sb  Sb19  1  0.259436  0.500000  0.750000  1
  Sb  Sb20  1  0.000914  0.000000  0.499990  1
  Sb  Sb21  1  0.000914  0.000000  0.000010  1
  O  O22  1  0.132432  0.174700  0.110011  1
  O  O23  1  0.868210  0.826028  0.890038  1
  O  O24  1  0.132432  0.825300  0.389989  1
  O  O25  1  0.868210  0.173972  0.890038  1
  O  O26  1  0.868210  0.173972  0.609962  1
  O  O27  1  0.132432  0.825300  0.110011  1
  O  O28  1  0.868210  0.826028  0.609962  1
  O  O29  1  0.132432  0.174700  0.389989  1
  O  O30  1  0.932118  0.500000  0.750000  1
  O  O31  1  0.058806  0.500000  0.250000  1
  O  O32  1  0.250292  0.500000  0.561715  1
  O  O33  1  0.748841  0.500000  0.439557  1
  O  O34  1  0.250292  0.500000  0.938285  1
  O  O35  1  0.748841  0.500000  0.060443  1
  O  O36  1  0.280295  0.000000  0.608408  1
  O  O37  1  0.721499  0.000000  0.391097  1
  O  O38  1  0.280295  0.000000  0.891592  1
  O  O39  1  0.721499  0.000000  0.108903  1
  O  O40  1  0.434813  0.301406  0.750000  1
  O  O41  1  0.566978  0.697876  0.250000  1
  O  O42  1  0.434813  0.698594  0.750000  1
  O  O43  1  0.566978  0.302124  0.250000  1
