# generated using pymatgen
data_Sm2HoBe(PPd4)5
_symmetry_space_group_name_H-M   'P 1'
_cell_length_a   8.70572364
_cell_length_b   8.66446729
_cell_length_c   8.66446623
_cell_angle_alpha   60.31527160
_cell_angle_beta   59.84235845
_cell_angle_gamma   59.84235431
_symmetry_Int_Tables_number   1
_chemical_formula_structural   Sm2HoBe(PPd4)5
_chemical_formula_sum   'Sm2 Ho1 Be1 P5 Pd20'
_cell_volume   462.11888756
_cell_formula_units_Z   1
loop_
 _symmetry_equiv_pos_site_id
 _symmetry_equiv_pos_as_xyz
  1  'x, y, z'
loop_
 _atom_site_type_symbol
 _atom_site_label
 _atom_site_symmetry_multiplicity
 _atom_site_fract_x
 _atom_site_fract_y
 _atom_site_fract_z
 _atom_site_occupancy
  Sm  Sm0  1  0.249673  0.250327  0.250327  1
  Sm  Sm1  1  0.749673  0.750327  0.750327  1
  Ho  Ho2  1  0.996264  0.003736  0.003736  1
  Be  Be3  1  0.732866  0.267134  0.267134  1
  P  P4  1  0.262726  0.737274  0.737274  1
  P  P5  1  0.265113  0.734887  0.263793  1
  P  P6  1  0.736207  0.263793  0.734887  1
  P  P7  1  0.265113  0.263793  0.734887  1
  P  P8  1  0.736207  0.734887  0.263793  1
  Pd  Pd9  1  0.387434  0.383560  0.383560  1
  Pd  Pd10  1  0.615266  0.614700  0.614700  1
  Pd  Pd11  1  0.385300  0.384734  0.844667  1
  Pd  Pd12  1  0.385300  0.844667  0.384734  1
  Pd  Pd13  1  0.616440  0.612566  0.154554  1
  Pd  Pd14  1  0.616440  0.154554  0.612566  1
  Pd  Pd15  1  0.845446  0.383560  0.383560  1
  Pd  Pd16  1  0.155333  0.614700  0.614700  1
  Pd  Pd17  1  0.343319  0.000874  0.000874  1
  Pd  Pd18  1  0.654934  0.000874  0.000874  1
  Pd  Pd19  1  0.999126  0.345066  0.656681  1
  Pd  Pd20  1  0.999126  0.656681  0.345066  1
  Pd  Pd21  1  0.996753  0.342393  0.003247  1
  Pd  Pd22  1  0.657607  0.003247  0.342393  1
  Pd  Pd23  1  0.000491  0.653500  0.999509  1
  Pd  Pd24  1  0.346500  0.999509  0.653500  1
  Pd  Pd25  1  0.996753  0.003247  0.342393  1
  Pd  Pd26  1  0.000491  0.999509  0.653500  1
  Pd  Pd27  1  0.657607  0.342393  0.003247  1
  Pd  Pd28  1  0.346500  0.653500  0.999509  1
