# generated using pymatgen
data_Ho3Er(CuP)6
_symmetry_space_group_name_H-M   'P 1'
_cell_length_a   3.83829300
_cell_length_b   10.68134700
_cell_length_c   12.97323100
_cell_angle_alpha   90.00000000
_cell_angle_beta   90.00000000
_cell_angle_gamma   90.00000000
_symmetry_Int_Tables_number   1
_chemical_formula_structural   Ho3Er(CuP)6
_chemical_formula_sum   'Ho6 Er2 Cu12 P12'
_cell_volume   531.87833327
_cell_formula_units_Z   2
loop_
 _symmetry_equiv_pos_site_id
 _symmetry_equiv_pos_as_xyz
  1  'x, y, z'
loop_
 _atom_site_type_symbol
 _atom_site_label
 _atom_site_symmetry_multiplicity
 _atom_site_fract_x
 _atom_site_fract_y
 _atom_site_fract_z
 _atom_site_occupancy
  Ho  Ho0  1  0.250000  0.931398  0.792475  1
  Ho  Ho1  1  0.750000  0.431398  0.707525  1
  Ho  Ho2  1  0.250000  0.568641  0.292424  1
  Ho  Ho3  1  0.750000  0.068641  0.207576  1
  Ho  Ho4  1  0.250000  0.840917  0.503310  1
  Ho  Ho5  1  0.750000  0.340917  0.996690  1
  Er  Er6  1  0.250000  0.659117  0.003300  1
  Er  Er7  1  0.750000  0.159117  0.496700  1
  Cu  Cu8  1  0.250000  0.404239  0.513481  1
  Cu  Cu9  1  0.750000  0.904239  0.986519  1
  Cu  Cu10  1  0.250000  0.095696  0.013501  1
  Cu  Cu11  1  0.750000  0.595696  0.486499  1
  Cu  Cu12  1  0.250000  0.270743  0.331568  1
  Cu  Cu13  1  0.750000  0.770743  0.168432  1
  Cu  Cu14  1  0.250000  0.229205  0.831482  1
  Cu  Cu15  1  0.750000  0.729205  0.668518  1
  Cu  Cu16  1  0.250000  0.858951  0.280715  1
  Cu  Cu17  1  0.750000  0.358951  0.219285  1
  Cu  Cu18  1  0.250000  0.641075  0.780842  1
  Cu  Cu19  1  0.750000  0.141075  0.719158  1
  P  P20  1  0.250000  0.242850  0.642129  1
  P  P21  1  0.750000  0.742850  0.857871  1
  P  P22  1  0.250000  0.257015  0.142389  1
  P  P23  1  0.750000  0.757015  0.357611  1
  P  P24  1  0.250000  0.604943  0.601830  1
  P  P25  1  0.750000  0.104943  0.898170  1
  P  P26  1  0.250000  0.894832  0.101737  1
  P  P27  1  0.750000  0.394832  0.398263  1
  P  P28  1  0.250000  0.055928  0.369691  1
  P  P29  1  0.750000  0.555928  0.130309  1
  P  P30  1  0.250000  0.444449  0.869448  1
  P  P31  1  0.750000  0.944449  0.630552  1
