# generated using pymatgen
data_DyY6(HoSn2)3
_symmetry_space_group_name_H-M   'P 1'
_cell_length_a   8.97321800
_cell_length_b   8.97321686
_cell_length_c   6.54418900
_cell_angle_alpha   90.00000000
_cell_angle_beta   90.00000000
_cell_angle_gamma   119.99999684
_symmetry_Int_Tables_number   1
_chemical_formula_structural   DyY6(HoSn2)3
_chemical_formula_sum   'Dy1 Y6 Ho3 Sn6'
_cell_volume   456.33403530
_cell_formula_units_Z   1
loop_
 _symmetry_equiv_pos_site_id
 _symmetry_equiv_pos_as_xyz
  1  'x, y, z'
loop_
 _atom_site_type_symbol
 _atom_site_label
 _atom_site_symmetry_multiplicity
 _atom_site_fract_x
 _atom_site_fract_y
 _atom_site_fract_z
 _atom_site_occupancy
  Dy  Dy0  1  0.333333  0.666667  0.500000  1
  Y  Y1  1  0.999967  0.760315  0.750019  1
  Y  Y2  1  0.999967  0.239652  0.249981  1
  Y  Y3  1  0.760348  0.760315  0.249981  1
  Y  Y4  1  0.760348  0.000033  0.750019  1
  Y  Y5  1  0.239685  0.239652  0.750019  1
  Y  Y6  1  0.239685  0.000033  0.249981  1
  Ho  Ho7  1  0.666667  0.333333  0.000000  1
  Ho  Ho8  1  0.666667  0.333333  0.500000  1
  Ho  Ho9  1  0.333333  0.666667  0.000000  1
  Sn  Sn10  1  0.395744  0.000104  0.750066  1
  Sn  Sn11  1  0.395744  0.395640  0.249934  1
  Sn  Sn12  1  0.999896  0.604256  0.249934  1
  Sn  Sn13  1  0.999896  0.395640  0.750066  1
  Sn  Sn14  1  0.604360  0.604256  0.750066  1
  Sn  Sn15  1  0.604360  0.000104  0.249934  1
