# generated using pymatgen
data_Rb3Ba3LuAs4
_symmetry_space_group_name_H-M   'P 1'
_cell_length_a   10.94238900
_cell_length_b   10.94238888
_cell_length_c   8.10370300
_cell_angle_alpha   90.00000000
_cell_angle_beta   90.00000000
_cell_angle_gamma   119.99999735
_symmetry_Int_Tables_number   1
_chemical_formula_structural   Rb3Ba3LuAs4
_chemical_formula_sum   'Rb6 Ba6 Lu2 As8'
_cell_volume   840.30791428
_cell_formula_units_Z   2
loop_
 _symmetry_equiv_pos_site_id
 _symmetry_equiv_pos_as_xyz
  1  'x, y, z'
loop_
 _atom_site_type_symbol
 _atom_site_label
 _atom_site_symmetry_multiplicity
 _atom_site_fract_x
 _atom_site_fract_y
 _atom_site_fract_z
 _atom_site_occupancy
  Rb  Rb0  1  0.134767  0.865233  0.174137  1
  Rb  Rb1  1  0.269537  0.134767  0.674137  1
  Rb  Rb2  1  0.865233  0.730463  0.674137  1
  Rb  Rb3  1  0.134767  0.269537  0.174137  1
  Rb  Rb4  1  0.730463  0.865233  0.174137  1
  Rb  Rb5  1  0.865233  0.134767  0.674137  1
  Ba  Ba6  1  0.468926  0.937851  0.498141  1
  Ba  Ba7  1  0.531074  0.062149  0.998141  1
  Ba  Ba8  1  0.937851  0.468926  0.998141  1
  Ba  Ba9  1  0.468926  0.531074  0.498141  1
  Ba  Ba10  1  0.531074  0.468926  0.998141  1
  Ba  Ba11  1  0.062149  0.531074  0.498141  1
  Lu  Lu12  1  0.333333  0.666667  0.889029  1
  Lu  Lu13  1  0.666667  0.333333  0.389029  1
  As  As14  1  0.198698  0.801302  0.767238  1
  As  As15  1  0.397397  0.198698  0.267238  1
  As  As16  1  0.801302  0.602603  0.267238  1
  As  As17  1  0.198698  0.397397  0.767238  1
  As  As18  1  0.602603  0.801302  0.767238  1
  As  As19  1  0.801302  0.198698  0.267238  1
  As  As20  1  0.333333  0.666667  0.233104  1
  As  As21  1  0.666667  0.333333  0.733104  1
