# generated using pymatgen
data_Yb5(CdAu5)2
_symmetry_space_group_name_H-M   'P 1'
_cell_length_a   8.60940712
_cell_length_b   8.60940705
_cell_length_c   10.28632100
_cell_angle_alpha   90.00000000
_cell_angle_beta   90.00000000
_cell_angle_gamma   72.39089364
_symmetry_Int_Tables_number   1
_chemical_formula_structural   Yb5(CdAu5)2
_chemical_formula_sum   'Yb10 Cd4 Au20'
_cell_volume   726.71552654
_cell_formula_units_Z   2
loop_
 _symmetry_equiv_pos_site_id
 _symmetry_equiv_pos_as_xyz
  1  'x, y, z'
loop_
 _atom_site_type_symbol
 _atom_site_label
 _atom_site_symmetry_multiplicity
 _atom_site_fract_x
 _atom_site_fract_y
 _atom_site_fract_z
 _atom_site_occupancy
  Yb  Yb0  1  0.000000  0.000000  0.000000  1
  Yb  Yb1  1  0.302057  0.302057  0.000000  1
  Yb  Yb2  1  0.697944  0.697944  0.000000  1
  Yb  Yb3  1  0.693762  0.306237  0.200391  1
  Yb  Yb4  1  0.193762  0.806237  0.299609  1
  Yb  Yb5  1  0.197943  0.197943  0.500000  1
  Yb  Yb6  1  0.500000  0.500000  0.500000  1
  Yb  Yb7  1  0.802057  0.802057  0.500000  1
  Yb  Yb8  1  0.806237  0.193762  0.700391  1
  Yb  Yb9  1  0.306237  0.693762  0.799609  1
  Cd  Cd10  1  0.469699  0.030301  0.250000  1
  Cd  Cd11  1  0.969699  0.530301  0.250000  1
  Cd  Cd12  1  0.030301  0.469699  0.750000  1
  Cd  Cd13  1  0.530301  0.969699  0.750000  1
  Au  Au14  1  0.068171  0.644700  0.011164  1
  Au  Au15  1  0.355300  0.931829  0.011164  1
  Au  Au16  1  0.398977  0.601023  0.096046  1
  Au  Au17  1  0.114140  0.173475  0.211289  1
  Au  Au18  1  0.826526  0.885861  0.211289  1
  Au  Au19  1  0.326525  0.385860  0.288712  1
  Au  Au20  1  0.614139  0.673475  0.288712  1
  Au  Au21  1  0.898977  0.101023  0.403955  1
  Au  Au22  1  0.568171  0.144700  0.488836  1
  Au  Au23  1  0.855300  0.431829  0.488836  1
  Au  Au24  1  0.144700  0.568171  0.511163  1
  Au  Au25  1  0.431829  0.855300  0.511163  1
  Au  Au26  1  0.101023  0.898977  0.596046  1
  Au  Au27  1  0.385860  0.326525  0.711288  1
  Au  Au28  1  0.673475  0.614139  0.711288  1
  Au  Au29  1  0.173475  0.114140  0.788712  1
  Au  Au30  1  0.885861  0.826526  0.788712  1
  Au  Au31  1  0.601023  0.398977  0.903955  1
  Au  Au32  1  0.644700  0.068171  0.988836  1
  Au  Au33  1  0.931829  0.355300  0.988836  1
