# generated using pymatgen
data_La11Nd9(CoGe2)4
_symmetry_space_group_name_H-M   'P 1'
_cell_length_a   8.09550524
_cell_length_b   8.78565400
_cell_length_c   12.41589400
_cell_angle_alpha   90.00000000
_cell_angle_beta   90.29901075
_cell_angle_gamma   90.00000000
_symmetry_Int_Tables_number   1
_chemical_formula_structural   La11Nd9(CoGe2)4
_chemical_formula_sum   'La11 Nd9 Co4 Ge8'
_cell_volume   883.05984370
_cell_formula_units_Z   1
loop_
 _symmetry_equiv_pos_site_id
 _symmetry_equiv_pos_as_xyz
  1  'x, y, z'
loop_
 _atom_site_type_symbol
 _atom_site_label
 _atom_site_symmetry_multiplicity
 _atom_site_fract_x
 _atom_site_fract_y
 _atom_site_fract_z
 _atom_site_occupancy
  La  La0  1  0.166387  0.750000  0.212732  1
  La  La1  1  0.665885  0.250000  0.287431  1
  La  La2  1  0.832702  0.250000  0.786130  1
  La  La3  1  0.821788  0.973578  0.066713  1
  La  La4  1  0.321955  0.025373  0.434147  1
  La  La5  1  0.178315  0.473270  0.933024  1
  La  La6  1  0.677655  0.527444  0.567087  1
  La  La7  1  0.178315  0.026730  0.933024  1
  La  La8  1  0.677655  0.972556  0.567087  1
  La  La9  1  0.821788  0.526422  0.066713  1
  La  La10  1  0.321955  0.474627  0.434147  1
  Nd  Nd11  1  0.331433  0.750000  0.715065  1
  Nd  Nd12  1  0.467158  0.750000  0.998761  1
  Nd  Nd13  1  0.968639  0.250000  0.501742  1
  Nd  Nd14  1  0.533375  0.250000  0.000199  1
  Nd  Nd15  1  0.034022  0.750000  0.499340  1
  Nd  Nd16  1  0.642492  0.750000  0.291582  1
  Nd  Nd17  1  0.141936  0.250000  0.207731  1
  Nd  Nd18  1  0.357522  0.250000  0.707684  1
  Nd  Nd19  1  0.858790  0.750000  0.791775  1
  Co  Co20  1  0.416653  0.750000  0.477483  1
  Co  Co21  1  0.913561  0.250000  0.022272  1
  Co  Co22  1  0.585587  0.250000  0.523879  1
  Co  Co23  1  0.084878  0.750000  0.976348  1
  Ge  Ge24  1  0.934611  0.995323  0.330283  1
  Ge  Ge25  1  0.433661  0.005157  0.169177  1
  Ge  Ge26  1  0.067937  0.496673  0.670359  1
  Ge  Ge27  1  0.563566  0.506037  0.829131  1
  Ge  Ge28  1  0.067937  0.003327  0.670359  1
  Ge  Ge29  1  0.563566  0.993963  0.829131  1
  Ge  Ge30  1  0.934611  0.504677  0.330283  1
  Ge  Ge31  1  0.433661  0.494843  0.169177  1
