# generated using pymatgen
data_HoTi4Re13Tc11
_symmetry_space_group_name_H-M   'P 1'
_cell_length_a   8.37987902
_cell_length_b   8.38280834
_cell_length_c   8.37987800
_cell_angle_alpha   109.50217580
_cell_angle_beta   109.45533212
_cell_angle_gamma   109.50218294
_symmetry_Int_Tables_number   1
_chemical_formula_structural   HoTi4Re13Tc11
_chemical_formula_sum   'Ho1 Ti4 Re13 Tc11'
_cell_volume   452.89347936
_cell_formula_units_Z   1
loop_
 _symmetry_equiv_pos_site_id
 _symmetry_equiv_pos_as_xyz
  1  'x, y, z'
loop_
 _atom_site_type_symbol
 _atom_site_label
 _atom_site_symmetry_multiplicity
 _atom_site_fract_x
 _atom_site_fract_y
 _atom_site_fract_z
 _atom_site_occupancy
  Ho  Ho0  1  0.000047  0.999732  0.000047  1
  Ti  Ti1  1  0.626240  0.999387  0.999819  1
  Ti  Ti2  1  0.999642  0.625910  0.999642  1
  Ti  Ti3  1  0.999819  0.999387  0.626240  1
  Ti  Ti4  1  0.372826  0.374421  0.372826  1
  Re  Re5  1  0.599069  0.279904  0.599069  1
  Re  Re6  1  0.378766  0.194512  0.999810  1
  Re  Re7  1  0.184199  0.805226  0.805393  1
  Re  Re8  1  0.379177  0.001031  0.195432  1
  Re  Re9  1  0.194994  0.378718  0.000100  1
  Re  Re10  1  0.000100  0.378718  0.194994  1
  Re  Re11  1  0.805604  0.182825  0.805604  1
  Re  Re12  1  0.805393  0.805226  0.184199  1
  Re  Re13  1  0.999810  0.194512  0.378766  1
  Re  Re14  1  0.195432  0.001031  0.379177  1
  Re  Re15  1  0.620802  0.621250  0.815771  1
  Re  Re16  1  0.815771  0.621250  0.620802  1
  Re  Re17  1  0.620525  0.814622  0.620525  1
  Tc  Tc18  1  0.401861  0.681743  0.000408  1
  Tc  Tc19  1  0.720598  0.318881  0.318220  1
  Tc  Tc20  1  0.401809  0.000308  0.681288  1
  Tc  Tc21  1  0.681962  0.402032  0.000275  1
  Tc  Tc22  1  0.000275  0.402032  0.681962  1
  Tc  Tc23  1  0.317612  0.719724  0.317612  1
  Tc  Tc24  1  0.318220  0.318881  0.720598  1
  Tc  Tc25  1  0.000408  0.681743  0.401861  1
  Tc  Tc26  1  0.681288  0.000308  0.401809  1
  Tc  Tc27  1  0.598160  0.598343  0.279593  1
  Tc  Tc28  1  0.279593  0.598343  0.598160  1
