# generated using pymatgen
data_Ca2ZnSi3
_symmetry_space_group_name_H-M   'P 1'
_cell_length_a   8.31011217
_cell_length_b   8.16794081
_cell_length_c   5.94979469
_cell_angle_alpha   70.11622809
_cell_angle_beta   67.56247511
_cell_angle_gamma   42.32131329
_symmetry_Int_Tables_number   1
_chemical_formula_structural   Ca2ZnSi3
_chemical_formula_sum   'Ca4 Zn2 Si6'
_cell_volume   250.23310110
_cell_formula_units_Z   2
loop_
 _symmetry_equiv_pos_site_id
 _symmetry_equiv_pos_as_xyz
  1  'x, y, z'
loop_
 _atom_site_type_symbol
 _atom_site_label
 _atom_site_symmetry_multiplicity
 _atom_site_fract_x
 _atom_site_fract_y
 _atom_site_fract_z
 _atom_site_occupancy
  Ca  Ca0  1  0.750000  0.750000  0.750000  1
  Ca  Ca1  1  0.755228  0.244772  0.755228  1
  Ca  Ca2  1  0.250000  0.250000  0.250000  1
  Ca  Ca3  1  0.244772  0.755228  0.244772  1
  Zn  Zn4  1  0.666586  0.666586  0.333414  1
  Zn  Zn5  1  0.333414  0.333414  0.666586  1
  Si  Si6  1  0.833021  0.332516  0.166979  1
  Si  Si7  1  0.667484  0.166979  0.332516  1
  Si  Si8  1  0.166979  0.667484  0.833021  1
  Si  Si9  1  0.332516  0.833021  0.667484  1
  Si  Si10  1  0.165710  0.165710  0.834290  1
  Si  Si11  1  0.834290  0.834290  0.165710  1
