# generated using pymatgen
data_Ho2MnGa3Co13
_symmetry_space_group_name_H-M   'P 1'
_cell_length_a   6.34598501
_cell_length_b   6.34598503
_cell_length_c   6.34598625
_cell_angle_alpha   82.94516100
_cell_angle_beta   82.94517566
_cell_angle_gamma   82.94517912
_symmetry_Int_Tables_number   1
_chemical_formula_structural   Ho2MnGa3Co13
_chemical_formula_sum   'Ho2 Mn1 Ga3 Co13'
_cell_volume   250.19713967
_cell_formula_units_Z   1
loop_
 _symmetry_equiv_pos_site_id
 _symmetry_equiv_pos_as_xyz
  1  'x, y, z'
loop_
 _atom_site_type_symbol
 _atom_site_label
 _atom_site_symmetry_multiplicity
 _atom_site_fract_x
 _atom_site_fract_y
 _atom_site_fract_z
 _atom_site_occupancy
  Ho  Ho0  1  0.657154  0.657154  0.657154  1
  Ho  Ho1  1  0.331715  0.331715  0.331715  1
  Mn  Mn2  1  0.907794  0.907794  0.907794  1
  Ga  Ga3  1  0.157735  0.650197  0.650197  1
  Ga  Ga4  1  0.650197  0.650197  0.157735  1
  Ga  Ga5  1  0.650197  0.157735  0.650197  1
  Co  Co6  1  0.097735  0.097735  0.097735  1
  Co  Co7  1  0.005355  0.005355  0.495085  1
  Co  Co8  1  0.005355  0.495085  0.005355  1
  Co  Co9  1  0.495085  0.005355  0.005355  1
  Co  Co10  1  0.289832  0.710602  0.003211  1
  Co  Co11  1  0.710602  0.003211  0.289832  1
  Co  Co12  1  0.003211  0.289832  0.710602  1
  Co  Co13  1  0.289832  0.003211  0.710602  1
  Co  Co14  1  0.003211  0.710602  0.289832  1
  Co  Co15  1  0.710602  0.289832  0.003211  1
  Co  Co16  1  0.854834  0.339777  0.339777  1
  Co  Co17  1  0.339777  0.339777  0.854834  1
  Co  Co18  1  0.339777  0.854834  0.339777  1
