# generated using pymatgen
data_Y3Ho(Al8Pd3)3
_symmetry_space_group_name_H-M   'P 1'
_cell_length_a   7.54786566
_cell_length_b   7.57944067
_cell_length_c   13.20748315
_cell_angle_alpha   84.59217642
_cell_angle_beta   79.14201845
_cell_angle_gamma   60.02160882
_symmetry_Int_Tables_number   1
_chemical_formula_structural   Y3Ho(Al8Pd3)3
_chemical_formula_sum   'Y3 Ho1 Al24 Pd9'
_cell_volume   642.77795882
_cell_formula_units_Z   1
loop_
 _symmetry_equiv_pos_site_id
 _symmetry_equiv_pos_as_xyz
  1  'x, y, z'
loop_
 _atom_site_type_symbol
 _atom_site_label
 _atom_site_symmetry_multiplicity
 _atom_site_fract_x
 _atom_site_fract_y
 _atom_site_fract_z
 _atom_site_occupancy
  Y  Y0  1  0.393235  0.169017  0.808676  1
  Y  Y1  1  0.606778  0.830981  0.191332  1
  Y  Y2  1  0.733728  0.498133  0.808615  1
  Ho  Ho3  1  0.266176  0.501846  0.191575  1
  Al  Al4  1  0.684852  0.833690  0.944926  1
  Al  Al5  1  0.315107  0.166582  0.055271  1
  Al  Al6  1  0.146109  0.833179  0.561054  1
  Al  Al7  1  0.853914  0.166805  0.438906  1
  Al  Al8  1  0.478895  0.166697  0.558758  1
  Al  Al9  1  0.521091  0.833320  0.441204  1
  Al  Al10  1  0.216770  0.165402  0.329667  1
  Al  Al11  1  0.783309  0.834756  0.670170  1
  Al  Al12  1  0.436887  0.506742  0.670184  1
  Al  Al13  1  0.562966  0.493264  0.329635  1
  Al  Al14  1  0.109209  0.159515  0.669138  1
  Al  Al15  1  0.891038  0.840291  0.330692  1
  Al  Al16  1  0.352341  0.500086  0.945341  1
  Al  Al17  1  0.647200  0.499932  0.055054  1
  Al  Al18  1  0.015374  0.167208  0.954067  1
  Al  Al19  1  0.984807  0.832526  0.046145  1
  Al  Al20  1  0.187180  0.499354  0.440845  1
  Al  Al21  1  0.812890  0.500652  0.559014  1
  Al  Al22  1  0.733179  0.164227  0.183577  1
  Al  Al23  1  0.266498  0.836097  0.816432  1
  Al  Al24  1  0.061796  0.631080  0.815133  1
  Al  Al25  1  0.938524  0.368930  0.184869  1
  Al  Al26  1  0.855405  0.041424  0.815968  1
  Al  Al27  1  0.144599  0.958228  0.184036  1
  Pd  Pd28  1  0.119459  0.492710  0.638242  1
  Pd  Pd29  1  0.880819  0.507320  0.361593  1
  Pd  Pd30  1  0.657147  0.171284  0.999747  1
  Pd  Pd31  1  0.342789  0.828722  0.000369  1
  Pd  Pd32  1  0.538217  0.167088  0.361456  1
  Pd  Pd33  1  0.461630  0.833090  0.638397  1
  Pd  Pd34  1  0.777974  0.174743  0.637687  1
  Pd  Pd35  1  0.222103  0.825058  0.362157  1
  Pd  Pd36  1  0.000007  0.500021  0.000073  1
