# generated using pymatgen
data_Ba8Dy2Y6Mn5Fe3O32
_symmetry_space_group_name_H-M   'P 1'
_cell_length_a   5.75984600
_cell_length_b   10.38320100
_cell_length_c   13.35746800
_cell_angle_alpha   90.00000000
_cell_angle_beta   90.00000000
_cell_angle_gamma   90.00000000
_symmetry_Int_Tables_number   1
_chemical_formula_structural   Ba8Dy2Y6Mn5Fe3O32
_chemical_formula_sum   'Ba8 Dy2 Y6 Mn5 Fe3 O32'
_cell_volume   798.85190578
_cell_formula_units_Z   1
loop_
 _symmetry_equiv_pos_site_id
 _symmetry_equiv_pos_as_xyz
  1  'x, y, z'
loop_
 _atom_site_type_symbol
 _atom_site_label
 _atom_site_symmetry_multiplicity
 _atom_site_fract_x
 _atom_site_fract_y
 _atom_site_fract_z
 _atom_site_occupancy
  Ba  Ba0  1  0.250000  0.822431  0.710874  1
  Ba  Ba1  1  0.250000  0.676412  0.209628  1
  Ba  Ba2  1  0.750000  0.175605  0.290119  1
  Ba  Ba3  1  0.750000  0.325755  0.789897  1
  Ba  Ba4  1  0.250000  0.099238  0.918927  1
  Ba  Ba5  1  0.250000  0.400174  0.418244  1
  Ba  Ba6  1  0.750000  0.901080  0.081204  1
  Ba  Ba7  1  0.750000  0.597770  0.582893  1
  Dy  Dy8  1  0.250000  0.486100  0.913303  1
  Dy  Dy9  1  0.250000  0.016039  0.414035  1
  Y  Y10  1  0.750000  0.517514  0.085587  1
  Y  Y11  1  0.750000  0.981738  0.586340  1
  Y  Y12  1  0.250000  0.188396  0.642315  1
  Y  Y13  1  0.250000  0.310365  0.144137  1
  Y  Y14  1  0.750000  0.809659  0.355535  1
  Y  Y15  1  0.750000  0.690583  0.855731  1
  Mn  Mn16  1  0.250000  0.775355  0.962252  1
  Mn  Mn17  1  0.250000  0.723987  0.463227  1
  Mn  Mn18  1  0.750000  0.226051  0.037968  1
  Mn  Mn19  1  0.750000  0.273199  0.536378  1
  Mn  Mn20  1  0.250000  0.474717  0.690269  1
  Fe  Fe21  1  0.250000  0.021207  0.191729  1
  Fe  Fe22  1  0.750000  0.520580  0.308371  1
  Fe  Fe23  1  0.750000  0.979975  0.808791  1
  O  O24  1  0.250000  0.887171  0.091032  1
  O  O25  1  0.250000  0.611038  0.592249  1
  O  O26  1  0.750000  0.114811  0.909039  1
  O  O27  1  0.750000  0.385807  0.408314  1
  O  O28  1  0.250000  0.323938  0.785835  1
  O  O29  1  0.250000  0.182181  0.289292  1
  O  O30  1  0.750000  0.682475  0.211551  1
  O  O31  1  0.750000  0.818655  0.710923  1
  O  O32  1  0.510736  0.137820  0.505225  1
  O  O33  1  0.988877  0.359804  0.005413  1
  O  O34  1  0.012645  0.858062  0.494520  1
  O  O35  1  0.487796  0.641554  0.994934  1
  O  O36  1  0.487355  0.858062  0.494520  1
  O  O37  1  0.012204  0.641554  0.994934  1
  O  O38  1  0.989264  0.137820  0.505225  1
  O  O39  1  0.511123  0.359804  0.005413  1
  O  O40  1  0.509113  0.056071  0.715420  1
  O  O41  1  0.990510  0.445133  0.214895  1
  O  O42  1  0.009525  0.944543  0.285321  1
  O  O43  1  0.492443  0.557372  0.786703  1
  O  O44  1  0.490475  0.944543  0.285321  1
  O  O45  1  0.007557  0.557372  0.786703  1
  O  O46  1  0.990887  0.056071  0.715420  1
  O  O47  1  0.509490  0.445133  0.214895  1
  O  O48  1  0.995537  0.364080  0.608828  1
  O  O49  1  0.503903  0.134511  0.110607  1
  O  O50  1  0.495242  0.633809  0.390275  1
  O  O51  1  0.004415  0.867238  0.889867  1
  O  O52  1  0.004758  0.633809  0.390275  1
  O  O53  1  0.495585  0.867238  0.889867  1
  O  O54  1  0.504463  0.364080  0.608828  1
  O  O55  1  0.996097  0.134511  0.110607  1
