# generated using pymatgen
data_TmLuV3Co9As7
_symmetry_space_group_name_H-M   'P 1'
_cell_length_a   3.75097800
_cell_length_b   9.37317814
_cell_length_c   9.37317800
_cell_angle_alpha   119.99999245
_cell_angle_beta   90.00000000
_cell_angle_gamma   90.00000000
_symmetry_Int_Tables_number   1
_chemical_formula_structural   TmLuV3Co9As7
_chemical_formula_sum   'Tm1 Lu1 V3 Co9 As7'
_cell_volume   285.39668031
_cell_formula_units_Z   1
loop_
 _symmetry_equiv_pos_site_id
 _symmetry_equiv_pos_as_xyz
  1  'x, y, z'
loop_
 _atom_site_type_symbol
 _atom_site_label
 _atom_site_symmetry_multiplicity
 _atom_site_fract_x
 _atom_site_fract_y
 _atom_site_fract_z
 _atom_site_occupancy
  Tm  Tm0  1  0.000000  0.666667  0.333333  1
  Lu  Lu1  1  0.500000  0.333333  0.666667  1
  V  V2  1  0.500000  0.782024  0.899527  1
  V  V3  1  0.500000  0.117505  0.217976  1
  V  V4  1  0.500000  0.100473  0.882495  1
  Co  Co5  1  0.000000  0.568074  0.939903  1
  Co  Co6  1  0.000000  0.371829  0.431926  1
  Co  Co7  1  0.000000  0.060097  0.628171  1
  Co  Co8  1  0.000000  0.877943  0.158284  1
  Co  Co9  1  0.000000  0.280340  0.122057  1
  Co  Co10  1  0.000000  0.841716  0.719660  1
  Co  Co11  1  0.500000  0.950003  0.383039  1
  Co  Co12  1  0.500000  0.433035  0.049997  1
  Co  Co13  1  0.500000  0.616961  0.566965  1
  As  As14  1  0.000000  0.000000  0.000000  1
  As  As15  1  0.500000  0.707773  0.119102  1
  As  As16  1  0.500000  0.411329  0.292227  1
  As  As17  1  0.500000  0.880898  0.588671  1
  As  As18  1  0.000000  0.585828  0.702481  1
  As  As19  1  0.000000  0.116654  0.414172  1
  As  As20  1  0.000000  0.297519  0.883346  1
