# generated using pymatgen
data_Ho5Tm(Zr2Sn3)2
_symmetry_space_group_name_H-M   'P 1'
_cell_length_a   6.10130100
_cell_length_b   8.80852162
_cell_length_c   8.81445215
_cell_angle_alpha   59.97676290
_cell_angle_beta   90.00026148
_cell_angle_gamma   90.00003654
_symmetry_Int_Tables_number   1
_chemical_formula_structural   Ho5Tm(Zr2Sn3)2
_chemical_formula_sum   'Ho5 Tm1 Zr4 Sn6'
_cell_volume   410.15658898
_cell_formula_units_Z   1
loop_
 _symmetry_equiv_pos_site_id
 _symmetry_equiv_pos_as_xyz
  1  'x, y, z'
loop_
 _atom_site_type_symbol
 _atom_site_label
 _atom_site_symmetry_multiplicity
 _atom_site_fract_x
 _atom_site_fract_y
 _atom_site_fract_z
 _atom_site_occupancy
  Ho  Ho0  1  0.749998  0.239810  0.760054  1
  Ho  Ho1  1  0.750004  0.760210  0.999880  1
  Ho  Ho2  1  0.750006  0.999980  0.240072  1
  Ho  Ho3  1  0.249997  0.760093  0.239810  1
  Ho  Ho4  1  0.250004  0.239886  0.999882  1
  Tm  Tm5  1  0.250004  0.000015  0.759931  1
  Zr  Zr6  1  0.499969  0.333382  0.333338  1
  Zr  Zr7  1  0.499966  0.666621  0.666706  1
  Zr  Zr8  1  0.000033  0.666617  0.666709  1
  Zr  Zr9  1  0.000036  0.333380  0.333340  1
  Sn  Sn10  1  0.749999  0.599762  0.400254  1
  Sn  Sn11  1  0.749995  0.400206  0.000033  1
  Sn  Sn12  1  0.749997  0.999987  0.599841  1
  Sn  Sn13  1  0.250000  0.399885  0.599896  1
  Sn  Sn14  1  0.249995  0.600153  0.999760  1
  Sn  Sn15  1  0.250000  0.000014  0.400493  1
