# generated using pymatgen
data_Nd3Cd3RhAu2
_symmetry_space_group_name_H-M   'P 1'
_cell_length_a   7.95544600
_cell_length_b   7.95544658
_cell_length_c   3.95629800
_cell_angle_alpha   90.00000000
_cell_angle_beta   90.00000000
_cell_angle_gamma   119.99999760
_symmetry_Int_Tables_number   1
_chemical_formula_structural   Nd3Cd3RhAu2
_chemical_formula_sum   'Nd3 Cd3 Rh1 Au2'
_cell_volume   216.84466139
_cell_formula_units_Z   1
loop_
 _symmetry_equiv_pos_site_id
 _symmetry_equiv_pos_as_xyz
  1  'x, y, z'
loop_
 _atom_site_type_symbol
 _atom_site_label
 _atom_site_symmetry_multiplicity
 _atom_site_fract_x
 _atom_site_fract_y
 _atom_site_fract_z
 _atom_site_occupancy
  Nd  Nd0  1  0.581090  0.979367  0.000000  1
  Nd  Nd1  1  0.020633  0.601723  0.000000  1
  Nd  Nd2  1  0.398277  0.418910  0.000000  1
  Cd  Cd3  1  0.259308  0.996357  0.500000  1
  Cd  Cd4  1  0.003643  0.262951  0.500000  1
  Cd  Cd5  1  0.737049  0.740692  0.500000  1
  Rh  Rh6  1  0.333333  0.666667  0.500000  1
  Au  Au7  1  0.666667  0.333333  0.500000  1
  Au  Au8  1  0.000000  0.000000  0.000000  1
