# generated using pymatgen
data_CaYAl20Ru3Rh
_symmetry_space_group_name_H-M   'P 1'
_cell_length_a   6.86857172
_cell_length_b   6.86811576
_cell_length_c   9.16141787
_cell_angle_alpha   90.24456808
_cell_angle_beta   90.09798925
_cell_angle_gamma   96.77028176
_symmetry_Int_Tables_number   1
_chemical_formula_structural   CaYAl20Ru3Rh
_chemical_formula_sum   'Ca1 Y1 Al20 Ru3 Rh1'
_cell_volume   429.16338867
_cell_formula_units_Z   1
loop_
 _symmetry_equiv_pos_site_id
 _symmetry_equiv_pos_as_xyz
  1  'x, y, z'
loop_
 _atom_site_type_symbol
 _atom_site_label
 _atom_site_symmetry_multiplicity
 _atom_site_fract_x
 _atom_site_fract_y
 _atom_site_fract_z
 _atom_site_occupancy
  Ca  Ca0  1  0.873536  0.124782  0.750192  1
  Y  Y1  1  0.127645  0.874770  0.249894  1
  Al  Al2  1  0.620813  0.376032  0.547631  1
  Al  Al3  1  0.379148  0.623564  0.447654  1
  Al  Al4  1  0.377206  0.623084  0.050849  1
  Al  Al5  1  0.623216  0.376207  0.953588  1
  Al  Al6  1  0.226483  0.226028  0.498662  1
  Al  Al7  1  0.772555  0.775461  0.500488  1
  Al  Al8  1  0.773198  0.775093  0.000170  1
  Al  Al9  1  0.225376  0.226030  0.001000  1
  Al  Al10  1  0.844816  0.156007  0.099573  1
  Al  Al11  1  0.158265  0.840617  0.900836  1
  Al  Al12  1  0.159749  0.842073  0.600963  1
  Al  Al13  1  0.842788  0.154819  0.398458  1
  Al  Al14  1  0.857924  0.588116  0.751062  1
  Al  Al15  1  0.141167  0.413635  0.249183  1
  Al  Al16  1  0.411994  0.141183  0.750415  1
  Al  Al17  1  0.587109  0.859932  0.249518  1
  Al  Al18  1  0.222041  0.479210  0.752695  1
  Al  Al19  1  0.778245  0.518817  0.247415  1
  Al  Al20  1  0.520659  0.779901  0.749465  1
  Al  Al21  1  0.481567  0.220674  0.250377  1
  Ru  Ru22  1  0.999797  0.502034  0.000946  1
  Ru  Ru23  1  0.497675  0.000004  0.000895  1
  Ru  Ru24  1  0.497818  0.999989  0.498987  1
  Rh  Rh25  1  0.999211  0.501937  0.499083  1
