# generated using pymatgen
data_BeGa2(TeO3)4
_symmetry_space_group_name_H-M   'P 1'
_cell_length_a   9.13492390
_cell_length_b   9.13492433
_cell_length_c   9.13492408
_cell_angle_alpha   109.97884573
_cell_angle_beta   109.97885044
_cell_angle_gamma   108.46066771
_symmetry_Int_Tables_number   1
_chemical_formula_structural   BeGa2(TeO3)4
_chemical_formula_sum   'Be2 Ga4 Te8 O24'
_cell_volume   586.66721212
_cell_formula_units_Z   2
loop_
 _symmetry_equiv_pos_site_id
 _symmetry_equiv_pos_as_xyz
  1  'x, y, z'
loop_
 _atom_site_type_symbol
 _atom_site_label
 _atom_site_symmetry_multiplicity
 _atom_site_fract_x
 _atom_site_fract_y
 _atom_site_fract_z
 _atom_site_occupancy
  Be  Be0  1  0.500000  0.500000  0.000000  1
  Be  Be1  1  0.250000  0.750000  0.500000  1
  Ga  Ga2  1  0.999791  0.625000  0.874791  1
  Ga  Ga3  1  0.750209  0.125000  0.125209  1
  Ga  Ga4  1  0.875000  0.000209  0.625209  1
  Ga  Ga5  1  0.375000  0.249791  0.374791  1
  Te  Te6  1  0.900171  0.856644  0.241897  1
  Te  Te7  1  0.849829  0.591726  0.456473  1
  Te  Te8  1  0.135254  0.393356  0.543527  1
  Te  Te9  1  0.614746  0.658274  0.758103  1
  Te  Te10  1  0.408274  0.864746  0.258103  1
  Te  Te11  1  0.341726  0.099829  0.956473  1
  Te  Te12  1  0.606644  0.150171  0.741897  1
  Te  Te13  1  0.143356  0.385254  0.043527  1
  O  O14  1  0.699646  0.655382  0.187555  1
  O  O15  1  0.050354  0.737909  0.455736  1
  O  O16  1  0.282173  0.594618  0.544264  1
  O  O17  1  0.467827  0.512091  0.812445  1
  O  O18  1  0.213015  0.831292  0.054108  1
  O  O19  1  0.536985  0.091094  0.118276  1
  O  O20  1  0.777183  0.158906  0.945892  1
  O  O21  1  0.972817  0.418708  0.881724  1
  O  O22  1  0.920862  0.337317  0.339532  1
  O  O23  1  0.997785  0.581331  0.660468  1
  O  O24  1  0.829138  0.668669  0.916455  1
  O  O25  1  0.752215  0.912683  0.083545  1
  O  O26  1  0.087317  0.170862  0.839532  1
  O  O27  1  0.331331  0.247785  0.160468  1
  O  O28  1  0.418669  0.079138  0.416455  1
  O  O29  1  0.662683  0.002215  0.583545  1
  O  O30  1  0.581292  0.463015  0.554108  1
  O  O31  1  0.841094  0.786985  0.618276  1
  O  O32  1  0.908906  0.027183  0.445892  1
  O  O33  1  0.168708  0.222817  0.381724  1
  O  O34  1  0.405382  0.949646  0.687555  1
  O  O35  1  0.487909  0.300354  0.955736  1
  O  O36  1  0.344618  0.532173  0.044264  1
  O  O37  1  0.262091  0.717827  0.312445  1
