# generated using pymatgen
data_Th6ZrCo17P12
_symmetry_space_group_name_H-M   'P 1'
_cell_length_a   3.82586300
_cell_length_b   10.69182400
_cell_length_c   12.57850000
_cell_angle_alpha   90.00000000
_cell_angle_beta   90.00000000
_cell_angle_gamma   90.00000000
_symmetry_Int_Tables_number   1
_chemical_formula_structural   Th6ZrCo17P12
_chemical_formula_sum   'Th6 Zr1 Co17 P12'
_cell_volume   514.52925118
_cell_formula_units_Z   1
loop_
 _symmetry_equiv_pos_site_id
 _symmetry_equiv_pos_as_xyz
  1  'x, y, z'
loop_
 _atom_site_type_symbol
 _atom_site_label
 _atom_site_symmetry_multiplicity
 _atom_site_fract_x
 _atom_site_fract_y
 _atom_site_fract_z
 _atom_site_occupancy
  Th  Th0  1  0.000000  0.500000  0.528701  1
  Th  Th1  1  0.500000  0.000000  0.479663  1
  Th  Th2  1  0.500000  0.818376  0.210306  1
  Th  Th3  1  0.500000  0.181624  0.210306  1
  Th  Th4  1  0.000000  0.685910  0.794505  1
  Th  Th5  1  0.000000  0.314090  0.794505  1
  Zr  Zr6  1  0.500000  0.500000  0.148841  1
  Co  Co7  1  0.000000  0.000000  0.838649  1
  Co  Co8  1  0.500000  0.500000  0.703210  1
  Co  Co9  1  0.000000  0.000000  0.296705  1
  Co  Co10  1  0.000000  0.500000  0.981612  1
  Co  Co11  1  0.500000  0.000000  0.016729  1
  Co  Co12  1  0.500000  0.327145  0.986994  1
  Co  Co13  1  0.500000  0.672855  0.986994  1
  Co  Co14  1  0.000000  0.160577  0.001882  1
  Co  Co15  1  0.000000  0.839423  0.001882  1
  Co  Co16  1  0.500000  0.298964  0.431967  1
  Co  Co17  1  0.500000  0.701036  0.431967  1
  Co  Co18  1  0.000000  0.199121  0.572174  1
  Co  Co19  1  0.000000  0.800879  0.572174  1
  Co  Co20  1  0.500000  0.882529  0.712955  1
  Co  Co21  1  0.500000  0.117471  0.712955  1
  Co  Co22  1  0.000000  0.621181  0.294551  1
  Co  Co23  1  0.000000  0.378819  0.294551  1
  P  P24  1  0.500000  0.500000  0.884064  1
  P  P25  1  0.000000  0.000000  0.113980  1
  P  P26  1  0.500000  0.500000  0.353974  1
  P  P27  1  0.000000  0.000000  0.660345  1
  P  P28  1  0.500000  0.303505  0.614250  1
  P  P29  1  0.500000  0.696495  0.614250  1
  P  P30  1  0.000000  0.193944  0.390301  1
  P  P31  1  0.000000  0.806056  0.390301  1
  P  P32  1  0.500000  0.856440  0.893149  1
  P  P33  1  0.500000  0.143560  0.893149  1
  P  P34  1  0.000000  0.662611  0.093730  1
  P  P35  1  0.000000  0.337389  0.093730  1
