# generated using pymatgen
data_Zr5GeBi2Pb
_symmetry_space_group_name_H-M   'P 1'
_cell_length_a   8.86055259
_cell_length_b   8.86055318
_cell_length_c   5.97787300
_cell_angle_alpha   90.00000000
_cell_angle_beta   90.00000000
_cell_angle_gamma   119.96517866
_symmetry_Int_Tables_number   1
_chemical_formula_structural   Zr5GeBi2Pb
_chemical_formula_sum   'Zr10 Ge2 Bi4 Pb2'
_cell_volume   406.58489443
_cell_formula_units_Z   2
loop_
 _symmetry_equiv_pos_site_id
 _symmetry_equiv_pos_as_xyz
  1  'x, y, z'
loop_
 _atom_site_type_symbol
 _atom_site_label
 _atom_site_symmetry_multiplicity
 _atom_site_fract_x
 _atom_site_fract_y
 _atom_site_fract_z
 _atom_site_occupancy
  Zr  Zr0  1  0.666927  0.332821  0.002129  1
  Zr  Zr1  1  0.332821  0.666927  0.002129  1
  Zr  Zr2  1  0.332821  0.666927  0.497871  1
  Zr  Zr3  1  0.666927  0.332821  0.497871  1
  Zr  Zr4  1  0.739775  0.739775  0.750000  1
  Zr  Zr5  1  0.259200  0.999850  0.750000  1
  Zr  Zr6  1  0.999850  0.259200  0.750000  1
  Zr  Zr7  1  0.262832  0.262832  0.250000  1
  Zr  Zr8  1  0.738258  0.001764  0.250000  1
  Zr  Zr9  1  0.001764  0.738258  0.250000  1
  Ge  Ge10  1  0.000086  0.000086  0.000698  1
  Ge  Ge11  1  0.000086  0.000086  0.499302  1
  Bi  Bi12  1  0.393581  0.393581  0.750000  1
  Bi  Bi13  1  0.604593  0.000232  0.750000  1
  Bi  Bi14  1  0.000232  0.604593  0.750000  1
  Bi  Bi15  1  0.609110  0.609110  0.250000  1
  Pb  Pb16  1  0.390737  0.000399  0.250000  1
  Pb  Pb17  1  0.000399  0.390737  0.250000  1
