# generated using pymatgen
data_Ho2PdPtF14
_symmetry_space_group_name_H-M   'P 1'
_cell_length_a   5.52364900
_cell_length_b   8.83800096
_cell_length_c   11.93821013
_cell_angle_alpha   62.51371554
_cell_angle_beta   90.00000000
_cell_angle_gamma   90.00000000
_symmetry_Int_Tables_number   1
_chemical_formula_structural   Ho2PdPtF14
_chemical_formula_sum   'Ho4 Pd2 Pt2 F28'
_cell_volume   517.01407199
_cell_formula_units_Z   2
loop_
 _symmetry_equiv_pos_site_id
 _symmetry_equiv_pos_as_xyz
  1  'x, y, z'
loop_
 _atom_site_type_symbol
 _atom_site_label
 _atom_site_symmetry_multiplicity
 _atom_site_fract_x
 _atom_site_fract_y
 _atom_site_fract_z
 _atom_site_occupancy
  Ho  Ho0  1  0.760891  0.813755  0.764050  1
  Ho  Ho1  1  0.260891  0.186245  0.735950  1
  Ho  Ho2  1  0.238562  0.185460  0.235373  1
  Ho  Ho3  1  0.738562  0.814540  0.264627  1
  Pd  Pd4  1  0.758916  0.272124  0.956989  1
  Pd  Pd5  1  0.258916  0.727876  0.543011  1
  Pt  Pt6  1  0.241022  0.727796  0.042959  1
  Pt  Pt7  1  0.741022  0.272204  0.457041  1
  F  F8  1  0.436917  0.702849  0.915230  1
  F  F9  1  0.936917  0.297151  0.584770  1
  F  F10  1  0.564697  0.297086  0.083517  1
  F  F11  1  0.064697  0.702914  0.416483  1
  F  F12  1  0.438920  0.277769  0.542957  1
  F  F13  1  0.938920  0.722231  0.957043  1
  F  F14  1  0.558787  0.722073  0.457788  1
  F  F15  1  0.058787  0.277927  0.042212  1
  F  F16  1  0.775214  0.520335  0.858709  1
  F  F17  1  0.275214  0.479665  0.641291  1
  F  F18  1  0.225310  0.477476  0.141841  1
  F  F19  1  0.725310  0.522524  0.358159  1
  F  F20  1  0.754049  0.024544  0.049656  1
  F  F21  1  0.254049  0.975456  0.450344  1
  F  F22  1  0.245850  0.977529  0.949458  1
  F  F23  1  0.745850  0.022471  0.550542  1
  F  F24  1  0.967524  0.724782  0.635992  1
  F  F25  1  0.467524  0.275218  0.864008  1
  F  F26  1  0.035155  0.274682  0.363422  1
  F  F27  1  0.535155  0.725318  0.136578  1
  F  F28  1  0.050762  0.746192  0.175907  1
  F  F29  1  0.550762  0.253808  0.324093  1
  F  F30  1  0.947552  0.254202  0.824980  1
  F  F31  1  0.447552  0.745798  0.675020  1
  F  F32  1  0.415676  0.970104  0.232566  1
  F  F33  1  0.915676  0.029896  0.267434  1
  F  F34  1  0.584196  0.029769  0.767297  1
  F  F35  1  0.084196  0.970231  0.732703  1
