# generated using pymatgen
data_Ti6Si2Ge4MoOs5
_symmetry_space_group_name_H-M   'P 1'
_cell_length_a   6.73786052
_cell_length_b   6.92949119
_cell_length_c   7.52591681
_cell_angle_alpha   117.48209187
_cell_angle_beta   116.59261093
_cell_angle_gamma   89.99999527
_symmetry_Int_Tables_number   1
_chemical_formula_structural   Ti6Si2Ge4MoOs5
_chemical_formula_sum   'Ti6 Si2 Ge4 Mo1 Os5'
_cell_volume   269.13845215
_cell_formula_units_Z   1
loop_
 _symmetry_equiv_pos_site_id
 _symmetry_equiv_pos_as_xyz
  1  'x, y, z'
loop_
 _atom_site_type_symbol
 _atom_site_label
 _atom_site_symmetry_multiplicity
 _atom_site_fract_x
 _atom_site_fract_y
 _atom_site_fract_z
 _atom_site_occupancy
  Ti  Ti0  1  0.242025  0.464660  0.432150  1
  Ti  Ti1  1  0.809874  0.535340  0.567850  1
  Ti  Ti2  1  0.651102  0.748639  0.991200  1
  Ti  Ti3  1  0.659900  0.251361  0.008800  1
  Ti  Ti4  1  0.856525  0.057456  0.618492  1
  Ti  Ti5  1  0.238033  0.942544  0.381508  1
  Si  Si6  1  0.292276  0.280643  0.060921  1
  Si  Si7  1  0.231355  0.719357  0.939079  1
  Ge  Ge8  1  0.573322  0.837616  0.662009  1
  Ge  Ge9  1  0.911312  0.162384  0.337991  1
  Ge  Ge10  1  0.911336  0.673295  0.334385  1
  Ge  Ge11  1  0.576952  0.326705  0.665615  1
  Mo  Mo12  1  0.996218  0.000000  0.000000  1
  Os  Os13  1  0.998863  0.500000  0.000000  1
  Os  Os14  1  0.497861  0.661382  0.250453  1
  Os  Os15  1  0.247408  0.338618  0.749547  1
  Os  Os16  1  0.246583  0.910893  0.747128  1
  Os  Os17  1  0.499455  0.089107  0.252872  1
