# generated using pymatgen
data_NdSm3SiI5
_symmetry_space_group_name_H-M   'P 1'
_cell_length_a   9.98144978
_cell_length_b   9.98144893
_cell_length_c   9.00143438
_cell_angle_alpha   77.64795016
_cell_angle_beta   77.64794994
_cell_angle_gamma   24.91461434
_symmetry_Int_Tables_number   1
_chemical_formula_structural   NdSm3SiI5
_chemical_formula_sum   'Nd1 Sm3 Si1 I5'
_cell_volume   368.61784412
_cell_formula_units_Z   1
loop_
 _symmetry_equiv_pos_site_id
 _symmetry_equiv_pos_as_xyz
  1  'x, y, z'
loop_
 _atom_site_type_symbol
 _atom_site_label
 _atom_site_symmetry_multiplicity
 _atom_site_fract_x
 _atom_site_fract_y
 _atom_site_fract_z
 _atom_site_occupancy
  Nd  Nd0  1  0.499461  0.499461  0.783789  1
  Sm  Sm1  1  0.854314  0.854314  0.075766  1
  Sm  Sm2  1  0.145141  0.145141  0.927767  1
  Sm  Sm3  1  0.500538  0.500538  0.209469  1
  Si  Si4  1  0.999654  0.999654  0.999366  1
  I  I5  1  0.670949  0.670949  0.170957  1
  I  I6  1  0.326221  0.326221  0.836058  1
  I  I7  1  0.668183  0.668183  0.667818  1
  I  I8  1  0.334492  0.334492  0.335732  1
  I  I9  1  0.001046  0.001046  0.493277  1
