# generated using pymatgen
data_NdHoU2(ReB6)2
_symmetry_space_group_name_H-M   'P 1'
_cell_length_a   3.66326300
_cell_length_b   9.34801578
_cell_length_c   11.47694867
_cell_angle_alpha   89.89678371
_cell_angle_beta   90.00000000
_cell_angle_gamma   90.00000000
_symmetry_Int_Tables_number   1
_chemical_formula_structural   NdHoU2(ReB6)2
_chemical_formula_sum   'Nd2 Ho2 U4 Re4 B24'
_cell_volume   393.01875081
_cell_formula_units_Z   2
loop_
 _symmetry_equiv_pos_site_id
 _symmetry_equiv_pos_as_xyz
  1  'x, y, z'
loop_
 _atom_site_type_symbol
 _atom_site_label
 _atom_site_symmetry_multiplicity
 _atom_site_fract_x
 _atom_site_fract_y
 _atom_site_fract_z
 _atom_site_occupancy
  Nd  Nd0  1  0.000000  0.836883  0.092086  1
  Nd  Nd1  1  0.000000  0.163117  0.907914  1
  Ho  Ho2  1  0.000000  0.337520  0.408868  1
  Ho  Ho3  1  0.000000  0.662480  0.591132  1
  U  U4  1  0.000000  0.957169  0.396924  1
  U  U5  1  0.000000  0.042831  0.603076  1
  U  U6  1  0.000000  0.457144  0.103809  1
  U  U7  1  0.000000  0.542856  0.896191  1
  Re  Re8  1  0.000000  0.645278  0.319534  1
  Re  Re9  1  0.000000  0.354722  0.680466  1
  Re  Re10  1  0.000000  0.149214  0.184489  1
  Re  Re11  1  0.000000  0.850786  0.815511  1
  B  B12  1  0.500000  0.551979  0.431292  1
  B  B13  1  0.500000  0.448021  0.568708  1
  B  B14  1  0.500000  0.055903  0.072536  1
  B  B15  1  0.500000  0.944097  0.927464  1
  B  B16  1  0.500000  0.742712  0.423290  1
  B  B17  1  0.500000  0.257288  0.576710  1
  B  B18  1  0.500000  0.246196  0.079725  1
  B  B19  1  0.500000  0.753804  0.920275  1
  B  B20  1  0.500000  0.801428  0.276813  1
  B  B21  1  0.500000  0.198572  0.723187  1
  B  B22  1  0.500000  0.304036  0.226791  1
  B  B23  1  0.500000  0.695964  0.773209  1
  B  B24  1  0.500000  0.643120  0.189608  1
  B  B25  1  0.500000  0.356880  0.810392  1
  B  B26  1  0.500000  0.146529  0.313184  1
  B  B27  1  0.500000  0.853471  0.686816  1
  B  B28  1  0.500000  0.992994  0.221971  1
  B  B29  1  0.500000  0.007006  0.778029  1
  B  B30  1  0.500000  0.489922  0.281594  1
  B  B31  1  0.500000  0.510078  0.718406  1
  B  B32  1  0.500000  0.635538  0.037517  1
  B  B33  1  0.500000  0.364462  0.962483  1
  B  B34  1  0.500000  0.140500  0.461922  1
  B  B35  1  0.500000  0.859500  0.538078  1
