# generated using pymatgen
data_HoTmMn4Fe8P7
_symmetry_space_group_name_H-M   'P 1'
_cell_length_a   9.06409101
_cell_length_b   9.03032475
_cell_length_c   3.59458800
_cell_angle_alpha   90.00000000
_cell_angle_beta   90.00000000
_cell_angle_gamma   119.24725577
_symmetry_Int_Tables_number   1
_chemical_formula_structural   HoTmMn4Fe8P7
_chemical_formula_sum   'Ho1 Tm1 Mn4 Fe8 P7'
_cell_volume   256.71535333
_cell_formula_units_Z   1
loop_
 _symmetry_equiv_pos_site_id
 _symmetry_equiv_pos_as_xyz
  1  'x, y, z'
loop_
 _atom_site_type_symbol
 _atom_site_label
 _atom_site_symmetry_multiplicity
 _atom_site_fract_x
 _atom_site_fract_y
 _atom_site_fract_z
 _atom_site_occupancy
  Ho  Ho0  1  0.338374  0.669928  0.500000  1
  Tm  Tm1  1  0.660155  0.329317  0.000000  1
  Mn  Mn2  1  0.951551  0.562042  0.500000  1
  Mn  Mn3  1  0.107142  0.230651  0.500000  1
  Mn  Mn4  1  0.776645  0.879418  0.500000  1
  Mn  Mn5  1  0.122885  0.896399  0.500000  1
  Fe  Fe6  1  0.052284  0.429160  0.000000  1
  Fe  Fe7  1  0.573130  0.630797  0.000000  1
  Fe  Fe8  1  0.372560  0.946310  0.000000  1
  Fe  Fe9  1  0.271742  0.153399  0.000000  1
  Fe  Fe10  1  0.846592  0.118780  0.000000  1
  Fe  Fe11  1  0.880322  0.721151  0.000000  1
  Fe  Fe12  1  0.434042  0.383683  0.500000  1
  Fe  Fe13  1  0.613161  0.049671  0.500000  1
  P  P14  1  0.302678  0.413257  0.000000  1
  P  P15  1  0.589001  0.890253  0.000000  1
  P  P16  1  0.123813  0.711120  0.000000  1
  P  P17  1  0.406502  0.118638  0.500000  1
  P  P18  1  0.872862  0.278224  0.500000  1
  P  P19  1  0.704677  0.590244  0.500000  1
  P  P20  1  0.999881  0.997558  0.000000  1
