# generated using pymatgen
data_Pr12Ir2PtAuBr12
_symmetry_space_group_name_H-M   'P 1'
_cell_length_a   10.69608537
_cell_length_b   10.69608714
_cell_length_c   10.62964758
_cell_angle_alpha   109.66458193
_cell_angle_beta   109.66457736
_cell_angle_gamma   110.00799207
_symmetry_Int_Tables_number   1
_chemical_formula_structural   Pr12Ir2PtAuBr12
_chemical_formula_sum   'Pr12 Ir2 Pt1 Au1 Br12'
_cell_volume   925.32141986
_cell_formula_units_Z   1
loop_
 _symmetry_equiv_pos_site_id
 _symmetry_equiv_pos_as_xyz
  1  'x, y, z'
loop_
 _atom_site_type_symbol
 _atom_site_label
 _atom_site_symmetry_multiplicity
 _atom_site_fract_x
 _atom_site_fract_y
 _atom_site_fract_z
 _atom_site_occupancy
  Pr  Pr0  1  0.471705  0.493378  0.230750  1
  Pr  Pr1  1  0.754559  0.236393  0.267193  1
  Pr  Pr2  1  0.755094  0.016906  0.488603  1
  Pr  Pr3  1  0.230068  0.471249  0.493294  1
  Pr  Pr4  1  0.263607  0.745441  0.232807  1
  Pr  Pr5  1  0.028751  0.269932  0.006706  1
  Pr  Pr6  1  0.006622  0.028295  0.269250  1
  Pr  Pr7  1  0.483094  0.744906  0.011397  1
  Pr  Pr8  1  0.491745  0.233664  0.473714  1
  Pr  Pr9  1  0.014254  0.485746  0.750000  1
  Pr  Pr10  1  0.266336  0.008255  0.026286  1
  Pr  Pr11  1  0.234284  0.265716  0.750000  1
  Ir  Ir12  1  0.999142  0.249999  0.501106  1
  Ir  Ir13  1  0.250001  0.500858  0.998894  1
  Pt  Pt14  1  0.500579  0.999421  0.250000  1
  Au  Au15  1  0.250143  0.249857  0.250000  1
  Br  Br16  1  0.250538  0.756038  0.745354  1
  Br  Br17  1  0.506973  0.502112  0.751668  1
  Br  Br18  1  0.994257  0.748527  0.998496  1
  Br  Br19  1  0.743962  0.249462  0.754646  1
  Br  Br20  1  0.997888  0.993027  0.748332  1
  Br  Br21  1  0.250168  0.998246  0.501416  1
  Br  Br22  1  0.751473  0.505743  0.501504  1
  Br  Br23  1  0.501754  0.249832  0.998584  1
  Br  Br24  1  0.755214  0.744786  0.250000  1
  Br  Br25  1  0.747879  0.998001  0.993833  1
  Br  Br26  1  0.997911  0.502089  0.250000  1
  Br  Br27  1  0.501999  0.752121  0.506167  1
