# generated using pymatgen
data_Dy3Y3Al24(OsRh)4
_symmetry_space_group_name_H-M   'P 1'
_cell_length_a   8.77849069
_cell_length_b   8.82153226
_cell_length_c   9.56884700
_cell_angle_alpha   90.00000000
_cell_angle_beta   90.00000000
_cell_angle_gamma   119.46444491
_symmetry_Int_Tables_number   1
_chemical_formula_structural   Dy3Y3Al24(OsRh)4
_chemical_formula_sum   'Dy3 Y3 Al24 Os4 Rh4'
_cell_volume   645.16772462
_cell_formula_units_Z   1
loop_
 _symmetry_equiv_pos_site_id
 _symmetry_equiv_pos_as_xyz
  1  'x, y, z'
loop_
 _atom_site_type_symbol
 _atom_site_label
 _atom_site_symmetry_multiplicity
 _atom_site_fract_x
 _atom_site_fract_y
 _atom_site_fract_z
 _atom_site_occupancy
  Dy  Dy0  1  0.386009  0.186768  0.750000  1
  Dy  Dy1  1  0.198290  0.812444  0.250000  1
  Dy  Dy2  1  0.801583  0.187612  0.750000  1
  Y  Y3  1  0.190594  0.382458  0.250000  1
  Y  Y4  1  0.809262  0.617399  0.750000  1
  Y  Y5  1  0.614133  0.813031  0.250000  1
  Al  Al6  1  0.333232  0.667623  0.024022  1
  Al  Al7  1  0.666704  0.332383  0.975847  1
  Al  Al8  1  0.666704  0.332383  0.524153  1
  Al  Al9  1  0.333232  0.667623  0.475978  1
  Al  Al10  1  0.162981  0.325589  0.577610  1
  Al  Al11  1  0.837095  0.674339  0.422489  1
  Al  Al12  1  0.672328  0.836851  0.576640  1
  Al  Al13  1  0.837095  0.674339  0.077511  1
  Al  Al14  1  0.327677  0.163180  0.423477  1
  Al  Al15  1  0.162981  0.325589  0.922390  1
  Al  Al16  1  0.164683  0.836707  0.576675  1
  Al  Al17  1  0.327677  0.163180  0.076523  1
  Al  Al18  1  0.835324  0.163385  0.423434  1
  Al  Al19  1  0.672328  0.836851  0.923360  1
  Al  Al20  1  0.835324  0.163385  0.076566  1
  Al  Al21  1  0.164683  0.836707  0.923325  1
  Al  Al22  1  0.562748  0.126757  0.250000  1
  Al  Al23  1  0.437224  0.873258  0.750000  1
  Al  Al24  1  0.878243  0.440347  0.250000  1
  Al  Al25  1  0.121763  0.559681  0.750000  1
  Al  Al26  1  0.561840  0.439597  0.250000  1
  Al  Al27  1  0.438145  0.560311  0.750000  1
  Al  Al28  1  0.001040  0.002170  0.250000  1
  Al  Al29  1  0.999402  0.998043  0.750000  1
  Os  Os30  1  0.499927  0.000092  0.999859  1
  Os  Os31  1  0.499927  0.000092  0.500141  1
  Os  Os32  1  0.999915  0.999952  0.000042  1
  Os  Os33  1  0.999915  0.999952  0.499958  1
  Rh  Rh34  1  0.999991  0.499980  0.999981  1
  Rh  Rh35  1  0.500004  0.499982  0.999959  1
  Rh  Rh36  1  0.999991  0.499980  0.500019  1
  Rh  Rh37  1  0.500004  0.499982  0.500041  1
