# generated using pymatgen
data_Cs3K5Zr6BeI20
_symmetry_space_group_name_H-M   'P 1'
_cell_length_a   12.88593358
_cell_length_b   12.88593361
_cell_length_c   12.94434990
_cell_angle_alpha   59.50762290
_cell_angle_beta   59.50762219
_cell_angle_gamma   59.45330854
_symmetry_Int_Tables_number   1
_chemical_formula_structural   Cs3K5Zr6BeI20
_chemical_formula_sum   'Cs3 K5 Zr6 Be1 I20'
_cell_volume   1502.19010149
_cell_formula_units_Z   1
loop_
 _symmetry_equiv_pos_site_id
 _symmetry_equiv_pos_as_xyz
  1  'x, y, z'
loop_
 _atom_site_type_symbol
 _atom_site_label
 _atom_site_symmetry_multiplicity
 _atom_site_fract_x
 _atom_site_fract_y
 _atom_site_fract_z
 _atom_site_occupancy
  Cs  Cs0  1  0.356839  0.356839  0.349373  1
  Cs  Cs1  1  0.647627  0.647627  0.644135  1
  Cs  Cs2  1  0.356913  0.356913  0.933030  1
  K  K3  1  0.369596  0.899601  0.363171  1
  K  K4  1  0.637120  0.637120  0.089457  1
  K  K5  1  0.637372  0.093295  0.632884  1
  K  K6  1  0.899601  0.369596  0.363171  1
  K  K7  1  0.093295  0.637372  0.632884  1
  Zr  Zr8  1  0.865528  0.135371  0.132614  1
  Zr  Zr9  1  0.136276  0.865233  0.863333  1
  Zr  Zr10  1  0.135371  0.865528  0.132614  1
  Zr  Zr11  1  0.865233  0.136276  0.863333  1
  Zr  Zr12  1  0.136090  0.136090  0.862481  1
  Zr  Zr13  1  0.865968  0.865968  0.133233  1
  Be  Be14  1  0.000954  0.000954  0.997400  1
  I  I15  1  0.320920  0.999163  0.996889  1
  I  I16  1  0.679407  0.002382  0.000908  1
  I  I17  1  0.999749  0.322461  0.678497  1
  I  I18  1  0.000952  0.678537  0.319303  1
  I  I19  1  0.999163  0.320920  0.996889  1
  I  I20  1  0.678537  0.000952  0.319303  1
  I  I21  1  0.002382  0.679407  0.000908  1
  I  I22  1  0.322461  0.999749  0.678497  1
  I  I23  1  0.998950  0.998950  0.316721  1
  I  I24  1  0.000831  0.000831  0.682153  1
  I  I25  1  0.677618  0.323664  0.998509  1
  I  I26  1  0.323664  0.677618  0.998509  1
  I  I27  1  0.692360  0.313102  0.309125  1
  I  I28  1  0.307908  0.693806  0.683003  1
  I  I29  1  0.313102  0.692360  0.309125  1
  I  I30  1  0.693806  0.307908  0.683003  1
  I  I31  1  0.312186  0.312186  0.685943  1
  I  I32  1  0.688942  0.688942  0.305584  1
  I  I33  1  0.218911  0.218911  0.280914  1
  I  I34  1  0.764369  0.764369  0.763103  1
