# generated using pymatgen
data_TbYb4U7S20
_symmetry_space_group_name_H-M   'P 1'
_cell_length_a   7.35680219
_cell_length_b   7.97798616
_cell_length_c   11.59998213
_cell_angle_alpha   89.88479236
_cell_angle_beta   89.83344591
_cell_angle_gamma   89.89366532
_symmetry_Int_Tables_number   1
_chemical_formula_structural   TbYb4U7S20
_chemical_formula_sum   'Tb1 Yb4 U7 S20'
_cell_volume   680.82613964
_cell_formula_units_Z   1
loop_
 _symmetry_equiv_pos_site_id
 _symmetry_equiv_pos_as_xyz
  1  'x, y, z'
loop_
 _atom_site_type_symbol
 _atom_site_label
 _atom_site_symmetry_multiplicity
 _atom_site_fract_x
 _atom_site_fract_y
 _atom_site_fract_z
 _atom_site_occupancy
  Tb  Tb0  1  0.021006  0.499136  0.320545  1
  Yb  Yb1  1  0.020557  0.001243  0.320805  1
  Yb  Yb2  1  0.523669  0.001291  0.177964  1
  Yb  Yb3  1  0.979276  0.001942  0.676287  1
  Yb  Yb4  1  0.477202  0.999707  0.824408  1
  U  U5  1  0.519744  0.502343  0.179201  1
  U  U6  1  0.979851  0.501862  0.678644  1
  U  U7  1  0.479095  0.497789  0.822000  1
  U  U8  1  0.074718  0.749676  0.009383  1
  U  U9  1  0.576019  0.248351  0.492022  1
  U  U10  1  0.925365  0.249564  0.990407  1
  U  U11  1  0.423749  0.749928  0.508740  1
  S  S12  1  0.165846  0.452793  0.094332  1
  S  S13  1  0.659911  0.544011  0.401725  1
  S  S14  1  0.835409  0.546741  0.902422  1
  S  S15  1  0.335822  0.451524  0.599437  1
  S  S16  1  0.458430  0.734372  0.000486  1
  S  S17  1  0.957239  0.265063  0.501883  1
  S  S18  1  0.541794  0.266779  0.999648  1
  S  S19  1  0.042831  0.737365  0.503824  1
  S  S20  1  0.333657  0.263324  0.313261  1
  S  S21  1  0.826954  0.736570  0.183761  1
  S  S22  1  0.666897  0.730197  0.686879  1
  S  S23  1  0.169264  0.266625  0.812694  1
  S  S24  1  0.664013  0.955893  0.407664  1
  S  S25  1  0.164843  0.043684  0.090615  1
  S  S26  1  0.339250  0.042159  0.595732  1
  S  S27  1  0.838097  0.958068  0.904552  1
  S  S28  1  0.301451  0.743510  0.281567  1
  S  S29  1  0.801202  0.257389  0.215728  1
  S  S30  1  0.698301  0.259376  0.719126  1
  S  S31  1  0.198539  0.741722  0.784259  1
