# generated using pymatgen
data_Sm8InPd11Pt13
_symmetry_space_group_name_H-M   'P 1'
_cell_length_a   8.50428400
_cell_length_b   8.51458700
_cell_length_c   8.52125100
_cell_angle_alpha   90.00000000
_cell_angle_beta   89.99822985
_cell_angle_gamma   90.00000000
_symmetry_Int_Tables_number   1
_chemical_formula_structural   Sm8InPd11Pt13
_chemical_formula_sum   'Sm8 In1 Pd11 Pt13'
_cell_volume   617.02775559
_cell_formula_units_Z   1
loop_
 _symmetry_equiv_pos_site_id
 _symmetry_equiv_pos_as_xyz
  1  'x, y, z'
loop_
 _atom_site_type_symbol
 _atom_site_label
 _atom_site_symmetry_multiplicity
 _atom_site_fract_x
 _atom_site_fract_y
 _atom_site_fract_z
 _atom_site_occupancy
  Sm  Sm0  1  0.249762  0.248872  0.249713  1
  Sm  Sm1  1  0.749736  0.748881  0.750314  1
  Sm  Sm2  1  0.750248  0.750707  0.249579  1
  Sm  Sm3  1  0.749736  0.251119  0.750314  1
  Sm  Sm4  1  0.250326  0.250188  0.749865  1
  Sm  Sm5  1  0.249762  0.751128  0.249713  1
  Sm  Sm6  1  0.250326  0.749812  0.749865  1
  Sm  Sm7  1  0.750248  0.249293  0.249579  1
  In  In8  1  0.000297  0.000000  0.002401  1
  Pd  Pd9  1  0.500161  0.000000  0.729760  1
  Pd  Pd10  1  0.731200  0.000000  0.500198  1
  Pd  Pd11  1  0.999951  0.500000  0.269234  1
  Pd  Pd12  1  0.999981  0.500000  0.729753  1
  Pd  Pd13  1  0.255795  0.500000  0.500082  1
  Pd  Pd14  1  0.744115  0.500000  0.500119  1
  Pd  Pd15  1  0.499873  0.255904  0.499880  1
  Pd  Pd16  1  0.499873  0.744096  0.499880  1
  Pd  Pd17  1  0.500100  0.500000  0.256072  1
  Pd  Pd18  1  0.500087  0.500000  0.743870  1
  Pd  Pd19  1  0.999782  0.000000  0.683654  1
  Pt  Pt20  1  0.268270  0.500000  0.000076  1
  Pt  Pt21  1  0.731874  0.500000  0.000086  1
  Pt  Pt22  1  0.999730  0.268240  0.499986  1
  Pt  Pt23  1  0.500001  0.268998  0.999584  1
  Pt  Pt24  1  0.999730  0.731760  0.499986  1
  Pt  Pt25  1  0.500001  0.731002  0.999584  1
  Pt  Pt26  1  0.500034  0.000000  0.269363  1
  Pt  Pt27  1  0.268877  0.000000  0.499968  1
  Pt  Pt28  1  0.319113  0.000000  0.998992  1
  Pt  Pt29  1  0.681135  0.000000  0.999138  1
  Pt  Pt30  1  0.000023  0.318555  0.999157  1
  Pt  Pt31  1  0.000023  0.681445  0.999157  1
  Pt  Pt32  1  0.999831  0.000000  0.321080  1
