# generated using pymatgen
data_Tb3Pr3Zn4Pd13
_symmetry_space_group_name_H-M   'P 1'
_cell_length_a   8.35854617
_cell_length_b   8.35854555
_cell_length_c   8.35115200
_cell_angle_alpha   109.45330077
_cell_angle_beta   109.45329927
_cell_angle_gamma   109.48913756
_symmetry_Int_Tables_number   1
_chemical_formula_structural   Tb3Pr3Zn4Pd13
_chemical_formula_sum   'Tb3 Pr3 Zn4 Pd13'
_cell_volume   449.24365033
_cell_formula_units_Z   1
loop_
 _symmetry_equiv_pos_site_id
 _symmetry_equiv_pos_as_xyz
  1  'x, y, z'
loop_
 _atom_site_type_symbol
 _atom_site_label
 _atom_site_symmetry_multiplicity
 _atom_site_fract_x
 _atom_site_fract_y
 _atom_site_fract_z
 _atom_site_occupancy
  Tb  Tb0  1  0.304992  0.304992  0.999560  1
  Tb  Tb1  1  0.695008  0.000000  0.694568  1
  Tb  Tb2  1  0.000000  0.695008  0.694568  1
  Pr  Pr3  1  0.701074  0.701074  0.999393  1
  Pr  Pr4  1  0.298926  0.000000  0.298319  1
  Pr  Pr5  1  0.000000  0.298926  0.298319  1
  Zn  Zn6  1  0.000000  0.000000  0.507849  1
  Zn  Zn7  1  0.000000  0.497625  0.000483  1
  Zn  Zn8  1  0.497625  0.000000  0.000483  1
  Zn  Zn9  1  0.502375  0.502375  0.502857  1
  Pd  Pd10  1  0.333063  0.333063  0.668604  1
  Pd  Pd11  1  0.666937  0.000000  0.335541  1
  Pd  Pd12  1  0.000000  0.666937  0.335541  1
  Pd  Pd13  1  0.665820  0.330739  0.998888  1
  Pd  Pd14  1  0.334180  0.664918  0.333067  1
  Pd  Pd15  1  0.000000  0.331321  0.670816  1
  Pd  Pd16  1  0.330739  0.665820  0.998888  1
  Pd  Pd17  1  0.331321  0.000000  0.670816  1
  Pd  Pd18  1  0.664918  0.334180  0.333067  1
  Pd  Pd19  1  0.668679  0.668679  0.339496  1
  Pd  Pd20  1  0.669261  0.335082  0.668149  1
  Pd  Pd21  1  0.335082  0.669261  0.668149  1
  Pd  Pd22  1  0.000000  0.000000  0.982578  1
