# generated using pymatgen
data_Nb6Fe3Os3C2
_symmetry_space_group_name_H-M   'P 1'
_cell_length_a   8.22838818
_cell_length_b   8.22838877
_cell_length_c   8.22838848
_cell_angle_alpha   119.82351029
_cell_angle_beta   120.09899812
_cell_angle_gamma   90.06728223
_symmetry_Int_Tables_number   1
_chemical_formula_structural   Nb6Fe3Os3C2
_chemical_formula_sum   'Nb12 Fe6 Os6 C4'
_cell_volume   394.16694064
_cell_formula_units_Z   2
loop_
 _symmetry_equiv_pos_site_id
 _symmetry_equiv_pos_as_xyz
  1  'x, y, z'
loop_
 _atom_site_type_symbol
 _atom_site_label
 _atom_site_symmetry_multiplicity
 _atom_site_fract_x
 _atom_site_fract_y
 _atom_site_fract_z
 _atom_site_occupancy
  Nb  Nb0  1  0.066402  0.566402  0.500000  1
  Nb  Nb1  1  0.681555  0.181555  0.500000  1
  Nb  Nb2  1  0.066403  0.181874  0.499279  1
  Nb  Nb3  1  0.682595  0.567124  0.500721  1
  Nb  Nb4  1  0.682595  0.181874  0.115471  1
  Nb  Nb5  1  0.066403  0.567124  0.884529  1
  Nb  Nb6  1  0.431374  0.431374  0.000000  1
  Nb  Nb7  1  0.818653  0.818653  0.000000  1
  Nb  Nb8  1  0.429892  0.818077  0.002368  1
  Nb  Nb9  1  0.815709  0.427524  0.997632  1
  Nb  Nb10  1  0.815709  0.818077  0.388183  1
  Nb  Nb11  1  0.429892  0.427524  0.611817  1
  Fe  Fe12  1  0.452866  0.106020  0.653155  1
  Fe  Fe13  1  0.452866  0.799710  0.346845  1
  Fe  Fe14  1  0.358244  0.203217  0.155027  1
  Fe  Fe15  1  0.048190  0.203217  0.844973  1
  Fe  Fe16  1  0.047630  0.894291  0.846660  1
  Fe  Fe17  1  0.047630  0.200970  0.153340  1
  Os  Os18  1  0.755322  0.007096  0.748228  1
  Os  Os19  1  0.258868  0.007096  0.251772  1
  Os  Os20  1  0.251247  0.490496  0.239250  1
  Os  Os21  1  0.251247  0.011997  0.760750  1
  Os  Os22  1  0.135411  0.796655  0.338757  1
  Os  Os23  1  0.457898  0.796655  0.661243  1
  C  C24  1  0.249879  0.499128  0.750751  1
  C  C25  1  0.748378  0.499128  0.249249  1
  C  C26  1  0.748572  0.999149  0.250577  1
  C  C27  1  0.748572  0.497995  0.749423  1
