# generated using pymatgen
data_Nd2Th(InPt)3
_symmetry_space_group_name_H-M   'P 1'
_cell_length_a   7.75465526
_cell_length_b   7.78378651
_cell_length_c   4.05729200
_cell_angle_alpha   90.00000000
_cell_angle_beta   90.00000000
_cell_angle_gamma   120.12434750
_symmetry_Int_Tables_number   1
_chemical_formula_structural   Nd2Th(InPt)3
_chemical_formula_sum   'Nd2 Th1 In3 Pt3'
_cell_volume   211.82380674
_cell_formula_units_Z   1
loop_
 _symmetry_equiv_pos_site_id
 _symmetry_equiv_pos_as_xyz
  1  'x, y, z'
loop_
 _atom_site_type_symbol
 _atom_site_label
 _atom_site_symmetry_multiplicity
 _atom_site_fract_x
 _atom_site_fract_y
 _atom_site_fract_z
 _atom_site_occupancy
  Nd  Nd0  1  0.592311  0.001612  0.500000  1
  Nd  Nd1  1  0.407689  0.409301  0.500000  1
  Th  Th2  1  0.000000  0.589151  0.500000  1
  In  In3  1  0.000000  0.244221  0.000000  1
  In  In4  1  0.261288  0.009036  0.000000  1
  In  In5  1  0.738712  0.747749  0.000000  1
  Pt  Pt6  1  0.000000  0.988692  0.500000  1
  Pt  Pt7  1  0.682756  0.346497  0.000000  1
  Pt  Pt8  1  0.317244  0.663742  0.000000  1
