# generated using pymatgen
data_ThSc11CuTc3
_symmetry_space_group_name_H-M   'P 1'
_cell_length_a   5.94872700
_cell_length_b   8.62439700
_cell_length_c   13.62520800
_cell_angle_alpha   90.00000000
_cell_angle_beta   90.00000000
_cell_angle_gamma   90.00000000
_symmetry_Int_Tables_number   1
_chemical_formula_structural   ThSc11CuTc3
_chemical_formula_sum   'Th2 Sc22 Cu2 Tc6'
_cell_volume   699.03016863
_cell_formula_units_Z   2
loop_
 _symmetry_equiv_pos_site_id
 _symmetry_equiv_pos_as_xyz
  1  'x, y, z'
loop_
 _atom_site_type_symbol
 _atom_site_label
 _atom_site_symmetry_multiplicity
 _atom_site_fract_x
 _atom_site_fract_y
 _atom_site_fract_z
 _atom_site_occupancy
  Th  Th0  1  0.544267  0.750000  0.356378  1
  Th  Th1  1  0.044267  0.250000  0.143622  1
  Sc  Sc2  1  0.475088  0.250000  0.649076  1
  Sc  Sc3  1  0.975088  0.750000  0.850924  1
  Sc  Sc4  1  0.801703  0.750000  0.107641  1
  Sc  Sc5  1  0.301703  0.250000  0.392359  1
  Sc  Sc6  1  0.200596  0.250000  0.881150  1
  Sc  Sc7  1  0.700596  0.750000  0.618850  1
  Sc  Sc8  1  0.412385  0.938343  0.785199  1
  Sc  Sc9  1  0.912385  0.061657  0.714801  1
  Sc  Sc10  1  0.568516  0.436245  0.205337  1
  Sc  Sc11  1  0.068516  0.563755  0.294663  1
  Sc  Sc12  1  0.568516  0.063755  0.205337  1
  Sc  Sc13  1  0.068516  0.936245  0.294663  1
  Sc  Sc14  1  0.412385  0.561657  0.785199  1
  Sc  Sc15  1  0.912385  0.438343  0.714801  1
  Sc  Sc16  1  0.248531  0.950640  0.539549  1
  Sc  Sc17  1  0.748531  0.049360  0.960451  1
  Sc  Sc18  1  0.755085  0.433935  0.476927  1
  Sc  Sc19  1  0.255085  0.566065  0.023073  1
  Sc  Sc20  1  0.755085  0.066065  0.476927  1
  Sc  Sc21  1  0.255085  0.933935  0.023073  1
  Sc  Sc22  1  0.248531  0.549360  0.539549  1
  Sc  Sc23  1  0.748531  0.450640  0.960451  1
  Cu  Cu24  1  0.631510  0.250000  0.826250  1
  Cu  Cu25  1  0.131510  0.750000  0.673750  1
  Tc  Tc26  1  0.935662  0.750000  0.455881  1
  Tc  Tc27  1  0.435662  0.250000  0.044119  1
  Tc  Tc28  1  0.074299  0.250000  0.568637  1
  Tc  Tc29  1  0.574299  0.750000  0.931363  1
  Tc  Tc30  1  0.367843  0.750000  0.183235  1
  Tc  Tc31  1  0.867843  0.250000  0.316765  1
