# generated using pymatgen
data_LuBi(SeO3)3
_symmetry_space_group_name_H-M   'P 1'
_cell_length_a   7.18829210
_cell_length_b   8.16622129
_cell_length_c   9.19288636
_cell_angle_alpha   71.02843189
_cell_angle_beta   70.33905742
_cell_angle_gamma   65.71534423
_symmetry_Int_Tables_number   1
_chemical_formula_structural   LuBi(SeO3)3
_chemical_formula_sum   'Lu2 Bi2 Se6 O18'
_cell_volume   452.11372357
_cell_formula_units_Z   2
loop_
 _symmetry_equiv_pos_site_id
 _symmetry_equiv_pos_as_xyz
  1  'x, y, z'
loop_
 _atom_site_type_symbol
 _atom_site_label
 _atom_site_symmetry_multiplicity
 _atom_site_fract_x
 _atom_site_fract_y
 _atom_site_fract_z
 _atom_site_occupancy
  Lu  Lu0  1  0.740885  0.735655  0.801788  1
  Lu  Lu1  1  0.259115  0.264345  0.198212  1
  Bi  Bi2  1  0.330213  0.729151  0.599708  1
  Bi  Bi3  1  0.669787  0.270849  0.400292  1
  Se  Se4  1  0.427870  0.780998  0.190416  1
  Se  Se5  1  0.572130  0.219002  0.809584  1
  Se  Se6  1  0.147478  0.748640  0.970015  1
  Se  Se7  1  0.852522  0.251360  0.029985  1
  Se  Se8  1  0.883923  0.749173  0.425269  1
  Se  Se9  1  0.116077  0.250827  0.574731  1
  O  O10  1  0.648114  0.787492  0.043714  1
  O  O11  1  0.351886  0.212508  0.956286  1
  O  O12  1  0.367210  0.956051  0.283852  1
  O  O13  1  0.632790  0.043949  0.716148  1
  O  O14  1  0.520590  0.600425  0.344348  1
  O  O15  1  0.479410  0.399575  0.655652  1
  O  O16  1  0.171365  0.561097  0.121559  1
  O  O17  1  0.828635  0.438903  0.878441  1
  O  O18  1  0.403911  0.711660  0.851490  1
  O  O19  1  0.596089  0.288340  0.148510  1
  O  O20  1  0.347765  0.241804  0.425878  1
  O  O21  1  0.652235  0.758196  0.574122  1
  O  O22  1  0.980973  0.296824  0.430962  1
  O  O23  1  0.019027  0.703176  0.569038  1
  O  O24  1  0.142534  0.029171  0.666840  1
  O  O25  1  0.857466  0.970829  0.333160  1
  O  O26  1  0.942921  0.299761  0.160589  1
  O  O27  1  0.057079  0.700239  0.839411  1
