# generated using pymatgen
data_Tb10Si17
_symmetry_space_group_name_H-M   'P 1'
_cell_length_a   11.02957161
_cell_length_b   11.02957252
_cell_length_c   11.02957229
_cell_angle_alpha   144.72995395
_cell_angle_beta   135.40411759
_cell_angle_gamma   58.09475243
_symmetry_Int_Tables_number   1
_chemical_formula_structural   Tb10Si17
_chemical_formula_sum   'Tb10 Si17'
_cell_volume   539.32937686
_cell_formula_units_Z   1
loop_
 _symmetry_equiv_pos_site_id
 _symmetry_equiv_pos_as_xyz
  1  'x, y, z'
loop_
 _atom_site_type_symbol
 _atom_site_label
 _atom_site_symmetry_multiplicity
 _atom_site_fract_x
 _atom_site_fract_y
 _atom_site_fract_z
 _atom_site_occupancy
  Tb  Tb0  1  0.051565  0.563767  0.014958  1
  Tb  Tb1  1  0.352938  0.369284  0.521168  1
  Tb  Tb2  1  0.151883  0.168229  0.521168  1
  Tb  Tb3  1  0.451191  0.963395  0.014958  1
  Tb  Tb4  1  0.647062  0.168229  0.016347  1
  Tb  Tb5  1  0.948435  0.963395  0.512202  1
  Tb  Tb6  1  0.848117  0.369284  0.016347  1
  Tb  Tb7  1  0.548809  0.563767  0.512202  1
  Tb  Tb8  1  0.244931  0.760715  0.005647  1
  Tb  Tb9  1  0.755069  0.760715  0.515784  1
  Si  Si10  1  0.895625  0.506106  0.610481  1
  Si  Si11  1  0.120989  0.086623  0.965632  1
  Si  Si12  1  0.800735  0.180147  0.379412  1
  Si  Si13  1  0.300612  0.897504  0.596892  1
  Si  Si14  1  0.399797  0.501860  0.102063  1
  Si  Si15  1  0.879011  0.844643  0.965632  1
  Si  Si16  1  0.104375  0.714856  0.610481  1
  Si  Si17  1  0.199265  0.578678  0.379412  1
  Si  Si18  1  0.699388  0.296279  0.596892  1
  Si  Si19  1  0.000000  0.432127  0.432127  1
  Si  Si20  1  0.714514  0.670887  0.956372  1
  Si  Si21  1  0.600203  0.702266  0.102063  1
  Si  Si22  1  0.000000  0.081629  0.081629  1
  Si  Si23  1  0.500000  0.390353  0.890353  1
  Si  Si24  1  0.285486  0.241858  0.956372  1
  Si  Si25  1  0.582307  0.038470  0.456162  1
  Si  Si26  1  0.417693  0.873854  0.456162  1
