# generated using pymatgen
data_Dy2Y3ErAl13Ga5
_symmetry_space_group_name_H-M   'P 1'
_cell_length_a   14.29645768
_cell_length_b   14.29939879
_cell_length_c   14.29645886
_cell_angle_alpha   25.14781211
_cell_angle_beta   25.16210124
_cell_angle_gamma   25.14781629
_symmetry_Int_Tables_number   1
_chemical_formula_structural   Dy2Y3ErAl13Ga5
_chemical_formula_sum   'Dy2 Y3 Er1 Al13 Ga5'
_cell_volume   464.57866329
_cell_formula_units_Z   1
loop_
 _symmetry_equiv_pos_site_id
 _symmetry_equiv_pos_as_xyz
  1  'x, y, z'
loop_
 _atom_site_type_symbol
 _atom_site_label
 _atom_site_symmetry_multiplicity
 _atom_site_fract_x
 _atom_site_fract_y
 _atom_site_fract_z
 _atom_site_occupancy
  Dy  Dy0  1  0.001516  0.000083  0.001516  1
  Dy  Dy1  1  0.501652  0.501607  0.501652  1
  Y  Y2  1  0.107857  0.106837  0.107857  1
  Y  Y3  1  0.891727  0.891253  0.891727  1
  Y  Y4  1  0.390832  0.392223  0.390832  1
  Er  Er5  1  0.606954  0.606997  0.606954  1
  Al  Al6  1  0.863740  0.436690  0.863740  1
  Al  Al7  1  0.572940  0.131940  0.131622  1
  Al  Al8  1  0.074607  0.629292  0.632543  1
  Al  Al9  1  0.131622  0.131940  0.572940  1
  Al  Al10  1  0.632543  0.629292  0.074607  1
  Al  Al11  1  0.132065  0.572555  0.132065  1
  Al  Al12  1  0.632131  0.072748  0.632131  1
  Al  Al13  1  0.501641  0.499257  0.997538  1
  Al  Al14  1  0.999847  0.999656  0.499912  1
  Al  Al15  1  0.501023  0.996060  0.501023  1
  Al  Al16  1  0.000210  0.499259  0.000210  1
  Al  Al17  1  0.997538  0.499257  0.501641  1
  Al  Al18  1  0.499912  0.999656  0.999847  1
  Ga  Ga19  1  0.929603  0.367458  0.367888  1
  Ga  Ga20  1  0.427753  0.869513  0.866723  1
  Ga  Ga21  1  0.367888  0.367458  0.929603  1
  Ga  Ga22  1  0.866723  0.869513  0.427753  1
  Ga  Ga23  1  0.367680  0.929461  0.367680  1
