# generated using pymatgen
data_Ba2Hg3Ge(Pd3O7)2
_symmetry_space_group_name_H-M   'P 1'
_cell_length_a   6.27407266
_cell_length_b   6.27407250
_cell_length_c   10.99740813
_cell_angle_alpha   90.64015176
_cell_angle_beta   90.64014895
_cell_angle_gamma   61.36465970
_symmetry_Int_Tables_number   1
_chemical_formula_structural   Ba2Hg3Ge(Pd3O7)2
_chemical_formula_sum   'Ba2 Hg3 Ge1 Pd6 O14'
_cell_volume   379.92048064
_cell_formula_units_Z   1
loop_
 _symmetry_equiv_pos_site_id
 _symmetry_equiv_pos_as_xyz
  1  'x, y, z'
loop_
 _atom_site_type_symbol
 _atom_site_label
 _atom_site_symmetry_multiplicity
 _atom_site_fract_x
 _atom_site_fract_y
 _atom_site_fract_z
 _atom_site_occupancy
  Ba  Ba0  1  0.504457  0.504457  0.290104  1
  Ba  Ba1  1  0.489943  0.489943  0.706136  1
  Hg  Hg2  1  0.176585  0.176585  0.198180  1
  Hg  Hg3  1  0.999681  0.999681  0.497347  1
  Hg  Hg4  1  0.822104  0.822104  0.803142  1
  Ge  Ge5  1  0.831215  0.831215  0.226016  1
  Pd  Pd6  1  0.998822  0.998822  0.002561  1
  Pd  Pd7  1  0.501883  0.998379  0.002390  1
  Pd  Pd8  1  0.998379  0.501883  0.002390  1
  Pd  Pd9  1  0.499988  0.998628  0.498807  1
  Pd  Pd10  1  0.998628  0.499988  0.498807  1
  Pd  Pd11  1  0.168054  0.168054  0.778791  1
  O  O12  1  0.692624  0.692624  0.103232  1
  O  O13  1  0.698369  0.110682  0.108501  1
  O  O14  1  0.110682  0.698369  0.108501  1
  O  O15  1  0.987208  0.987208  0.308402  1
  O  O16  1  0.975266  0.535437  0.310371  1
  O  O17  1  0.535437  0.975266  0.310371  1
  O  O18  1  0.361175  0.361175  0.489199  1
  O  O19  1  0.636933  0.636933  0.507021  1
  O  O20  1  0.480661  0.029275  0.683288  1
  O  O21  1  0.029275  0.480661  0.683288  1
  O  O22  1  0.006625  0.006625  0.684831  1
  O  O23  1  0.878895  0.305575  0.897612  1
  O  O24  1  0.305575  0.878895  0.897612  1
  O  O25  1  0.311537  0.311537  0.903098  1
