# generated using pymatgen
data_Lu3Mg2ScIr3
_symmetry_space_group_name_H-M   'P 1'
_cell_length_a   7.18520800
_cell_length_b   7.24128635
_cell_length_c   4.06499600
_cell_angle_alpha   90.00000000
_cell_angle_beta   90.00000000
_cell_angle_gamma   119.74415113
_symmetry_Int_Tables_number   1
_chemical_formula_structural   Lu3Mg2ScIr3
_chemical_formula_sum   'Lu3 Mg2 Sc1 Ir3'
_cell_volume   183.63679877
_cell_formula_units_Z   1
loop_
 _symmetry_equiv_pos_site_id
 _symmetry_equiv_pos_as_xyz
  1  'x, y, z'
loop_
 _atom_site_type_symbol
 _atom_site_label
 _atom_site_symmetry_multiplicity
 _atom_site_fract_x
 _atom_site_fract_y
 _atom_site_fract_z
 _atom_site_occupancy
  Lu  Lu0  1  0.399983  0.000000  0.500000  1
  Lu  Lu1  1  0.004176  0.416331  0.500000  1
  Lu  Lu2  1  0.587845  0.583669  0.500000  1
  Mg  Mg3  1  0.250009  0.251107  0.000000  1
  Mg  Mg4  1  0.998901  0.748893  0.000000  1
  Sc  Sc5  1  0.753878  0.000000  0.000000  1
  Ir  Ir6  1  0.669401  0.325647  0.000000  1
  Ir  Ir7  1  0.343754  0.674353  0.000000  1
  Ir  Ir8  1  0.992052  0.000000  0.500000  1
