# generated using pymatgen
data_Yb3DyGa14(Si2Ir3)2
_symmetry_space_group_name_H-M   'P 1'
_cell_length_a   7.53507839
_cell_length_b   7.48825195
_cell_length_c   9.51840224
_cell_angle_alpha   90.02295531
_cell_angle_beta   89.95981625
_cell_angle_gamma   120.18571806
_symmetry_Int_Tables_number   1
_chemical_formula_structural   Yb3DyGa14(Si2Ir3)2
_chemical_formula_sum   'Yb3 Dy1 Ga14 Si4 Ir6'
_cell_volume   464.24475816
_cell_formula_units_Z   1
loop_
 _symmetry_equiv_pos_site_id
 _symmetry_equiv_pos_as_xyz
  1  'x, y, z'
loop_
 _atom_site_type_symbol
 _atom_site_label
 _atom_site_symmetry_multiplicity
 _atom_site_fract_x
 _atom_site_fract_y
 _atom_site_fract_z
 _atom_site_occupancy
  Yb  Yb0  1  0.003443  0.338133  0.749586  1
  Yb  Yb1  1  0.668005  0.001706  0.249970  1
  Yb  Yb2  1  0.327242  0.995836  0.750279  1
  Dy  Dy3  1  0.000264  0.667116  0.249973  1
  Ga  Ga4  1  0.129478  0.128128  0.249913  1
  Ga  Ga5  1  0.873952  0.870744  0.749960  1
  Ga  Ga6  1  0.997305  0.325418  0.421265  1
  Ga  Ga7  1  0.671103  0.001719  0.581406  1
  Ga  Ga8  1  0.663729  0.999869  0.918721  1
  Ga  Ga9  1  0.340790  0.003692  0.079171  1
  Ga  Ga10  1  0.331647  0.334341  0.570185  1
  Ga  Ga11  1  0.662404  0.670171  0.429737  1
  Ga  Ga12  1  0.660976  0.670311  0.070210  1
  Ga  Ga13  1  0.336420  0.330516  0.929634  1
  Ga  Ga14  1  0.335862  0.546836  0.250344  1
  Ga  Ga15  1  0.664627  0.455307  0.751049  1
  Ga  Ga16  1  0.546921  0.339097  0.249827  1
  Ga  Ga17  1  0.450072  0.662302  0.749137  1
  Si  Si18  1  0.999984  0.327508  0.070466  1
  Si  Si19  1  0.998507  0.670513  0.931482  1
  Si  Si20  1  0.995812  0.660928  0.568320  1
  Si  Si21  1  0.339210  0.004836  0.429192  1
  Ir  Ir22  1  0.695313  0.343320  0.003353  1
  Ir  Ir23  1  0.304125  0.656861  0.998513  1
  Ir  Ir24  1  0.317443  0.680370  0.498652  1
  Ir  Ir25  1  0.671589  0.330740  0.499542  1
  Ir  Ir26  1  0.000489  0.998206  0.001209  1
  Ir  Ir27  1  0.013284  0.985479  0.498908  1
