# generated using pymatgen
data_MgTa3Pd9Pt2Rh
_symmetry_space_group_name_H-M   'P 1'
_cell_length_a   5.62934797
_cell_length_b   5.61399673
_cell_length_c   9.10278700
_cell_angle_alpha   90.00000000
_cell_angle_beta   90.00000000
_cell_angle_gamma   119.90982830
_symmetry_Int_Tables_number   1
_chemical_formula_structural   MgTa3Pd9Pt2Rh
_chemical_formula_sum   'Mg1 Ta3 Pd9 Pt2 Rh1'
_cell_volume   249.36136064
_cell_formula_units_Z   1
loop_
 _symmetry_equiv_pos_site_id
 _symmetry_equiv_pos_as_xyz
  1  'x, y, z'
loop_
 _atom_site_type_symbol
 _atom_site_label
 _atom_site_symmetry_multiplicity
 _atom_site_fract_x
 _atom_site_fract_y
 _atom_site_fract_z
 _atom_site_occupancy
  Mg  Mg0  1  0.333446  0.666723  0.000000  1
  Ta  Ta1  1  0.668495  0.334247  0.500000  1
  Ta  Ta2  1  0.995079  0.997540  0.747987  1
  Ta  Ta3  1  0.995079  0.997540  0.252013  1
  Pd  Pd4  1  0.832224  0.166795  0.000000  1
  Pd  Pd5  1  0.832224  0.665429  0.000000  1
  Pd  Pd6  1  0.333564  0.166782  0.000000  1
  Pd  Pd7  1  0.996301  0.498151  0.748304  1
  Pd  Pd8  1  0.502529  0.499051  0.747574  1
  Pd  Pd9  1  0.502529  0.003480  0.747574  1
  Pd  Pd10  1  0.996301  0.498151  0.251696  1
  Pd  Pd11  1  0.502529  0.499051  0.252426  1
  Pd  Pd12  1  0.502529  0.003480  0.252426  1
  Pt  Pt13  1  0.169088  0.834081  0.500000  1
  Pt  Pt14  1  0.169088  0.335009  0.500000  1
  Rh  Rh15  1  0.668990  0.834496  0.500000  1
