# generated using pymatgen
data_CePu2(B2C)3
_symmetry_space_group_name_H-M   'P 1'
_cell_length_a   5.26706117
_cell_length_b   5.26706282
_cell_length_c   5.26706282
_cell_angle_alpha   77.33416682
_cell_angle_beta   77.33417282
_cell_angle_gamma   77.33415419
_symmetry_Int_Tables_number   1
_chemical_formula_structural   CePu2(B2C)3
_chemical_formula_sum   'Ce1 Pu2 B6 C3'
_cell_volume   136.82599189
_cell_formula_units_Z   1
loop_
 _symmetry_equiv_pos_site_id
 _symmetry_equiv_pos_as_xyz
  1  'x, y, z'
loop_
 _atom_site_type_symbol
 _atom_site_label
 _atom_site_symmetry_multiplicity
 _atom_site_fract_x
 _atom_site_fract_y
 _atom_site_fract_z
 _atom_site_occupancy
  Ce  Ce0  1  0.000000  0.000000  0.000000  1
  Pu  Pu1  1  0.688617  0.688617  0.688617  1
  Pu  Pu2  1  0.311383  0.311383  0.311383  1
  B  B3  1  0.500000  0.772995  0.227005  1
  B  B4  1  0.227005  0.500000  0.772995  1
  B  B5  1  0.772995  0.227005  0.500000  1
  B  B6  1  0.500000  0.227005  0.772995  1
  B  B7  1  0.227005  0.772995  0.500000  1
  B  B8  1  0.772995  0.500000  0.227005  1
  C  C9  1  0.000000  0.000000  0.500000  1
  C  C10  1  0.000000  0.500000  0.000000  1
  C  C11  1  0.500000  0.000000  0.000000  1
