# generated using pymatgen
data_Sm6HoCo3(P6Rh7)2
_symmetry_space_group_name_H-M   'P 1'
_cell_length_a   3.92630700
_cell_length_b   11.19923150
_cell_length_c   12.94019508
_cell_angle_alpha   89.96121199
_cell_angle_beta   90.00000000
_cell_angle_gamma   90.00000000
_symmetry_Int_Tables_number   1
_chemical_formula_structural   Sm6HoCo3(P6Rh7)2
_chemical_formula_sum   'Sm6 Ho1 Co3 P12 Rh14'
_cell_volume   569.00122387
_cell_formula_units_Z   1
loop_
 _symmetry_equiv_pos_site_id
 _symmetry_equiv_pos_as_xyz
  1  'x, y, z'
loop_
 _atom_site_type_symbol
 _atom_site_label
 _atom_site_symmetry_multiplicity
 _atom_site_fract_x
 _atom_site_fract_y
 _atom_site_fract_z
 _atom_site_occupancy
  Sm  Sm0  1  0.000000  0.500798  0.521111  1
  Sm  Sm1  1  0.500000  0.000269  0.475388  1
  Sm  Sm2  1  0.500000  0.817498  0.201195  1
  Sm  Sm3  1  0.500000  0.185699  0.201377  1
  Sm  Sm4  1  0.000000  0.680201  0.796339  1
  Sm  Sm5  1  0.000000  0.320099  0.796559  1
  Ho  Ho6  1  0.000000  0.000640  0.846003  1
  Co  Co7  1  0.000000  0.499380  0.983791  1
  Co  Co8  1  0.500000  0.000170  0.016571  1
  Co  Co9  1  0.000000  0.377007  0.291401  1
  P  P10  1  0.500000  0.500088  0.883992  1
  P  P11  1  0.000000  0.000691  0.115766  1
  P  P12  1  0.500000  0.492815  0.346978  1
  P  P13  1  0.000000  0.001181  0.637740  1
  P  P14  1  0.500000  0.313759  0.614546  1
  P  P15  1  0.500000  0.686765  0.614846  1
  P  P16  1  0.000000  0.194421  0.376543  1
  P  P17  1  0.000000  0.810798  0.379699  1
  P  P18  1  0.500000  0.839607  0.901221  1
  P  P19  1  0.500000  0.160912  0.901588  1
  P  P20  1  0.000000  0.641271  0.108911  1
  P  P21  1  0.000000  0.360181  0.115010  1
  Rh  Rh22  1  0.500000  0.494680  0.168837  1
  Rh  Rh23  1  0.500000  0.499937  0.703259  1
  Rh  Rh24  1  0.000000  0.001090  0.296081  1
  Rh  Rh25  1  0.500000  0.340652  0.996898  1
  Rh  Rh26  1  0.500000  0.658869  0.998273  1
  Rh  Rh27  1  0.000000  0.172621  0.013758  1
  Rh  Rh28  1  0.000000  0.828409  0.013042  1
  Rh  Rh29  1  0.500000  0.298139  0.426192  1
  Rh  Rh30  1  0.500000  0.703407  0.426793  1
  Rh  Rh31  1  0.000000  0.211712  0.563899  1
  Rh  Rh32  1  0.000000  0.788860  0.564510  1
  Rh  Rh33  1  0.500000  0.872471  0.706632  1
  Rh  Rh34  1  0.500000  0.127483  0.705363  1
  Rh  Rh35  1  0.000000  0.617421  0.289891  1
