# generated using pymatgen
data_LiTiFeH6
_symmetry_space_group_name_H-M   'P 1'
_cell_length_a   4.27235838
_cell_length_b   4.27235728
_cell_length_c   4.27235800
_cell_angle_alpha   59.99999441
_cell_angle_beta   60.00000294
_cell_angle_gamma   60.00000238
_symmetry_Int_Tables_number   1
_chemical_formula_structural   LiTiFeH6
_chemical_formula_sum   'Li1 Ti1 Fe1 H6'
_cell_volume   55.14268102
_cell_formula_units_Z   1
loop_
 _symmetry_equiv_pos_site_id
 _symmetry_equiv_pos_as_xyz
  1  'x, y, z'
loop_
 _atom_site_type_symbol
 _atom_site_label
 _atom_site_symmetry_multiplicity
 _atom_site_fract_x
 _atom_site_fract_y
 _atom_site_fract_z
 _atom_site_occupancy
  Li  Li0  1  0.750000  0.750000  0.750000  1
  Ti  Ti1  1  0.250000  0.250000  0.250000  1
  Fe  Fe2  1  0.000000  0.000000  0.000000  1
  H  H3  1  0.260207  0.739793  0.260207  1
  H  H4  1  0.739792  0.739792  0.260208  1
  H  H5  1  0.739792  0.260208  0.260208  1
  H  H6  1  0.260208  0.739792  0.739792  1
  H  H7  1  0.739793  0.260207  0.739793  1
  H  H8  1  0.260207  0.260207  0.739793  1
