# generated using pymatgen
data_Dy16MgHg3(IrRu)2
_symmetry_space_group_name_H-M   'P 1'
_cell_length_a   9.62161343
_cell_length_b   9.63037601
_cell_length_c   9.67745000
_cell_angle_alpha   59.83817853
_cell_angle_beta   59.80785071
_cell_angle_gamma   59.77878212
_symmetry_Int_Tables_number   1
_chemical_formula_structural   Dy16MgHg3(IrRu)2
_chemical_formula_sum   'Dy16 Mg1 Hg3 Ir2 Ru2'
_cell_volume   631.30988456
_cell_formula_units_Z   1
loop_
 _symmetry_equiv_pos_site_id
 _symmetry_equiv_pos_as_xyz
  1  'x, y, z'
loop_
 _atom_site_type_symbol
 _atom_site_label
 _atom_site_symmetry_multiplicity
 _atom_site_fract_x
 _atom_site_fract_y
 _atom_site_fract_z
 _atom_site_occupancy
  Dy  Dy0  1  0.348115  0.347102  0.346567  1
  Dy  Dy1  1  0.348115  0.347102  0.958215  1
  Dy  Dy2  1  0.347747  0.960277  0.345987  1
  Dy  Dy3  1  0.949813  0.350581  0.349802  1
  Dy  Dy4  1  0.809348  0.189884  0.191971  1
  Dy  Dy5  1  0.186683  0.812503  0.810978  1
  Dy  Dy6  1  0.186683  0.812503  0.189835  1
  Dy  Dy7  1  0.809348  0.189884  0.808797  1
  Dy  Dy8  1  0.186432  0.187704  0.812932  1
  Dy  Dy9  1  0.807098  0.808186  0.192358  1
  Dy  Dy10  1  0.937707  0.559325  0.562556  1
  Dy  Dy11  1  0.559791  0.938701  0.937937  1
  Dy  Dy12  1  0.559791  0.938701  0.563571  1
  Dy  Dy13  1  0.937707  0.559325  0.940412  1
  Dy  Dy14  1  0.561046  0.562634  0.938161  1
  Dy  Dy15  1  0.939390  0.940464  0.560073  1
  Mg  Mg16  1  0.285219  0.570485  0.572149  1
  Hg  Hg17  1  0.581561  0.586613  0.587387  1
  Hg  Hg18  1  0.581561  0.586613  0.244438  1
  Hg  Hg19  1  0.581116  0.244007  0.587438  1
  Ir  Ir20  1  0.141374  0.577392  0.140617  1
  Ir  Ir21  1  0.577831  0.143778  0.139196  1
  Ru  Ru22  1  0.138260  0.143117  0.139062  1
  Ru  Ru23  1  0.138260  0.143117  0.579562  1
