# generated using pymatgen
data_Sr2Li3LuPt3
_symmetry_space_group_name_H-M   'P 1'
_cell_length_a   7.39404004
_cell_length_b   7.42085288
_cell_length_c   4.15982600
_cell_angle_alpha   90.00000000
_cell_angle_beta   90.00000000
_cell_angle_gamma   120.12000672
_symmetry_Int_Tables_number   1
_chemical_formula_structural   Sr2Li3LuPt3
_chemical_formula_sum   'Sr2 Li3 Lu1 Pt3'
_cell_volume   197.43082818
_cell_formula_units_Z   1
loop_
 _symmetry_equiv_pos_site_id
 _symmetry_equiv_pos_as_xyz
  1  'x, y, z'
loop_
 _atom_site_type_symbol
 _atom_site_label
 _atom_site_symmetry_multiplicity
 _atom_site_fract_x
 _atom_site_fract_y
 _atom_site_fract_z
 _atom_site_occupancy
  Sr  Sr0  1  0.414810  0.417694  0.000000  1
  Sr  Sr1  1  0.585190  0.002884  0.000000  1
  Li  Li2  1  0.775634  0.763988  0.500000  1
  Li  Li3  1  0.224366  0.988355  0.500000  1
  Li  Li4  1  0.000000  0.234467  0.500000  1
  Lu  Lu5  1  0.000000  0.598182  0.000000  1
  Pt  Pt6  1  0.000000  0.973409  0.000000  1
  Pt  Pt7  1  0.711938  0.366477  0.500000  1
  Pt  Pt8  1  0.288062  0.654540  0.500000  1
