# generated using pymatgen
data_Ho3Zr2InIr3
_symmetry_space_group_name_H-M   'P 1'
_cell_length_a   7.25815900
_cell_length_b   7.25570624
_cell_length_c   4.33234400
_cell_angle_alpha   90.00000000
_cell_angle_beta   90.00000000
_cell_angle_gamma   120.01117855
_symmetry_Int_Tables_number   1
_chemical_formula_structural   Ho3Zr2InIr3
_chemical_formula_sum   'Ho3 Zr2 In1 Ir3'
_cell_volume   197.56536126
_cell_formula_units_Z   1
loop_
 _symmetry_equiv_pos_site_id
 _symmetry_equiv_pos_as_xyz
  1  'x, y, z'
loop_
 _atom_site_type_symbol
 _atom_site_label
 _atom_site_symmetry_multiplicity
 _atom_site_fract_x
 _atom_site_fract_y
 _atom_site_fract_z
 _atom_site_occupancy
  Ho  Ho0  1  0.589846  0.600400  0.000000  1
  Ho  Ho1  1  0.424541  0.000000  0.000000  1
  Ho  Ho2  1  0.989446  0.399600  0.000000  1
  Zr  Zr3  1  0.995865  0.745700  0.500000  1
  Zr  Zr4  1  0.250165  0.254300  0.500000  1
  In  In5  1  0.751699  0.000000  0.500000  1
  Ir  Ir6  1  0.029121  0.000000  0.000000  1
  Ir  Ir7  1  0.655210  0.341100  0.500000  1
  Ir  Ir8  1  0.314109  0.658900  0.500000  1
