# generated using pymatgen
data_Tb5Dy(TmIn4)2
_symmetry_space_group_name_H-M   'P 1'
_cell_length_a   6.50539135
_cell_length_b   6.50539319
_cell_length_c   10.33807100
_cell_angle_alpha   90.00000000
_cell_angle_beta   90.00000000
_cell_angle_gamma   103.97798704
_symmetry_Int_Tables_number   1
_chemical_formula_structural   Tb5Dy(TmIn4)2
_chemical_formula_sum   'Tb5 Dy1 Tm2 In8'
_cell_volume   424.55325539
_cell_formula_units_Z   1
loop_
 _symmetry_equiv_pos_site_id
 _symmetry_equiv_pos_as_xyz
  1  'x, y, z'
loop_
 _atom_site_type_symbol
 _atom_site_label
 _atom_site_symmetry_multiplicity
 _atom_site_fract_x
 _atom_site_fract_y
 _atom_site_fract_z
 _atom_site_occupancy
  Tb  Tb0  1  0.475803  0.475803  0.750000  1
  Tb  Tb1  1  0.247789  0.752249  0.499953  1
  Tb  Tb2  1  0.247789  0.752249  0.000047  1
  Tb  Tb3  1  0.752249  0.247789  0.499953  1
  Tb  Tb4  1  0.752249  0.247789  0.000047  1
  Dy  Dy5  1  0.524161  0.524161  0.250000  1
  Tm  Tm6  1  0.982214  0.982214  0.250000  1
  Tm  Tm7  1  0.017676  0.017676  0.750000  1
  In  In8  1  0.250606  0.250606  0.013407  1
  In  In9  1  0.749415  0.749415  0.986752  1
  In  In10  1  0.250606  0.250606  0.486593  1
  In  In11  1  0.749415  0.749415  0.513248  1
  In  In12  1  0.486611  0.014612  0.250000  1
  In  In13  1  0.985392  0.513412  0.750000  1
  In  In14  1  0.513412  0.985392  0.750000  1
  In  In15  1  0.014612  0.486611  0.250000  1
