# generated using pymatgen
data_DyHo11ZnGaCo4
_symmetry_space_group_name_H-M   'P 1'
_cell_length_a   8.22421718
_cell_length_b   8.22513901
_cell_length_c   8.22513980
_cell_angle_alpha   106.75373792
_cell_angle_beta   109.63276171
_cell_angle_gamma   112.07567297
_symmetry_Int_Tables_number   1
_chemical_formula_structural   DyHo11ZnGaCo4
_chemical_formula_sum   'Dy1 Ho11 Zn1 Ga1 Co4'
_cell_volume   427.36167864
_cell_formula_units_Z   1
loop_
 _symmetry_equiv_pos_site_id
 _symmetry_equiv_pos_as_xyz
  1  'x, y, z'
loop_
 _atom_site_type_symbol
 _atom_site_label
 _atom_site_symmetry_multiplicity
 _atom_site_fract_x
 _atom_site_fract_y
 _atom_site_fract_z
 _atom_site_occupancy
  Dy  Dy0  1  0.601699  0.781642  0.820057  1
  Ho  Ho1  1  0.304943  0.262999  0.568171  1
  Ho  Ho2  1  0.694950  0.736784  0.431517  1
  Ho  Ho3  1  0.304943  0.736770  0.041944  1
  Ho  Ho4  1  0.694950  0.263435  0.958167  1
  Ho  Ho5  1  0.187764  0.514704  0.326551  1
  Ho  Ho6  1  0.187764  0.861213  0.673061  1
  Ho  Ho7  1  0.812111  0.485109  0.673192  1
  Ho  Ho8  1  0.812111  0.138918  0.327001  1
  Ho  Ho9  1  0.398380  0.218454  0.179926  1
  Ho  Ho10  1  0.038592  0.218614  0.819979  1
  Ho  Ho11  1  0.961646  0.781454  0.180191  1
  Zn  Zn12  1  0.499891  0.499802  0.000089  1
  Ga  Ga13  1  0.499984  0.999988  0.499996  1
  Co  Co14  1  0.165330  0.499832  0.665498  1
  Co  Co15  1  0.834341  0.499909  0.334432  1
  Co  Co16  1  0.000300  0.115780  0.115708  1
  Co  Co17  1  0.000300  0.884592  0.884520  1
