# generated using pymatgen
data_Cs2CeInBr6
_symmetry_space_group_name_H-M   'P 1'
_cell_length_a   8.47526992
_cell_length_b   8.47527067
_cell_length_c   8.74345199
_cell_angle_alpha   119.68437743
_cell_angle_beta   119.68437673
_cell_angle_gamma   59.95840708
_symmetry_Int_Tables_number   1
_chemical_formula_structural   Cs2CeInBr6
_chemical_formula_sum   'Cs2 Ce1 In1 Br6'
_cell_volume   446.05923279
_cell_formula_units_Z   1
loop_
 _symmetry_equiv_pos_site_id
 _symmetry_equiv_pos_as_xyz
  1  'x, y, z'
loop_
 _atom_site_type_symbol
 _atom_site_label
 _atom_site_symmetry_multiplicity
 _atom_site_fract_x
 _atom_site_fract_y
 _atom_site_fract_z
 _atom_site_occupancy
  Cs  Cs0  1  0.247775  0.247775  0.238621  1
  Cs  Cs1  1  0.752225  0.752225  0.761380  1
  Ce  Ce2  1  0.500000  0.500000  0.000000  1
  In  In3  1  0.000000  0.000000  0.499999  1
  Br  Br4  1  0.695868  0.212776  0.186287  1
  Br  Br5  1  0.212776  0.695868  0.186287  1
  Br  Br6  1  0.734065  0.734065  0.314512  1
  Br  Br7  1  0.265935  0.265935  0.685488  1
  Br  Br8  1  0.787224  0.304133  0.813712  1
  Br  Br9  1  0.304133  0.787224  0.813712  1
