# generated using pymatgen
data_Yb2ZnOs2Ru
_symmetry_space_group_name_H-M   'P 1'
_cell_length_a   5.31294390
_cell_length_b   5.25635882
_cell_length_c   8.82096900
_cell_angle_alpha   90.00000000
_cell_angle_beta   90.00000000
_cell_angle_gamma   120.15238326
_symmetry_Int_Tables_number   1
_chemical_formula_structural   Yb2ZnOs2Ru
_chemical_formula_sum   'Yb4 Zn2 Os4 Ru2'
_cell_volume   213.00914369
_cell_formula_units_Z   2
loop_
 _symmetry_equiv_pos_site_id
 _symmetry_equiv_pos_as_xyz
  1  'x, y, z'
loop_
 _atom_site_type_symbol
 _atom_site_label
 _atom_site_symmetry_multiplicity
 _atom_site_fract_x
 _atom_site_fract_y
 _atom_site_fract_z
 _atom_site_occupancy
  Yb  Yb0  1  0.664149  0.327806  0.565364  1
  Yb  Yb1  1  0.330079  0.659650  0.443075  1
  Yb  Yb2  1  0.330079  0.659650  0.056925  1
  Yb  Yb3  1  0.664149  0.327806  0.934636  1
  Zn  Zn4  1  0.846608  0.194202  0.250000  1
  Zn  Zn5  1  0.349036  0.195935  0.250000  1
  Os  Os6  1  0.173901  0.348218  0.750000  1
  Os  Os7  1  0.165742  0.832018  0.750000  1
  Os  Os8  1  0.662253  0.830923  0.750000  1
  Os  Os9  1  0.847048  0.694757  0.250000  1
  Ru  Ru10  1  0.983478  0.964518  0.495067  1
  Ru  Ru11  1  0.983478  0.964518  0.004933  1
