# generated using pymatgen
data_Lu20Si12H
_symmetry_space_group_name_H-M   'P 1'
_cell_length_a   14.33996400
_cell_length_b   6.20600153
_cell_length_c   8.22442500
_cell_angle_alpha   89.95972863
_cell_angle_beta   90.00000000
_cell_angle_gamma   90.00000000
_symmetry_Int_Tables_number   1
_chemical_formula_structural   Lu20Si12H
_chemical_formula_sum   'Lu20 Si12 H1'
_cell_volume   731.92296996
_cell_formula_units_Z   1
loop_
 _symmetry_equiv_pos_site_id
 _symmetry_equiv_pos_as_xyz
  1  'x, y, z'
loop_
 _atom_site_type_symbol
 _atom_site_label
 _atom_site_symmetry_multiplicity
 _atom_site_fract_x
 _atom_site_fract_y
 _atom_site_fract_z
 _atom_site_occupancy
  Lu  Lu0  1  0.666534  0.500000  0.500000  1
  Lu  Lu1  1  0.167843  0.500000  0.000000  1
  Lu  Lu2  1  0.832157  0.500000  0.000000  1
  Lu  Lu3  1  0.333466  0.500000  0.500000  1
  Lu  Lu4  1  0.834097  0.000000  0.000000  1
  Lu  Lu5  1  0.332644  0.000000  0.500000  1
  Lu  Lu6  1  0.667356  0.000000  0.500000  1
  Lu  Lu7  1  0.165903  0.000000  0.000000  1
  Lu  Lu8  1  0.500000  0.248436  0.756815  1
  Lu  Lu9  1  0.000000  0.250684  0.253288  1
  Lu  Lu10  1  0.620693  0.250086  0.122088  1
  Lu  Lu11  1  0.122429  0.247041  0.623115  1
  Lu  Lu12  1  0.877571  0.247041  0.623115  1
  Lu  Lu13  1  0.379307  0.250086  0.122088  1
  Lu  Lu14  1  0.000000  0.749316  0.746712  1
  Lu  Lu15  1  0.500000  0.751564  0.243185  1
  Lu  Lu16  1  0.877571  0.752959  0.376885  1
  Lu  Lu17  1  0.379307  0.749914  0.877912  1
  Lu  Lu18  1  0.620693  0.749914  0.877912  1
  Lu  Lu19  1  0.122429  0.752959  0.376885  1
  Si  Si20  1  0.000000  0.252039  0.891949  1
  Si  Si21  1  0.500000  0.249048  0.393992  1
  Si  Si22  1  0.804187  0.249343  0.304562  1
  Si  Si23  1  0.302631  0.248666  0.803779  1
  Si  Si24  1  0.697369  0.248666  0.803779  1
  Si  Si25  1  0.195813  0.249343  0.304562  1
  Si  Si26  1  0.500000  0.750952  0.606008  1
  Si  Si27  1  0.000000  0.747961  0.108051  1
  Si  Si28  1  0.697369  0.751334  0.196221  1
  Si  Si29  1  0.195813  0.750657  0.695438  1
  Si  Si30  1  0.804187  0.750657  0.695438  1
  Si  Si31  1  0.302631  0.751334  0.196221  1
  H  H32  1  0.000000  0.500000  0.500000  1
