# generated using pymatgen
data_Tm(Tc2Ge)2
_symmetry_space_group_name_H-M   'P 1'
_cell_length_a   7.23436700
_cell_length_b   7.60175100
_cell_length_c   4.21084500
_cell_angle_alpha   90.00000000
_cell_angle_beta   90.00000000
_cell_angle_gamma   90.00000000
_symmetry_Int_Tables_number   1
_chemical_formula_structural   Tm(Tc2Ge)2
_chemical_formula_sum   'Tm2 Tc8 Ge4'
_cell_volume   231.57060600
_cell_formula_units_Z   2
loop_
 _symmetry_equiv_pos_site_id
 _symmetry_equiv_pos_as_xyz
  1  'x, y, z'
loop_
 _atom_site_type_symbol
 _atom_site_label
 _atom_site_symmetry_multiplicity
 _atom_site_fract_x
 _atom_site_fract_y
 _atom_site_fract_z
 _atom_site_occupancy
  Tm  Tm0  1  0.500000  0.500000  0.000000  1
  Tm  Tm1  1  0.000000  0.000000  0.500000  1
  Tc  Tc2  1  0.852356  0.394532  0.500000  1
  Tc  Tc3  1  0.147644  0.605468  0.500000  1
  Tc  Tc4  1  0.647644  0.894532  0.000000  1
  Tc  Tc5  1  0.352356  0.105468  0.000000  1
  Tc  Tc6  1  0.588106  0.153279  0.500000  1
  Tc  Tc7  1  0.411894  0.846721  0.500000  1
  Tc  Tc8  1  0.911894  0.653279  0.000000  1
  Tc  Tc9  1  0.088106  0.346721  0.000000  1
  Ge  Ge10  1  0.285232  0.304797  0.500000  1
  Ge  Ge11  1  0.714768  0.695203  0.500000  1
  Ge  Ge12  1  0.214768  0.804797  0.000000  1
  Ge  Ge13  1  0.785232  0.195203  0.000000  1
