# generated using pymatgen
data_TbTm2Fe2Co7P6
_symmetry_space_group_name_H-M   'P 1'
_cell_length_a   3.66384100
_cell_length_b   10.48625700
_cell_length_c   12.02352300
_cell_angle_alpha   90.00000000
_cell_angle_beta   90.00000000
_cell_angle_gamma   90.00000000
_symmetry_Int_Tables_number   1
_chemical_formula_structural   TbTm2Fe2Co7P6
_chemical_formula_sum   'Tb2 Tm4 Fe4 Co14 P12'
_cell_volume   461.94349315
_cell_formula_units_Z   2
loop_
 _symmetry_equiv_pos_site_id
 _symmetry_equiv_pos_as_xyz
  1  'x, y, z'
loop_
 _atom_site_type_symbol
 _atom_site_label
 _atom_site_symmetry_multiplicity
 _atom_site_fract_x
 _atom_site_fract_y
 _atom_site_fract_z
 _atom_site_occupancy
  Tb  Tb0  1  0.000000  0.500000  0.523155  1
  Tb  Tb1  1  0.500000  0.000000  0.476845  1
  Tm  Tm2  1  0.500000  0.819416  0.203773  1
  Tm  Tm3  1  0.500000  0.180584  0.203773  1
  Tm  Tm4  1  0.000000  0.680584  0.796227  1
  Tm  Tm5  1  0.000000  0.319416  0.796227  1
  Fe  Fe6  1  0.500000  0.500000  0.155699  1
  Fe  Fe7  1  0.000000  0.000000  0.844301  1
  Fe  Fe8  1  0.000000  0.500000  0.988383  1
  Fe  Fe9  1  0.500000  0.000000  0.011617  1
  Co  Co10  1  0.500000  0.500000  0.702684  1
  Co  Co11  1  0.000000  0.000000  0.297316  1
  Co  Co12  1  0.500000  0.331689  0.994327  1
  Co  Co13  1  0.500000  0.668311  0.994327  1
  Co  Co14  1  0.000000  0.168311  0.005673  1
  Co  Co15  1  0.000000  0.831689  0.005673  1
  Co  Co16  1  0.500000  0.296580  0.429942  1
  Co  Co17  1  0.500000  0.703420  0.429942  1
  Co  Co18  1  0.000000  0.203420  0.570058  1
  Co  Co19  1  0.000000  0.796580  0.570058  1
  Co  Co20  1  0.500000  0.878478  0.710041  1
  Co  Co21  1  0.500000  0.121522  0.710041  1
  Co  Co22  1  0.000000  0.621522  0.289959  1
  Co  Co23  1  0.000000  0.378478  0.289959  1
  P  P24  1  0.500000  0.500000  0.883930  1
  P  P25  1  0.000000  0.000000  0.116070  1
  P  P26  1  0.500000  0.500000  0.342019  1
  P  P27  1  0.000000  0.000000  0.657981  1
  P  P28  1  0.500000  0.310518  0.617759  1
  P  P29  1  0.500000  0.689482  0.617759  1
  P  P30  1  0.000000  0.189482  0.382241  1
  P  P31  1  0.000000  0.810518  0.382241  1
  P  P32  1  0.500000  0.847036  0.892864  1
  P  P33  1  0.500000  0.152964  0.892864  1
  P  P34  1  0.000000  0.652964  0.107136  1
  P  P35  1  0.000000  0.347036  0.107136  1
