# generated using pymatgen
data_CeNdAl20Ru3Rh
_symmetry_space_group_name_H-M   'P 1'
_cell_length_a   6.86727624
_cell_length_b   6.86424962
_cell_length_c   9.16816978
_cell_angle_alpha   90.10892975
_cell_angle_beta   90.14325768
_cell_angle_gamma   97.15532366
_symmetry_Int_Tables_number   1
_chemical_formula_structural   CeNdAl20Ru3Rh
_chemical_formula_sum   'Ce1 Nd1 Al20 Ru3 Rh1'
_cell_volume   428.80745474
_cell_formula_units_Z   1
loop_
 _symmetry_equiv_pos_site_id
 _symmetry_equiv_pos_as_xyz
  1  'x, y, z'
loop_
 _atom_site_type_symbol
 _atom_site_label
 _atom_site_symmetry_multiplicity
 _atom_site_fract_x
 _atom_site_fract_y
 _atom_site_fract_z
 _atom_site_occupancy
  Ce  Ce0  1  0.121623  0.875135  0.250137  1
  Nd  Nd1  1  0.875459  0.126624  0.750326  1
  Al  Al2  1  0.589831  0.859175  0.250630  1
  Al  Al3  1  0.777960  0.518272  0.249794  1
  Al  Al4  1  0.159114  0.839622  0.897303  1
  Al  Al5  1  0.410902  0.140946  0.749124  1
  Al  Al6  1  0.623457  0.379742  0.948679  1
  Al  Al7  1  0.841229  0.158291  0.398985  1
  Al  Al8  1  0.775104  0.773567  0.001232  1
  Al  Al9  1  0.860248  0.589908  0.749539  1
  Al  Al10  1  0.841924  0.159866  0.102834  1
  Al  Al11  1  0.222037  0.481638  0.750249  1
  Al  Al12  1  0.159435  0.841125  0.601189  1
  Al  Al13  1  0.774768  0.774595  0.499111  1
  Al  Al14  1  0.480773  0.222890  0.252466  1
  Al  Al15  1  0.623219  0.377649  0.549736  1
  Al  Al16  1  0.224889  0.225670  0.500266  1
  Al  Al17  1  0.377231  0.622149  0.449136  1
  Al  Al18  1  0.139634  0.409178  0.250457  1
  Al  Al19  1  0.518933  0.776323  0.747120  1
  Al  Al20  1  0.376929  0.620330  0.052545  1
  Al  Al21  1  0.225165  0.226550  0.999837  1
  Ru  Ru22  1  0.499032  0.999424  0.499301  1
  Ru  Ru23  1  0.000815  0.500970  0.000599  1
  Ru  Ru24  1  0.000645  0.501024  0.499349  1
  Rh  Rh25  1  0.499646  0.999338  0.000056  1
