# generated using pymatgen
data_Cu6SiWS8
_symmetry_space_group_name_H-M   'P 1'
_cell_length_a   7.50866500
_cell_length_b   7.50866506
_cell_length_c   12.33948200
_cell_angle_alpha   90.00000000
_cell_angle_beta   90.00000000
_cell_angle_gamma   119.99999532
_symmetry_Int_Tables_number   1
_chemical_formula_structural   Cu6SiWS8
_chemical_formula_sum   'Cu12 Si2 W2 S16'
_cell_volume   602.49443791
_cell_formula_units_Z   2
loop_
 _symmetry_equiv_pos_site_id
 _symmetry_equiv_pos_as_xyz
  1  'x, y, z'
loop_
 _atom_site_type_symbol
 _atom_site_label
 _atom_site_symmetry_multiplicity
 _atom_site_fract_x
 _atom_site_fract_y
 _atom_site_fract_z
 _atom_site_occupancy
  Cu  Cu0  1  0.839657  0.679314  0.105178  1
  Cu  Cu1  1  0.503707  0.496293  0.353636  1
  Cu  Cu2  1  0.007413  0.503707  0.853636  1
  Cu  Cu3  1  0.839657  0.160343  0.105178  1
  Cu  Cu4  1  0.496293  0.503707  0.853636  1
  Cu  Cu5  1  0.160343  0.320686  0.605178  1
  Cu  Cu6  1  0.503707  0.007413  0.353636  1
  Cu  Cu7  1  0.992587  0.496293  0.353636  1
  Cu  Cu8  1  0.160343  0.839657  0.605178  1
  Cu  Cu9  1  0.496293  0.992587  0.853636  1
  Cu  Cu10  1  0.679314  0.839657  0.605178  1
  Cu  Cu11  1  0.320686  0.160343  0.105178  1
  Si  Si12  1  0.000000  0.000000  0.851749  1
  Si  Si13  1  0.000000  0.000000  0.351749  1
  W  W14  1  0.333333  0.666667  0.481676  1
  W  W15  1  0.666667  0.333333  0.981676  1
  S  S16  1  0.000000  0.000000  0.026441  1
  S  S17  1  0.316116  0.158059  0.291704  1
  S  S18  1  0.841941  0.158059  0.291704  1
  S  S19  1  0.003618  0.501809  0.542273  1
  S  S20  1  0.841941  0.683884  0.291704  1
  S  S21  1  0.666667  0.333333  0.797764  1
  S  S22  1  0.158059  0.316116  0.791704  1
  S  S23  1  0.498191  0.501809  0.542273  1
  S  S24  1  0.000000  0.000000  0.526441  1
  S  S25  1  0.333333  0.666667  0.297764  1
  S  S26  1  0.996382  0.498191  0.042273  1
  S  S27  1  0.498191  0.996382  0.542273  1
  S  S28  1  0.158059  0.841941  0.791704  1
  S  S29  1  0.683884  0.841941  0.791704  1
  S  S30  1  0.501809  0.003618  0.042273  1
  S  S31  1  0.501809  0.498191  0.042273  1
