# generated using pymatgen
data_Cs4Fe4Br10O
_symmetry_space_group_name_H-M   'P 1'
_cell_length_a   12.00624321
_cell_length_b   12.00624269
_cell_length_c   10.23795500
_cell_angle_alpha   80.49491279
_cell_angle_beta   80.49491805
_cell_angle_gamma   90.86097673
_symmetry_Int_Tables_number   1
_chemical_formula_structural   Cs4Fe4Br10O
_chemical_formula_sum   'Cs8 Fe8 Br20 O2'
_cell_volume   1434.19767907
_cell_formula_units_Z   2
loop_
 _symmetry_equiv_pos_site_id
 _symmetry_equiv_pos_as_xyz
  1  'x, y, z'
loop_
 _atom_site_type_symbol
 _atom_site_label
 _atom_site_symmetry_multiplicity
 _atom_site_fract_x
 _atom_site_fract_y
 _atom_site_fract_z
 _atom_site_occupancy
  Cs  Cs0  1  0.296562  0.445342  0.136078  1
  Cs  Cs1  1  0.713286  0.972112  0.873807  1
  Cs  Cs2  1  0.972112  0.713286  0.373807  1
  Cs  Cs3  1  0.554658  0.703438  0.363922  1
  Cs  Cs4  1  0.445342  0.296562  0.636078  1
  Cs  Cs5  1  0.027888  0.286714  0.626193  1
  Cs  Cs6  1  0.703438  0.554658  0.863922  1
  Cs  Cs7  1  0.286714  0.027888  0.126193  1
  Fe  Fe8  1  0.942835  0.234702  0.126191  1
  Fe  Fe9  1  0.057165  0.765298  0.873809  1
  Fe  Fe10  1  0.658125  0.229246  0.138608  1
  Fe  Fe11  1  0.770754  0.341875  0.361392  1
  Fe  Fe12  1  0.229246  0.658125  0.638608  1
  Fe  Fe13  1  0.341875  0.770754  0.861392  1
  Fe  Fe14  1  0.765298  0.057165  0.373809  1
  Fe  Fe15  1  0.234702  0.942835  0.626191  1
  Br  Br16  1  0.132401  0.264347  0.966738  1
  Br  Br17  1  0.971760  0.028240  0.250000  1
  Br  Br18  1  0.735653  0.867599  0.533262  1
  Br  Br19  1  0.394317  0.985853  0.770458  1
  Br  Br20  1  0.257555  0.505841  0.486817  1
  Br  Br21  1  0.014147  0.605683  0.729542  1
  Br  Br22  1  0.823665  0.271641  0.928702  1
  Br  Br23  1  0.410341  0.589659  0.750000  1
  Br  Br24  1  0.505841  0.257555  0.986817  1
  Br  Br25  1  0.028240  0.971760  0.750000  1
  Br  Br26  1  0.271641  0.823665  0.428702  1
  Br  Br27  1  0.985853  0.394317  0.270458  1
  Br  Br28  1  0.867599  0.735653  0.033262  1
  Br  Br29  1  0.742445  0.494159  0.513183  1
  Br  Br30  1  0.605683  0.014147  0.229542  1
  Br  Br31  1  0.728359  0.176335  0.571298  1
  Br  Br32  1  0.176335  0.728359  0.071298  1
  Br  Br33  1  0.589659  0.410341  0.250000  1
  Br  Br34  1  0.264347  0.132401  0.466738  1
  Br  Br35  1  0.494159  0.742445  0.013183  1
  O  O36  1  0.216644  0.783356  0.750000  1
  O  O37  1  0.783356  0.216644  0.250000  1
