# generated using pymatgen
data_SmDyYGa8Ag3
_symmetry_space_group_name_H-M   'P 1'
_cell_length_a   4.37426153
_cell_length_b   8.36967734
_cell_length_c   8.36967639
_cell_angle_alpha   69.62315112
_cell_angle_beta   74.85183486
_cell_angle_gamma   74.85183238
_symmetry_Int_Tables_number   1
_chemical_formula_structural   SmDyYGa8Ag3
_chemical_formula_sum   'Sm1 Dy1 Y1 Ga8 Ag3'
_cell_volume   272.31085847
_cell_formula_units_Z   1
loop_
 _symmetry_equiv_pos_site_id
 _symmetry_equiv_pos_as_xyz
  1  'x, y, z'
loop_
 _atom_site_type_symbol
 _atom_site_label
 _atom_site_symmetry_multiplicity
 _atom_site_fract_x
 _atom_site_fract_y
 _atom_site_fract_z
 _atom_site_occupancy
  Sm  Sm0  1  0.500038  0.499962  0.499962  1
  Dy  Dy1  1  0.200266  0.799734  0.799734  1
  Y  Y2  1  0.799646  0.200354  0.200354  1
  Ga  Ga3  1  0.643809  0.073388  0.638994  1
  Ga  Ga4  1  0.356260  0.926136  0.361344  1
  Ga  Ga5  1  0.643809  0.638994  0.073388  1
  Ga  Ga6  1  0.356260  0.361344  0.926136  1
  Ga  Ga7  1  0.840225  0.791039  0.528513  1
  Ga  Ga8  1  0.159593  0.209018  0.471796  1
  Ga  Ga9  1  0.840225  0.528513  0.791039  1
  Ga  Ga10  1  0.159593  0.471796  0.209018  1
  Ag  Ag11  1  0.500066  0.999934  0.999934  1
  Ag  Ag12  1  0.000105  0.805168  0.194622  1
  Ag  Ag13  1  0.000105  0.194622  0.805168  1
