# generated using pymatgen
data_TmNb(CoSb)2
_symmetry_space_group_name_H-M   'P 1'
_cell_length_a   6.11797200
_cell_length_b   4.31608400
_cell_length_c   8.65050800
_cell_angle_alpha   90.00000000
_cell_angle_beta   90.00000000
_cell_angle_gamma   90.00000000
_symmetry_Int_Tables_number   1
_chemical_formula_structural   TmNb(CoSb)2
_chemical_formula_sum   'Tm2 Nb2 Co4 Sb4'
_cell_volume   228.42255527
_cell_formula_units_Z   2
loop_
 _symmetry_equiv_pos_site_id
 _symmetry_equiv_pos_as_xyz
  1  'x, y, z'
loop_
 _atom_site_type_symbol
 _atom_site_label
 _atom_site_symmetry_multiplicity
 _atom_site_fract_x
 _atom_site_fract_y
 _atom_site_fract_z
 _atom_site_occupancy
  Tm  Tm0  1  0.006375  0.000000  0.376028  1
  Tm  Tm1  1  0.506374  0.500001  0.623972  1
  Nb  Nb2  1  0.492099  0.500001  0.123538  1
  Nb  Nb3  1  0.992099  0.000000  0.876462  1
  Co  Co4  1  0.734930  0.000000  0.112168  1
  Co  Co5  1  0.270310  0.500001  0.352554  1
  Co  Co6  1  0.770309  0.000000  0.647446  1
  Co  Co7  1  0.234931  0.500001  0.887833  1
  Sb  Sb8  1  0.988456  0.500001  0.122309  1
  Sb  Sb9  1  0.507828  0.000000  0.369573  1
  Sb  Sb10  1  0.007829  0.500001  0.630427  1
  Sb  Sb11  1  0.488456  0.000000  0.877691  1
