# generated using pymatgen
data_Ho3ScCI5
_symmetry_space_group_name_H-M   'P 1'
_cell_length_a   9.78009081
_cell_length_b   9.78008952
_cell_length_c   8.50271169
_cell_angle_alpha   102.09868982
_cell_angle_beta   102.09868881
_cell_angle_gamma   23.23922391
_symmetry_Int_Tables_number   1
_chemical_formula_structural   Ho3ScCI5
_chemical_formula_sum   'Ho3 Sc1 C1 I5'
_cell_volume   313.46626185
_cell_formula_units_Z   1
loop_
 _symmetry_equiv_pos_site_id
 _symmetry_equiv_pos_as_xyz
  1  'x, y, z'
loop_
 _atom_site_type_symbol
 _atom_site_label
 _atom_site_symmetry_multiplicity
 _atom_site_fract_x
 _atom_site_fract_y
 _atom_site_fract_z
 _atom_site_occupancy
  Ho  Ho0  1  0.000163  0.000163  0.190168  1
  Ho  Ho1  1  0.001085  0.001085  0.809794  1
  Ho  Ho2  1  0.373711  0.373711  0.937770  1
  Sc  Sc3  1  0.620229  0.620229  0.059598  1
  C  C4  1  0.500899  0.500899  0.000031  1
  I  I5  1  0.836177  0.836177  0.179626  1
  I  I6  1  0.162244  0.162244  0.320343  1
  I  I7  1  0.501828  0.501828  0.501018  1
  I  I8  1  0.837935  0.837935  0.660943  1
  I  I9  1  0.165730  0.165730  0.840707  1
