# generated using pymatgen
data_YbTmLu2(B6Os)2
_symmetry_space_group_name_H-M   'P 1'
_cell_length_a   3.60234800
_cell_length_b   9.06855419
_cell_length_c   11.45351202
_cell_angle_alpha   89.86464374
_cell_angle_beta   90.00000000
_cell_angle_gamma   90.00000000
_symmetry_Int_Tables_number   1
_chemical_formula_structural   YbTmLu2(B6Os)2
_chemical_formula_sum   'Yb2 Tm2 Lu4 B24 Os4'
_cell_volume   374.16329499
_cell_formula_units_Z   2
loop_
 _symmetry_equiv_pos_site_id
 _symmetry_equiv_pos_as_xyz
  1  'x, y, z'
loop_
 _atom_site_type_symbol
 _atom_site_label
 _atom_site_symmetry_multiplicity
 _atom_site_fract_x
 _atom_site_fract_y
 _atom_site_fract_z
 _atom_site_occupancy
  Yb  Yb0  1  0.000000  0.323702  0.414448  1
  Yb  Yb1  1  0.000000  0.676298  0.585552  1
  Tm  Tm2  1  0.000000  0.821281  0.086250  1
  Tm  Tm3  1  0.000000  0.178719  0.913750  1
  Lu  Lu4  1  0.000000  0.942509  0.370557  1
  Lu  Lu5  1  0.000000  0.057491  0.629443  1
  Lu  Lu6  1  0.000000  0.443065  0.129467  1
  Lu  Lu7  1  0.000000  0.556935  0.870533  1
  B  B8  1  0.500000  0.554141  0.432241  1
  B  B9  1  0.500000  0.445859  0.567759  1
  B  B10  1  0.500000  0.053436  0.065997  1
  B  B11  1  0.500000  0.946564  0.934003  1
  B  B12  1  0.500000  0.749365  0.417790  1
  B  B13  1  0.500000  0.250635  0.582210  1
  B  B14  1  0.500000  0.249259  0.080456  1
  B  B15  1  0.500000  0.750741  0.919544  1
  B  B16  1  0.500000  0.792184  0.263902  1
  B  B17  1  0.500000  0.207816  0.736097  1
  B  B18  1  0.500000  0.290794  0.234040  1
  B  B19  1  0.500000  0.709206  0.765961  1
  B  B20  1  0.500000  0.630889  0.184036  1
  B  B21  1  0.500000  0.369111  0.815964  1
  B  B22  1  0.500000  0.130080  0.314208  1
  B  B23  1  0.500000  0.869920  0.685792  1
  B  B24  1  0.500000  0.981797  0.211594  1
  B  B25  1  0.500000  0.018203  0.788406  1
  B  B26  1  0.500000  0.482820  0.287084  1
  B  B27  1  0.500000  0.517180  0.712916  1
  B  B28  1  0.500000  0.602324  0.028087  1
  B  B29  1  0.500000  0.397676  0.971913  1
  B  B30  1  0.500000  0.098415  0.472818  1
  B  B31  1  0.500000  0.901585  0.527182  1
  Os  Os32  1  0.000000  0.640310  0.317972  1
  Os  Os33  1  0.000000  0.359690  0.682028  1
  Os  Os34  1  0.000000  0.136689  0.177648  1
  Os  Os35  1  0.000000  0.863311  0.822352  1
