# generated using pymatgen
data_LaNd2In3HgRh2
_symmetry_space_group_name_H-M   'P 1'
_cell_length_a   8.00953094
_cell_length_b   8.00186954
_cell_length_c   3.96692500
_cell_angle_alpha   90.00000000
_cell_angle_beta   90.00000000
_cell_angle_gamma   119.95181687
_symmetry_Int_Tables_number   1
_chemical_formula_structural   LaNd2In3HgRh2
_chemical_formula_sum   'La1 Nd2 In3 Hg1 Rh2'
_cell_volume   220.28951546
_cell_formula_units_Z   1
loop_
 _symmetry_equiv_pos_site_id
 _symmetry_equiv_pos_as_xyz
  1  'x, y, z'
loop_
 _atom_site_type_symbol
 _atom_site_label
 _atom_site_symmetry_multiplicity
 _atom_site_fract_x
 _atom_site_fract_y
 _atom_site_fract_z
 _atom_site_occupancy
  La  La0  1  0.606692  0.027454  0.500000  1
  Nd  Nd1  1  0.419360  0.393302  0.500000  1
  Nd  Nd2  1  0.974640  0.581503  0.500000  1
  In  In3  1  0.248311  0.002895  0.000000  1
  In  In4  1  0.752976  0.748471  0.000000  1
  In  In5  1  0.999754  0.249210  0.000000  1
  Hg  Hg6  1  0.331990  0.664888  0.000000  1
  Rh  Rh7  1  0.999878  0.000070  0.500000  1
  Rh  Rh8  1  0.666398  0.332207  0.000000  1
