# generated using pymatgen
data_Nd3Pd2Pt7
_symmetry_space_group_name_H-M   'P 1'
_cell_length_a   9.50976329
_cell_length_b   9.50976289
_cell_length_c   9.50976274
_cell_angle_alpha   33.34310762
_cell_angle_beta   33.34310797
_cell_angle_gamma   33.34311579
_symmetry_Int_Tables_number   1
_chemical_formula_structural   Nd3Pd2Pt7
_chemical_formula_sum   'Nd3 Pd2 Pt7'
_cell_volume   231.35259460
_cell_formula_units_Z   1
loop_
 _symmetry_equiv_pos_site_id
 _symmetry_equiv_pos_as_xyz
  1  'x, y, z'
loop_
 _atom_site_type_symbol
 _atom_site_label
 _atom_site_symmetry_multiplicity
 _atom_site_fract_x
 _atom_site_fract_y
 _atom_site_fract_z
 _atom_site_occupancy
  Nd  Nd0  1  0.360765  0.360765  0.360765  1
  Nd  Nd1  1  0.500000  0.500000  0.500000  1
  Nd  Nd2  1  0.639235  0.639235  0.639235  1
  Pd  Pd3  1  0.167116  0.167116  0.167116  1
  Pd  Pd4  1  0.832884  0.832884  0.832884  1
  Pt  Pt5  1  0.000000  0.000000  0.000000  1
  Pt  Pt6  1  0.581503  0.086275  0.086277  1
  Pt  Pt7  1  0.086275  0.581503  0.086277  1
  Pt  Pt8  1  0.913724  0.913724  0.418497  1
  Pt  Pt9  1  0.086276  0.086276  0.581503  1
  Pt  Pt10  1  0.913725  0.418497  0.913723  1
  Pt  Pt11  1  0.418497  0.913725  0.913723  1
