# generated using pymatgen
data_Tm12Co2Ru3Pb
_symmetry_space_group_name_H-M   'P 1'
_cell_length_a   8.24514600
_cell_length_b   8.24514594
_cell_length_c   8.24514488
_cell_angle_alpha   109.80033659
_cell_angle_beta   113.09163720
_cell_angle_gamma   105.60796479
_symmetry_Int_Tables_number   1
_chemical_formula_structural   Tm12Co2Ru3Pb
_chemical_formula_sum   'Tm12 Co2 Ru3 Pb1'
_cell_volume   429.65220175
_cell_formula_units_Z   1
loop_
 _symmetry_equiv_pos_site_id
 _symmetry_equiv_pos_as_xyz
  1  'x, y, z'
loop_
 _atom_site_type_symbol
 _atom_site_label
 _atom_site_symmetry_multiplicity
 _atom_site_fract_x
 _atom_site_fract_y
 _atom_site_fract_z
 _atom_site_occupancy
  Tm  Tm0  1  0.276725  0.178462  0.455188  1
  Tm  Tm1  1  0.723275  0.821538  0.544812  1
  Tm  Tm2  1  0.276725  0.821538  0.098262  1
  Tm  Tm3  1  0.723275  0.178462  0.901738  1
  Tm  Tm4  1  0.636572  0.319751  0.316821  1
  Tm  Tm5  1  0.363428  0.680249  0.683179  1
  Tm  Tm6  1  0.002930  0.319751  0.683179  1
  Tm  Tm7  1  0.997070  0.680249  0.316821  1
  Tm  Tm8  1  0.228847  0.417608  0.188762  1
  Tm  Tm9  1  0.771153  0.582392  0.811238  1
  Tm  Tm10  1  0.228847  0.040085  0.811238  1
  Tm  Tm11  1  0.771153  0.959915  0.188762  1
  Co  Co12  1  0.389147  0.889147  0.500000  1
  Co  Co13  1  0.610853  0.110853  0.500000  1
  Ru  Ru14  1  0.000000  0.339259  0.339259  1
  Ru  Ru15  1  0.000000  0.660741  0.660741  1
  Ru  Ru16  1  0.000000  0.000000  0.000000  1
  Pb  Pb17  1  0.500000  0.500000  0.000000  1
