# generated using pymatgen
data_Sm3Ho17Sn16
_symmetry_space_group_name_H-M   'P 1'
_cell_length_a   8.03530427
_cell_length_b   8.17849032
_cell_length_c   15.45197820
_cell_angle_alpha   90.08494582
_cell_angle_beta   90.25716699
_cell_angle_gamma   89.91793558
_symmetry_Int_Tables_number   1
_chemical_formula_structural   Sm3Ho17Sn16
_chemical_formula_sum   'Sm3 Ho17 Sn16'
_cell_volume   1015.43999303
_cell_formula_units_Z   1
loop_
 _symmetry_equiv_pos_site_id
 _symmetry_equiv_pos_as_xyz
  1  'x, y, z'
loop_
 _atom_site_type_symbol
 _atom_site_label
 _atom_site_symmetry_multiplicity
 _atom_site_fract_x
 _atom_site_fract_y
 _atom_site_fract_z
 _atom_site_occupancy
  Sm  Sm0  1  0.982878  0.820886  0.403392  1
  Sm  Sm1  1  0.516734  0.321041  0.595791  1
  Sm  Sm2  1  0.017522  0.179120  0.904362  1
  Ho  Ho3  1  0.366514  0.836581  0.877978  1
  Ho  Ho4  1  0.864570  0.663272  0.622309  1
  Ho  Ho5  1  0.635150  0.162869  0.376742  1
  Ho  Ho6  1  0.134142  0.337406  0.122038  1
  Ho  Ho7  1  0.632934  0.162947  0.122410  1
  Ho  Ho8  1  0.134589  0.337230  0.377151  1
  Ho  Ho9  1  0.366259  0.836866  0.622754  1
  Ho  Ho10  1  0.867702  0.662607  0.878136  1
  Ho  Ho11  1  0.521678  0.321989  0.902020  1
  Ho  Ho12  1  0.019897  0.179316  0.597662  1
  Ho  Ho13  1  0.480494  0.678966  0.402213  1
  Ho  Ho14  1  0.979014  0.820113  0.098198  1
  Ho  Ho15  1  0.479636  0.678329  0.097134  1
  Ho  Ho16  1  0.197939  0.503273  0.750450  1
  Ho  Ho17  1  0.697998  0.996891  0.750137  1
  Ho  Ho18  1  0.802072  0.497258  0.249322  1
  Ho  Ho19  1  0.302278  0.002901  0.249528  1
  Sn  Sn20  1  0.294488  0.033887  0.043021  1
  Sn  Sn21  1  0.794906  0.462717  0.457474  1
  Sn  Sn22  1  0.705350  0.963978  0.542281  1
  Sn  Sn23  1  0.208933  0.537445  0.958698  1
  Sn  Sn24  1  0.703553  0.960363  0.959092  1
  Sn  Sn25  1  0.202830  0.540275  0.540775  1
  Sn  Sn26  1  0.297233  0.039363  0.458996  1
  Sn  Sn27  1  0.792572  0.462950  0.041618  1
  Sn  Sn28  1  0.564434  0.619640  0.750573  1
  Sn  Sn29  1  0.064077  0.880101  0.749968  1
  Sn  Sn30  1  0.436346  0.380927  0.249919  1
  Sn  Sn31  1  0.936246  0.119773  0.249434  1
  Sn  Sn32  1  0.328452  0.146517  0.750911  1
  Sn  Sn33  1  0.828352  0.353387  0.749148  1
  Sn  Sn34  1  0.669716  0.852057  0.249486  1
  Sn  Sn35  1  0.172514  0.646757  0.248877  1
