# generated using pymatgen
data_Er12Co4SnPd
_symmetry_space_group_name_H-M   'P 1'
_cell_length_a   8.23270995
_cell_length_b   8.23271002
_cell_length_c   8.23270979
_cell_angle_alpha   110.97818921
_cell_angle_beta   110.62458406
_cell_angle_gamma   106.84264141
_symmetry_Int_Tables_number   1
_chemical_formula_structural   Er12Co4SnPd
_chemical_formula_sum   'Er12 Co4 Sn1 Pd1'
_cell_volume   428.86448392
_cell_formula_units_Z   1
loop_
 _symmetry_equiv_pos_site_id
 _symmetry_equiv_pos_as_xyz
  1  'x, y, z'
loop_
 _atom_site_type_symbol
 _atom_site_label
 _atom_site_symmetry_multiplicity
 _atom_site_fract_x
 _atom_site_fract_y
 _atom_site_fract_z
 _atom_site_occupancy
  Er  Er0  1  0.314155  0.618085  0.303929  1
  Er  Er1  1  0.685845  0.381916  0.696071  1
  Er  Er2  1  0.314155  0.010226  0.696071  1
  Er  Er3  1  0.685845  0.989774  0.303929  1
  Er  Er4  1  0.417797  0.216311  0.201486  1
  Er  Er5  1  0.582203  0.783689  0.798514  1
  Er  Er6  1  0.014825  0.216311  0.798514  1
  Er  Er7  1  0.985175  0.783689  0.201486  1
  Er  Er8  1  0.186164  0.291118  0.477282  1
  Er  Er9  1  0.813836  0.708882  0.522718  1
  Er  Er10  1  0.186164  0.708882  0.895046  1
  Er  Er11  1  0.813836  0.291118  0.104954  1
  Co  Co12  1  0.112907  0.612907  0.500000  1
  Co  Co13  1  0.887094  0.387094  0.500000  1
  Co  Co14  1  0.377686  0.000000  0.377686  1
  Co  Co15  1  0.622314  0.000000  0.622314  1
  Sn  Sn16  1  0.500000  0.500000  0.000000  1
  Pd  Pd17  1  0.000000  0.000000  0.000000  1
