# generated using pymatgen
data_NdTi2(GaPt)2
_symmetry_space_group_name_H-M   'P 1'
_cell_length_a   5.57959648
_cell_length_b   5.57959701
_cell_length_c   5.57959846
_cell_angle_alpha   100.19131591
_cell_angle_beta   103.27236321
_cell_angle_gamma   126.40464764
_symmetry_Int_Tables_number   1
_chemical_formula_structural   NdTi2(GaPt)2
_chemical_formula_sum   'Nd1 Ti2 Ga2 Pt2'
_cell_volume   124.72195384
_cell_formula_units_Z   1
loop_
 _symmetry_equiv_pos_site_id
 _symmetry_equiv_pos_as_xyz
  1  'x, y, z'
loop_
 _atom_site_type_symbol
 _atom_site_label
 _atom_site_symmetry_multiplicity
 _atom_site_fract_x
 _atom_site_fract_y
 _atom_site_fract_z
 _atom_site_occupancy
  Nd  Nd0  1  0.000367  0.000000  0.000367  1
  Ti  Ti1  1  0.248093  0.749560  0.498534  1
  Ti  Ti2  1  0.748974  0.250440  0.498534  1
  Ga  Ga3  1  0.307036  0.300078  0.607112  1
  Ga  Ga4  1  0.307036  0.699922  0.006958  1
  Pt  Pt5  1  0.694247  0.298578  0.992826  1
  Pt  Pt6  1  0.694247  0.701422  0.395669  1
