# generated using pymatgen
data_K6MnFeF12
_symmetry_space_group_name_H-M   'P 1'
_cell_length_a   6.40532400
_cell_length_b   6.16632528
_cell_length_c   10.76207800
_cell_angle_alpha   55.14722452
_cell_angle_beta   90.00013418
_cell_angle_gamma   89.93128075
_symmetry_Int_Tables_number   1
_chemical_formula_structural   K6MnFeF12
_chemical_formula_sum   'K6 Mn1 Fe1 F12'
_cell_volume   348.82449966
_cell_formula_units_Z   1
loop_
 _symmetry_equiv_pos_site_id
 _symmetry_equiv_pos_as_xyz
  1  'x, y, z'
loop_
 _atom_site_type_symbol
 _atom_site_label
 _atom_site_symmetry_multiplicity
 _atom_site_fract_x
 _atom_site_fract_y
 _atom_site_fract_z
 _atom_site_occupancy
  K  K0  1  0.500000  0.500000  0.000000  1
  K  K1  1  0.000000  0.500000  0.500000  1
  K  K2  1  0.053390  0.727493  0.753948  1
  K  K3  1  0.946610  0.272507  0.246052  1
  K  K4  1  0.547111  0.263882  0.750000  1
  K  K5  1  0.452889  0.736118  0.250000  1
  Mn  Mn6  1  0.000000  0.000000  0.000000  1
  Fe  Fe7  1  0.500000  0.000000  0.500000  1
  F  F8  1  0.754103  0.775804  0.559643  1
  F  F9  1  0.245897  0.224196  0.440357  1
  F  F10  1  0.267855  0.237162  0.935829  1
  F  F11  1  0.732145  0.762838  0.064171  1
  F  F12  1  0.457986  0.883331  0.711128  1
  F  F13  1  0.542014  0.116669  0.288872  1
  F  F14  1  0.960167  0.113281  0.794413  1
  F  F15  1  0.039833  0.886719  0.205587  1
  F  F16  1  0.327143  0.701803  0.539585  1
  F  F17  1  0.672857  0.298197  0.460415  1
  F  F18  1  0.834580  0.292995  0.959907  1
  F  F19  1  0.165420  0.707005  0.040093  1
