# generated using pymatgen
data_Cr8Ag3GeSe16
_symmetry_space_group_name_H-M   'P 1'
_cell_length_a   13.19174431
_cell_length_b   13.19174439
_cell_length_c   13.19174398
_cell_angle_alpha   33.44799549
_cell_angle_beta   33.44799521
_cell_angle_gamma   33.44799402
_symmetry_Int_Tables_number   1
_chemical_formula_structural   Cr8Ag3GeSe16
_chemical_formula_sum   'Cr8 Ag3 Ge1 Se16'
_cell_volume   621.09544422
_cell_formula_units_Z   1
loop_
 _symmetry_equiv_pos_site_id
 _symmetry_equiv_pos_as_xyz
  1  'x, y, z'
loop_
 _atom_site_type_symbol
 _atom_site_label
 _atom_site_symmetry_multiplicity
 _atom_site_fract_x
 _atom_site_fract_y
 _atom_site_fract_z
 _atom_site_occupancy
  Cr  Cr0  1  0.252823  0.252823  0.252823  1
  Cr  Cr1  1  0.750144  0.750144  0.750144  1
  Cr  Cr2  1  0.994095  0.509510  0.994095  1
  Cr  Cr3  1  0.497366  0.004984  0.497366  1
  Cr  Cr4  1  0.497366  0.497366  0.004984  1
  Cr  Cr5  1  0.994095  0.994095  0.509510  1
  Cr  Cr6  1  0.509510  0.994095  0.994095  1
  Cr  Cr7  1  0.004984  0.497366  0.497366  1
  Ag  Ag8  1  0.062613  0.062613  0.062613  1
  Ag  Ag9  1  0.937455  0.937455  0.937455  1
  Ag  Ag10  1  0.437419  0.437419  0.437419  1
  Ge  Ge11  1  0.562504  0.562504  0.562504  1
  Se  Se12  1  0.630350  0.630350  0.630350  1
  Se  Se13  1  0.133041  0.133041  0.133041  1
  Se  Se14  1  0.356462  0.907100  0.356462  1
  Se  Se15  1  0.851986  0.411798  0.851986  1
  Se  Se16  1  0.356462  0.356462  0.907100  1
  Se  Se17  1  0.851986  0.851986  0.411798  1
  Se  Se18  1  0.907100  0.356462  0.356462  1
  Se  Se19  1  0.411798  0.851986  0.851986  1
  Se  Se20  1  0.868040  0.868040  0.868040  1
  Se  Se21  1  0.368276  0.368276  0.368276  1
  Se  Se22  1  0.146270  0.590818  0.146270  1
  Se  Se23  1  0.645743  0.089282  0.645743  1
  Se  Se24  1  0.146270  0.146270  0.590818  1
  Se  Se25  1  0.645743  0.645743  0.089282  1
  Se  Se26  1  0.590818  0.146270  0.146270  1
  Se  Se27  1  0.089282  0.645743  0.645743  1
