# generated using pymatgen
data_Ba4GaAs3Pt4
_symmetry_space_group_name_H-M   'P 1'
_cell_length_a   6.84851990
_cell_length_b   6.84851990
_cell_length_c   6.84851990
_cell_angle_alpha   90.87896412
_cell_angle_beta   89.12103588
_cell_angle_gamma   90.87896412
_symmetry_Int_Tables_number   1
_chemical_formula_structural   Ba4GaAs3Pt4
_chemical_formula_sum   'Ba4 Ga1 As3 Pt4'
_cell_volume   321.09857779
_cell_formula_units_Z   1
loop_
 _symmetry_equiv_pos_site_id
 _symmetry_equiv_pos_as_xyz
  1  'x, y, z'
loop_
 _atom_site_type_symbol
 _atom_site_label
 _atom_site_symmetry_multiplicity
 _atom_site_fract_x
 _atom_site_fract_y
 _atom_site_fract_z
 _atom_site_occupancy
  Ba  Ba0  1  0.622762  0.383174  0.884228  1
  Ba  Ba1  1  0.384228  0.877238  0.616826  1
  Ba  Ba2  1  0.116826  0.115772  0.122762  1
  Ba  Ba3  1  0.876149  0.623851  0.376149  1
  Ga  Ga4  1  0.159642  0.340358  0.659642  1
  As  As5  1  0.670114  0.169781  0.335036  1
  As  As6  1  0.330219  0.664964  0.170114  1
  As  As7  1  0.835036  0.829886  0.830219  1
  Pt  Pt8  1  0.596672  0.903328  0.096672  1
  Pt  Pt9  1  0.089634  0.594663  0.913381  1
  Pt  Pt10  1  0.413381  0.410366  0.405337  1
  Pt  Pt11  1  0.905337  0.086619  0.589634  1
