# generated using pymatgen
data_Zr3ZnPd2C
_symmetry_space_group_name_H-M   'P 1'
_cell_length_a   8.68156093
_cell_length_b   8.68156141
_cell_length_c   8.68156100
_cell_angle_alpha   59.99999777
_cell_angle_beta   59.99999592
_cell_angle_gamma   59.99999693
_symmetry_Int_Tables_number   1
_chemical_formula_structural   Zr3ZnPd2C
_chemical_formula_sum   'Zr12 Zn4 Pd8 C4'
_cell_volume   462.67757625
_cell_formula_units_Z   4
loop_
 _symmetry_equiv_pos_site_id
 _symmetry_equiv_pos_as_xyz
  1  'x, y, z'
loop_
 _atom_site_type_symbol
 _atom_site_label
 _atom_site_symmetry_multiplicity
 _atom_site_fract_x
 _atom_site_fract_y
 _atom_site_fract_z
 _atom_site_occupancy
  Zr  Zr0  1  0.441579  0.441579  0.058421  1
  Zr  Zr1  1  0.058421  0.441579  0.058421  1
  Zr  Zr2  1  0.441579  0.058421  0.058421  1
  Zr  Zr3  1  0.058421  0.058421  0.441579  1
  Zr  Zr4  1  0.441579  0.058421  0.441579  1
  Zr  Zr5  1  0.058421  0.441579  0.441579  1
  Zr  Zr6  1  0.808421  0.808421  0.191579  1
  Zr  Zr7  1  0.191579  0.808421  0.191579  1
  Zr  Zr8  1  0.808421  0.191579  0.191579  1
  Zr  Zr9  1  0.191579  0.191579  0.808421  1
  Zr  Zr10  1  0.808421  0.191579  0.808421  1
  Zr  Zr11  1  0.191579  0.808421  0.808421  1
  Zn  Zn12  1  0.625000  0.625000  0.125000  1
  Zn  Zn13  1  0.625000  0.125000  0.625000  1
  Zn  Zn14  1  0.125000  0.625000  0.625000  1
  Zn  Zn15  1  0.625000  0.625000  0.625000  1
  Pd  Pd16  1  0.834831  0.834831  0.495506  1
  Pd  Pd17  1  0.834831  0.495506  0.834831  1
  Pd  Pd18  1  0.495506  0.834831  0.834831  1
  Pd  Pd19  1  0.834831  0.834831  0.834831  1
  Pd  Pd20  1  0.415169  0.415169  0.754494  1
  Pd  Pd21  1  0.415169  0.754494  0.415169  1
  Pd  Pd22  1  0.754494  0.415169  0.415169  1
  Pd  Pd23  1  0.415169  0.415169  0.415169  1
  C  C24  1  0.125000  0.125000  0.625000  1
  C  C25  1  0.125000  0.625000  0.125000  1
  C  C26  1  0.625000  0.125000  0.125000  1
  C  C27  1  0.125000  0.125000  0.125000  1
