# generated using pymatgen
data_Hf6CuOs3Ru2
_symmetry_space_group_name_H-M   'P 1'
_cell_length_a   4.61528800
_cell_length_b   6.46097800
_cell_length_c   13.87737700
_cell_angle_alpha   90.00000000
_cell_angle_beta   90.00225685
_cell_angle_gamma   90.00000000
_symmetry_Int_Tables_number   1
_chemical_formula_structural   Hf6CuOs3Ru2
_chemical_formula_sum   'Hf12 Cu2 Os6 Ru4'
_cell_volume   413.81331022
_cell_formula_units_Z   2
loop_
 _symmetry_equiv_pos_site_id
 _symmetry_equiv_pos_as_xyz
  1  'x, y, z'
loop_
 _atom_site_type_symbol
 _atom_site_label
 _atom_site_symmetry_multiplicity
 _atom_site_fract_x
 _atom_site_fract_y
 _atom_site_fract_z
 _atom_site_occupancy
  Hf  Hf0  1  0.500011  0.249819  0.999878  1
  Hf  Hf1  1  0.500011  0.750180  0.999878  1
  Hf  Hf2  1  0.999951  0.250179  0.166796  1
  Hf  Hf3  1  0.999951  0.749822  0.166796  1
  Hf  Hf4  1  0.499976  0.250251  0.333548  1
  Hf  Hf5  1  0.499976  0.749750  0.333548  1
  Hf  Hf6  1  0.000004  0.249809  0.500223  1
  Hf  Hf7  1  0.000004  0.750191  0.500223  1
  Hf  Hf8  1  0.500032  0.250195  0.666437  1
  Hf  Hf9  1  0.500032  0.749806  0.666437  1
  Hf  Hf10  1  0.000048  0.249754  0.833119  1
  Hf  Hf11  1  0.000048  0.750247  0.833119  1
  Cu  Cu12  1  0.000010  0.000000  0.999890  1
  Cu  Cu13  1  0.499917  0.500000  0.166800  1
  Os  Os14  1  0.000023  0.500000  0.001005  1
  Os  Os15  1  0.499960  0.000000  0.165654  1
  Os  Os16  1  0.999970  0.500000  0.331626  1
  Os  Os17  1  0.500001  0.000000  0.499422  1
  Os  Os18  1  0.000044  0.500000  0.667238  1
  Os  Os19  1  0.500038  0.000000  0.835043  1
  Ru  Ru20  1  0.999985  0.000000  0.334001  1
  Ru  Ru21  1  0.500007  0.500000  0.500210  1
  Ru  Ru22  1  0.999976  0.000000  0.666456  1
  Ru  Ru23  1  0.500023  0.500000  0.832654  1
