# generated using pymatgen
data_Na2Pd3Au3O8
_symmetry_space_group_name_H-M   'P 1'
_cell_length_a   5.86150800
_cell_length_b   5.84031100
_cell_length_c   5.93415400
_cell_angle_alpha   90.00000000
_cell_angle_beta   90.00000000
_cell_angle_gamma   90.00000000
_symmetry_Int_Tables_number   1
_chemical_formula_structural   Na2Pd3Au3O8
_chemical_formula_sum   'Na2 Pd3 Au3 O8'
_cell_volume   203.14406982
_cell_formula_units_Z   1
loop_
 _symmetry_equiv_pos_site_id
 _symmetry_equiv_pos_as_xyz
  1  'x, y, z'
loop_
 _atom_site_type_symbol
 _atom_site_label
 _atom_site_symmetry_multiplicity
 _atom_site_fract_x
 _atom_site_fract_y
 _atom_site_fract_z
 _atom_site_occupancy
  Na  Na0  1  0.498160  0.500000  0.500000  1
  Na  Na1  1  0.002170  0.000000  0.000000  1
  Pd  Pd2  1  0.250651  0.000000  0.500000  1
  Pd  Pd3  1  0.497653  0.749492  0.000000  1
  Pd  Pd4  1  0.497653  0.250508  0.000000  1
  Au  Au5  1  0.747493  0.000000  0.500000  1
  Au  Au6  1  0.002768  0.500000  0.248380  1
  Au  Au7  1  0.002768  0.500000  0.751620  1
  O  O8  1  0.746025  0.250836  0.244593  1
  O  O9  1  0.254146  0.245990  0.749447  1
  O  O10  1  0.254146  0.754010  0.250553  1
  O  O11  1  0.746025  0.749164  0.755407  1
  O  O12  1  0.254146  0.245990  0.250553  1
  O  O13  1  0.746025  0.749164  0.244593  1
  O  O14  1  0.746025  0.250836  0.755407  1
  O  O15  1  0.254146  0.754010  0.749447  1
