# generated using pymatgen
data_CsZrCdF7
_symmetry_space_group_name_H-M   'P 1'
_cell_length_a   6.74891960
_cell_length_b   6.74891914
_cell_length_c   8.75120000
_cell_angle_alpha   90.00000000
_cell_angle_beta   90.00000000
_cell_angle_gamma   118.13133366
_symmetry_Int_Tables_number   1
_chemical_formula_structural   CsZrCdF7
_chemical_formula_sum   'Cs2 Zr2 Cd2 F14'
_cell_volume   351.51206715
_cell_formula_units_Z   2
loop_
 _symmetry_equiv_pos_site_id
 _symmetry_equiv_pos_as_xyz
  1  'x, y, z'
loop_
 _atom_site_type_symbol
 _atom_site_label
 _atom_site_symmetry_multiplicity
 _atom_site_fract_x
 _atom_site_fract_y
 _atom_site_fract_z
 _atom_site_occupancy
  Cs  Cs0  1  0.500000  0.500000  0.500000  1
  Cs  Cs1  1  0.500000  0.500000  0.000000  1
  Zr  Zr2  1  0.808238  0.191762  0.250000  1
  Zr  Zr3  1  0.191762  0.808238  0.750000  1
  Cd  Cd4  1  0.810369  0.189631  0.750000  1
  Cd  Cd5  1  0.189631  0.810369  0.250000  1
  F  F6  1  0.799533  0.200467  0.015347  1
  F  F7  1  0.150459  0.438907  0.250000  1
  F  F8  1  0.561093  0.849541  0.250000  1
  F  F9  1  0.521590  0.833473  0.750000  1
  F  F10  1  0.166527  0.478410  0.750000  1
  F  F11  1  0.799533  0.200467  0.484653  1
  F  F12  1  0.438907  0.150459  0.750000  1
  F  F13  1  0.833473  0.521590  0.250000  1
  F  F14  1  0.478410  0.166527  0.250000  1
  F  F15  1  0.988042  0.011958  0.250000  1
  F  F16  1  0.200467  0.799533  0.515347  1
  F  F17  1  0.200467  0.799533  0.984653  1
  F  F18  1  0.011958  0.988042  0.750000  1
  F  F19  1  0.849541  0.561093  0.750000  1
