# generated using pymatgen
data_Ho4SiI6
_symmetry_space_group_name_H-M   'P 1'
_cell_length_a   4.18865100
_cell_length_b   13.94144900
_cell_length_c   14.71172300
_cell_angle_alpha   90.00000000
_cell_angle_beta   90.00000000
_cell_angle_gamma   90.00000000
_symmetry_Int_Tables_number   1
_chemical_formula_structural   Ho4SiI6
_chemical_formula_sum   'Ho8 Si2 I12'
_cell_volume   859.10377986
_cell_formula_units_Z   2
loop_
 _symmetry_equiv_pos_site_id
 _symmetry_equiv_pos_as_xyz
  1  'x, y, z'
loop_
 _atom_site_type_symbol
 _atom_site_label
 _atom_site_symmetry_multiplicity
 _atom_site_fract_x
 _atom_site_fract_y
 _atom_site_fract_z
 _atom_site_occupancy
  Ho  Ho0  1  0.500000  0.113792  0.347933  1
  Ho  Ho1  1  0.500000  0.886208  0.652067  1
  Ho  Ho2  1  0.500000  0.613792  0.152067  1
  Ho  Ho3  1  0.500000  0.386208  0.847933  1
  Ho  Ho4  1  0.000000  0.110918  0.574074  1
  Ho  Ho5  1  0.000000  0.889082  0.425926  1
  Ho  Ho6  1  0.000000  0.610918  0.925926  1
  Ho  Ho7  1  0.000000  0.389082  0.074074  1
  Si  Si8  1  0.500000  0.000000  0.500000  1
  Si  Si9  1  0.500000  0.500000  0.000000  1
  I  I10  1  0.500000  0.245132  0.161315  1
  I  I11  1  0.500000  0.754868  0.838685  1
  I  I12  1  0.500000  0.745132  0.338685  1
  I  I13  1  0.500000  0.254868  0.661315  1
  I  I14  1  0.000000  0.258337  0.413497  1
  I  I15  1  0.000000  0.741663  0.586503  1
  I  I16  1  0.000000  0.758337  0.086503  1
  I  I17  1  0.000000  0.241663  0.913497  1
  I  I18  1  0.000000  0.999480  0.240714  1
  I  I19  1  0.000000  0.000520  0.759286  1
  I  I20  1  0.000000  0.499480  0.259286  1
  I  I21  1  0.000000  0.500520  0.740714  1
