# generated using pymatgen
data_HoTm3Mg2(Ni7B2)2
_symmetry_space_group_name_H-M   'P 1'
_cell_length_a   4.97036300
_cell_length_b   4.97036358
_cell_length_c   14.19864900
_cell_angle_alpha   90.00000000
_cell_angle_beta   90.00000000
_cell_angle_gamma   120.00000282
_symmetry_Int_Tables_number   1
_chemical_formula_structural   HoTm3Mg2(Ni7B2)2
_chemical_formula_sum   'Ho1 Tm3 Mg2 Ni14 B4'
_cell_volume   303.77631410
_cell_formula_units_Z   1
loop_
 _symmetry_equiv_pos_site_id
 _symmetry_equiv_pos_as_xyz
  1  'x, y, z'
loop_
 _atom_site_type_symbol
 _atom_site_label
 _atom_site_symmetry_multiplicity
 _atom_site_fract_x
 _atom_site_fract_y
 _atom_site_fract_z
 _atom_site_occupancy
  Ho  Ho0  1  0.666667  0.333333  0.469600  1
  Tm  Tm1  1  0.333333  0.666667  0.969746  1
  Tm  Tm2  1  0.333333  0.666667  0.744961  1
  Tm  Tm3  1  0.666667  0.333333  0.244600  1
  Mg  Mg4  1  0.333333  0.666667  0.533695  1
  Mg  Mg5  1  0.666667  0.333333  0.033266  1
  Ni  Ni6  1  0.000000  0.000000  0.000918  1
  Ni  Ni7  1  0.000000  0.000000  0.501060  1
  Ni  Ni8  1  0.165747  0.331495  0.146695  1
  Ni  Ni9  1  0.834494  0.668989  0.646918  1
  Ni  Ni10  1  0.668505  0.834253  0.146695  1
  Ni  Ni11  1  0.165747  0.834253  0.146695  1
  Ni  Ni12  1  0.834494  0.165506  0.646918  1
  Ni  Ni13  1  0.331011  0.165506  0.646918  1
  Ni  Ni14  1  0.833740  0.667481  0.852994  1
  Ni  Ni15  1  0.833740  0.166260  0.852994  1
  Ni  Ni16  1  0.332519  0.166260  0.852994  1
  Ni  Ni17  1  0.667363  0.833681  0.352664  1
  Ni  Ni18  1  0.166319  0.833681  0.352664  1
  Ni  Ni19  1  0.166319  0.332637  0.352664  1
  B  B20  1  0.333333  0.666667  0.250152  1
  B  B21  1  0.666667  0.333333  0.750039  1
  B  B22  1  0.000000  0.000000  0.251984  1
  B  B23  1  0.000000  0.000000  0.752165  1
