# generated using pymatgen
data_Ce5GeSb3
_symmetry_space_group_name_H-M   'P 1'
_cell_length_a   9.47509100
_cell_length_b   9.47509031
_cell_length_c   6.39434200
_cell_angle_alpha   90.00000000
_cell_angle_beta   90.00000000
_cell_angle_gamma   119.99999892
_symmetry_Int_Tables_number   1
_chemical_formula_structural   Ce5GeSb3
_chemical_formula_sum   'Ce10 Ge2 Sb6'
_cell_volume   497.15664069
_cell_formula_units_Z   2
loop_
 _symmetry_equiv_pos_site_id
 _symmetry_equiv_pos_as_xyz
  1  'x, y, z'
loop_
 _atom_site_type_symbol
 _atom_site_label
 _atom_site_symmetry_multiplicity
 _atom_site_fract_x
 _atom_site_fract_y
 _atom_site_fract_z
 _atom_site_occupancy
  Ce  Ce0  1  0.666667  0.333333  0.000000  1
  Ce  Ce1  1  0.333333  0.666667  0.000000  1
  Ce  Ce2  1  0.333333  0.666667  0.500000  1
  Ce  Ce3  1  0.666667  0.333333  0.500000  1
  Ce  Ce4  1  0.737663  0.737663  0.750000  1
  Ce  Ce5  1  0.262337  0.000000  0.750000  1
  Ce  Ce6  1  0.000000  0.262337  0.750000  1
  Ce  Ce7  1  0.262337  0.262337  0.250000  1
  Ce  Ce8  1  0.737663  0.000000  0.250000  1
  Ce  Ce9  1  0.000000  0.737663  0.250000  1
  Ge  Ge10  1  0.000000  0.000000  0.000000  1
  Ge  Ge11  1  0.000000  0.000000  0.500000  1
  Sb  Sb12  1  0.384314  0.384314  0.750000  1
  Sb  Sb13  1  0.615686  0.000000  0.750000  1
  Sb  Sb14  1  0.000000  0.615686  0.750000  1
  Sb  Sb15  1  0.615686  0.615686  0.250000  1
  Sb  Sb16  1  0.384314  0.000000  0.250000  1
  Sb  Sb17  1  0.000000  0.384314  0.250000  1
