# generated using pymatgen
data_Ho4Zn4Si3Ge
_symmetry_space_group_name_H-M   'P 1'
_cell_length_a   4.17879400
_cell_length_b   4.17879334
_cell_length_c   15.54135100
_cell_angle_alpha   90.00000000
_cell_angle_beta   90.00000000
_cell_angle_gamma   120.00000522
_symmetry_Int_Tables_number   1
_chemical_formula_structural   Ho4Zn4Si3Ge
_chemical_formula_sum   'Ho4 Zn4 Si3 Ge1'
_cell_volume   235.02888180
_cell_formula_units_Z   1
loop_
 _symmetry_equiv_pos_site_id
 _symmetry_equiv_pos_as_xyz
  1  'x, y, z'
loop_
 _atom_site_type_symbol
 _atom_site_label
 _atom_site_symmetry_multiplicity
 _atom_site_fract_x
 _atom_site_fract_y
 _atom_site_fract_z
 _atom_site_occupancy
  Ho  Ho0  1  0.000000  0.000000  0.250295  1
  Ho  Ho1  1  0.000000  0.000000  0.748007  1
  Ho  Ho2  1  0.000000  0.000000  0.001644  1
  Ho  Ho3  1  0.000000  0.000000  0.499594  1
  Zn  Zn4  1  0.333333  0.666667  0.142320  1
  Zn  Zn5  1  0.666667  0.333333  0.854023  1
  Zn  Zn6  1  0.666667  0.333333  0.641174  1
  Zn  Zn7  1  0.333333  0.666667  0.358284  1
  Si  Si8  1  0.333333  0.666667  0.617350  1
  Si  Si9  1  0.666667  0.333333  0.382584  1
  Si  Si10  1  0.666667  0.333333  0.118061  1
  Ge  Ge11  1  0.333333  0.666667  0.886665  1
