# generated using pymatgen
data_HgBi3Ir2(RuO7)2
_symmetry_space_group_name_H-M   'P 1'
_cell_length_a   7.28370659
_cell_length_b   7.25727986
_cell_length_c   7.28370648
_cell_angle_alpha   61.40219927
_cell_angle_beta   61.39183038
_cell_angle_gamma   61.40218971
_symmetry_Int_Tables_number   1
_chemical_formula_structural   HgBi3Ir2(RuO7)2
_chemical_formula_sum   'Hg1 Bi3 Ir2 Ru2 O14'
_cell_volume   280.80150472
_cell_formula_units_Z   1
loop_
 _symmetry_equiv_pos_site_id
 _symmetry_equiv_pos_as_xyz
  1  'x, y, z'
loop_
 _atom_site_type_symbol
 _atom_site_label
 _atom_site_symmetry_multiplicity
 _atom_site_fract_x
 _atom_site_fract_y
 _atom_site_fract_z
 _atom_site_occupancy
  Hg  Hg0  1  0.125000  0.125000  0.125000  1
  Bi  Bi1  1  0.125000  0.125000  0.625000  1
  Bi  Bi2  1  0.125000  0.625000  0.125000  1
  Bi  Bi3  1  0.625000  0.125000  0.125000  1
  Ir  Ir4  1  0.625000  0.125000  0.625000  1
  Ir  Ir5  1  0.625000  0.625000  0.625000  1
  Ru  Ru6  1  0.625000  0.625000  0.125000  1
  Ru  Ru7  1  0.125000  0.625000  0.625000  1
  O  O8  1  0.245612  0.244142  0.245612  1
  O  O9  1  0.004388  0.005858  0.004388  1
  O  O10  1  0.542862  0.954602  0.542862  1
  O  O11  1  0.307837  0.679853  0.307837  1
  O  O12  1  0.543878  0.545466  0.952299  1
  O  O13  1  0.952299  0.545466  0.543878  1
  O  O14  1  0.561018  0.948346  0.948005  1
  O  O15  1  0.948005  0.948346  0.561018  1
  O  O16  1  0.942163  0.570147  0.942163  1
  O  O17  1  0.688982  0.301654  0.301995  1
  O  O18  1  0.297701  0.704534  0.706122  1
  O  O19  1  0.707138  0.295398  0.707138  1
  O  O20  1  0.301995  0.301654  0.688982  1
  O  O21  1  0.706122  0.704534  0.297701  1
