# generated using pymatgen
data_EuDyEr4(SbO7)2
_symmetry_space_group_name_H-M   'P 1'
_cell_length_a   6.45013052
_cell_length_b   6.45013019
_cell_length_c   7.51831644
_cell_angle_alpha   89.93080577
_cell_angle_beta   90.06919338
_cell_angle_gamma   109.08318269
_symmetry_Int_Tables_number   1
_chemical_formula_structural   EuDyEr4(SbO7)2
_chemical_formula_sum   'Eu1 Dy1 Er4 Sb2 O14'
_cell_volume   295.60348976
_cell_formula_units_Z   1
loop_
 _symmetry_equiv_pos_site_id
 _symmetry_equiv_pos_as_xyz
  1  'x, y, z'
loop_
 _atom_site_type_symbol
 _atom_site_label
 _atom_site_symmetry_multiplicity
 _atom_site_fract_x
 _atom_site_fract_y
 _atom_site_fract_z
 _atom_site_occupancy
  Eu  Eu0  1  0.500000  0.500000  0.000000  1
  Dy  Dy1  1  0.500000  0.500000  0.500000  1
  Er  Er2  1  0.531259  0.000496  0.748922  1
  Er  Er3  1  0.000496  0.531259  0.251078  1
  Er  Er4  1  0.468741  0.999504  0.251078  1
  Er  Er5  1  0.999504  0.468741  0.748922  1
  Sb  Sb6  1  0.000000  0.000000  0.500000  1
  Sb  Sb7  1  0.000000  0.000000  0.000000  1
  O  O8  1  0.676866  0.928236  0.469482  1
  O  O9  1  0.928236  0.676866  0.530518  1
  O  O10  1  0.677377  0.932440  0.030619  1
  O  O11  1  0.932440  0.677377  0.969381  1
  O  O12  1  0.323134  0.071764  0.530518  1
  O  O13  1  0.071764  0.323134  0.469482  1
  O  O14  1  0.322623  0.067560  0.969381  1
  O  O15  1  0.067560  0.322623  0.030619  1
  O  O16  1  0.928283  0.071717  0.750074  1
  O  O17  1  0.071717  0.928283  0.249926  1
  O  O18  1  0.366299  0.633701  0.743682  1
  O  O19  1  0.633701  0.366299  0.256318  1
  O  O20  1  0.639713  0.360287  0.744670  1
  O  O21  1  0.360287  0.639713  0.255330  1
