# generated using pymatgen
data_Y2PtRhF14
_symmetry_space_group_name_H-M   'P 1'
_cell_length_a   5.53709503
_cell_length_b   8.91543492
_cell_length_c   11.99867816
_cell_angle_alpha   62.55458613
_cell_angle_beta   90.09820808
_cell_angle_gamma   90.04135616
_symmetry_Int_Tables_number   1
_chemical_formula_structural   Y2PtRhF14
_chemical_formula_sum   'Y4 Pt2 Rh2 F28'
_cell_volume   525.65565059
_cell_formula_units_Z   2
loop_
 _symmetry_equiv_pos_site_id
 _symmetry_equiv_pos_as_xyz
  1  'x, y, z'
loop_
 _atom_site_type_symbol
 _atom_site_label
 _atom_site_symmetry_multiplicity
 _atom_site_fract_x
 _atom_site_fract_y
 _atom_site_fract_z
 _atom_site_occupancy
  Y  Y0  1  0.260755  0.813061  0.263293  1
  Y  Y1  1  0.739245  0.186939  0.736707  1
  Y  Y2  1  0.762088  0.185133  0.234863  1
  Y  Y3  1  0.237912  0.814867  0.765137  1
  Pt  Pt4  1  0.259135  0.272951  0.456916  1
  Pt  Pt5  1  0.740865  0.727049  0.543084  1
  Rh  Rh6  1  0.757552  0.726380  0.042647  1
  Rh  Rh7  1  0.242448  0.273620  0.957353  1
  F  F8  1  0.934829  0.705277  0.414317  1
  F  F9  1  0.065171  0.294723  0.585683  1
  F  F10  1  0.438324  0.291885  0.085791  1
  F  F11  1  0.561676  0.708115  0.914209  1
  F  F12  1  0.466428  0.730676  0.133195  1
  F  F13  1  0.533572  0.269324  0.866805  1
  F  F14  1  0.964289  0.274045  0.364675  1
  F  F15  1  0.035711  0.725955  0.635325  1
  F  F16  1  0.950326  0.744664  0.173139  1
  F  F17  1  0.049674  0.255336  0.826861  1
  F  F18  1  0.449698  0.258341  0.323592  1
  F  F19  1  0.550302  0.741659  0.676408  1
  F  F20  1  0.767335  0.482776  0.138112  1
  F  F21  1  0.232665  0.517224  0.861888  1
  F  F22  1  0.269759  0.520857  0.358708  1
  F  F23  1  0.730241  0.479143  0.641292  1
  F  F24  1  0.944925  0.280919  0.043823  1
  F  F25  1  0.055075  0.719081  0.956177  1
  F  F26  1  0.440241  0.719498  0.457607  1
  F  F27  1  0.559759  0.280502  0.542393  1
  F  F28  1  0.740714  0.974848  0.449816  1
  F  F29  1  0.259286  0.025152  0.550184  1
  F  F30  1  0.239588  0.030385  0.049157  1
  F  F31  1  0.760412  0.969615  0.950843  1
  F  F32  1  0.589269  0.967856  0.230906  1
  F  F33  1  0.410731  0.032144  0.769094  1
  F  F34  1  0.090182  0.030555  0.268833  1
  F  F35  1  0.909818  0.969445  0.731167  1
