# generated using pymatgen
data_Pr2Th(SnRh)3
_symmetry_space_group_name_H-M   'P 1'
_cell_length_a   7.69071000
_cell_length_b   7.57301819
_cell_length_c   4.11437800
_cell_angle_alpha   90.00000000
_cell_angle_beta   90.00000000
_cell_angle_gamma   120.51544441
_symmetry_Int_Tables_number   1
_chemical_formula_structural   Pr2Th(SnRh)3
_chemical_formula_sum   'Pr2 Th1 Sn3 Rh3'
_cell_volume   206.43866122
_cell_formula_units_Z   1
loop_
 _symmetry_equiv_pos_site_id
 _symmetry_equiv_pos_as_xyz
  1  'x, y, z'
loop_
 _atom_site_type_symbol
 _atom_site_label
 _atom_site_symmetry_multiplicity
 _atom_site_fract_x
 _atom_site_fract_y
 _atom_site_fract_z
 _atom_site_occupancy
  Pr  Pr0  1  0.411525  0.410021  0.500000  1
  Pr  Pr1  1  0.001504  0.589979  0.500000  1
  Th  Th2  1  0.585177  0.000000  0.500000  1
  Sn  Sn3  1  0.242073  0.000000  0.000000  1
  Sn  Sn4  1  0.749464  0.742123  0.000000  1
  Sn  Sn5  1  0.007341  0.257877  0.000000  1
  Rh  Rh6  1  0.986686  0.000000  0.500000  1
  Rh  Rh7  1  0.353528  0.690827  0.000000  1
  Rh  Rh8  1  0.662702  0.309173  0.000000  1
