# generated using pymatgen
data_Sm3Ho3(BiO7)2
_symmetry_space_group_name_H-M   'P 1'
_cell_length_a   6.61454640
_cell_length_b   6.61553250
_cell_length_c   7.77353676
_cell_angle_alpha   106.92874690
_cell_angle_beta   89.80042497
_cell_angle_gamma   98.90103519
_symmetry_Int_Tables_number   1
_chemical_formula_structural   Sm3Ho3(BiO7)2
_chemical_formula_sum   'Sm3 Ho3 Bi2 O14'
_cell_volume   321.19012648
_cell_formula_units_Z   1
loop_
 _symmetry_equiv_pos_site_id
 _symmetry_equiv_pos_as_xyz
  1  'x, y, z'
loop_
 _atom_site_type_symbol
 _atom_site_label
 _atom_site_symmetry_multiplicity
 _atom_site_fract_x
 _atom_site_fract_y
 _atom_site_fract_z
 _atom_site_occupancy
  Sm  Sm0  1  0.728223  0.461320  0.115412  1
  Sm  Sm1  1  0.735997  0.478141  0.616673  1
  Sm  Sm2  1  0.262535  0.522939  0.385736  1
  Ho  Ho3  1  0.462059  0.005002  0.251698  1
  Ho  Ho4  1  0.536281  0.993713  0.747927  1
  Ho  Ho5  1  0.272911  0.539142  0.883489  1
  Bi  Bi6  1  0.001083  0.001977  0.501575  1
  Bi  Bi7  1  0.002060  0.000114  0.998743  1
  O  O8  1  0.442198  0.652368  0.163374  1
  O  O9  1  0.546323  0.346289  0.831699  1
  O  O10  1  0.303410  0.924347  0.952373  1
  O  O11  1  0.698499  0.071168  0.047624  1
  O  O12  1  0.300585  0.929262  0.513448  1
  O  O13  1  0.700999  0.070505  0.485811  1
  O  O14  1  0.543754  0.358225  0.344033  1
  O  O15  1  0.452685  0.641681  0.660867  1
  O  O16  1  0.931018  0.666610  0.954480  1
  O  O17  1  0.077808  0.332551  0.038482  1
  O  O18  1  0.073833  0.347101  0.623354  1
  O  O19  1  0.929225  0.655496  0.382791  1
  O  O20  1  0.873310  0.907377  0.726146  1
  O  O21  1  0.125205  0.094674  0.274264  1
