# generated using pymatgen
data_SrPa4O11
_symmetry_space_group_name_H-M   'P 1'
_cell_length_a   6.87137000
_cell_length_b   6.87136952
_cell_length_c   13.38497600
_cell_angle_alpha   90.00000000
_cell_angle_beta   90.00000000
_cell_angle_gamma   119.99999269
_symmetry_Int_Tables_number   1
_chemical_formula_structural   SrPa4O11
_chemical_formula_sum   'Sr2 Pa8 O22'
_cell_volume   547.31191010
_cell_formula_units_Z   2
loop_
 _symmetry_equiv_pos_site_id
 _symmetry_equiv_pos_as_xyz
  1  'x, y, z'
loop_
 _atom_site_type_symbol
 _atom_site_label
 _atom_site_symmetry_multiplicity
 _atom_site_fract_x
 _atom_site_fract_y
 _atom_site_fract_z
 _atom_site_occupancy
  Sr  Sr0  1  0.666667  0.333333  0.250000  1
  Sr  Sr1  1  0.333333  0.666667  0.750000  1
  Pa  Pa2  1  0.333333  0.666667  0.250000  1
  Pa  Pa3  1  0.666667  0.333333  0.750000  1
  Pa  Pa4  1  0.357232  0.000000  0.000000  1
  Pa  Pa5  1  0.357232  0.357232  0.500000  1
  Pa  Pa6  1  0.000000  0.642768  0.500000  1
  Pa  Pa7  1  0.000000  0.357232  0.000000  1
  Pa  Pa8  1  0.642768  0.642768  0.000000  1
  Pa  Pa9  1  0.642768  0.000000  0.500000  1
  O  O10  1  0.333333  0.666667  0.536642  1
  O  O11  1  0.666667  0.333333  0.036642  1
  O  O12  1  0.666667  0.333333  0.463358  1
  O  O13  1  0.333333  0.666667  0.963358  1
  O  O14  1  0.742455  0.000000  0.000000  1
  O  O15  1  0.742455  0.742455  0.500000  1
  O  O16  1  0.000000  0.257545  0.500000  1
  O  O17  1  0.000000  0.742455  0.000000  1
  O  O18  1  0.257545  0.257545  0.000000  1
  O  O19  1  0.257545  0.000000  0.500000  1
  O  O20  1  0.373380  0.423681  0.341829  1
  O  O21  1  0.949699  0.373380  0.841829  1
  O  O22  1  0.423681  0.050301  0.841829  1
  O  O23  1  0.576319  0.949699  0.341829  1
  O  O24  1  0.050301  0.626620  0.341829  1
  O  O25  1  0.949699  0.576319  0.658171  1
  O  O26  1  0.626620  0.050301  0.658171  1
  O  O27  1  0.626620  0.576319  0.841829  1
  O  O28  1  0.423681  0.373380  0.658171  1
  O  O29  1  0.576319  0.626620  0.158171  1
  O  O30  1  0.050301  0.423681  0.158171  1
  O  O31  1  0.373380  0.949699  0.158171  1
