# generated using pymatgen
data_Sc2Al9NiIr2
_symmetry_space_group_name_H-M   'P 1'
_cell_length_a   7.46477095
_cell_length_b   7.46477117
_cell_length_c   9.26915700
_cell_angle_alpha   90.00000000
_cell_angle_beta   90.00000000
_cell_angle_gamma   120.38351566
_symmetry_Int_Tables_number   1
_chemical_formula_structural   Sc2Al9NiIr2
_chemical_formula_sum   'Sc4 Al18 Ni2 Ir4'
_cell_volume   445.56646167
_cell_formula_units_Z   2
loop_
 _symmetry_equiv_pos_site_id
 _symmetry_equiv_pos_as_xyz
  1  'x, y, z'
loop_
 _atom_site_type_symbol
 _atom_site_label
 _atom_site_symmetry_multiplicity
 _atom_site_fract_x
 _atom_site_fract_y
 _atom_site_fract_z
 _atom_site_occupancy
  Sc  Sc0  1  0.995916  0.662084  0.250000  1
  Sc  Sc1  1  0.004084  0.337916  0.750000  1
  Sc  Sc2  1  0.662084  0.995916  0.250000  1
  Sc  Sc3  1  0.337916  0.004084  0.750000  1
  Al  Al4  1  0.108864  0.108864  0.250000  1
  Al  Al5  1  0.891136  0.891136  0.750000  1
  Al  Al6  1  0.997275  0.329425  0.075754  1
  Al  Al7  1  0.002725  0.670575  0.924246  1
  Al  Al8  1  0.002725  0.670575  0.575754  1
  Al  Al9  1  0.329425  0.997275  0.424246  1
  Al  Al10  1  0.997275  0.329425  0.424246  1
  Al  Al11  1  0.670575  0.002725  0.575754  1
  Al  Al12  1  0.670575  0.002725  0.924246  1
  Al  Al13  1  0.329425  0.997275  0.075754  1
  Al  Al14  1  0.327677  0.327677  0.559048  1
  Al  Al15  1  0.672323  0.672323  0.440952  1
  Al  Al16  1  0.672323  0.672323  0.059048  1
  Al  Al17  1  0.327677  0.327677  0.940952  1
  Al  Al18  1  0.336630  0.546564  0.250000  1
  Al  Al19  1  0.663370  0.453436  0.750000  1
  Al  Al20  1  0.546564  0.336630  0.250000  1
  Al  Al21  1  0.453436  0.663370  0.750000  1
  Ni  Ni22  1  0.000000  0.000000  0.000000  1
  Ni  Ni23  1  0.000000  0.000000  0.500000  1
  Ir  Ir24  1  0.672034  0.327966  0.000000  1
  Ir  Ir25  1  0.327966  0.672034  0.000000  1
  Ir  Ir26  1  0.327966  0.672034  0.500000  1
  Ir  Ir27  1  0.672034  0.327966  0.500000  1
