# generated using pymatgen
data_Pr2Al2IrPt
_symmetry_space_group_name_H-M   'P 1'
_cell_length_a   4.47049600
_cell_length_b   7.12077800
_cell_length_c   7.96557600
_cell_angle_alpha   90.00000000
_cell_angle_beta   90.00000000
_cell_angle_gamma   90.00000000
_symmetry_Int_Tables_number   1
_chemical_formula_structural   Pr2Al2IrPt
_chemical_formula_sum   'Pr4 Al4 Ir2 Pt2'
_cell_volume   253.57144324
_cell_formula_units_Z   2
loop_
 _symmetry_equiv_pos_site_id
 _symmetry_equiv_pos_as_xyz
  1  'x, y, z'
loop_
 _atom_site_type_symbol
 _atom_site_label
 _atom_site_symmetry_multiplicity
 _atom_site_fract_x
 _atom_site_fract_y
 _atom_site_fract_z
 _atom_site_occupancy
  Pr  Pr0  1  0.250000  0.532587  0.820540  1
  Pr  Pr1  1  0.250000  0.032587  0.679460  1
  Pr  Pr2  1  0.750000  0.974377  0.314235  1
  Pr  Pr3  1  0.750000  0.474377  0.185765  1
  Al  Al4  1  0.250000  0.141816  0.068140  1
  Al  Al5  1  0.750000  0.354159  0.563063  1
  Al  Al6  1  0.250000  0.641816  0.431860  1
  Al  Al7  1  0.750000  0.854159  0.936937  1
  Ir  Ir8  1  0.250000  0.779003  0.113676  1
  Ir  Ir9  1  0.250000  0.279003  0.386324  1
  Pt  Pt10  1  0.750000  0.718059  0.613723  1
  Pt  Pt11  1  0.750000  0.218059  0.886277  1
