# generated using pymatgen
data_Sr6AlGa3N8
_symmetry_space_group_name_H-M   'P 1'
_cell_length_a   5.97840400
_cell_length_b   9.63116500
_cell_length_c   10.30137300
_cell_angle_alpha   90.00000000
_cell_angle_beta   90.00000000
_cell_angle_gamma   90.00000000
_symmetry_Int_Tables_number   1
_chemical_formula_structural   Sr6AlGa3N8
_chemical_formula_sum   'Sr12 Al2 Ga6 N16'
_cell_volume   593.14270818
_cell_formula_units_Z   2
loop_
 _symmetry_equiv_pos_site_id
 _symmetry_equiv_pos_as_xyz
  1  'x, y, z'
loop_
 _atom_site_type_symbol
 _atom_site_label
 _atom_site_symmetry_multiplicity
 _atom_site_fract_x
 _atom_site_fract_y
 _atom_site_fract_z
 _atom_site_occupancy
  Sr  Sr0  1  0.250000  0.594623  0.500000  1
  Sr  Sr1  1  0.250000  0.904498  0.000000  1
  Sr  Sr2  1  0.750000  0.404498  0.500000  1
  Sr  Sr3  1  0.750000  0.094623  0.000000  1
  Sr  Sr4  1  0.392552  0.587103  0.154531  1
  Sr  Sr5  1  0.389945  0.911662  0.346329  1
  Sr  Sr6  1  0.107448  0.587103  0.845469  1
  Sr  Sr7  1  0.110055  0.911662  0.653671  1
  Sr  Sr8  1  0.610055  0.411662  0.846329  1
  Sr  Sr9  1  0.607448  0.087103  0.654531  1
  Sr  Sr10  1  0.889945  0.411662  0.153671  1
  Sr  Sr11  1  0.892552  0.087103  0.345469  1
  Al  Al12  1  0.250000  0.230376  0.000000  1
  Al  Al13  1  0.750000  0.730376  0.500000  1
  Ga  Ga14  1  0.838371  0.749688  0.252355  1
  Ga  Ga15  1  0.661629  0.749688  0.747645  1
  Ga  Ga16  1  0.161629  0.249688  0.752355  1
  Ga  Ga17  1  0.338371  0.249688  0.247645  1
  Ga  Ga18  1  0.750000  0.769897  0.000000  1
  Ga  Ga19  1  0.250000  0.269897  0.500000  1
  N  N20  1  0.493070  0.167295  0.402899  1
  N  N21  1  0.484958  0.331897  0.090375  1
  N  N22  1  0.006930  0.167295  0.597101  1
  N  N23  1  0.015042  0.331897  0.909625  1
  N  N24  1  0.515042  0.831897  0.590375  1
  N  N25  1  0.506930  0.667295  0.902899  1
  N  N26  1  0.984958  0.831897  0.409625  1
  N  N27  1  0.993070  0.667295  0.097101  1
  N  N28  1  0.122570  0.374971  0.352972  1
  N  N29  1  0.124072  0.127687  0.141032  1
  N  N30  1  0.377430  0.374971  0.647028  1
  N  N31  1  0.375928  0.127687  0.858968  1
  N  N32  1  0.877430  0.874971  0.852972  1
  N  N33  1  0.624072  0.627687  0.358968  1
  N  N34  1  0.622570  0.874971  0.147028  1
  N  N35  1  0.875928  0.627687  0.641032  1
