# generated using pymatgen
data_Er4GaFeRu6
_symmetry_space_group_name_H-M   'P 1'
_cell_length_a   5.29958762
_cell_length_b   5.22226074
_cell_length_c   8.79654800
_cell_angle_alpha   90.00000000
_cell_angle_beta   90.00000000
_cell_angle_gamma   119.93003777
_symmetry_Int_Tables_number   1
_chemical_formula_structural   Er4GaFeRu6
_chemical_formula_sum   'Er4 Ga1 Fe1 Ru6'
_cell_volume   210.98388129
_cell_formula_units_Z   1
loop_
 _symmetry_equiv_pos_site_id
 _symmetry_equiv_pos_as_xyz
  1  'x, y, z'
loop_
 _atom_site_type_symbol
 _atom_site_label
 _atom_site_symmetry_multiplicity
 _atom_site_fract_x
 _atom_site_fract_y
 _atom_site_fract_z
 _atom_site_occupancy
  Er  Er0  1  0.334310  0.668129  0.433552  1
  Er  Er1  1  0.664178  0.335138  0.562179  1
  Er  Er2  1  0.664178  0.335138  0.937821  1
  Er  Er3  1  0.334310  0.668129  0.066448  1
  Ga  Ga4  1  0.169631  0.828393  0.750000  1
  Fe  Fe5  1  0.163816  0.326213  0.750000  1
  Ru  Ru6  1  0.348419  0.171361  0.250000  1
  Ru  Ru7  1  0.830533  0.655393  0.250000  1
  Ru  Ru8  1  0.651052  0.816815  0.750000  1
  Ru  Ru9  1  0.000654  0.014261  0.997778  1
  Ru  Ru10  1  0.838264  0.166769  0.250000  1
  Ru  Ru11  1  0.000654  0.014261  0.502222  1
