# generated using pymatgen
data_Dy9Y3In2FeTc2
_symmetry_space_group_name_H-M   'P 1'
_cell_length_a   8.44179998
_cell_length_b   8.44435319
_cell_length_c   8.44435152
_cell_angle_alpha   109.00942582
_cell_angle_beta   108.69262637
_cell_angle_gamma   110.73149424
_symmetry_Int_Tables_number   1
_chemical_formula_structural   Dy9Y3In2FeTc2
_chemical_formula_sum   'Dy9 Y3 In2 Fe1 Tc2'
_cell_volume   463.14739192
_cell_formula_units_Z   1
loop_
 _symmetry_equiv_pos_site_id
 _symmetry_equiv_pos_as_xyz
  1  'x, y, z'
loop_
 _atom_site_type_symbol
 _atom_site_label
 _atom_site_symmetry_multiplicity
 _atom_site_fract_x
 _atom_site_fract_y
 _atom_site_fract_z
 _atom_site_occupancy
  Dy  Dy0  1  0.304148  0.304121  0.611494  1
  Dy  Dy1  1  0.693362  0.692400  0.388670  1
  Dy  Dy2  1  0.693362  0.304692  0.000963  1
  Dy  Dy3  1  0.304148  0.692655  0.000028  1
  Dy  Dy4  1  0.190579  0.431710  0.241011  1
  Dy  Dy5  1  0.806685  0.569195  0.762703  1
  Dy  Dy6  1  0.190579  0.949567  0.758869  1
  Dy  Dy7  1  0.949531  0.190043  0.759490  1
  Dy  Dy8  1  0.806685  0.043984  0.237491  1
  Y  Y9  1  0.045664  0.807097  0.238567  1
  Y  Y10  1  0.431537  0.190124  0.241413  1
  Y  Y11  1  0.568034  0.807054  0.760979  1
  In  In12  1  0.997879  0.497958  0.499921  1
  In  In13  1  0.497972  0.998039  0.499932  1
  Fe  Fe14  1  0.629481  0.629407  0.000075  1
  Tc  Tc15  1  0.390354  0.390884  0.999470  1
  Tc  Tc16  1  0.999999  0.001071  0.998927  1
