# generated using pymatgen
data_Tm4Pu4B24MoOs3
_symmetry_space_group_name_H-M   'P 1'
_cell_length_a   3.64561500
_cell_length_b   9.14394813
_cell_length_c   11.52315621
_cell_angle_alpha   89.89106662
_cell_angle_beta   90.00000000
_cell_angle_gamma   90.00000000
_symmetry_Int_Tables_number   1
_chemical_formula_structural   Tm4Pu4B24MoOs3
_chemical_formula_sum   'Tm4 Pu4 B24 Mo1 Os3'
_cell_volume   384.12734155
_cell_formula_units_Z   1
loop_
 _symmetry_equiv_pos_site_id
 _symmetry_equiv_pos_as_xyz
  1  'x, y, z'
loop_
 _atom_site_type_symbol
 _atom_site_label
 _atom_site_symmetry_multiplicity
 _atom_site_fract_x
 _atom_site_fract_y
 _atom_site_fract_z
 _atom_site_occupancy
  Tm  Tm0  1  0.000000  0.944974  0.374040  1
  Tm  Tm1  1  0.000000  0.056565  0.626322  1
  Tm  Tm2  1  0.000000  0.444833  0.126078  1
  Tm  Tm3  1  0.000000  0.555378  0.873065  1
  Pu  Pu4  1  0.000000  0.324151  0.412275  1
  Pu  Pu5  1  0.000000  0.677240  0.584485  1
  Pu  Pu6  1  0.000000  0.821612  0.087863  1
  Pu  Pu7  1  0.000000  0.176549  0.914423  1
  B  B8  1  0.500000  0.551773  0.434778  1
  B  B9  1  0.500000  0.446170  0.567664  1
  B  B10  1  0.500000  0.053529  0.067462  1
  B  B11  1  0.500000  0.946046  0.932968  1
  B  B12  1  0.500000  0.749543  0.421474  1
  B  B13  1  0.500000  0.251692  0.580027  1
  B  B14  1  0.500000  0.248838  0.080229  1
  B  B15  1  0.500000  0.750922  0.920028  1
  B  B16  1  0.500000  0.795347  0.264805  1
  B  B17  1  0.500000  0.207008  0.733566  1
  B  B18  1  0.500000  0.292384  0.233400  1
  B  B19  1  0.500000  0.707138  0.766108  1
  B  B20  1  0.500000  0.633488  0.183295  1
  B  B21  1  0.500000  0.367116  0.815547  1
  B  B22  1  0.500000  0.132333  0.314936  1
  B  B23  1  0.500000  0.867532  0.684393  1
  B  B24  1  0.500000  0.982992  0.213240  1
  B  B25  1  0.500000  0.017072  0.786549  1
  B  B26  1  0.500000  0.479764  0.286136  1
  B  B27  1  0.500000  0.517120  0.713464  1
  B  B28  1  0.500000  0.608364  0.028648  1
  B  B29  1  0.500000  0.392016  0.970007  1
  B  B30  1  0.500000  0.108194  0.470408  1
  B  B31  1  0.500000  0.893134  0.530925  1
  Mo  Mo32  1  0.000000  0.638399  0.321370  1
  Os  Os33  1  0.000000  0.360402  0.680676  1
  Os  Os34  1  0.000000  0.139128  0.179119  1
  Os  Os35  1  0.000000  0.861253  0.820228  1
