# generated using pymatgen
data_SrLi4La3Si8
_symmetry_space_group_name_H-M   'P 1'
_cell_length_a   3.91373800
_cell_length_b   7.93594400
_cell_length_c   10.81489070
_cell_angle_alpha   90.07238343
_cell_angle_beta   90.00000000
_cell_angle_gamma   90.00000000
_symmetry_Int_Tables_number   1
_chemical_formula_structural   SrLi4La3Si8
_chemical_formula_sum   'Sr1 Li4 La3 Si8'
_cell_volume   335.90164582
_cell_formula_units_Z   1
loop_
 _symmetry_equiv_pos_site_id
 _symmetry_equiv_pos_as_xyz
  1  'x, y, z'
loop_
 _atom_site_type_symbol
 _atom_site_label
 _atom_site_symmetry_multiplicity
 _atom_site_fract_x
 _atom_site_fract_y
 _atom_site_fract_z
 _atom_site_occupancy
  Sr  Sr0  1  0.250000  0.137243  0.865958  1
  Li  Li1  1  0.250000  0.997034  0.390003  1
  Li  Li2  1  0.750000  0.004185  0.609932  1
  Li  Li3  1  0.250000  0.497070  0.110888  1
  Li  Li4  1  0.750000  0.499871  0.890642  1
  La  La5  1  0.750000  0.865486  0.135108  1
  La  La6  1  0.250000  0.635257  0.634874  1
  La  La7  1  0.750000  0.366478  0.364570  1
  Si  Si8  1  0.750000  0.271717  0.075876  1
  Si  Si9  1  0.250000  0.725003  0.930229  1
  Si  Si10  1  0.750000  0.773473  0.428229  1
  Si  Si11  1  0.250000  0.229844  0.567999  1
  Si  Si12  1  0.750000  0.821861  0.822761  1
  Si  Si13  1  0.250000  0.167832  0.180665  1
  Si  Si14  1  0.750000  0.338439  0.669194  1
  Si  Si15  1  0.250000  0.669206  0.323073  1
