# generated using pymatgen
data_EuGe4O9
_symmetry_space_group_name_H-M   'P 1'
_cell_length_a   4.75592394
_cell_length_b   6.84317483
_cell_length_c   6.84317499
_cell_angle_alpha   114.68612119
_cell_angle_beta   103.49661375
_cell_angle_gamma   103.49661645
_symmetry_Int_Tables_number   1
_chemical_formula_structural   EuGe4O9
_chemical_formula_sum   'Eu1 Ge4 O9'
_cell_volume   182.45442441
_cell_formula_units_Z   1
loop_
 _symmetry_equiv_pos_site_id
 _symmetry_equiv_pos_as_xyz
  1  'x, y, z'
loop_
 _atom_site_type_symbol
 _atom_site_label
 _atom_site_symmetry_multiplicity
 _atom_site_fract_x
 _atom_site_fract_y
 _atom_site_fract_z
 _atom_site_occupancy
  Eu  Eu0  1  0.000000  0.991623  0.008377  1
  Ge  Ge1  1  0.680486  0.485039  0.067685  1
  Ge  Ge2  1  0.500001  0.487078  0.512924  1
  Ge  Ge3  1  0.319513  0.932316  0.514962  1
  Ge  Ge4  1  0.999999  0.307644  0.692356  1
  O  O5  1  0.511733  0.372482  0.225798  1
  O  O6  1  0.999999  0.761828  0.238172  1
  O  O7  1  0.131218  0.283020  0.439407  1
  O  O8  1  0.601835  0.092511  0.454923  1
  O  O9  1  0.488266  0.774202  0.627518  1
  O  O10  1  0.868781  0.560592  0.716980  1
  O  O11  1  0.157173  0.075170  0.715182  1
  O  O12  1  0.398164  0.545076  0.907489  1
  O  O13  1  0.842829  0.284820  0.924832  1
