# generated using pymatgen
data_Nd3DyTh6(Si3C)2
_symmetry_space_group_name_H-M   'P 1'
_cell_length_a   8.84633300
_cell_length_b   8.84633316
_cell_length_c   6.43313000
_cell_angle_alpha   90.00000000
_cell_angle_beta   90.00000000
_cell_angle_gamma   120.00000316
_symmetry_Int_Tables_number   1
_chemical_formula_structural   Nd3DyTh6(Si3C)2
_chemical_formula_sum   'Nd3 Dy1 Th6 Si6 C2'
_cell_volume   435.99300337
_cell_formula_units_Z   1
loop_
 _symmetry_equiv_pos_site_id
 _symmetry_equiv_pos_as_xyz
  1  'x, y, z'
loop_
 _atom_site_type_symbol
 _atom_site_label
 _atom_site_symmetry_multiplicity
 _atom_site_fract_x
 _atom_site_fract_y
 _atom_site_fract_z
 _atom_site_occupancy
  Nd  Nd0  1  0.666667  0.333333  0.000000  1
  Nd  Nd1  1  0.333333  0.666667  0.000000  1
  Nd  Nd2  1  0.333333  0.666667  0.500000  1
  Dy  Dy3  1  0.666667  0.333333  0.500000  1
  Th  Th4  1  0.769104  0.768956  0.749344  1
  Th  Th5  1  0.231044  0.000148  0.749344  1
  Th  Th6  1  0.999852  0.230896  0.749344  1
  Th  Th7  1  0.231044  0.230896  0.250656  1
  Th  Th8  1  0.769104  0.000148  0.250656  1
  Th  Th9  1  0.999852  0.768956  0.250656  1
  Si  Si10  1  0.400137  0.396247  0.745149  1
  Si  Si11  1  0.603753  0.003890  0.745149  1
  Si  Si12  1  0.996110  0.599863  0.745149  1
  Si  Si13  1  0.603753  0.599863  0.254851  1
  Si  Si14  1  0.400137  0.003890  0.254851  1
  Si  Si15  1  0.996110  0.396247  0.254851  1
  C  C16  1  0.000000  0.000000  0.000000  1
  C  C17  1  0.000000  0.000000  0.500000  1
