# generated using pymatgen
data_Hf4Ni2AsP3Ru2
_symmetry_space_group_name_H-M   'P 1'
_cell_length_a   3.74278200
_cell_length_b   6.47949700
_cell_length_c   7.36833523
_cell_angle_alpha   89.57728683
_cell_angle_beta   90.00000000
_cell_angle_gamma   90.00000000
_symmetry_Int_Tables_number   1
_chemical_formula_structural   Hf4Ni2AsP3Ru2
_chemical_formula_sum   'Hf4 Ni2 As1 P3 Ru2'
_cell_volume   178.68717467
_cell_formula_units_Z   1
loop_
 _symmetry_equiv_pos_site_id
 _symmetry_equiv_pos_as_xyz
  1  'x, y, z'
loop_
 _atom_site_type_symbol
 _atom_site_label
 _atom_site_symmetry_multiplicity
 _atom_site_fract_x
 _atom_site_fract_y
 _atom_site_fract_z
 _atom_site_occupancy
  Hf  Hf0  1  0.250000  0.032148  0.817596  1
  Hf  Hf1  1  0.250000  0.526979  0.686149  1
  Hf  Hf2  1  0.750000  0.976705  0.172334  1
  Hf  Hf3  1  0.750000  0.461813  0.320820  1
  Ni  Ni4  1  0.750000  0.855293  0.574281  1
  Ni  Ni5  1  0.750000  0.347468  0.938004  1
  As  As6  1  0.250000  0.763584  0.378000  1
  P  P7  1  0.250000  0.266553  0.119153  1
  P  P8  1  0.750000  0.243688  0.628823  1
  P  P9  1  0.750000  0.745192  0.875094  1
  Ru  Ru10  1  0.250000  0.146607  0.440377  1
  Ru  Ru11  1  0.250000  0.633973  0.049369  1
