# generated using pymatgen
data_Tm3ThCoHg
_symmetry_space_group_name_H-M   'P 1'
_cell_length_a   9.44384430
_cell_length_b   9.44397467
_cell_length_c   9.45538900
_cell_angle_alpha   59.96001408
_cell_angle_beta   59.95955667
_cell_angle_gamma   59.92783159
_symmetry_Int_Tables_number   1
_chemical_formula_structural   Tm3ThCoHg
_chemical_formula_sum   'Tm12 Th4 Co4 Hg4'
_cell_volume   595.61639284
_cell_formula_units_Z   4
loop_
 _symmetry_equiv_pos_site_id
 _symmetry_equiv_pos_as_xyz
  1  'x, y, z'
loop_
 _atom_site_type_symbol
 _atom_site_label
 _atom_site_symmetry_multiplicity
 _atom_site_fract_x
 _atom_site_fract_y
 _atom_site_fract_z
 _atom_site_occupancy
  Tm  Tm0  1  0.813639  0.186478  0.186252  1
  Tm  Tm1  1  0.186475  0.813650  0.813618  1
  Tm  Tm2  1  0.186475  0.813650  0.186257  1
  Tm  Tm3  1  0.813639  0.186478  0.813631  1
  Tm  Tm4  1  0.187122  0.187131  0.812874  1
  Tm  Tm5  1  0.814320  0.814353  0.185664  1
  Tm  Tm6  1  0.936703  0.564626  0.563764  1
  Tm  Tm7  1  0.564614  0.936703  0.934895  1
  Tm  Tm8  1  0.564614  0.936703  0.563787  1
  Tm  Tm9  1  0.936703  0.564626  0.934907  1
  Tm  Tm10  1  0.564564  0.564596  0.935420  1
  Tm  Tm11  1  0.936186  0.936194  0.563810  1
  Th  Th12  1  0.347735  0.347687  0.347213  1
  Th  Th13  1  0.347735  0.347687  0.957365  1
  Th  Th14  1  0.348448  0.955860  0.347846  1
  Th  Th15  1  0.955823  0.348437  0.347870  1
  Co  Co16  1  0.143638  0.143627  0.145016  1
  Co  Co17  1  0.143638  0.143627  0.567719  1
  Co  Co18  1  0.143291  0.567603  0.144553  1
  Co  Co19  1  0.567669  0.143259  0.144536  1
  Hg  Hg20  1  0.585899  0.585923  0.587900  1
  Hg  Hg21  1  0.585899  0.585923  0.240278  1
  Hg  Hg22  1  0.585599  0.239566  0.587418  1
  Hg  Hg23  1  0.239572  0.585613  0.587407  1
