# generated using pymatgen
data_Ce3U(B4Ru)4
_symmetry_space_group_name_H-M   'P 1'
_cell_length_a   3.60507400
_cell_length_b   5.99164291
_cell_length_c   11.61263267
_cell_angle_alpha   90.08818724
_cell_angle_beta   90.00000000
_cell_angle_gamma   90.00000000
_symmetry_Int_Tables_number   1
_chemical_formula_structural   Ce3U(B4Ru)4
_chemical_formula_sum   'Ce3 U1 B16 Ru4'
_cell_volume   250.83623893
_cell_formula_units_Z   1
loop_
 _symmetry_equiv_pos_site_id
 _symmetry_equiv_pos_as_xyz
  1  'x, y, z'
loop_
 _atom_site_type_symbol
 _atom_site_label
 _atom_site_symmetry_multiplicity
 _atom_site_fract_x
 _atom_site_fract_y
 _atom_site_fract_z
 _atom_site_occupancy
  Ce  Ce0  1  0.000000  0.371371  0.649013  1
  Ce  Ce1  1  0.000000  0.128671  0.150213  1
  Ce  Ce2  1  0.000000  0.871561  0.850282  1
  U  U3  1  0.000000  0.628139  0.349678  1
  B  B4  1  0.500000  0.785671  0.189337  1
  B  B5  1  0.500000  0.214111  0.814227  1
  B  B6  1  0.500000  0.291622  0.313788  1
  B  B7  1  0.500000  0.713976  0.685456  1
  B  B8  1  0.500000  0.861787  0.032735  1
  B  B9  1  0.500000  0.136891  0.968480  1
  B  B10  1  0.500000  0.366232  0.466375  1
  B  B11  1  0.500000  0.635325  0.530449  1
  B  B12  1  0.500000  0.884759  0.452632  1
  B  B13  1  0.500000  0.111410  0.544677  1
  B  B14  1  0.500000  0.388044  0.046450  1
  B  B15  1  0.500000  0.611538  0.954735  1
  B  B16  1  0.500000  0.972388  0.309092  1
  B  B17  1  0.500000  0.024521  0.689546  1
  B  B18  1  0.500000  0.474929  0.192949  1
  B  B19  1  0.500000  0.525064  0.809582  1
  Ru  Ru20  1  0.000000  0.639807  0.097116  1
  Ru  Ru21  1  0.000000  0.361578  0.907799  1
  Ru  Ru22  1  0.000000  0.142004  0.404997  1
  Ru  Ru23  1  0.000000  0.858600  0.590392  1
