# generated using pymatgen
data_Yb9Y3Ru4
_symmetry_space_group_name_H-M   'P 1'
_cell_length_a   6.25796579
_cell_length_b   7.56977843
_cell_length_c   9.25170373
_cell_angle_alpha   89.68926143
_cell_angle_beta   90.40523643
_cell_angle_gamma   89.86386585
_symmetry_Int_Tables_number   1
_chemical_formula_structural   Yb9Y3Ru4
_chemical_formula_sum   'Yb9 Y3 Ru4'
_cell_volume   438.24760739
_cell_formula_units_Z   1
loop_
 _symmetry_equiv_pos_site_id
 _symmetry_equiv_pos_as_xyz
  1  'x, y, z'
loop_
 _atom_site_type_symbol
 _atom_site_label
 _atom_site_symmetry_multiplicity
 _atom_site_fract_x
 _atom_site_fract_y
 _atom_site_fract_z
 _atom_site_occupancy
  Yb  Yb0  1  0.632454  0.037265  0.254549  1
  Yb  Yb1  1  0.367228  0.960177  0.746884  1
  Yb  Yb2  1  0.129151  0.460719  0.745012  1
  Yb  Yb3  1  0.868728  0.540354  0.254661  1
  Yb  Yb4  1  0.162161  0.168459  0.068056  1
  Yb  Yb5  1  0.843194  0.835543  0.927782  1
  Yb  Yb6  1  0.661768  0.333684  0.928367  1
  Yb  Yb7  1  0.842818  0.828761  0.563904  1
  Yb  Yb8  1  0.343671  0.665001  0.069133  1
  Y  Y9  1  0.150784  0.167371  0.436308  1
  Y  Y10  1  0.343213  0.670061  0.437300  1
  Y  Y11  1  0.651102  0.329410  0.566119  1
  Ru  Ru12  1  0.449267  0.377412  0.271135  1
  Ru  Ru13  1  0.540340  0.618867  0.737577  1
  Ru  Ru14  1  0.951739  0.127305  0.736740  1
  Ru  Ru15  1  0.062381  0.879612  0.256474  1
