# generated using pymatgen
data_Tm2Co9As6Ru
_symmetry_space_group_name_H-M   'P 1'
_cell_length_a   3.78558500
_cell_length_b   10.71960300
_cell_length_c   12.19116400
_cell_angle_alpha   90.00000000
_cell_angle_beta   90.00000000
_cell_angle_gamma   90.00000000
_symmetry_Int_Tables_number   1
_chemical_formula_structural   Tm2Co9As6Ru
_chemical_formula_sum   'Tm4 Co18 As12 Ru2'
_cell_volume   494.71704894
_cell_formula_units_Z   2
loop_
 _symmetry_equiv_pos_site_id
 _symmetry_equiv_pos_as_xyz
  1  'x, y, z'
loop_
 _atom_site_type_symbol
 _atom_site_label
 _atom_site_symmetry_multiplicity
 _atom_site_fract_x
 _atom_site_fract_y
 _atom_site_fract_z
 _atom_site_occupancy
  Tm  Tm0  1  0.250000  0.580425  0.701252  1
  Tm  Tm1  1  0.250000  0.919575  0.201252  1
  Tm  Tm2  1  0.750000  0.416905  0.295716  1
  Tm  Tm3  1  0.750000  0.083095  0.795716  1
  Co  Co4  1  0.750000  0.286946  0.008915  1
  Co  Co5  1  0.750000  0.213054  0.508915  1
  Co  Co6  1  0.250000  0.406969  0.487385  1
  Co  Co7  1  0.250000  0.093031  0.987385  1
  Co  Co8  1  0.750000  0.592475  0.512499  1
  Co  Co9  1  0.750000  0.907525  0.012499  1
  Co  Co10  1  0.250000  0.215867  0.177176  1
  Co  Co11  1  0.250000  0.284133  0.677176  1
  Co  Co12  1  0.750000  0.782859  0.823562  1
  Co  Co13  1  0.750000  0.717141  0.323562  1
  Co  Co14  1  0.250000  0.887551  0.699759  1
  Co  Co15  1  0.250000  0.612449  0.199759  1
  Co  Co16  1  0.750000  0.117196  0.302350  1
  Co  Co17  1  0.750000  0.382804  0.802350  1
  Co  Co18  1  0.250000  0.465539  0.931751  1
  Co  Co19  1  0.250000  0.034461  0.431751  1
  Co  Co20  1  0.750000  0.532286  0.068682  1
  Co  Co21  1  0.750000  0.967714  0.568682  1
  As  As22  1  0.250000  0.414404  0.113877  1
  As  As23  1  0.250000  0.085596  0.613877  1
  As  As24  1  0.750000  0.581435  0.884272  1
  As  As25  1  0.750000  0.918565  0.384272  1
  As  As26  1  0.250000  0.266886  0.869323  1
  As  As27  1  0.250000  0.233114  0.369323  1
  As  As28  1  0.750000  0.731961  0.133063  1
  As  As29  1  0.750000  0.768039  0.633063  1
  As  As30  1  0.250000  0.594644  0.389455  1
  As  As31  1  0.250000  0.905356  0.889455  1
  As  As32  1  0.750000  0.399583  0.609570  1
  As  As33  1  0.750000  0.100417  0.109570  1
  Ru  Ru34  1  0.250000  0.711292  0.991392  1
  Ru  Ru35  1  0.250000  0.788708  0.491392  1
