# generated using pymatgen
data_Nd2Al20Re3Ni
_symmetry_space_group_name_H-M   'P 1'
_cell_length_a   6.89701842
_cell_length_b   6.94200896
_cell_length_c   9.19944321
_cell_angle_alpha   90.18568701
_cell_angle_beta   90.71902631
_cell_angle_gamma   96.91547928
_symmetry_Int_Tables_number   1
_chemical_formula_structural   Nd2Al20Re3Ni
_chemical_formula_sum   'Nd2 Al20 Re3 Ni1'
_cell_volume   437.21778172
_cell_formula_units_Z   1
loop_
 _symmetry_equiv_pos_site_id
 _symmetry_equiv_pos_as_xyz
  1  'x, y, z'
loop_
 _atom_site_type_symbol
 _atom_site_label
 _atom_site_symmetry_multiplicity
 _atom_site_fract_x
 _atom_site_fract_y
 _atom_site_fract_z
 _atom_site_occupancy
  Nd  Nd0  1  0.877506  0.131422  0.750718  1
  Nd  Nd1  1  0.122494  0.868578  0.249282  1
  Al  Al2  1  0.588918  0.859496  0.247420  1
  Al  Al3  1  0.780539  0.518858  0.247023  1
  Al  Al4  1  0.158087  0.844448  0.898636  1
  Al  Al5  1  0.411082  0.140504  0.752580  1
  Al  Al6  1  0.622367  0.377360  0.956633  1
  Al  Al7  1  0.842429  0.155772  0.400518  1
  Al  Al8  1  0.770526  0.773570  0.999246  1
  Al  Al9  1  0.858461  0.592432  0.749274  1
  Al  Al10  1  0.841913  0.155552  0.101364  1
  Al  Al11  1  0.219461  0.481142  0.752977  1
  Al  Al12  1  0.157571  0.844228  0.599482  1
  Al  Al13  1  0.773624  0.773848  0.496648  1
  Al  Al14  1  0.479712  0.216585  0.252171  1
  Al  Al15  1  0.623416  0.376429  0.540902  1
  Al  Al16  1  0.226376  0.226152  0.503352  1
  Al  Al17  1  0.376584  0.623571  0.459098  1
  Al  Al18  1  0.141539  0.407568  0.250726  1
  Al  Al19  1  0.520288  0.783415  0.747829  1
  Al  Al20  1  0.377633  0.622640  0.043367  1
  Al  Al21  1  0.229474  0.226430  0.000754  1
  Re  Re22  1  0.500000  0.000000  0.500000  1
  Re  Re23  1  0.000000  0.500000  0.000000  1
  Re  Re24  1  0.000000  0.500000  0.500000  1
  Ni  Ni25  1  0.500000  0.000000  0.000000  1
