# generated using pymatgen
data_Er3Tm8LuRu4
_symmetry_space_group_name_H-M   'P 1'
_cell_length_a   6.23041718
_cell_length_b   7.32834297
_cell_length_c   8.97801100
_cell_angle_alpha   90.00147767
_cell_angle_beta   90.01362868
_cell_angle_gamma   89.87311504
_symmetry_Int_Tables_number   1
_chemical_formula_structural   Er3Tm8LuRu4
_chemical_formula_sum   'Er3 Tm8 Lu1 Ru4'
_cell_volume   409.92270074
_cell_formula_units_Z   1
loop_
 _symmetry_equiv_pos_site_id
 _symmetry_equiv_pos_as_xyz
  1  'x, y, z'
loop_
 _atom_site_type_symbol
 _atom_site_label
 _atom_site_symmetry_multiplicity
 _atom_site_fract_x
 _atom_site_fract_y
 _atom_site_fract_z
 _atom_site_occupancy
  Er  Er0  1  0.869026  0.540717  0.249746  1
  Er  Er1  1  0.631458  0.041530  0.249710  1
  Er  Er2  1  0.131795  0.458789  0.750382  1
  Tm  Tm3  1  0.334085  0.676330  0.063537  1
  Tm  Tm4  1  0.166499  0.174841  0.436186  1
  Tm  Tm5  1  0.665500  0.323893  0.563978  1
  Tm  Tm6  1  0.833646  0.825217  0.936316  1
  Tm  Tm7  1  0.665378  0.323769  0.936330  1
  Tm  Tm8  1  0.833302  0.824885  0.563925  1
  Tm  Tm9  1  0.334212  0.676193  0.436386  1
  Tm  Tm10  1  0.367797  0.958608  0.750322  1
  Lu  Lu11  1  0.166299  0.174488  0.063515  1
  Ru  Ru12  1  0.040650  0.884382  0.249743  1
  Ru  Ru13  1  0.458564  0.383877  0.249611  1
  Ru  Ru14  1  0.962110  0.115712  0.750408  1
  Ru  Ru15  1  0.539678  0.616769  0.749907  1
