# generated using pymatgen
data_LaH2I
_symmetry_space_group_name_H-M   'P 1'
_cell_length_a   11.88681416
_cell_length_b   11.88681398
_cell_length_c   11.88681320
_cell_angle_alpha   19.96988787
_cell_angle_beta   19.96989111
_cell_angle_gamma   19.96989372
_symmetry_Int_Tables_number   1
_chemical_formula_structural   LaH2I
_chemical_formula_sum   'La2 H4 I2'
_cell_volume   171.37540535
_cell_formula_units_Z   2
loop_
 _symmetry_equiv_pos_site_id
 _symmetry_equiv_pos_as_xyz
  1  'x, y, z'
loop_
 _atom_site_type_symbol
 _atom_site_label
 _atom_site_symmetry_multiplicity
 _atom_site_fract_x
 _atom_site_fract_y
 _atom_site_fract_z
 _atom_site_occupancy
  La  La0  1  0.882954  0.882954  0.882954  1
  La  La1  1  0.117046  0.117046  0.117046  1
  H  H2  1  0.812455  0.812455  0.812455  1
  H  H3  1  0.187545  0.187545  0.187545  1
  H  H4  1  0.545387  0.545387  0.545387  1
  H  H5  1  0.454613  0.454613  0.454613  1
  I  I6  1  0.720048  0.720048  0.720048  1
  I  I7  1  0.279952  0.279952  0.279952  1
