# generated using pymatgen
data_Nb3Zn2IrC
_symmetry_space_group_name_H-M   'P 1'
_cell_length_a   8.32226800
_cell_length_b   8.32226890
_cell_length_c   8.32226800
_cell_angle_alpha   120.00000436
_cell_angle_beta   90.00000000
_cell_angle_gamma   120.00000436
_symmetry_Int_Tables_number   1
_chemical_formula_structural   Nb3Zn2IrC
_chemical_formula_sum   'Nb12 Zn8 Ir4 C4'
_cell_volume   407.57738963
_cell_formula_units_Z   4
loop_
 _symmetry_equiv_pos_site_id
 _symmetry_equiv_pos_as_xyz
  1  'x, y, z'
loop_
 _atom_site_type_symbol
 _atom_site_label
 _atom_site_symmetry_multiplicity
 _atom_site_fract_x
 _atom_site_fract_y
 _atom_site_fract_z
 _atom_site_occupancy
  Nb  Nb0  1  0.310022  0.000000  0.310022  1
  Nb  Nb1  1  0.310022  0.620043  0.310022  1
  Nb  Nb2  1  0.689979  0.000000  0.310023  1
  Nb  Nb3  1  0.060023  0.120044  0.560023  1
  Nb  Nb4  1  0.060023  0.500000  0.560023  1
  Nb  Nb5  1  0.439978  0.500000  0.560023  1
  Nb  Nb6  1  0.689978  0.000000  0.689978  1
  Nb  Nb7  1  0.310023  0.000000  0.689979  1
  Nb  Nb8  1  0.689979  0.379958  0.689979  1
  Nb  Nb9  1  0.060022  0.500000  0.939979  1
  Nb  Nb10  1  0.439979  0.500000  0.939979  1
  Nb  Nb11  1  0.439979  0.879958  0.939979  1
  Zn  Zn12  1  0.085320  0.170640  0.255959  1
  Zn  Zn13  1  0.664679  0.329359  0.335320  1
  Zn  Zn14  1  0.664679  0.670640  0.335320  1
  Zn  Zn15  1  0.005961  0.670640  0.335320  1
  Zn  Zn16  1  0.085320  0.170640  0.914679  1
  Zn  Zn17  1  0.085320  0.829359  0.914679  1
  Zn  Zn18  1  0.744039  0.829359  0.914679  1
  Zn  Zn19  1  0.664681  0.329359  0.994040  1
  Ir  Ir20  1  0.875000  0.250000  0.125000  1
  Ir  Ir21  1  0.375000  0.250000  0.125000  1
  Ir  Ir22  1  0.875000  0.750000  0.125000  1
  Ir  Ir23  1  0.875000  0.750000  0.625000  1
  C  C24  1  0.375000  0.750000  0.125000  1
  C  C25  1  0.375000  0.250000  0.625000  1
  C  C26  1  0.875000  0.250000  0.625000  1
  C  C27  1  0.375000  0.750000  0.625000  1
