# generated using pymatgen
data_Ho17Er3(Bi2Pt)4
_symmetry_space_group_name_H-M   'P 1'
_cell_length_a   8.04204410
_cell_length_b   9.02101003
_cell_length_c   12.35378015
_cell_angle_alpha   90.00626573
_cell_angle_beta   89.98323569
_cell_angle_gamma   90.00667479
_symmetry_Int_Tables_number   1
_chemical_formula_structural   Ho17Er3(Bi2Pt)4
_chemical_formula_sum   'Ho17 Er3 Bi8 Pt4'
_cell_volume   896.23409202
_cell_formula_units_Z   1
loop_
 _symmetry_equiv_pos_site_id
 _symmetry_equiv_pos_as_xyz
  1  'x, y, z'
loop_
 _atom_site_type_symbol
 _atom_site_label
 _atom_site_symmetry_multiplicity
 _atom_site_fract_x
 _atom_site_fract_y
 _atom_site_fract_z
 _atom_site_occupancy
  Ho  Ho0  1  0.165291  0.749918  0.210230  1
  Ho  Ho1  1  0.334599  0.750147  0.710359  1
  Ho  Ho2  1  0.834629  0.249838  0.789678  1
  Ho  Ho3  1  0.665515  0.249994  0.289694  1
  Ho  Ho4  1  0.451298  0.750041  0.999996  1
  Ho  Ho5  1  0.048365  0.750152  0.500052  1
  Ho  Ho6  1  0.548773  0.250015  0.000002  1
  Ho  Ho7  1  0.951136  0.249811  0.500053  1
  Ho  Ho8  1  0.627492  0.750129  0.303349  1
  Ho  Ho9  1  0.872675  0.749944  0.803398  1
  Ho  Ho10  1  0.372782  0.249903  0.696677  1
  Ho  Ho11  1  0.127311  0.249857  0.196492  1
  Ho  Ho12  1  0.321966  0.452455  0.433434  1
  Ho  Ho13  1  0.177834  0.452367  0.933484  1
  Ho  Ho14  1  0.322112  0.047569  0.433487  1
  Ho  Ho15  1  0.822162  0.952375  0.066541  1
  Ho  Ho16  1  0.678029  0.547619  0.566634  1
  Er  Er17  1  0.822939  0.547704  0.066511  1
  Er  Er18  1  0.677215  0.952155  0.566358  1
  Er  Er19  1  0.177045  0.047738  0.933483  1
  Bi  Bi20  1  0.932398  0.509822  0.326886  1
  Bi  Bi21  1  0.567314  0.990197  0.826942  1
  Bi  Bi22  1  0.067315  0.009772  0.673044  1
  Bi  Bi23  1  0.432809  0.490246  0.172962  1
  Bi  Bi24  1  0.067575  0.490227  0.672936  1
  Bi  Bi25  1  0.432553  0.009780  0.173015  1
  Bi  Bi26  1  0.932563  0.990183  0.327042  1
  Bi  Bi27  1  0.567473  0.509787  0.826995  1
  Pt  Pt28  1  0.421388  0.750225  0.488359  1
  Pt  Pt29  1  0.078894  0.750272  0.988242  1
  Pt  Pt30  1  0.579478  0.249493  0.511938  1
  Pt  Pt31  1  0.921073  0.250267  0.011727  1
