# generated using pymatgen
data_Mn4Pd9PbAu2
_symmetry_space_group_name_H-M   'P 1'
_cell_length_a   6.95367112
_cell_length_b   6.95367039
_cell_length_c   6.95367061
_cell_angle_alpha   107.58147035
_cell_angle_beta   107.58147144
_cell_angle_gamma   113.32067294
_symmetry_Int_Tables_number   1
_chemical_formula_structural   Mn4Pd9PbAu2
_chemical_formula_sum   'Mn4 Pd9 Pb1 Au2'
_cell_volume   257.95097643
_cell_formula_units_Z   1
loop_
 _symmetry_equiv_pos_site_id
 _symmetry_equiv_pos_as_xyz
  1  'x, y, z'
loop_
 _atom_site_type_symbol
 _atom_site_label
 _atom_site_symmetry_multiplicity
 _atom_site_fract_x
 _atom_site_fract_y
 _atom_site_fract_z
 _atom_site_occupancy
  Mn  Mn0  1  0.235414  0.235414  0.470828  1
  Mn  Mn1  1  0.764586  0.764586  0.529172  1
  Mn  Mn2  1  0.235414  0.764586  0.000000  1
  Mn  Mn3  1  0.764586  0.235414  0.000000  1
  Pd  Pd4  1  0.504819  0.254218  0.250600  1
  Pd  Pd5  1  0.495181  0.745782  0.749400  1
  Pd  Pd6  1  0.003618  0.254218  0.749400  1
  Pd  Pd7  1  0.254218  0.003618  0.749400  1
  Pd  Pd8  1  0.996382  0.745782  0.250600  1
  Pd  Pd9  1  0.745782  0.996382  0.250600  1
  Pd  Pd10  1  0.254218  0.504819  0.250600  1
  Pd  Pd11  1  0.745782  0.495181  0.749400  1
  Pd  Pd12  1  0.000000  0.000000  0.000000  1
  Pb  Pb13  1  0.500000  0.500000  0.000000  1
  Au  Au14  1  0.500000  0.000000  0.500000  1
  Au  Au15  1  0.000000  0.500000  0.500000  1
