# generated using pymatgen
data_Pr4ErSi2Pb
_symmetry_space_group_name_H-M   'P 1'
_cell_length_a   7.78991606
_cell_length_b   7.78991673
_cell_length_c   9.39414498
_cell_angle_alpha   114.49511383
_cell_angle_beta   114.49510632
_cell_angle_gamma   89.99999684
_symmetry_Int_Tables_number   1
_chemical_formula_structural   Pr4ErSi2Pb
_chemical_formula_sum   'Pr8 Er2 Si4 Pb2'
_cell_volume   461.78194373
_cell_formula_units_Z   2
loop_
 _symmetry_equiv_pos_site_id
 _symmetry_equiv_pos_as_xyz
  1  'x, y, z'
loop_
 _atom_site_type_symbol
 _atom_site_label
 _atom_site_symmetry_multiplicity
 _atom_site_fract_x
 _atom_site_fract_y
 _atom_site_fract_z
 _atom_site_occupancy
  Pr  Pr0  1  0.962558  0.809264  0.271822  1
  Pr  Pr1  1  0.309264  0.462558  0.271822  1
  Pr  Pr2  1  0.809264  0.309264  0.271822  1
  Pr  Pr3  1  0.462558  0.962558  0.271822  1
  Pr  Pr4  1  0.037442  0.190736  0.728178  1
  Pr  Pr5  1  0.690736  0.537442  0.728178  1
  Pr  Pr6  1  0.190736  0.690736  0.728178  1
  Pr  Pr7  1  0.537442  0.037442  0.728178  1
  Er  Er8  1  0.500000  0.500000  0.000000  1
  Er  Er9  1  0.000000  0.000000  0.000000  1
  Si  Si10  1  0.622707  0.877293  0.000000  1
  Si  Si11  1  0.377293  0.122707  0.000000  1
  Si  Si12  1  0.877293  0.377293  0.000000  1
  Si  Si13  1  0.122707  0.622707  0.000000  1
  Pb  Pb14  1  0.750000  0.750000  0.500000  1
  Pb  Pb15  1  0.250000  0.250000  0.500000  1
