# generated using pymatgen
data_GdLuCS
_symmetry_space_group_name_H-M   'P 1'
_cell_length_a   6.63532985
_cell_length_b   6.63533039
_cell_length_c   6.63533000
_cell_angle_alpha   31.57020273
_cell_angle_beta   31.57019524
_cell_angle_gamma   31.57020950
_symmetry_Int_Tables_number   1
_chemical_formula_structural   GdLuCS
_chemical_formula_sum   'Gd1 Lu1 C1 S1'
_cell_volume   71.09753215
_cell_formula_units_Z   1
loop_
 _symmetry_equiv_pos_site_id
 _symmetry_equiv_pos_as_xyz
  1  'x, y, z'
loop_
 _atom_site_type_symbol
 _atom_site_label
 _atom_site_symmetry_multiplicity
 _atom_site_fract_x
 _atom_site_fract_y
 _atom_site_fract_z
 _atom_site_occupancy
  Gd  Gd0  1  0.986487  0.986487  0.986487  1
  Lu  Lu1  1  0.512022  0.512022  0.512022  1
  C  C2  1  0.247782  0.247782  0.247782  1
  S  S3  1  0.753709  0.753709  0.753709  1
