# generated using pymatgen
data_Ho5FeIrO12
_symmetry_space_group_name_H-M   'P 1'
_cell_length_a   6.79950247
_cell_length_b   6.79950227
_cell_length_c   7.26276226
_cell_angle_alpha   74.41674850
_cell_angle_beta   74.41675051
_cell_angle_gamma   51.27095312
_symmetry_Int_Tables_number   1
_chemical_formula_structural   Ho5FeIrO12
_chemical_formula_sum   'Ho5 Fe1 Ir1 O12'
_cell_volume   250.04841837
_cell_formula_units_Z   1
loop_
 _symmetry_equiv_pos_site_id
 _symmetry_equiv_pos_as_xyz
  1  'x, y, z'
loop_
 _atom_site_type_symbol
 _atom_site_label
 _atom_site_symmetry_multiplicity
 _atom_site_fract_x
 _atom_site_fract_y
 _atom_site_fract_z
 _atom_site_occupancy
  Ho  Ho0  1  0.298041  0.307664  0.360495  1
  Ho  Ho1  1  0.692336  0.701959  0.639505  1
  Ho  Ho2  1  0.310252  0.307556  0.829121  1
  Ho  Ho3  1  0.692444  0.689748  0.170879  1
  Ho  Ho4  1  0.997877  0.002123  0.500000  1
  Fe  Fe5  1  0.244818  0.755182  0.000000  1
  Ir  Ir6  1  0.757351  0.242649  0.000000  1
  O  O7  1  0.904247  0.426699  0.916762  1
  O  O8  1  0.425688  0.900014  0.918299  1
  O  O9  1  0.099986  0.574312  0.081701  1
  O  O10  1  0.573301  0.095753  0.083238  1
  O  O11  1  0.096049  0.597156  0.575791  1
  O  O12  1  0.596397  0.096922  0.574947  1
  O  O13  1  0.903078  0.403603  0.425053  1
  O  O14  1  0.402844  0.903951  0.424209  1
  O  O15  1  0.995329  0.005426  0.812972  1
  O  O16  1  0.994574  0.004671  0.187028  1
  O  O17  1  0.507866  0.492478  0.811118  1
  O  O18  1  0.507522  0.492134  0.188882  1
