# generated using pymatgen
data_Ti12Al5Ga3(CuO)4
_symmetry_space_group_name_H-M   'P 1'
_cell_length_a   8.10955438
_cell_length_b   8.11526818
_cell_length_c   8.10961439
_cell_angle_alpha   60.03435384
_cell_angle_beta   60.03053001
_cell_angle_gamma   60.03388677
_symmetry_Int_Tables_number   1
_chemical_formula_structural   Ti12Al5Ga3(CuO)4
_chemical_formula_sum   'Ti12 Al5 Ga3 Cu4 O4'
_cell_volume   377.66702465
_cell_formula_units_Z   1
loop_
 _symmetry_equiv_pos_site_id
 _symmetry_equiv_pos_as_xyz
  1  'x, y, z'
loop_
 _atom_site_type_symbol
 _atom_site_label
 _atom_site_symmetry_multiplicity
 _atom_site_fract_x
 _atom_site_fract_y
 _atom_site_fract_z
 _atom_site_occupancy
  Ti  Ti0  1  0.570571  0.929597  0.570559  1
  Ti  Ti1  1  0.320292  0.681282  0.679309  1
  Ti  Ti2  1  0.678700  0.319760  0.319928  1
  Ti  Ti3  1  0.320860  0.678751  0.320867  1
  Ti  Ti4  1  0.679337  0.681296  0.320271  1
  Ti  Ti5  1  0.319903  0.319740  0.678718  1
  Ti  Ti6  1  0.569860  0.570763  0.930258  1
  Ti  Ti7  1  0.930236  0.570792  0.569875  1
  Ti  Ti8  1  0.567978  0.930032  0.931345  1
  Ti  Ti9  1  0.931354  0.930046  0.567960  1
  Ti  Ti10  1  0.681206  0.319474  0.681193  1
  Ti  Ti11  1  0.930993  0.568172  0.930998  1
  Al  Al12  1  0.333625  0.334719  0.333630  1
  Al  Al13  1  0.252071  0.915686  0.915585  1
  Al  Al14  1  0.915664  0.251760  0.915657  1
  Al  Al15  1  0.915575  0.915692  0.252068  1
  Al  Al16  1  0.333451  0.998348  0.333437  1
  Ga  Ga17  1  0.335817  0.335639  0.992905  1
  Ga  Ga18  1  0.992912  0.335638  0.335821  1
  Ga  Ga19  1  0.914645  0.914619  0.914644  1
  Cu  Cu20  1  0.124541  0.124110  0.124538  1
  Cu  Cu21  1  0.624168  0.125202  0.126257  1
  Cu  Cu22  1  0.125528  0.625220  0.125545  1
  Cu  Cu23  1  0.126311  0.125173  0.624171  1
  O  O24  1  0.625542  0.623158  0.625565  1
  O  O25  1  0.124731  0.625050  0.627570  1
  O  O26  1  0.626572  0.125227  0.626593  1
  O  O27  1  0.627557  0.625054  0.124734  1
