# generated using pymatgen
data_CaPr3(Ga5Ir3)2
_symmetry_space_group_name_H-M   'P 1'
_cell_length_a   8.70639440
_cell_length_b   8.65616186
_cell_length_c   8.65616217
_cell_angle_alpha   140.79976295
_cell_angle_beta   108.00871407
_cell_angle_gamma   85.10085946
_symmetry_Int_Tables_number   1
_chemical_formula_structural   CaPr3(Ga5Ir3)2
_chemical_formula_sum   'Ca1 Pr3 Ga10 Ir6'
_cell_volume   378.99534850
_cell_formula_units_Z   1
loop_
 _symmetry_equiv_pos_site_id
 _symmetry_equiv_pos_as_xyz
  1  'x, y, z'
loop_
 _atom_site_type_symbol
 _atom_site_label
 _atom_site_symmetry_multiplicity
 _atom_site_fract_x
 _atom_site_fract_y
 _atom_site_fract_z
 _atom_site_occupancy
  Ca  Ca0  1  0.867865  0.639892  0.227973  1
  Pr  Pr1  1  0.135193  0.362472  0.772721  1
  Pr  Pr2  1  0.406794  0.135712  0.271082  1
  Pr  Pr3  1  0.594414  0.863681  0.730733  1
  Ga  Ga4  1  0.503091  0.748292  0.250673  1
  Ga  Ga5  1  0.503091  0.252418  0.754799  1
  Ga  Ga6  1  0.204732  0.954692  0.745311  1
  Ga  Ga7  1  0.791860  0.539167  0.748681  1
  Ga  Ga8  1  0.791860  0.043179  0.252693  1
  Ga  Ga9  1  0.204732  0.459420  0.250039  1
  Ga  Ga10  1  0.077405  0.908143  0.169262  1
  Ga  Ga11  1  0.920467  0.091552  0.828915  1
  Ga  Ga12  1  0.738880  0.411178  0.327702  1
  Ga  Ga13  1  0.262511  0.592062  0.670449  1
  Ir  Ir14  1  0.999846  0.747717  0.748468  1
  Ir  Ir15  1  0.999846  0.251378  0.252128  1
  Ir  Ir16  1  0.258226  0.854659  0.403567  1
  Ir  Ir17  1  0.741123  0.145801  0.595323  1
  Ir  Ir18  1  0.448002  0.351302  0.096700  1
  Ir  Ir19  1  0.550061  0.647281  0.902781  1
