# generated using pymatgen
data_La2Tm3Si4
_symmetry_space_group_name_H-M   'P 1'
_cell_length_a   7.76459600
_cell_length_b   7.76459600
_cell_length_c   14.39767000
_cell_angle_alpha   90.00000000
_cell_angle_beta   90.00000000
_cell_angle_gamma   90.00000000
_symmetry_Int_Tables_number   1
_chemical_formula_structural   La2Tm3Si4
_chemical_formula_sum   'La8 Tm12 Si16'
_cell_volume   868.02042177
_cell_formula_units_Z   4
loop_
 _symmetry_equiv_pos_site_id
 _symmetry_equiv_pos_as_xyz
  1  'x, y, z'
loop_
 _atom_site_type_symbol
 _atom_site_label
 _atom_site_symmetry_multiplicity
 _atom_site_fract_x
 _atom_site_fract_y
 _atom_site_fract_z
 _atom_site_occupancy
  La  La0  1  0.989038  0.639953  0.042241  1
  La  La1  1  0.010962  0.360047  0.542241  1
  La  La2  1  0.639953  0.989038  0.957759  1
  La  La3  1  0.139953  0.510962  0.792241  1
  La  La4  1  0.860047  0.489038  0.292241  1
  La  La5  1  0.510962  0.139953  0.207759  1
  La  La6  1  0.489038  0.860047  0.707759  1
  La  La7  1  0.360047  0.010962  0.457759  1
  Tm  Tm8  1  0.362253  0.491529  0.374673  1
  Tm  Tm9  1  0.862253  0.008471  0.375327  1
  Tm  Tm10  1  0.991529  0.137747  0.124673  1
  Tm  Tm11  1  0.008471  0.862253  0.624673  1
  Tm  Tm12  1  0.637747  0.508471  0.874673  1
  Tm  Tm13  1  0.491529  0.362253  0.625327  1
  Tm  Tm14  1  0.508471  0.637747  0.125327  1
  Tm  Tm15  1  0.137747  0.991529  0.875327  1
  Tm  Tm16  1  0.683654  0.683654  0.500000  1
  Tm  Tm17  1  0.816346  0.183654  0.750000  1
  Tm  Tm18  1  0.183654  0.816346  0.250000  1
  Tm  Tm19  1  0.316346  0.316346  0.000000  1
  Si  Si20  1  0.066138  0.713438  0.437159  1
  Si  Si21  1  0.933862  0.286562  0.937159  1
  Si  Si22  1  0.713438  0.066138  0.562841  1
  Si  Si23  1  0.213439  0.433862  0.187159  1
  Si  Si24  1  0.786562  0.566138  0.687159  1
  Si  Si25  1  0.433862  0.213439  0.812841  1
  Si  Si26  1  0.566138  0.786562  0.312841  1
  Si  Si27  1  0.286562  0.933862  0.062841  1
  Si  Si28  1  0.845596  0.798854  0.807527  1
  Si  Si29  1  0.154404  0.201146  0.307527  1
  Si  Si30  1  0.798854  0.845596  0.192473  1
  Si  Si31  1  0.298854  0.654404  0.557527  1
  Si  Si32  1  0.701146  0.345596  0.057527  1
  Si  Si33  1  0.654404  0.298854  0.442473  1
  Si  Si34  1  0.345596  0.701146  0.942473  1
  Si  Si35  1  0.201146  0.154404  0.692473  1
