# generated using pymatgen
data_Mg3Al3Pd3Pt7
_symmetry_space_group_name_H-M   'P 1'
_cell_length_a   4.10075000
_cell_length_b   5.52471787
_cell_length_c   10.76150469
_cell_angle_alpha   90.32508472
_cell_angle_beta   90.00000000
_cell_angle_gamma   90.00000000
_symmetry_Int_Tables_number   1
_chemical_formula_structural   Mg3Al3Pd3Pt7
_chemical_formula_sum   'Mg3 Al3 Pd3 Pt7'
_cell_volume   243.80320308
_cell_formula_units_Z   1
loop_
 _symmetry_equiv_pos_site_id
 _symmetry_equiv_pos_as_xyz
  1  'x, y, z'
loop_
 _atom_site_type_symbol
 _atom_site_label
 _atom_site_symmetry_multiplicity
 _atom_site_fract_x
 _atom_site_fract_y
 _atom_site_fract_z
 _atom_site_occupancy
  Mg  Mg0  1  0.500000  0.172988  0.359985  1
  Mg  Mg1  1  0.500000  0.832710  0.638910  1
  Mg  Mg2  1  0.500000  0.672302  0.140154  1
  Al  Al3  1  0.000000  0.986553  0.001995  1
  Al  Al4  1  0.000000  0.495800  0.498565  1
  Al  Al5  1  0.500000  0.332003  0.858025  1
  Pd  Pd6  1  0.000000  0.999401  0.503419  1
  Pd  Pd7  1  0.000000  0.484512  0.993117  1
  Pd  Pd8  1  0.000000  0.587513  0.738139  1
  Pt  Pt9  1  0.500000  0.185648  0.100385  1
  Pt  Pt10  1  0.500000  0.804343  0.892434  1
  Pt  Pt11  1  0.500000  0.684415  0.394165  1
  Pt  Pt12  1  0.500000  0.319753  0.611966  1
  Pt  Pt13  1  0.000000  0.925299  0.239266  1
  Pt  Pt14  1  0.000000  0.092468  0.770497  1
  Pt  Pt15  1  0.000000  0.424294  0.258977  1
