# generated using pymatgen
data_Ho8SiPt24
_symmetry_space_group_name_H-M   'P 1'
_cell_length_a   8.31607000
_cell_length_b   8.31607000
_cell_length_c   8.31607000
_cell_angle_alpha   90.00000000
_cell_angle_beta   90.00000000
_cell_angle_gamma   90.00000000
_symmetry_Int_Tables_number   1
_chemical_formula_structural   Ho8SiPt24
_chemical_formula_sum   'Ho8 Si1 Pt24'
_cell_volume   575.11462135
_cell_formula_units_Z   1
loop_
 _symmetry_equiv_pos_site_id
 _symmetry_equiv_pos_as_xyz
  1  'x, y, z'
loop_
 _atom_site_type_symbol
 _atom_site_label
 _atom_site_symmetry_multiplicity
 _atom_site_fract_x
 _atom_site_fract_y
 _atom_site_fract_z
 _atom_site_occupancy
  Ho  Ho0  1  0.253242  0.253242  0.253242  1
  Ho  Ho1  1  0.746758  0.746758  0.746758  1
  Ho  Ho2  1  0.746758  0.746758  0.253242  1
  Ho  Ho3  1  0.746758  0.253242  0.746758  1
  Ho  Ho4  1  0.253242  0.253242  0.746758  1
  Ho  Ho5  1  0.253242  0.746758  0.253242  1
  Ho  Ho6  1  0.253242  0.746758  0.746758  1
  Ho  Ho7  1  0.746758  0.253242  0.253242  1
  Si  Si8  1  0.000000  0.000000  0.000000  1
  Pt  Pt9  1  0.257887  0.500000  0.000000  1
  Pt  Pt10  1  0.742113  0.500000  0.000000  1
  Pt  Pt11  1  0.000000  0.257887  0.500000  1
  Pt  Pt12  1  0.500000  0.257887  0.000000  1
  Pt  Pt13  1  0.000000  0.742113  0.500000  1
  Pt  Pt14  1  0.500000  0.742113  0.000000  1
  Pt  Pt15  1  0.500000  0.000000  0.257887  1
  Pt  Pt16  1  0.257887  0.000000  0.500000  1
  Pt  Pt17  1  0.500000  0.000000  0.742113  1
  Pt  Pt18  1  0.742113  0.000000  0.500000  1
  Pt  Pt19  1  0.000000  0.500000  0.257887  1
  Pt  Pt20  1  0.000000  0.500000  0.742113  1
  Pt  Pt21  1  0.251853  0.500000  0.500000  1
  Pt  Pt22  1  0.748147  0.500000  0.500000  1
  Pt  Pt23  1  0.500000  0.251853  0.500000  1
  Pt  Pt24  1  0.500000  0.748147  0.500000  1
  Pt  Pt25  1  0.500000  0.500000  0.251853  1
  Pt  Pt26  1  0.500000  0.500000  0.748147  1
  Pt  Pt27  1  0.282099  0.000000  0.000000  1
  Pt  Pt28  1  0.717901  0.000000  0.000000  1
  Pt  Pt29  1  0.000000  0.282099  0.000000  1
  Pt  Pt30  1  0.000000  0.717901  0.000000  1
  Pt  Pt31  1  0.000000  0.000000  0.282099  1
  Pt  Pt32  1  0.000000  0.000000  0.717901  1
