# generated using pymatgen
data_La2Yb(As2Rh3)3
_symmetry_space_group_name_H-M   'P 1'
_cell_length_a   4.07711100
_cell_length_b   11.61667700
_cell_length_c   13.29779000
_cell_angle_alpha   90.00000000
_cell_angle_beta   90.00000000
_cell_angle_gamma   90.00000000
_symmetry_Int_Tables_number   1
_chemical_formula_structural   La2Yb(As2Rh3)3
_chemical_formula_sum   'La4 Yb2 As12 Rh18'
_cell_volume   629.81633393
_cell_formula_units_Z   2
loop_
 _symmetry_equiv_pos_site_id
 _symmetry_equiv_pos_as_xyz
  1  'x, y, z'
loop_
 _atom_site_type_symbol
 _atom_site_label
 _atom_site_symmetry_multiplicity
 _atom_site_fract_x
 _atom_site_fract_y
 _atom_site_fract_z
 _atom_site_occupancy
  La  La0  1  0.000000  0.500000  0.524070  1
  La  La1  1  0.500000  0.000000  0.478890  1
  La  La2  1  0.500000  0.814635  0.204509  1
  La  La3  1  0.500000  0.185365  0.204509  1
  Yb  Yb4  1  0.000000  0.683534  0.794784  1
  Yb  Yb5  1  0.000000  0.316466  0.794784  1
  As  As6  1  0.500000  0.500000  0.876746  1
  As  As7  1  0.000000  0.000000  0.114906  1
  As  As8  1  0.500000  0.500000  0.347220  1
  As  As9  1  0.000000  0.000000  0.654514  1
  As  As10  1  0.500000  0.311219  0.622589  1
  As  As11  1  0.500000  0.688781  0.622589  1
  As  As12  1  0.000000  0.189402  0.384884  1
  As  As13  1  0.000000  0.810598  0.384884  1
  As  As14  1  0.500000  0.842985  0.889623  1
  As  As15  1  0.500000  0.157015  0.889623  1
  As  As16  1  0.000000  0.648807  0.106744  1
  As  As17  1  0.000000  0.351193  0.106744  1
  Rh  Rh18  1  0.500000  0.500000  0.163138  1
  Rh  Rh19  1  0.000000  0.000000  0.837241  1
  Rh  Rh20  1  0.500000  0.500000  0.699945  1
  Rh  Rh21  1  0.000000  0.000000  0.299223  1
  Rh  Rh22  1  0.000000  0.500000  0.977655  1
  Rh  Rh23  1  0.500000  0.000000  0.011515  1
  Rh  Rh24  1  0.500000  0.335519  0.993093  1
  Rh  Rh25  1  0.500000  0.664481  0.993093  1
  Rh  Rh26  1  0.000000  0.168461  0.002279  1
  Rh  Rh27  1  0.000000  0.831539  0.002279  1
  Rh  Rh28  1  0.500000  0.296256  0.433472  1
  Rh  Rh29  1  0.500000  0.703744  0.433472  1
  Rh  Rh30  1  0.000000  0.205939  0.572942  1
  Rh  Rh31  1  0.000000  0.794061  0.572942  1
  Rh  Rh32  1  0.500000  0.876559  0.710114  1
  Rh  Rh33  1  0.500000  0.123441  0.710114  1
  Rh  Rh34  1  0.000000  0.622959  0.292433  1
  Rh  Rh35  1  0.000000  0.377041  0.292433  1
