# generated using pymatgen
data_Rb4HgAs2Pd
_symmetry_space_group_name_H-M   'P 1'
_cell_length_a   6.67915551
_cell_length_b   6.67915484
_cell_length_c   6.45508245
_cell_angle_alpha   89.04039695
_cell_angle_beta   90.95959497
_cell_angle_gamma   73.69875540
_symmetry_Int_Tables_number   1
_chemical_formula_structural   Rb4HgAs2Pd
_chemical_formula_sum   'Rb4 Hg1 As2 Pd1'
_cell_volume   276.28406408
_cell_formula_units_Z   1
loop_
 _symmetry_equiv_pos_site_id
 _symmetry_equiv_pos_as_xyz
  1  'x, y, z'
loop_
 _atom_site_type_symbol
 _atom_site_label
 _atom_site_symmetry_multiplicity
 _atom_site_fract_x
 _atom_site_fract_y
 _atom_site_fract_z
 _atom_site_occupancy
  Rb  Rb0  1  0.477545  0.178398  0.258173  1
  Rb  Rb1  1  0.821602  0.522455  0.258173  1
  Rb  Rb2  1  0.178398  0.477545  0.741828  1
  Rb  Rb3  1  0.522455  0.821602  0.741828  1
  Hg  Hg4  1  0.000000  0.000000  0.000000  1
  As  As5  1  0.246535  0.753464  0.262861  1
  As  As6  1  0.753464  0.246535  0.737140  1
  Pd  Pd7  1  0.000000  0.000000  0.499999  1
