# generated using pymatgen
data_Tb5HoTe3
_symmetry_space_group_name_H-M   'P 1'
_cell_length_a   4.09449900
_cell_length_b   11.57379300
_cell_length_c   22.15007400
_cell_angle_alpha   90.00000000
_cell_angle_beta   90.00000000
_cell_angle_gamma   90.00000000
_symmetry_Int_Tables_number   1
_chemical_formula_structural   Tb5HoTe3
_chemical_formula_sum   'Tb20 Ho4 Te12'
_cell_volume   1049.66728438
_cell_formula_units_Z   4
loop_
 _symmetry_equiv_pos_site_id
 _symmetry_equiv_pos_as_xyz
  1  'x, y, z'
loop_
 _atom_site_type_symbol
 _atom_site_label
 _atom_site_symmetry_multiplicity
 _atom_site_fract_x
 _atom_site_fract_y
 _atom_site_fract_z
 _atom_site_occupancy
  Tb  Tb0  1  0.250000  0.151399  0.392368  1
  Tb  Tb1  1  0.750000  0.848601  0.607632  1
  Tb  Tb2  1  0.750000  0.651399  0.107632  1
  Tb  Tb3  1  0.250000  0.348601  0.892368  1
  Tb  Tb4  1  0.250000  0.455863  0.340373  1
  Tb  Tb5  1  0.750000  0.544137  0.659627  1
  Tb  Tb6  1  0.750000  0.955863  0.159627  1
  Tb  Tb7  1  0.250000  0.044137  0.840373  1
  Tb  Tb8  1  0.250000  0.734811  0.233487  1
  Tb  Tb9  1  0.750000  0.265189  0.766513  1
  Tb  Tb10  1  0.750000  0.234811  0.266513  1
  Tb  Tb11  1  0.250000  0.765189  0.733487  1
  Tb  Tb12  1  0.250000  0.115563  0.034547  1
  Tb  Tb13  1  0.750000  0.884437  0.965453  1
  Tb  Tb14  1  0.750000  0.615563  0.465453  1
  Tb  Tb15  1  0.250000  0.384437  0.534547  1
  Tb  Tb16  1  0.250000  0.414190  0.146426  1
  Tb  Tb17  1  0.750000  0.585810  0.853574  1
  Tb  Tb18  1  0.750000  0.914190  0.353574  1
  Tb  Tb19  1  0.250000  0.085810  0.646426  1
  Ho  Ho20  1  0.250000  0.611283  0.982723  1
  Ho  Ho21  1  0.750000  0.388717  0.017277  1
  Ho  Ho22  1  0.750000  0.111283  0.517277  1
  Ho  Ho23  1  0.250000  0.888717  0.482723  1
  Te  Te24  1  0.250000  0.849430  0.068716  1
  Te  Te25  1  0.750000  0.150570  0.931284  1
  Te  Te26  1  0.750000  0.349430  0.431284  1
  Te  Te27  1  0.250000  0.650570  0.568716  1
  Te  Te28  1  0.250000  0.712621  0.373186  1
  Te  Te29  1  0.750000  0.287379  0.626814  1
  Te  Te30  1  0.750000  0.212621  0.126814  1
  Te  Te31  1  0.250000  0.787379  0.873186  1
  Te  Te32  1  0.250000  0.020634  0.261254  1
  Te  Te33  1  0.750000  0.979366  0.738746  1
  Te  Te34  1  0.750000  0.520634  0.238746  1
  Te  Te35  1  0.250000  0.479366  0.761254  1
