# generated using pymatgen
data_Ho6Tm2Sc12Si15Au
_symmetry_space_group_name_H-M   'P 1'
_cell_length_a   7.09550214
_cell_length_b   7.35746984
_cell_length_c   14.01622058
_cell_angle_alpha   89.89761494
_cell_angle_beta   89.67814807
_cell_angle_gamma   90.20259899
_symmetry_Int_Tables_number   1
_chemical_formula_structural   Ho6Tm2Sc12Si15Au
_chemical_formula_sum   'Ho6 Tm2 Sc12 Si15 Au1'
_cell_volume   731.69868269
_cell_formula_units_Z   1
loop_
 _symmetry_equiv_pos_site_id
 _symmetry_equiv_pos_as_xyz
  1  'x, y, z'
loop_
 _atom_site_type_symbol
 _atom_site_label
 _atom_site_symmetry_multiplicity
 _atom_site_fract_x
 _atom_site_fract_y
 _atom_site_fract_z
 _atom_site_occupancy
  Ho  Ho0  1  0.012288  0.175917  0.097266  1
  Ho  Ho1  1  0.987543  0.824732  0.903738  1
  Ho  Ho2  1  0.487355  0.677212  0.903760  1
  Ho  Ho3  1  0.988278  0.827090  0.597458  1
  Ho  Ho4  1  0.511998  0.323368  0.096210  1
  Ho  Ho5  1  0.010599  0.174755  0.400116  1
  Tm  Tm6  1  0.509332  0.324087  0.401180  1
  Tm  Tm7  1  0.490988  0.676373  0.598787  1
  Sc  Sc8  1  0.162896  0.501890  0.751007  1
  Sc  Sc9  1  0.837355  0.497918  0.250902  1
  Sc  Sc10  1  0.338243  0.001152  0.249464  1
  Sc  Sc11  1  0.663617  0.995812  0.750704  1
  Sc  Sc12  1  0.338287  0.176345  0.625710  1
  Sc  Sc13  1  0.666257  0.823328  0.373615  1
  Sc  Sc14  1  0.169098  0.673204  0.373285  1
  Sc  Sc15  1  0.669973  0.824171  0.125396  1
  Sc  Sc16  1  0.828379  0.325880  0.625439  1
  Sc  Sc17  1  0.328960  0.175282  0.875773  1
  Sc  Sc18  1  0.830287  0.322758  0.875690  1
  Sc  Sc19  1  0.169277  0.676643  0.125259  1
  Si  Si20  1  0.034837  0.117523  0.750638  1
  Si  Si21  1  0.966730  0.885434  0.249316  1
  Si  Si22  1  0.466845  0.613789  0.248519  1
  Si  Si23  1  0.534673  0.386481  0.752183  1
  Si  Si24  1  0.285130  0.872524  0.750566  1
  Si  Si25  1  0.713028  0.129452  0.249234  1
  Si  Si26  1  0.214903  0.369770  0.248182  1
  Si  Si27  1  0.786535  0.628519  0.752379  1
  Si  Si28  1  0.833606  0.536248  0.459479  1
  Si  Si29  1  0.340476  0.963716  0.460100  1
  Si  Si30  1  0.842971  0.535303  0.038964  1
  Si  Si31  1  0.658272  0.035575  0.537845  1
  Si  Si32  1  0.156604  0.464604  0.961700  1
  Si  Si33  1  0.657703  0.034680  0.961155  1
  Si  Si34  1  0.342435  0.964579  0.039292  1
  Au  Au35  1  0.164241  0.463889  0.539689  1
