# generated using pymatgen
data_U4Fe5Si2Ni
_symmetry_space_group_name_H-M   'P 1'
_cell_length_a   5.07429336
_cell_length_b   5.07429323
_cell_length_c   7.48508500
_cell_angle_alpha   90.00000000
_cell_angle_beta   90.00000000
_cell_angle_gamma   118.21614942
_symmetry_Int_Tables_number   1
_chemical_formula_structural   U4Fe5Si2Ni
_chemical_formula_sum   'U4 Fe5 Si2 Ni1'
_cell_volume   169.82736907
_cell_formula_units_Z   1
loop_
 _symmetry_equiv_pos_site_id
 _symmetry_equiv_pos_as_xyz
  1  'x, y, z'
loop_
 _atom_site_type_symbol
 _atom_site_label
 _atom_site_symmetry_multiplicity
 _atom_site_fract_x
 _atom_site_fract_y
 _atom_site_fract_z
 _atom_site_occupancy
  U  U0  1  0.339564  0.660436  0.438035  1
  U  U1  1  0.657207  0.342793  0.569254  1
  U  U2  1  0.657207  0.342793  0.930746  1
  U  U3  1  0.339564  0.660436  0.061965  1
  Fe  Fe4  1  0.837134  0.662980  0.250000  1
  Fe  Fe5  1  0.337020  0.162866  0.250000  1
  Fe  Fe6  1  0.167067  0.832933  0.750000  1
  Fe  Fe7  1  0.161396  0.334446  0.750000  1
  Fe  Fe8  1  0.665554  0.838604  0.750000  1
  Si  Si9  1  0.001784  0.998216  0.500721  1
  Si  Si10  1  0.001784  0.998216  0.999279  1
  Ni  Ni11  1  0.834718  0.165282  0.250000  1
