# generated using pymatgen
data_Ho11Er5(HfIr3)4
_symmetry_space_group_name_H-M   'P 1'
_cell_length_a   10.79650100
_cell_length_b   10.78991701
_cell_length_c   6.23586901
_cell_angle_alpha   90.00540416
_cell_angle_beta   90.00143842
_cell_angle_gamma   89.99960714
_symmetry_Int_Tables_number   1
_chemical_formula_structural   Ho11Er5(HfIr3)4
_chemical_formula_sum   'Ho11 Er5 Hf4 Ir12'
_cell_volume   726.43726624
_cell_formula_units_Z   1
loop_
 _symmetry_equiv_pos_site_id
 _symmetry_equiv_pos_as_xyz
  1  'x, y, z'
loop_
 _atom_site_type_symbol
 _atom_site_label
 _atom_site_symmetry_multiplicity
 _atom_site_fract_x
 _atom_site_fract_y
 _atom_site_fract_z
 _atom_site_occupancy
  Ho  Ho0  1  0.289348  0.086203  0.374178  1
  Ho  Ho1  1  0.289352  0.913803  0.874181  1
  Ho  Ho2  1  0.710623  0.086200  0.874202  1
  Ho  Ho3  1  0.710652  0.913777  0.374287  1
  Ho  Ho4  1  0.586275  0.789387  0.874218  1
  Ho  Ho5  1  0.586138  0.210515  0.374349  1
  Ho  Ho6  1  0.413882  0.789485  0.374348  1
  Ho  Ho7  1  0.413881  0.210515  0.874366  1
  Ho  Ho8  1  0.210229  0.414001  0.625671  1
  Ho  Ho9  1  0.210249  0.585988  0.125701  1
  Ho  Ho10  1  0.789729  0.414096  0.125647  1
  Er  Er11  1  0.789942  0.585833  0.625396  1
  Er  Er12  1  0.914204  0.710250  0.125248  1
  Er  Er13  1  0.914283  0.289817  0.625382  1
  Er  Er14  1  0.085526  0.710298  0.625283  1
  Er  Er15  1  0.085650  0.289697  0.125291  1
  Hf  Hf16  1  0.999990  0.999991  0.500375  1
  Hf  Hf17  1  0.999967  0.999982  0.000338  1
  Hf  Hf18  1  0.500050  0.500013  0.000158  1
  Hf  Hf19  1  0.500196  0.500091  0.500253  1
  Ir  Ir20  1  0.856515  0.144091  0.250273  1
  Ir  Ir21  1  0.856478  0.855707  0.750191  1
  Ir  Ir22  1  0.143464  0.144070  0.750323  1
  Ir  Ir23  1  0.143464  0.855907  0.250282  1
  Ir  Ir24  1  0.644146  0.356368  0.749787  1
  Ir  Ir25  1  0.644177  0.643732  0.250313  1
  Ir  Ir26  1  0.356018  0.356176  0.249886  1
  Ir  Ir27  1  0.355993  0.643809  0.749936  1
  Ir  Ir28  1  0.499997  0.000018  0.121840  1
  Ir  Ir29  1  0.499998  0.999993  0.621833  1
  Ir  Ir30  1  0.999799  0.500087  0.878024  1
  Ir  Ir31  1  0.999786  0.500098  0.378440  1
