# generated using pymatgen
data_Li3Ca5Y3Si12Ag
_symmetry_space_group_name_H-M   'P 1'
_cell_length_a   4.30966600
_cell_length_b   10.49829826
_cell_length_c   11.06608740
_cell_angle_alpha   89.93359858
_cell_angle_beta   90.00000000
_cell_angle_gamma   90.00000000
_symmetry_Int_Tables_number   1
_chemical_formula_structural   Li3Ca5Y3Si12Ag
_chemical_formula_sum   'Li3 Ca5 Y3 Si12 Ag1'
_cell_volume   500.67548233
_cell_formula_units_Z   1
loop_
 _symmetry_equiv_pos_site_id
 _symmetry_equiv_pos_as_xyz
  1  'x, y, z'
loop_
 _atom_site_type_symbol
 _atom_site_label
 _atom_site_symmetry_multiplicity
 _atom_site_fract_x
 _atom_site_fract_y
 _atom_site_fract_z
 _atom_site_occupancy
  Li  Li0  1  0.500000  0.139949  0.716546  1
  Li  Li1  1  0.000000  0.360999  0.217336  1
  Li  Li2  1  0.000000  0.639249  0.784404  1
  Ca  Ca3  1  0.000000  0.946820  0.850132  1
  Ca  Ca4  1  0.500000  0.824715  0.576165  1
  Ca  Ca5  1  0.500000  0.177281  0.424007  1
  Ca  Ca6  1  0.000000  0.322143  0.924772  1
  Ca  Ca7  1  0.000000  0.677331  0.076589  1
  Y  Y8  1  0.500000  0.553299  0.349261  1
  Y  Y9  1  0.500000  0.448218  0.648626  1
  Y  Y10  1  0.000000  0.051036  0.149685  1
  Si  Si11  1  0.500000  0.893370  0.044997  1
  Si  Si12  1  0.500000  0.108802  0.961189  1
  Si  Si13  1  0.000000  0.394667  0.455796  1
  Si  Si14  1  0.000000  0.607729  0.543099  1
  Si  Si15  1  0.000000  0.969713  0.397319  1
  Si  Si16  1  0.000000  0.033736  0.598184  1
  Si  Si17  1  0.500000  0.465606  0.101484  1
  Si  Si18  1  0.500000  0.532130  0.899615  1
  Si  Si19  1  0.000000  0.259295  0.634312  1
  Si  Si20  1  0.000000  0.740743  0.362402  1
  Si  Si21  1  0.500000  0.754399  0.867165  1
  Si  Si22  1  0.500000  0.242246  0.138072  1
  Ag  Ag23  1  0.500000  0.856523  0.278842  1
