# generated using pymatgen
data_Ta3NbSi4(PdRu)2
_symmetry_space_group_name_H-M   'P 1'
_cell_length_a   3.77722400
_cell_length_b   6.44943222
_cell_length_c   7.41353525
_cell_angle_alpha   90.02983783
_cell_angle_beta   90.00000000
_cell_angle_gamma   90.00000000
_symmetry_Int_Tables_number   1
_chemical_formula_structural   Ta3NbSi4(PdRu)2
_chemical_formula_sum   'Ta3 Nb1 Si4 Pd2 Ru2'
_cell_volume   180.60073830
_cell_formula_units_Z   1
loop_
 _symmetry_equiv_pos_site_id
 _symmetry_equiv_pos_as_xyz
  1  'x, y, z'
loop_
 _atom_site_type_symbol
 _atom_site_label
 _atom_site_symmetry_multiplicity
 _atom_site_fract_x
 _atom_site_fract_y
 _atom_site_fract_z
 _atom_site_occupancy
  Ta  Ta0  1  0.750000  0.525807  0.828247  1
  Ta  Ta1  1  0.250000  0.971502  0.326842  1
  Ta  Ta2  1  0.750000  0.026002  0.670773  1
  Nb  Nb3  1  0.250000  0.471215  0.173432  1
  Si  Si4  1  0.250000  0.231158  0.867815  1
  Si  Si5  1  0.250000  0.731306  0.632266  1
  Si  Si6  1  0.750000  0.763771  0.120811  1
  Si  Si7  1  0.750000  0.264048  0.378820  1
  Pd  Pd8  1  0.750000  0.650221  0.436402  1
  Pd  Pd9  1  0.750000  0.148686  0.064239  1
  Ru  Ru10  1  0.250000  0.858424  0.938809  1
  Ru  Ru11  1  0.250000  0.357859  0.561544  1
