# generated using pymatgen
data_CsRbHf6BBr15
_symmetry_space_group_name_H-M   'P 1'
_cell_length_a   10.38050100
_cell_length_b   14.86753300
_cell_length_c   19.87927600
_cell_angle_alpha   90.00000000
_cell_angle_beta   90.00000000
_cell_angle_gamma   90.00000000
_symmetry_Int_Tables_number   1
_chemical_formula_structural   CsRbHf6BBr15
_chemical_formula_sum   'Cs4 Rb4 Hf24 B4 Br60'
_cell_volume   3068.01719385
_cell_formula_units_Z   4
loop_
 _symmetry_equiv_pos_site_id
 _symmetry_equiv_pos_as_xyz
  1  'x, y, z'
loop_
 _atom_site_type_symbol
 _atom_site_label
 _atom_site_symmetry_multiplicity
 _atom_site_fract_x
 _atom_site_fract_y
 _atom_site_fract_z
 _atom_site_occupancy
  Cs  Cs0  1  0.405122  0.500000  0.750000  1
  Cs  Cs1  1  0.594878  0.500000  0.250000  1
  Cs  Cs2  1  0.000000  0.000000  0.500000  1
  Cs  Cs3  1  0.000000  0.000000  0.000000  1
  Rb  Rb4  1  0.839906  0.251050  0.750000  1
  Rb  Rb5  1  0.160094  0.748950  0.250000  1
  Rb  Rb6  1  0.839906  0.748950  0.750000  1
  Rb  Rb7  1  0.160094  0.251050  0.250000  1
  Hf  Hf8  1  0.570352  0.000000  0.750000  1
  Hf  Hf9  1  0.429648  0.000000  0.250000  1
  Hf  Hf10  1  0.077266  0.500000  0.108007  1
  Hf  Hf11  1  0.922734  0.500000  0.891993  1
  Hf  Hf12  1  0.077266  0.500000  0.391993  1
  Hf  Hf13  1  0.922734  0.500000  0.608007  1
  Hf  Hf14  1  0.148992  0.389674  0.528291  1
  Hf  Hf15  1  0.851008  0.610326  0.471709  1
  Hf  Hf16  1  0.148992  0.610326  0.971709  1
  Hf  Hf17  1  0.851008  0.389674  0.471709  1
  Hf  Hf18  1  0.851008  0.389674  0.028291  1
  Hf  Hf19  1  0.148992  0.610326  0.528291  1
  Hf  Hf20  1  0.851008  0.610326  0.028291  1
  Hf  Hf21  1  0.148992  0.389674  0.971709  1
  Hf  Hf22  1  0.348676  0.110655  0.667253  1
  Hf  Hf23  1  0.651324  0.889345  0.332747  1
  Hf  Hf24  1  0.348676  0.889345  0.832747  1
  Hf  Hf25  1  0.651324  0.110655  0.332747  1
  Hf  Hf26  1  0.651324  0.110655  0.167253  1
  Hf  Hf27  1  0.348676  0.889345  0.667253  1
  Hf  Hf28  1  0.651324  0.889345  0.167253  1
  Hf  Hf29  1  0.348676  0.110655  0.832747  1
  Hf  Hf30  1  0.129990  0.000000  0.750000  1
  Hf  Hf31  1  0.870010  0.000000  0.250000  1
  B  B32  1  0.350613  0.000000  0.750000  1
  B  B33  1  0.649387  0.000000  0.250000  1
  B  B34  1  0.000000  0.500000  0.500000  1
  B  B35  1  0.000000  0.500000  0.000000  1
  Br  Br36  1  0.000000  0.247825  0.500000  1
  Br  Br37  1  0.000000  0.752175  0.500000  1
  Br  Br38  1  0.000000  0.752175  0.000000  1
  Br  Br39  1  0.000000  0.247825  0.000000  1
  Br  Br40  1  0.083878  0.376608  0.658483  1
  Br  Br41  1  0.916122  0.623392  0.341517  1
  Br  Br42  1  0.083878  0.623392  0.841517  1
  Br  Br43  1  0.916122  0.376608  0.341517  1
  Br  Br44  1  0.916122  0.376608  0.158483  1
  Br  Br45  1  0.083878  0.623392  0.658483  1
  Br  Br46  1  0.916122  0.623392  0.158483  1
  Br  Br47  1  0.083878  0.376608  0.841517  1
  Br  Br48  1  0.342935  0.500000  0.562781  1
  Br  Br49  1  0.657065  0.500000  0.437219  1
  Br  Br50  1  0.342935  0.500000  0.937219  1
  Br  Br51  1  0.657065  0.500000  0.062781  1
  Br  Br52  1  0.355553  0.252870  0.750000  1
  Br  Br53  1  0.644447  0.747130  0.250000  1
  Br  Br54  1  0.355553  0.747130  0.750000  1
  Br  Br55  1  0.644447  0.252870  0.250000  1
  Br  Br56  1  0.336674  0.250780  0.564742  1
  Br  Br57  1  0.663326  0.749220  0.435258  1
  Br  Br58  1  0.336674  0.749220  0.935258  1
  Br  Br59  1  0.663326  0.250780  0.435258  1
  Br  Br60  1  0.663326  0.250780  0.064742  1
  Br  Br61  1  0.336674  0.749220  0.564742  1
  Br  Br62  1  0.663326  0.749220  0.064742  1
  Br  Br63  1  0.336674  0.250780  0.935258  1
  Br  Br64  1  0.090813  0.125991  0.656322  1
  Br  Br65  1  0.909187  0.874009  0.343678  1
  Br  Br66  1  0.090813  0.874009  0.843678  1
  Br  Br67  1  0.909187  0.125991  0.343678  1
  Br  Br68  1  0.909187  0.125991  0.156322  1
  Br  Br69  1  0.090813  0.874009  0.656322  1
  Br  Br70  1  0.909187  0.874009  0.156322  1
  Br  Br71  1  0.090813  0.125991  0.843678  1
  Br  Br72  1  0.259245  0.372760  0.094023  1
  Br  Br73  1  0.740755  0.627240  0.905977  1
  Br  Br74  1  0.259245  0.627240  0.405977  1
  Br  Br75  1  0.740755  0.372760  0.905977  1
  Br  Br76  1  0.740755  0.372760  0.594023  1
  Br  Br77  1  0.259245  0.627240  0.094023  1
  Br  Br78  1  0.740755  0.627240  0.594023  1
  Br  Br79  1  0.259245  0.372760  0.405977  1
  Br  Br80  1  0.849311  0.000000  0.750000  1
  Br  Br81  1  0.150689  0.000000  0.250000  1
  Br  Br82  1  0.348319  0.000000  0.560535  1
  Br  Br83  1  0.651681  0.000000  0.439465  1
  Br  Br84  1  0.348319  0.000000  0.939465  1
  Br  Br85  1  0.651681  0.000000  0.060535  1
  Br  Br86  1  0.605432  0.125587  0.653528  1
  Br  Br87  1  0.394568  0.874413  0.346472  1
  Br  Br88  1  0.605432  0.874413  0.846472  1
  Br  Br89  1  0.394568  0.125587  0.346472  1
  Br  Br90  1  0.394568  0.125587  0.153528  1
  Br  Br91  1  0.605432  0.874413  0.653528  1
  Br  Br92  1  0.394568  0.874413  0.153528  1
  Br  Br93  1  0.605432  0.125587  0.846472  1
  Br  Br94  1  0.813522  0.500000  0.750000  1
  Br  Br95  1  0.186478  0.500000  0.250000  1
