# generated using pymatgen
data_BaMn7FeO16
_symmetry_space_group_name_H-M   'P 1'
_cell_length_a   5.92786525
_cell_length_b   7.18070908
_cell_length_c   7.25195233
_cell_angle_alpha   87.93745004
_cell_angle_beta   78.22447524
_cell_angle_gamma   77.88068934
_symmetry_Int_Tables_number   1
_chemical_formula_structural   BaMn7FeO16
_chemical_formula_sum   'Ba1 Mn7 Fe1 O16'
_cell_volume   295.44946922
_cell_formula_units_Z   1
loop_
 _symmetry_equiv_pos_site_id
 _symmetry_equiv_pos_as_xyz
  1  'x, y, z'
loop_
 _atom_site_type_symbol
 _atom_site_label
 _atom_site_symmetry_multiplicity
 _atom_site_fract_x
 _atom_site_fract_y
 _atom_site_fract_z
 _atom_site_occupancy
  Ba  Ba0  1  0.005017  0.996323  0.003734  1
  Mn  Mn1  1  0.081117  0.508764  0.180691  1
  Mn  Mn2  1  0.170509  0.816934  0.513939  1
  Mn  Mn3  1  0.669360  0.819595  0.520227  1
  Mn  Mn4  1  0.337052  0.183714  0.475894  1
  Mn  Mn5  1  0.837853  0.183252  0.487882  1
  Mn  Mn6  1  0.432294  0.484679  0.815709  1
  Mn  Mn7  1  0.927349  0.490182  0.816344  1
  Fe  Fe8  1  0.577749  0.519052  0.185920  1
  O  O9  1  0.843935  0.646735  0.048743  1
  O  O10  1  0.315279  0.645163  0.050272  1
  O  O11  1  0.980642  0.702477  0.381217  1
  O  O12  1  0.483054  0.709470  0.387351  1
  O  O13  1  0.857583  0.951985  0.646599  1
  O  O14  1  0.351106  0.956089  0.640005  1
  O  O15  1  0.334946  0.371188  0.287357  1
  O  O16  1  0.847412  0.362827  0.285203  1
  O  O17  1  0.170466  0.630115  0.713012  1
  O  O18  1  0.666282  0.632563  0.717009  1
  O  O19  1  0.140812  0.037043  0.353929  1
  O  O20  1  0.666483  0.040976  0.358428  1
  O  O21  1  0.020874  0.294828  0.624968  1
  O  O22  1  0.529856  0.302259  0.616431  1
  O  O23  1  0.175566  0.354866  0.948196  1
  O  O24  1  0.684505  0.358921  0.940936  1
