# generated using pymatgen
data_Y4Sn3Ge3Rh7
_symmetry_space_group_name_H-M   'P 1'
_cell_length_a   7.44027466
_cell_length_b   7.44027623
_cell_length_c   7.50273100
_cell_angle_alpha   109.64134869
_cell_angle_beta   109.64135298
_cell_angle_gamma   109.30055339
_symmetry_Int_Tables_number   1
_chemical_formula_structural   Y4Sn3Ge3Rh7
_chemical_formula_sum   'Y4 Sn3 Ge3 Rh7'
_cell_volume   319.05044545
_cell_formula_units_Z   1
loop_
 _symmetry_equiv_pos_site_id
 _symmetry_equiv_pos_as_xyz
  1  'x, y, z'
loop_
 _atom_site_type_symbol
 _atom_site_label
 _atom_site_symmetry_multiplicity
 _atom_site_fract_x
 _atom_site_fract_y
 _atom_site_fract_z
 _atom_site_occupancy
  Y  Y0  1  0.000000  0.000000  0.551343  1
  Y  Y1  1  0.000000  0.476714  0.988012  1
  Y  Y2  1  0.476714  0.000000  0.988012  1
  Y  Y3  1  0.523286  0.523286  0.511297  1
  Sn  Sn4  1  0.704673  0.704673  0.015671  1
  Sn  Sn5  1  0.295327  0.000000  0.310998  1
  Sn  Sn6  1  0.000000  0.295327  0.310998  1
  Ge  Ge7  1  0.341076  0.341076  0.011026  1
  Ge  Ge8  1  0.658924  0.000000  0.669949  1
  Ge  Ge9  1  0.000000  0.658924  0.669949  1
  Rh  Rh10  1  0.744526  0.245161  0.498481  1
  Rh  Rh11  1  0.754839  0.499365  0.253321  1
  Rh  Rh12  1  0.500635  0.255474  0.753955  1
  Rh  Rh13  1  0.255474  0.500635  0.753955  1
  Rh  Rh14  1  0.245161  0.744526  0.498481  1
  Rh  Rh15  1  0.499365  0.754839  0.253321  1
  Rh  Rh16  1  0.000000  0.000000  0.961230  1
