# generated using pymatgen
data_Tb3Dy3Zr2(Co4P3)4
_symmetry_space_group_name_H-M   'P 1'
_cell_length_a   3.72024600
_cell_length_b   10.69556001
_cell_length_c   12.42343602
_cell_angle_alpha   90.00599764
_cell_angle_beta   90.00000000
_cell_angle_gamma   90.00000000
_symmetry_Int_Tables_number   1
_chemical_formula_structural   Tb3Dy3Zr2(Co4P3)4
_chemical_formula_sum   'Tb3 Dy3 Zr2 Co16 P12'
_cell_volume   494.32993718
_cell_formula_units_Z   1
loop_
 _symmetry_equiv_pos_site_id
 _symmetry_equiv_pos_as_xyz
  1  'x, y, z'
loop_
 _atom_site_type_symbol
 _atom_site_label
 _atom_site_symmetry_multiplicity
 _atom_site_fract_x
 _atom_site_fract_y
 _atom_site_fract_z
 _atom_site_occupancy
  Tb  Tb0  1  0.000000  0.500027  0.529232  1
  Tb  Tb1  1  0.500000  0.000024  0.470723  1
  Tb  Tb2  1  0.000000  0.321512  0.795102  1
  Dy  Dy3  1  0.500000  0.821448  0.204849  1
  Dy  Dy4  1  0.500000  0.178453  0.204803  1
  Dy  Dy5  1  0.000000  0.678534  0.795212  1
  Zr  Zr6  1  0.500000  0.500073  0.158116  1
  Zr  Zr7  1  0.000000  0.999917  0.841919  1
  Co  Co8  1  0.500000  0.500219  0.703549  1
  Co  Co9  1  0.000000  0.999986  0.296338  1
  Co  Co10  1  0.000000  0.500109  0.985857  1
  Co  Co11  1  0.500000  0.999975  0.014230  1
  Co  Co12  1  0.500000  0.331995  0.992926  1
  Co  Co13  1  0.500000  0.668049  0.992801  1
  Co  Co14  1  0.000000  0.167965  0.007265  1
  Co  Co15  1  0.000000  0.831951  0.007213  1
  Co  Co16  1  0.500000  0.295126  0.433405  1
  Co  Co17  1  0.500000  0.704846  0.433359  1
  Co  Co18  1  0.000000  0.204832  0.566507  1
  Co  Co19  1  0.000000  0.795142  0.566590  1
  Co  Co20  1  0.500000  0.877763  0.701163  1
  Co  Co21  1  0.500000  0.122086  0.701064  1
  Co  Co22  1  0.000000  0.622265  0.298842  1
  Co  Co23  1  0.000000  0.377803  0.298839  1
  P  P24  1  0.500000  0.500220  0.883848  1
  P  P25  1  0.000000  0.000006  0.116325  1
  P  P26  1  0.500000  0.500000  0.362618  1
  P  P27  1  0.000000  0.000021  0.637387  1
  P  P28  1  0.500000  0.309358  0.615297  1
  P  P29  1  0.500000  0.690576  0.615536  1
  P  P30  1  0.000000  0.190534  0.384454  1
  P  P31  1  0.000000  0.809422  0.384453  1
  P  P32  1  0.500000  0.838168  0.894402  1
  P  P33  1  0.500000  0.161588  0.894578  1
  P  P34  1  0.000000  0.661842  0.105601  1
  P  P35  1  0.000000  0.338164  0.105597  1
