# generated using pymatgen
data_LiTbSiO4
_symmetry_space_group_name_H-M   'P 1'
_cell_length_a   6.25640700
_cell_length_b   5.46322515
_cell_length_c   10.96690646
_cell_angle_alpha   66.40028014
_cell_angle_beta   90.00000000
_cell_angle_gamma   90.00000000
_symmetry_Int_Tables_number   1
_chemical_formula_structural   LiTbSiO4
_chemical_formula_sum   'Li4 Tb4 Si4 O16'
_cell_volume   343.49986968
_cell_formula_units_Z   4
loop_
 _symmetry_equiv_pos_site_id
 _symmetry_equiv_pos_as_xyz
  1  'x, y, z'
loop_
 _atom_site_type_symbol
 _atom_site_label
 _atom_site_symmetry_multiplicity
 _atom_site_fract_x
 _atom_site_fract_y
 _atom_site_fract_z
 _atom_site_occupancy
  Li  Li0  1  0.133990  0.918987  0.429828  1
  Li  Li1  1  0.633990  0.081013  0.070172  1
  Li  Li2  1  0.866010  0.081013  0.570172  1
  Li  Li3  1  0.366010  0.918987  0.929828  1
  Tb  Tb4  1  0.116119  0.445391  0.847555  1
  Tb  Tb5  1  0.883881  0.554609  0.152445  1
  Tb  Tb6  1  0.616119  0.554609  0.652445  1
  Tb  Tb7  1  0.383881  0.445391  0.347555  1
  Si  Si8  1  0.651982  0.904304  0.359199  1
  Si  Si9  1  0.348018  0.095696  0.640801  1
  Si  Si10  1  0.151982  0.095696  0.140801  1
  Si  Si11  1  0.848018  0.904304  0.859199  1
  O  O12  1  0.858499  0.229908  0.776073  1
  O  O13  1  0.641501  0.229908  0.276073  1
  O  O14  1  0.163375  0.184536  0.524649  1
  O  O15  1  0.837205  0.758842  0.752838  1
  O  O16  1  0.141501  0.770092  0.223927  1
  O  O17  1  0.570462  0.225324  0.555521  1
  O  O18  1  0.662795  0.758842  0.252838  1
  O  O19  1  0.429538  0.774676  0.444479  1
  O  O20  1  0.070462  0.774676  0.944479  1
  O  O21  1  0.663375  0.815464  0.975351  1
  O  O22  1  0.162795  0.241158  0.247162  1
  O  O23  1  0.929538  0.225324  0.055521  1
  O  O24  1  0.336625  0.184536  0.024649  1
  O  O25  1  0.337205  0.241158  0.747162  1
  O  O26  1  0.358499  0.770092  0.723927  1
  O  O27  1  0.836625  0.815464  0.475351  1
