# generated using pymatgen
data_Dy16Tl2CdInIr4
_symmetry_space_group_name_H-M   'P 1'
_cell_length_a   9.67309040
_cell_length_b   9.67832604
_cell_length_c   9.68646400
_cell_angle_alpha   59.97218803
_cell_angle_beta   59.95426169
_cell_angle_gamma   59.96661338
_symmetry_Int_Tables_number   1
_chemical_formula_structural   Dy16Tl2CdInIr4
_chemical_formula_sum   'Dy16 Tl2 Cd1 In1 Ir4'
_cell_volume   640.71447656
_cell_formula_units_Z   1
loop_
 _symmetry_equiv_pos_site_id
 _symmetry_equiv_pos_as_xyz
  1  'x, y, z'
loop_
 _atom_site_type_symbol
 _atom_site_label
 _atom_site_symmetry_multiplicity
 _atom_site_fract_x
 _atom_site_fract_y
 _atom_site_fract_z
 _atom_site_occupancy
  Dy  Dy0  1  0.598951  0.598863  0.597967  1
  Dy  Dy1  1  0.598951  0.598863  0.204219  1
  Dy  Dy2  1  0.599457  0.202752  0.598896  1
  Dy  Dy3  1  0.202361  0.599396  0.599122  1
  Dy  Dy4  1  0.058732  0.438946  0.442419  1
  Dy  Dy5  1  0.437710  0.060298  0.061017  1
  Dy  Dy6  1  0.437710  0.060298  0.440975  1
  Dy  Dy7  1  0.058732  0.438946  0.059903  1
  Dy  Dy8  1  0.439993  0.439495  0.060256  1
  Dy  Dy9  1  0.059113  0.059345  0.440771  1
  Dy  Dy10  1  0.191208  0.811639  0.811082  1
  Dy  Dy11  1  0.811831  0.189615  0.188348  1
  Dy  Dy12  1  0.811831  0.189615  0.810206  1
  Dy  Dy13  1  0.191208  0.811639  0.186071  1
  Dy  Dy14  1  0.811965  0.809654  0.189191  1
  Dy  Dy15  1  0.190283  0.187306  0.811206  1
  Tl  Tl16  1  0.833127  0.834964  0.836817  1
  Tl  Tl17  1  0.833127  0.834964  0.495093  1
  Cd  Cd18  1  0.501502  0.831645  0.833426  1
  In  In19  1  0.831433  0.500206  0.834181  1
  Ir  Ir20  1  0.391881  0.391840  0.391189  1
  Ir  Ir21  1  0.391881  0.391840  0.825089  1
  Ir  Ir22  1  0.391404  0.825924  0.391335  1
  Ir  Ir23  1  0.825607  0.391946  0.391223  1
