# generated using pymatgen
data_Ho2ErAgSn3Rh2
_symmetry_space_group_name_H-M   'P 1'
_cell_length_a   7.71862013
_cell_length_b   7.72689411
_cell_length_c   3.77819000
_cell_angle_alpha   90.00000000
_cell_angle_beta   90.00000000
_cell_angle_gamma   120.13065874
_symmetry_Int_Tables_number   1
_chemical_formula_structural   Ho2ErAgSn3Rh2
_chemical_formula_sum   'Ho2 Er1 Ag1 Sn3 Rh2'
_cell_volume   194.88829388
_cell_formula_units_Z   1
loop_
 _symmetry_equiv_pos_site_id
 _symmetry_equiv_pos_as_xyz
  1  'x, y, z'
loop_
 _atom_site_type_symbol
 _atom_site_label
 _atom_site_symmetry_multiplicity
 _atom_site_fract_x
 _atom_site_fract_y
 _atom_site_fract_z
 _atom_site_occupancy
  Ho  Ho0  1  0.388080  0.409324  0.000000  1
  Ho  Ho1  1  0.021085  0.612046  0.000000  1
  Er  Er2  1  0.591000  0.978416  0.000000  1
  Ag  Ag3  1  0.666663  0.332721  0.500000  1
  Sn  Sn4  1  0.740931  0.738280  0.500000  1
  Sn  Sn5  1  0.996662  0.258567  0.500000  1
  Sn  Sn6  1  0.261772  0.002657  0.500000  1
  Rh  Rh7  1  0.999586  0.000061  0.000000  1
  Rh  Rh8  1  0.334219  0.667928  0.500000  1
