# generated using pymatgen
data_Li3Yb2PaGe3
_symmetry_space_group_name_H-M   'P 1'
_cell_length_a   7.15924506
_cell_length_b   7.04353058
_cell_length_c   4.31997700
_cell_angle_alpha   90.00000000
_cell_angle_beta   90.00000000
_cell_angle_gamma   119.46676393
_symmetry_Int_Tables_number   1
_chemical_formula_structural   Li3Yb2PaGe3
_chemical_formula_sum   'Li3 Yb2 Pa1 Ge3'
_cell_volume   189.66110599
_cell_formula_units_Z   1
loop_
 _symmetry_equiv_pos_site_id
 _symmetry_equiv_pos_as_xyz
  1  'x, y, z'
loop_
 _atom_site_type_symbol
 _atom_site_label
 _atom_site_symmetry_multiplicity
 _atom_site_fract_x
 _atom_site_fract_y
 _atom_site_fract_z
 _atom_site_occupancy
  Li  Li0  1  0.767624  0.768970  0.500000  1
  Li  Li1  1  0.232376  0.001347  0.500000  1
  Li  Li2  1  0.000000  0.226380  0.500000  1
  Yb  Yb3  1  0.425959  0.426230  0.000000  1
  Yb  Yb4  1  0.574041  0.000271  0.000000  1
  Pa  Pa5  1  0.000000  0.575188  0.000000  1
  Ge  Ge6  1  0.310203  0.661896  0.500000  1
  Ge  Ge7  1  0.689797  0.351693  0.500000  1
  Ge  Ge8  1  0.000000  0.988024  0.000000  1
