# generated using pymatgen
data_Ho2ErSc3MnBi2
_symmetry_space_group_name_H-M   'P 1'
_cell_length_a   7.93459500
_cell_length_b   7.93924850
_cell_length_c   4.23652900
_cell_angle_alpha   90.00000000
_cell_angle_beta   90.00000000
_cell_angle_gamma   119.98060842
_symmetry_Int_Tables_number   1
_chemical_formula_structural   Ho2ErSc3MnBi2
_chemical_formula_sum   'Ho2 Er1 Sc3 Mn1 Bi2'
_cell_volume   231.16911170
_cell_formula_units_Z   1
loop_
 _symmetry_equiv_pos_site_id
 _symmetry_equiv_pos_as_xyz
  1  'x, y, z'
loop_
 _atom_site_type_symbol
 _atom_site_label
 _atom_site_symmetry_multiplicity
 _atom_site_fract_x
 _atom_site_fract_y
 _atom_site_fract_z
 _atom_site_occupancy
  Ho  Ho0  1  0.999995  0.612691  0.500000  1
  Ho  Ho1  1  0.387304  0.387309  0.500000  1
  Er  Er2  1  0.613025  0.000000  0.500000  1
  Sc  Sc3  1  0.223980  0.000000  0.000000  1
  Sc  Sc4  1  0.775990  0.776200  0.000000  1
  Sc  Sc5  1  0.999790  0.223800  0.000000  1
  Mn  Mn6  1  0.999799  0.000000  0.500000  1
  Bi  Bi7  1  0.333486  0.666855  0.000000  1
  Bi  Bi8  1  0.666631  0.333145  0.000000  1
