# generated using pymatgen
data_Dy2CoNi3(PRh)6
_symmetry_space_group_name_H-M   'P 1'
_cell_length_a   3.79791300
_cell_length_b   10.73712100
_cell_length_c   12.21877100
_cell_angle_alpha   90.00000000
_cell_angle_beta   90.00000000
_cell_angle_gamma   90.00000000
_symmetry_Int_Tables_number   1
_chemical_formula_structural   Dy2CoNi3(PRh)6
_chemical_formula_sum   'Dy4 Co2 Ni6 P12 Rh12'
_cell_volume   498.26500349
_cell_formula_units_Z   2
loop_
 _symmetry_equiv_pos_site_id
 _symmetry_equiv_pos_as_xyz
  1  'x, y, z'
loop_
 _atom_site_type_symbol
 _atom_site_label
 _atom_site_symmetry_multiplicity
 _atom_site_fract_x
 _atom_site_fract_y
 _atom_site_fract_z
 _atom_site_occupancy
  Dy  Dy0  1  0.250000  0.584511  0.707839  1
  Dy  Dy1  1  0.250000  0.915489  0.207839  1
  Dy  Dy2  1  0.750000  0.416276  0.292528  1
  Dy  Dy3  1  0.750000  0.083724  0.792528  1
  Co  Co4  1  0.750000  0.534583  0.066444  1
  Co  Co5  1  0.750000  0.965417  0.566444  1
  Ni  Ni6  1  0.250000  0.887769  0.698631  1
  Ni  Ni7  1  0.250000  0.612231  0.198631  1
  Ni  Ni8  1  0.750000  0.108790  0.301212  1
  Ni  Ni9  1  0.750000  0.391210  0.801212  1
  Ni  Ni10  1  0.250000  0.463922  0.932959  1
  Ni  Ni11  1  0.250000  0.036078  0.432959  1
  P  P12  1  0.250000  0.427924  0.112353  1
  P  P13  1  0.250000  0.072076  0.612353  1
  P  P14  1  0.750000  0.575193  0.890157  1
  P  P15  1  0.750000  0.924807  0.390157  1
  P  P16  1  0.250000  0.270681  0.874098  1
  P  P17  1  0.250000  0.229319  0.374098  1
  P  P18  1  0.750000  0.725505  0.125939  1
  P  P19  1  0.750000  0.774495  0.625939  1
  P  P20  1  0.250000  0.600137  0.384185  1
  P  P21  1  0.250000  0.899863  0.884185  1
  P  P22  1  0.750000  0.400730  0.616163  1
  P  P23  1  0.750000  0.099270  0.116163  1
  Rh  Rh24  1  0.250000  0.712829  0.989211  1
  Rh  Rh25  1  0.250000  0.787171  0.489211  1
  Rh  Rh26  1  0.750000  0.282757  0.006090  1
  Rh  Rh27  1  0.750000  0.217243  0.506090  1
  Rh  Rh28  1  0.250000  0.411143  0.483245  1
  Rh  Rh29  1  0.250000  0.088857  0.983245  1
  Rh  Rh30  1  0.750000  0.592744  0.518439  1
  Rh  Rh31  1  0.750000  0.907256  0.018439  1
  Rh  Rh32  1  0.250000  0.228205  0.183138  1
  Rh  Rh33  1  0.250000  0.271795  0.683138  1
  Rh  Rh34  1  0.750000  0.773086  0.817368  1
  Rh  Rh35  1  0.750000  0.726914  0.317368  1
