# generated using pymatgen
data_Li4ScUS6
_symmetry_space_group_name_H-M   'P 1'
_cell_length_a   6.52111471
_cell_length_b   6.52111450
_cell_length_c   6.45921574
_cell_angle_alpha   99.74327471
_cell_angle_beta   99.74326899
_cell_angle_gamma   119.97398501
_symmetry_Int_Tables_number   1
_chemical_formula_structural   Li4ScUS6
_chemical_formula_sum   'Li4 Sc1 U1 S6'
_cell_volume   223.90792011
_cell_formula_units_Z   1
loop_
 _symmetry_equiv_pos_site_id
 _symmetry_equiv_pos_as_xyz
  1  'x, y, z'
loop_
 _atom_site_type_symbol
 _atom_site_label
 _atom_site_symmetry_multiplicity
 _atom_site_fract_x
 _atom_site_fract_y
 _atom_site_fract_z
 _atom_site_occupancy
  Li  Li0  1  0.500826  0.499172  0.000000  1
  Li  Li1  1  0.997029  0.002971  0.499998  1
  Li  Li2  1  0.666760  0.333238  0.500000  1
  Li  Li3  1  0.335115  0.664883  0.500000  1
  Sc  Sc4  1  0.833012  0.166986  0.000000  1
  U  U5  1  0.166790  0.833207  0.000000  1
  S  S6  1  0.924680  0.578405  0.241557  1
  S  S7  1  0.235445  0.238530  0.247677  1
  S  S8  1  0.583972  0.926696  0.243010  1
  S  S9  1  0.073306  0.416030  0.756992  1
  S  S10  1  0.761473  0.764557  0.752325  1
  S  S11  1  0.421596  0.075322  0.758444  1
