# generated using pymatgen
data_Yb10In2Cu3Ni
_symmetry_space_group_name_H-M   'P 1'
_cell_length_a   9.01866163
_cell_length_b   9.01866174
_cell_length_c   9.00250508
_cell_angle_alpha   128.67756739
_cell_angle_beta   128.67756475
_cell_angle_gamma   75.66240256
_symmetry_Int_Tables_number   1
_chemical_formula_structural   Yb10In2Cu3Ni
_chemical_formula_sum   'Yb10 In2 Cu3 Ni1'
_cell_volume   433.81782295
_cell_formula_units_Z   1
loop_
 _symmetry_equiv_pos_site_id
 _symmetry_equiv_pos_as_xyz
  1  'x, y, z'
loop_
 _atom_site_type_symbol
 _atom_site_label
 _atom_site_symmetry_multiplicity
 _atom_site_fract_x
 _atom_site_fract_y
 _atom_site_fract_z
 _atom_site_occupancy
  Yb  Yb0  1  0.496366  0.501387  0.997753  1
  Yb  Yb1  1  0.001387  0.996366  0.997753  1
  Yb  Yb2  1  0.531470  0.031470  0.835800  1
  Yb  Yb3  1  0.191483  0.691483  0.152045  1
  Yb  Yb4  1  0.032204  0.202552  0.505572  1
  Yb  Yb5  1  0.702552  0.532204  0.505572  1
  Yb  Yb6  1  0.460563  0.960563  0.152045  1
  Yb  Yb7  1  0.804330  0.304330  0.835800  1
  Yb  Yb8  1  0.973368  0.803020  0.505572  1
  Yb  Yb9  1  0.303020  0.473368  0.505572  1
  In  In10  1  0.251657  0.251657  0.003314  1
  In  In11  1  0.751657  0.751657  0.003314  1
  Cu  Cu12  1  0.884772  0.384772  0.269544  1
  Cu  Cu13  1  0.617216  0.882092  0.499308  1
  Cu  Cu14  1  0.382092  0.117216  0.499308  1
  Ni  Ni15  1  0.115863  0.615863  0.731728  1
