# generated using pymatgen
data_Pr16Dy3HoIr12
_symmetry_space_group_name_H-M   'P 1'
_cell_length_a   11.25844200
_cell_length_b   11.25844200
_cell_length_c   6.58664600
_cell_angle_alpha   90.00000000
_cell_angle_beta   90.00000000
_cell_angle_gamma   90.00000000
_symmetry_Int_Tables_number   1
_chemical_formula_structural   Pr16Dy3HoIr12
_chemical_formula_sum   'Pr16 Dy3 Ho1 Ir12'
_cell_volume   834.87395426
_cell_formula_units_Z   1
loop_
 _symmetry_equiv_pos_site_id
 _symmetry_equiv_pos_as_xyz
  1  'x, y, z'
loop_
 _atom_site_type_symbol
 _atom_site_label
 _atom_site_symmetry_multiplicity
 _atom_site_fract_x
 _atom_site_fract_y
 _atom_site_fract_z
 _atom_site_occupancy
  Pr  Pr0  1  0.288937  0.087967  0.382603  1
  Pr  Pr1  1  0.288937  0.912033  0.882603  1
  Pr  Pr2  1  0.711063  0.087967  0.882603  1
  Pr  Pr3  1  0.711063  0.912033  0.382603  1
  Pr  Pr4  1  0.587967  0.788937  0.882603  1
  Pr  Pr5  1  0.587967  0.211063  0.382603  1
  Pr  Pr6  1  0.412033  0.788937  0.382603  1
  Pr  Pr7  1  0.412033  0.211063  0.882603  1
  Pr  Pr8  1  0.211063  0.412033  0.617397  1
  Pr  Pr9  1  0.211063  0.587967  0.117397  1
  Pr  Pr10  1  0.788937  0.412033  0.117397  1
  Pr  Pr11  1  0.788937  0.587967  0.617397  1
  Pr  Pr12  1  0.912033  0.711063  0.117397  1
  Pr  Pr13  1  0.912033  0.288937  0.617397  1
  Pr  Pr14  1  0.087967  0.711063  0.617397  1
  Pr  Pr15  1  0.087967  0.288937  0.117397  1
  Dy  Dy16  1  0.000000  0.000000  0.000000  1
  Dy  Dy17  1  0.500000  0.500000  0.000000  1
  Dy  Dy18  1  0.500000  0.500000  0.500000  1
  Ho  Ho19  1  0.000000  0.000000  0.500000  1
  Ir  Ir20  1  0.851974  0.148026  0.250000  1
  Ir  Ir21  1  0.851974  0.851974  0.750000  1
  Ir  Ir22  1  0.148026  0.148026  0.750000  1
  Ir  Ir23  1  0.148026  0.851974  0.250000  1
  Ir  Ir24  1  0.648026  0.351974  0.750000  1
  Ir  Ir25  1  0.648026  0.648026  0.250000  1
  Ir  Ir26  1  0.351974  0.351974  0.250000  1
  Ir  Ir27  1  0.351974  0.648026  0.750000  1
  Ir  Ir28  1  0.500000  0.000000  0.118832  1
  Ir  Ir29  1  0.500000  0.000000  0.618832  1
  Ir  Ir30  1  0.000000  0.500000  0.881168  1
  Ir  Ir31  1  0.000000  0.500000  0.381168  1
