# generated using pymatgen
data_Yb2Al20TcIr3
_symmetry_space_group_name_H-M   'P 1'
_cell_length_a   6.87041076
_cell_length_b   6.88784115
_cell_length_c   9.15455640
_cell_angle_alpha   89.97195579
_cell_angle_beta   89.67158946
_cell_angle_gamma   96.55245458
_symmetry_Int_Tables_number   1
_chemical_formula_structural   Yb2Al20TcIr3
_chemical_formula_sum   'Yb2 Al20 Tc1 Ir3'
_cell_volume   430.37744660
_cell_formula_units_Z   1
loop_
 _symmetry_equiv_pos_site_id
 _symmetry_equiv_pos_as_xyz
  1  'x, y, z'
loop_
 _atom_site_type_symbol
 _atom_site_label
 _atom_site_symmetry_multiplicity
 _atom_site_fract_x
 _atom_site_fract_y
 _atom_site_fract_z
 _atom_site_occupancy
  Yb  Yb0  1  0.627749  0.374628  0.749473  1
  Yb  Yb1  1  0.372251  0.625372  0.250527  1
  Al  Al2  1  0.278234  0.019125  0.751033  1
  Al  Al3  1  0.019655  0.280315  0.252703  1
  Al  Al4  1  0.721766  0.980875  0.248967  1
  Al  Al5  1  0.980345  0.719685  0.747297  1
  Al  Al6  1  0.878018  0.122413  0.951583  1
  Al  Al7  1  0.121982  0.877587  0.048417  1
  Al  Al8  1  0.878746  0.125593  0.547485  1
  Al  Al9  1  0.121254  0.874407  0.452515  1
  Al  Al10  1  0.646441  0.915630  0.749682  1
  Al  Al11  1  0.916665  0.645757  0.251527  1
  Al  Al12  1  0.353559  0.084370  0.250318  1
  Al  Al13  1  0.083335  0.354243  0.748473  1
  Al  Al14  1  0.344531  0.657398  0.897220  1
  Al  Al15  1  0.655469  0.342602  0.102780  1
  Al  Al16  1  0.341612  0.655524  0.600317  1
  Al  Al17  1  0.658388  0.344476  0.399683  1
  Al  Al18  1  0.723147  0.722710  0.000324  1
  Al  Al19  1  0.724189  0.721324  0.501669  1
  Al  Al20  1  0.276853  0.277290  0.999676  1
  Al  Al21  1  0.275811  0.278676  0.498331  1
  Tc  Tc22  1  0.000000  0.500000  0.500000  1
  Ir  Ir23  1  0.500000  0.000000  0.000000  1
  Ir  Ir24  1  0.000000  0.500000  0.000000  1
  Ir  Ir25  1  0.500000  0.000000  0.500000  1
