# generated using pymatgen
data_Ce4Mn2BiB6
_symmetry_space_group_name_H-M   'P 1'
_cell_length_a   5.29835821
_cell_length_b   5.29835937
_cell_length_c   8.46500193
_cell_angle_alpha   71.76248758
_cell_angle_beta   71.76249357
_cell_angle_gamma   59.99999251
_symmetry_Int_Tables_number   1
_chemical_formula_structural   Ce4Mn2BiB6
_chemical_formula_sum   'Ce4 Mn2 Bi1 B6'
_cell_volume   191.89024403
_cell_formula_units_Z   1
loop_
 _symmetry_equiv_pos_site_id
 _symmetry_equiv_pos_as_xyz
  1  'x, y, z'
loop_
 _atom_site_type_symbol
 _atom_site_label
 _atom_site_symmetry_multiplicity
 _atom_site_fract_x
 _atom_site_fract_y
 _atom_site_fract_z
 _atom_site_occupancy
  Ce  Ce0  1  0.747315  0.747315  0.758056  1
  Ce  Ce1  1  0.252685  0.252685  0.241944  1
  Ce  Ce2  1  0.586007  0.586007  0.241978  1
  Ce  Ce3  1  0.413993  0.413993  0.758022  1
  Mn  Mn4  1  0.883254  0.883254  0.350241  1
  Mn  Mn5  1  0.116746  0.116746  0.649760  1
  Bi  Bi6  1  0.000000  0.000000  0.000000  1
  B  B7  1  0.500000  0.167727  0.500000  1
  B  B8  1  0.832273  0.500000  0.500000  1
  B  B9  1  0.167727  0.832273  0.500000  1
  B  B10  1  0.167727  0.500000  0.500000  1
  B  B11  1  0.832273  0.167727  0.500000  1
  B  B12  1  0.500000  0.832273  0.500000  1
