# generated using pymatgen
data_Cs6Cr(SiO4)2
_symmetry_space_group_name_H-M   'P 1'
_cell_length_a   7.02871724
_cell_length_b   7.26475561
_cell_length_c   8.18134554
_cell_angle_alpha   86.16439904
_cell_angle_beta   88.72155260
_cell_angle_gamma   69.03887128
_symmetry_Int_Tables_number   1
_chemical_formula_structural   Cs6Cr(SiO4)2
_chemical_formula_sum   'Cs6 Cr1 Si2 O8'
_cell_volume   389.23511790
_cell_formula_units_Z   1
loop_
 _symmetry_equiv_pos_site_id
 _symmetry_equiv_pos_as_xyz
  1  'x, y, z'
loop_
 _atom_site_type_symbol
 _atom_site_label
 _atom_site_symmetry_multiplicity
 _atom_site_fract_x
 _atom_site_fract_y
 _atom_site_fract_z
 _atom_site_occupancy
  Cs  Cs0  1  0.200710  0.700396  0.009930  1
  Cs  Cs1  1  0.711122  0.196604  0.475325  1
  Cs  Cs2  1  0.799290  0.299604  0.990070  1
  Cs  Cs3  1  0.659347  0.829917  0.164268  1
  Cs  Cs4  1  0.340653  0.170083  0.835732  1
  Cs  Cs5  1  0.288878  0.803396  0.524675  1
  Cr  Cr6  1  0.000000  0.500000  0.500000  1
  Si  Si7  1  0.774678  0.742530  0.727312  1
  Si  Si8  1  0.225322  0.257470  0.272688  1
  O  O9  1  0.013113  0.463212  0.252946  1
  O  O10  1  0.753958  0.757709  0.520021  1
  O  O11  1  0.986887  0.536788  0.747054  1
  O  O12  1  0.424308  0.291526  0.184737  1
  O  O13  1  0.811744  0.935867  0.794124  1
  O  O14  1  0.246042  0.242291  0.479979  1
  O  O15  1  0.575692  0.708474  0.815263  1
  O  O16  1  0.188256  0.064133  0.205876  1
