# generated using pymatgen
data_Pr4Tm3Lu(B6Os)4
_symmetry_space_group_name_H-M   'P 1'
_cell_length_a   3.69578800
_cell_length_b   9.20937202
_cell_length_c   11.66171203
_cell_angle_alpha   90.00833965
_cell_angle_beta   90.00000000
_cell_angle_gamma   90.00000000
_symmetry_Int_Tables_number   1
_chemical_formula_structural   Pr4Tm3Lu(B6Os)4
_chemical_formula_sum   'Pr4 Tm3 Lu1 B24 Os4'
_cell_volume   396.91670422
_cell_formula_units_Z   1
loop_
 _symmetry_equiv_pos_site_id
 _symmetry_equiv_pos_as_xyz
  1  'x, y, z'
loop_
 _atom_site_type_symbol
 _atom_site_label
 _atom_site_symmetry_multiplicity
 _atom_site_fract_x
 _atom_site_fract_y
 _atom_site_fract_z
 _atom_site_occupancy
  Pr  Pr0  1  0.000000  0.322113  0.414598  1
  Pr  Pr1  1  0.000000  0.677865  0.585502  1
  Pr  Pr2  1  0.000000  0.822021  0.085349  1
  Pr  Pr3  1  0.000000  0.178002  0.914550  1
  Tm  Tm4  1  0.000000  0.944730  0.372630  1
  Tm  Tm5  1  0.000000  0.055270  0.627407  1
  Tm  Tm6  1  0.000000  0.444817  0.127169  1
  Lu  Lu7  1  0.000000  0.555260  0.872631  1
  B  B8  1  0.500000  0.557105  0.429355  1
  B  B9  1  0.500000  0.442910  0.570688  1
  B  B10  1  0.500000  0.057093  0.070636  1
  B  B11  1  0.500000  0.942838  0.929347  1
  B  B12  1  0.500000  0.751113  0.416569  1
  B  B13  1  0.500000  0.248904  0.583443  1
  B  B14  1  0.500000  0.251123  0.083427  1
  B  B15  1  0.500000  0.748511  0.916566  1
  B  B16  1  0.500000  0.791314  0.266859  1
  B  B17  1  0.500000  0.208759  0.733165  1
  B  B18  1  0.500000  0.291320  0.233137  1
  B  B19  1  0.500000  0.708340  0.766949  1
  B  B20  1  0.500000  0.630273  0.184918  1
  B  B21  1  0.500000  0.370030  0.815256  1
  B  B22  1  0.500000  0.130290  0.315077  1
  B  B23  1  0.500000  0.869675  0.684951  1
  B  B24  1  0.500000  0.985784  0.214798  1
  B  B25  1  0.500000  0.014189  0.785210  1
  B  B26  1  0.500000  0.485780  0.285199  1
  B  B27  1  0.500000  0.514422  0.715042  1
  B  B28  1  0.500000  0.600792  0.026917  1
  B  B29  1  0.500000  0.399512  0.972402  1
  B  B30  1  0.500000  0.100865  0.472688  1
  B  B31  1  0.500000  0.899121  0.527317  1
  Os  Os32  1  0.000000  0.640191  0.318485  1
  Os  Os33  1  0.000000  0.360087  0.681733  1
  Os  Os34  1  0.000000  0.140222  0.181464  1
  Os  Os35  1  0.000000  0.859358  0.818565  1
