# generated using pymatgen
data_Nb8Fe4Co3Si14Pd
_symmetry_space_group_name_H-M   'P 1'
_cell_length_a   9.27687171
_cell_length_b   9.29141121
_cell_length_c   9.26622113
_cell_angle_alpha   94.33324249
_cell_angle_beta   94.24983229
_cell_angle_gamma   148.27982564
_symmetry_Int_Tables_number   1
_chemical_formula_structural   Nb8Fe4Co3Si14Pd
_chemical_formula_sum   'Nb8 Fe4 Co3 Si14 Pd1'
_cell_volume   403.88620226
_cell_formula_units_Z   1
loop_
 _symmetry_equiv_pos_site_id
 _symmetry_equiv_pos_as_xyz
  1  'x, y, z'
loop_
 _atom_site_type_symbol
 _atom_site_label
 _atom_site_symmetry_multiplicity
 _atom_site_fract_x
 _atom_site_fract_y
 _atom_site_fract_z
 _atom_site_occupancy
  Nb  Nb0  1  0.134657  0.134657  0.269313  1
  Nb  Nb1  1  0.865453  0.865453  0.730907  1
  Nb  Nb2  1  0.865728  0.133609  0.002198  1
  Nb  Nb3  1  0.136470  0.868589  0.002198  1
  Nb  Nb4  1  0.499556  0.689104  0.192001  1
  Nb  Nb5  1  0.497753  0.309084  0.808742  1
  Nb  Nb6  1  0.310989  0.499658  0.808742  1
  Nb  Nb7  1  0.692444  0.502897  0.192001  1
  Fe  Fe8  1  0.595336  0.402084  0.496563  1
  Fe  Fe9  1  0.901228  0.094480  0.496563  1
  Fe  Fe10  1  0.901604  0.401604  0.803209  1
  Fe  Fe11  1  0.596726  0.096726  0.193451  1
  Co  Co12  1  0.106758  0.606758  0.213515  1
  Co  Co13  1  0.106368  0.896532  0.502165  1
  Co  Co14  1  0.395797  0.605633  0.502165  1
  Si  Si15  1  0.290513  0.290513  0.581025  1
  Si  Si16  1  0.708619  0.708619  0.417237  1
  Si  Si17  1  0.726568  0.312268  0.006072  1
  Si  Si18  1  0.279503  0.693803  0.006072  1
  Si  Si19  1  0.989814  0.286227  0.296533  1
  Si  Si20  1  0.973602  0.685113  0.703053  1
  Si  Si21  1  0.729452  0.017940  0.703053  1
  Si  Si22  1  0.306718  0.010305  0.296533  1
  Si  Si23  1  0.521394  0.926083  0.405483  1
  Si  Si24  1  0.537740  0.136099  0.587371  1
  Si  Si25  1  0.049631  0.451273  0.587371  1
  Si  Si26  1  0.884088  0.479401  0.405483  1
  Si  Si27  1  0.751131  0.751178  0.000391  1
  Si  Si28  1  0.249259  0.249213  0.000391  1
  Pd  Pd29  1  0.395098  0.895098  0.790197  1
