# generated using pymatgen
data_NbIn(SeO3)4
_symmetry_space_group_name_H-M   'P 1'
_cell_length_a   8.51372900
_cell_length_b   8.48109245
_cell_length_c   8.53707900
_cell_angle_alpha   89.12964043
_cell_angle_beta   90.00000000
_cell_angle_gamma   90.00000000
_symmetry_Int_Tables_number   1
_chemical_formula_structural   NbIn(SeO3)4
_chemical_formula_sum   'Nb2 In2 Se8 O24'
_cell_volume   616.35483869
_cell_formula_units_Z   2
loop_
 _symmetry_equiv_pos_site_id
 _symmetry_equiv_pos_as_xyz
  1  'x, y, z'
loop_
 _atom_site_type_symbol
 _atom_site_label
 _atom_site_symmetry_multiplicity
 _atom_site_fract_x
 _atom_site_fract_y
 _atom_site_fract_z
 _atom_site_occupancy
  Nb  Nb0  1  0.000000  0.000000  0.500000  1
  Nb  Nb1  1  0.500000  0.000000  0.000000  1
  In  In2  1  0.000000  0.500000  0.000000  1
  In  In3  1  0.500000  0.500000  0.500000  1
  Se  Se4  1  0.327973  0.657003  0.171361  1
  Se  Se5  1  0.827973  0.342997  0.328639  1
  Se  Se6  1  0.671513  0.817476  0.670963  1
  Se  Se7  1  0.171513  0.182524  0.829037  1
  Se  Se8  1  0.672027  0.342997  0.828639  1
  Se  Se9  1  0.172027  0.657003  0.671361  1
  Se  Se10  1  0.328487  0.182524  0.329037  1
  Se  Se11  1  0.828487  0.817476  0.170963  1
  O  O12  1  0.249435  0.539065  0.031432  1
  O  O13  1  0.749435  0.460935  0.468568  1
  O  O14  1  0.773212  0.960764  0.560075  1
  O  O15  1  0.273212  0.039236  0.939925  1
  O  O16  1  0.551454  0.946134  0.775773  1
  O  O17  1  0.467616  0.534682  0.250047  1
  O  O18  1  0.967616  0.465318  0.249953  1
  O  O19  1  0.051454  0.053866  0.724227  1
  O  O20  1  0.951506  0.223909  0.451644  1
  O  O21  1  0.542512  0.753793  0.535175  1
  O  O22  1  0.451506  0.776091  0.048356  1
  O  O23  1  0.042512  0.246207  0.964825  1
  O  O24  1  0.750565  0.460935  0.968568  1
  O  O25  1  0.250565  0.539065  0.531432  1
  O  O26  1  0.226788  0.039236  0.439925  1
  O  O27  1  0.726788  0.960764  0.060075  1
  O  O28  1  0.448546  0.053866  0.224227  1
  O  O29  1  0.532384  0.465318  0.749953  1
  O  O30  1  0.032384  0.534682  0.750047  1
  O  O31  1  0.948546  0.946134  0.275773  1
  O  O32  1  0.048494  0.776091  0.548356  1
  O  O33  1  0.457488  0.246207  0.464825  1
  O  O34  1  0.548494  0.223909  0.951644  1
  O  O35  1  0.957488  0.753793  0.035175  1
