# generated using pymatgen
data_YHo3ReRu7
_symmetry_space_group_name_H-M   'P 1'
_cell_length_a   5.20569782
_cell_length_b   5.43958431
_cell_length_c   8.98921224
_cell_angle_alpha   89.99999868
_cell_angle_beta   89.97733857
_cell_angle_gamma   121.49771988
_symmetry_Int_Tables_number   1
_chemical_formula_structural   YHo3ReRu7
_chemical_formula_sum   'Y1 Ho3 Re1 Ru7'
_cell_volume   217.04142495
_cell_formula_units_Z   1
loop_
 _symmetry_equiv_pos_site_id
 _symmetry_equiv_pos_as_xyz
  1  'x, y, z'
loop_
 _atom_site_type_symbol
 _atom_site_label
 _atom_site_symmetry_multiplicity
 _atom_site_fract_x
 _atom_site_fract_y
 _atom_site_fract_z
 _atom_site_occupancy
  Y  Y0  1  0.326997  0.663498  0.433319  1
  Ho  Ho1  1  0.653355  0.326677  0.565555  1
  Ho  Ho2  1  0.653503  0.326751  0.934926  1
  Ho  Ho3  1  0.327331  0.663666  0.066496  1
  Re  Re4  1  0.688649  0.844324  0.750301  1
  Ru  Ru5  1  0.975349  0.987675  0.499635  1
  Ru  Ru6  1  0.974452  0.987226  0.000678  1
  Ru  Ru7  1  0.837450  0.166961  0.249357  1
  Ru  Ru8  1  0.837450  0.670490  0.249357  1
  Ru  Ru9  1  0.357219  0.178610  0.249492  1
  Ru  Ru10  1  0.184121  0.828893  0.750443  1
  Ru  Ru11  1  0.184121  0.355228  0.750443  1
