# generated using pymatgen
data_YbDy5(Si3Ru)8
_symmetry_space_group_name_H-M   'P 1'
_cell_length_a   10.13653294
_cell_length_b   10.13653290
_cell_length_c   8.13670201
_cell_angle_alpha   89.93099483
_cell_angle_beta   90.06900345
_cell_angle_gamma   132.66029464
_symmetry_Int_Tables_number   1
_chemical_formula_structural   YbDy5(Si3Ru)8
_chemical_formula_sum   'Yb1 Dy5 Si24 Ru8'
_cell_volume   614.81054015
_cell_formula_units_Z   1
loop_
 _symmetry_equiv_pos_site_id
 _symmetry_equiv_pos_as_xyz
  1  'x, y, z'
loop_
 _atom_site_type_symbol
 _atom_site_label
 _atom_site_symmetry_multiplicity
 _atom_site_fract_x
 _atom_site_fract_y
 _atom_site_fract_z
 _atom_site_occupancy
  Yb  Yb0  1  0.497996  0.997996  0.250000  1
  Dy  Dy1  1  0.001455  0.501455  0.750000  1
  Dy  Dy2  1  0.502551  0.002551  0.750000  1
  Dy  Dy3  1  0.997425  0.497425  0.250000  1
  Dy  Dy4  1  0.499784  0.499704  0.499594  1
  Dy  Dy5  1  0.999704  0.999784  0.000406  1
  Si  Si6  1  0.388551  0.155148  0.003276  1
  Si  Si7  1  0.655148  0.888551  0.496724  1
  Si  Si8  1  0.111676  0.344753  0.505375  1
  Si  Si9  1  0.844753  0.611676  0.994625  1
  Si  Si10  1  0.611651  0.845620  0.994101  1
  Si  Si11  1  0.345620  0.111651  0.505899  1
  Si  Si12  1  0.888170  0.655366  0.494701  1
  Si  Si13  1  0.155366  0.388170  0.005299  1
  Si  Si14  1  0.613627  0.379209  0.228300  1
  Si  Si15  1  0.879209  0.113627  0.271700  1
  Si  Si16  1  0.888419  0.121900  0.727813  1
  Si  Si17  1  0.621900  0.388419  0.772187  1
  Si  Si18  1  0.388295  0.621774  0.771550  1
  Si  Si19  1  0.121774  0.888295  0.728450  1
  Si  Si20  1  0.704698  0.294086  0.000936  1
  Si  Si21  1  0.794086  0.204698  0.499064  1
  Si  Si22  1  0.295359  0.705821  0.000036  1
  Si  Si23  1  0.205821  0.795359  0.499964  1
  Si  Si24  1  0.166200  0.167440  0.333052  1
  Si  Si25  1  0.667440  0.666200  0.166948  1
  Si  Si26  1  0.332844  0.331770  0.833197  1
  Si  Si27  1  0.831770  0.832844  0.666803  1
  Si  Si28  1  0.376805  0.611071  0.228244  1
  Si  Si29  1  0.111071  0.876805  0.271756  1
  Ru  Ru30  1  0.625974  0.626727  0.873014  1
  Ru  Ru31  1  0.126727  0.125974  0.626986  1
  Ru  Ru32  1  0.873277  0.873266  0.372712  1
  Ru  Ru33  1  0.373266  0.373277  0.127288  1
  Ru  Ru34  1  0.329512  0.669016  0.500676  1
  Ru  Ru35  1  0.169016  0.829512  0.999324  1
  Ru  Ru36  1  0.671053  0.332006  0.501562  1
  Ru  Ru37  1  0.832006  0.171053  0.998438  1
