# generated using pymatgen
data_Dy4ErZr3Pt4
_symmetry_space_group_name_H-M   'P 1'
_cell_length_a   4.73288400
_cell_length_b   7.12328715
_cell_length_c   8.34455571
_cell_angle_alpha   90.63161467
_cell_angle_beta   90.00000000
_cell_angle_gamma   90.00000000
_symmetry_Int_Tables_number   1
_chemical_formula_structural   Dy4ErZr3Pt4
_chemical_formula_sum   'Dy4 Er1 Zr3 Pt4'
_cell_volume   281.30868578
_cell_formula_units_Z   1
loop_
 _symmetry_equiv_pos_site_id
 _symmetry_equiv_pos_as_xyz
  1  'x, y, z'
loop_
 _atom_site_type_symbol
 _atom_site_label
 _atom_site_symmetry_multiplicity
 _atom_site_fract_x
 _atom_site_fract_y
 _atom_site_fract_z
 _atom_site_occupancy
  Dy  Dy0  1  0.250000  0.010304  0.325668  1
  Dy  Dy1  1  0.250000  0.519067  0.170619  1
  Dy  Dy2  1  0.750000  0.982410  0.681533  1
  Dy  Dy3  1  0.750000  0.484995  0.821688  1
  Er  Er4  1  0.750000  0.353460  0.416991  1
  Zr  Zr5  1  0.250000  0.144122  0.922093  1
  Zr  Zr6  1  0.250000  0.645819  0.579922  1
  Zr  Zr7  1  0.750000  0.852200  0.080329  1
  Pt  Pt8  1  0.250000  0.264760  0.603924  1
  Pt  Pt9  1  0.250000  0.769393  0.906693  1
  Pt  Pt10  1  0.750000  0.744777  0.408833  1
  Pt  Pt11  1  0.750000  0.228692  0.081706  1
