# generated using pymatgen
data_CaInFe3P7Ru9
_symmetry_space_group_name_H-M   'P 1'
_cell_length_a   9.33601700
_cell_length_b   9.33601684
_cell_length_c   3.81483600
_cell_angle_alpha   90.00000000
_cell_angle_beta   90.00000000
_cell_angle_gamma   119.99999701
_symmetry_Int_Tables_number   1
_chemical_formula_structural   CaInFe3P7Ru9
_chemical_formula_sum   'Ca1 In1 Fe3 P7 Ru9'
_cell_volume   287.95841706
_cell_formula_units_Z   1
loop_
 _symmetry_equiv_pos_site_id
 _symmetry_equiv_pos_as_xyz
  1  'x, y, z'
loop_
 _atom_site_type_symbol
 _atom_site_label
 _atom_site_symmetry_multiplicity
 _atom_site_fract_x
 _atom_site_fract_y
 _atom_site_fract_z
 _atom_site_occupancy
  Ca  Ca0  1  0.000000  0.000000  0.000000  1
  In  In1  1  0.333333  0.666667  0.500000  1
  Fe  Fe2  1  0.806950  0.202421  0.000000  1
  Fe  Fe3  1  0.797579  0.604528  0.000000  1
  Fe  Fe4  1  0.395472  0.193050  0.000000  1
  P  P5  1  0.053056  0.419663  0.000000  1
  P  P6  1  0.580337  0.633393  0.000000  1
  P  P7  1  0.366607  0.946944  0.000000  1
  P  P8  1  0.777868  0.047018  0.500000  1
  P  P9  1  0.952982  0.730849  0.500000  1
  P  P10  1  0.269151  0.222132  0.500000  1
  P  P11  1  0.666667  0.333333  0.000000  1
  Ru  Ru12  1  0.111428  0.689965  0.000000  1
  Ru  Ru13  1  0.310035  0.421462  0.000000  1
  Ru  Ru14  1  0.578538  0.888572  0.000000  1
  Ru  Ru15  1  0.050417  0.278006  0.500000  1
  Ru  Ru16  1  0.721994  0.772411  0.500000  1
  Ru  Ru17  1  0.227589  0.949583  0.500000  1
  Ru  Ru18  1  0.872160  0.447663  0.500000  1
  Ru  Ru19  1  0.552337  0.424498  0.500000  1
  Ru  Ru20  1  0.575502  0.127840  0.500000  1
