# generated using pymatgen
data_YbY2Pa(Pd2Pb)2
_symmetry_space_group_name_H-M   'P 1'
_cell_length_a   7.93630438
_cell_length_b   7.90164124
_cell_length_c   3.65368300
_cell_angle_alpha   90.00000000
_cell_angle_beta   90.00000000
_cell_angle_gamma   91.42570594
_symmetry_Int_Tables_number   1
_chemical_formula_structural   YbY2Pa(Pd2Pb)2
_chemical_formula_sum   'Yb1 Y2 Pa1 Pd4 Pb2'
_cell_volume   229.05090991
_cell_formula_units_Z   1
loop_
 _symmetry_equiv_pos_site_id
 _symmetry_equiv_pos_as_xyz
  1  'x, y, z'
loop_
 _atom_site_type_symbol
 _atom_site_label
 _atom_site_symmetry_multiplicity
 _atom_site_fract_x
 _atom_site_fract_y
 _atom_site_fract_z
 _atom_site_occupancy
  Yb  Yb0  1  0.170575  0.329607  0.500000  1
  Y  Y1  1  0.829237  0.671409  0.500000  1
  Y  Y2  1  0.326050  0.826268  0.500000  1
  Pa  Pa3  1  0.670546  0.169824  0.500000  1
  Pd  Pd4  1  0.864170  0.361408  0.000000  1
  Pd  Pd5  1  0.387881  0.132064  0.000000  1
  Pd  Pd6  1  0.630638  0.885863  0.000000  1
  Pd  Pd7  1  0.120327  0.618972  0.000000  1
  Pb  Pb8  1  0.006901  0.999244  0.000000  1
  Pb  Pb9  1  0.493674  0.505340  0.000000  1
