# generated using pymatgen
data_Dy4Er12In4OsRh3
_symmetry_space_group_name_H-M   'P 1'
_cell_length_a   9.59666221
_cell_length_b   9.63667675
_cell_length_c   9.60847766
_cell_angle_alpha   60.02632379
_cell_angle_beta   59.78909757
_cell_angle_gamma   60.01201670
_symmetry_Int_Tables_number   1
_chemical_formula_structural   Dy4Er12In4OsRh3
_chemical_formula_sum   'Dy4 Er12 In4 Os1 Rh3'
_cell_volume   627.50248494
_cell_formula_units_Z   1
loop_
 _symmetry_equiv_pos_site_id
 _symmetry_equiv_pos_as_xyz
  1  'x, y, z'
loop_
 _atom_site_type_symbol
 _atom_site_label
 _atom_site_symmetry_multiplicity
 _atom_site_fract_x
 _atom_site_fract_y
 _atom_site_fract_z
 _atom_site_occupancy
  Dy  Dy0  1  0.188764  0.192411  0.810021  1
  Dy  Dy1  1  0.439273  0.060212  0.061535  1
  Dy  Dy2  1  0.437413  0.061543  0.438127  1
  Dy  Dy3  1  0.057871  0.438200  0.059043  1
  Er  Er4  1  0.650266  0.049093  0.648652  1
  Er  Er5  1  0.191901  0.808787  0.810167  1
  Er  Er6  1  0.060747  0.060492  0.438997  1
  Er  Er7  1  0.810008  0.192234  0.188944  1
  Er  Er8  1  0.810527  0.808593  0.191872  1
  Er  Er9  1  0.649493  0.648898  0.048731  1
  Er  Er10  1  0.651068  0.650805  0.651509  1
  Er  Er11  1  0.058233  0.437713  0.444884  1
  Er  Er12  1  0.048076  0.650270  0.649365  1
  Er  Er13  1  0.809353  0.193512  0.808722  1
  Er  Er14  1  0.445088  0.438143  0.058390  1
  Er  Er15  1  0.190749  0.808906  0.191294  1
  In  In16  1  0.417390  0.747540  0.417920  1
  In  In17  1  0.417762  0.416641  0.748988  1
  In  In18  1  0.748776  0.416307  0.417871  1
  In  In19  1  0.418241  0.416638  0.416482  1
  Os  Os20  1  0.856579  0.426114  0.857680  1
  Rh  Rh21  1  0.858847  0.858964  0.424197  1
  Rh  Rh22  1  0.425207  0.857606  0.858464  1
  Rh  Rh23  1  0.858365  0.860381  0.858139  1
