# generated using pymatgen
data_Tb16InAg3PtRh3
_symmetry_space_group_name_H-M   'P 1'
_cell_length_a   9.60357506
_cell_length_b   9.64683917
_cell_length_c   9.62289900
_cell_angle_alpha   60.08206902
_cell_angle_beta   59.93342623
_cell_angle_gamma   60.11027044
_symmetry_Int_Tables_number   1
_chemical_formula_structural   Tb16InAg3PtRh3
_chemical_formula_sum   'Tb16 In1 Ag3 Pt1 Rh3'
_cell_volume   630.98494924
_cell_formula_units_Z   1
loop_
 _symmetry_equiv_pos_site_id
 _symmetry_equiv_pos_as_xyz
  1  'x, y, z'
loop_
 _atom_site_type_symbol
 _atom_site_label
 _atom_site_symmetry_multiplicity
 _atom_site_fract_x
 _atom_site_fract_y
 _atom_site_fract_z
 _atom_site_occupancy
  Tb  Tb0  1  0.811861  0.808064  0.190037  1
  Tb  Tb1  1  0.809996  0.188482  0.807795  1
  Tb  Tb2  1  0.191668  0.187319  0.810507  1
  Tb  Tb3  1  0.649228  0.051562  0.649605  1
  Tb  Tb4  1  0.066684  0.062460  0.435428  1
  Tb  Tb5  1  0.438002  0.436351  0.062824  1
  Tb  Tb6  1  0.647151  0.651111  0.647885  1
  Tb  Tb7  1  0.809996  0.188482  0.193727  1
  Tb  Tb8  1  0.187600  0.812787  0.811528  1
  Tb  Tb9  1  0.058480  0.648177  0.646672  1
  Tb  Tb10  1  0.437825  0.063262  0.063863  1
  Tb  Tb11  1  0.437825  0.063262  0.435050  1
  Tb  Tb12  1  0.068147  0.435902  0.061664  1
  Tb  Tb13  1  0.647151  0.651111  0.053853  1
  Tb  Tb14  1  0.187600  0.812787  0.188085  1
  Tb  Tb15  1  0.068147  0.435902  0.434287  1
  In  In16  1  0.737102  0.420275  0.421311  1
  Ag  Ag17  1  0.416078  0.416433  0.418151  1
  Ag  Ag18  1  0.416078  0.416433  0.749338  1
  Ag  Ag19  1  0.415201  0.751162  0.416819  1
  Pt  Pt20  1  0.856031  0.429046  0.857461  1
  Rh  Rh21  1  0.857167  0.856472  0.858305  1
  Rh  Rh22  1  0.857167  0.856472  0.428056  1
  Rh  Rh23  1  0.427816  0.856687  0.857749  1
