# generated using pymatgen
data_CaDy(Co3Si2)2
_symmetry_space_group_name_H-M   'P 1'
_cell_length_a   6.27511798
_cell_length_b   6.27511833
_cell_length_c   6.27511816
_cell_angle_alpha   130.39093955
_cell_angle_beta   114.00241286
_cell_angle_gamma   86.86007029
_symmetry_Int_Tables_number   1
_chemical_formula_structural   CaDy(Co3Si2)2
_chemical_formula_sum   'Ca1 Dy1 Co6 Si4'
_cell_volume   163.99926868
_cell_formula_units_Z   1
loop_
 _symmetry_equiv_pos_site_id
 _symmetry_equiv_pos_as_xyz
  1  'x, y, z'
loop_
 _atom_site_type_symbol
 _atom_site_label
 _atom_site_symmetry_multiplicity
 _atom_site_fract_x
 _atom_site_fract_y
 _atom_site_fract_z
 _atom_site_occupancy
  Ca  Ca0  1  0.750000  0.471411  0.721411  1
  Dy  Dy1  1  0.250000  0.533703  0.283703  1
  Co  Co2  1  0.003257  0.998293  0.501549  1
  Co  Co3  1  0.496743  0.998293  0.995036  1
  Co  Co4  1  0.720898  0.998206  0.720694  1
  Co  Co5  1  0.222487  0.499796  0.720694  1
  Co  Co6  1  0.277513  0.998206  0.277309  1
  Co  Co7  1  0.779102  0.499796  0.277309  1
  Si  Si8  1  0.078468  0.874834  0.796366  1
  Si  Si9  1  0.918057  0.122839  0.204782  1
  Si  Si10  1  0.581943  0.786726  0.204782  1
  Si  Si11  1  0.421532  0.217897  0.796366  1
