# generated using pymatgen
data_Er(Mn2Si)2
_symmetry_space_group_name_H-M   'P 1'
_cell_length_a   7.43829100
_cell_length_b   6.56814400
_cell_length_c   3.90962300
_cell_angle_alpha   90.00000000
_cell_angle_beta   90.00000000
_cell_angle_gamma   90.00199582
_symmetry_Int_Tables_number   1
_chemical_formula_structural   Er(Mn2Si)2
_chemical_formula_sum   'Er2 Mn8 Si4'
_cell_volume   191.00762795
_cell_formula_units_Z   2
loop_
 _symmetry_equiv_pos_site_id
 _symmetry_equiv_pos_as_xyz
  1  'x, y, z'
loop_
 _atom_site_type_symbol
 _atom_site_label
 _atom_site_symmetry_multiplicity
 _atom_site_fract_x
 _atom_site_fract_y
 _atom_site_fract_z
 _atom_site_occupancy
  Er  Er0  1  0.499999  0.500000  0.000000  1
  Er  Er1  1  0.000000  0.000000  0.500000  1
  Mn  Mn2  1  0.348355  0.062695  0.000000  1
  Mn  Mn3  1  0.114590  0.356538  0.000000  1
  Mn  Mn4  1  0.885410  0.643462  0.000000  1
  Mn  Mn5  1  0.651644  0.937305  0.000000  1
  Mn  Mn6  1  0.614652  0.143567  0.500000  1
  Mn  Mn7  1  0.848416  0.437298  0.500000  1
  Mn  Mn8  1  0.151584  0.562703  0.500000  1
  Mn  Mn9  1  0.385347  0.856432  0.500000  1
  Si  Si10  1  0.812547  0.241919  0.000000  1
  Si  Si11  1  0.187453  0.758080  0.000000  1
  Si  Si12  1  0.312481  0.258231  0.500000  1
  Si  Si13  1  0.687520  0.741768  0.500000  1
