# generated using pymatgen
data_LaGd19Rh12
_symmetry_space_group_name_H-M   'P 1'
_cell_length_a   10.99038217
_cell_length_b   10.98481720
_cell_length_c   6.40705200
_cell_angle_alpha   90.04370408
_cell_angle_beta   89.98988105
_cell_angle_gamma   89.99885500
_symmetry_Int_Tables_number   1
_chemical_formula_structural   LaGd19Rh12
_chemical_formula_sum   'La1 Gd19 Rh12'
_cell_volume   773.50610211
_cell_formula_units_Z   1
loop_
 _symmetry_equiv_pos_site_id
 _symmetry_equiv_pos_as_xyz
  1  'x, y, z'
loop_
 _atom_site_type_symbol
 _atom_site_label
 _atom_site_symmetry_multiplicity
 _atom_site_fract_x
 _atom_site_fract_y
 _atom_site_fract_z
 _atom_site_occupancy
  La  La0  1  0.788154  0.591539  0.619937  1
  Gd  Gd1  1  0.090276  0.291098  0.117826  1
  Gd  Gd2  1  0.791427  0.408317  0.118400  1
  Gd  Gd3  1  0.208920  0.589265  0.119194  1
  Gd  Gd4  1  0.912005  0.710473  0.118020  1
  Gd  Gd5  1  0.410647  0.790380  0.382497  1
  Gd  Gd6  1  0.588861  0.209939  0.380739  1
  Gd  Gd7  1  0.291353  0.090222  0.382048  1
  Gd  Gd8  1  0.708395  0.911450  0.379979  1
  Gd  Gd9  1  0.410842  0.209673  0.881035  1
  Gd  Gd10  1  0.709793  0.088885  0.880894  1
  Gd  Gd11  1  0.290373  0.911568  0.882698  1
  Gd  Gd12  1  0.586970  0.792684  0.883953  1
  Gd  Gd13  1  0.092897  0.710380  0.619573  1
  Gd  Gd14  1  0.910316  0.288244  0.619110  1
  Gd  Gd15  1  0.208164  0.409319  0.617497  1
  Gd  Gd16  1  0.999783  0.001058  0.998599  1
  Gd  Gd17  1  0.499166  0.500552  0.000508  1
  Gd  Gd18  1  0.498103  0.498885  0.500214  1
  Gd  Gd19  1  0.000503  0.999931  0.497576  1
  Rh  Rh20  1  0.155244  0.845824  0.250438  1
  Rh  Rh21  1  0.346097  0.345552  0.250131  1
  Rh  Rh22  1  0.655788  0.652565  0.244648  1
  Rh  Rh23  1  0.844425  0.153878  0.251523  1
  Rh  Rh24  1  0.345878  0.655594  0.749726  1
  Rh  Rh25  1  0.154555  0.153736  0.750128  1
  Rh  Rh26  1  0.845576  0.848903  0.750479  1
  Rh  Rh27  1  0.652455  0.341432  0.752716  1
  Rh  Rh28  1  0.001653  0.498872  0.372490  1
  Rh  Rh29  1  0.500209  0.000210  0.128110  1
  Rh  Rh30  1  0.500137  0.000635  0.626436  1
  Rh  Rh31  1  0.001033  0.498937  0.872877  1
