# generated using pymatgen
data_Th8Si12Ni3Rh
_symmetry_space_group_name_H-M   'P 1'
_cell_length_a   8.09036900
_cell_length_b   8.09035881
_cell_length_c   8.51382800
_cell_angle_alpha   89.99969513
_cell_angle_beta   90.00028085
_cell_angle_gamma   120.00010990
_symmetry_Int_Tables_number   1
_chemical_formula_structural   Th8Si12Ni3Rh
_chemical_formula_sum   'Th8 Si12 Ni3 Rh1'
_cell_volume   482.60424361
_cell_formula_units_Z   1
loop_
 _symmetry_equiv_pos_site_id
 _symmetry_equiv_pos_as_xyz
  1  'x, y, z'
loop_
 _atom_site_type_symbol
 _atom_site_label
 _atom_site_symmetry_multiplicity
 _atom_site_fract_x
 _atom_site_fract_y
 _atom_site_fract_z
 _atom_site_occupancy
  Th  Th0  1  0.999999  0.000000  0.249061  1
  Th  Th1  1  0.000000  0.999999  0.750858  1
  Th  Th2  1  0.001097  0.500548  0.249529  1
  Th  Th3  1  0.499451  0.500547  0.249529  1
  Th  Th4  1  0.500395  0.000792  0.750384  1
  Th  Th5  1  0.499451  0.998903  0.249529  1
  Th  Th6  1  0.500396  0.499602  0.750384  1
  Th  Th7  1  0.999207  0.499604  0.750385  1
  Si  Si8  1  0.171144  0.342294  0.999338  1
  Si  Si9  1  0.657688  0.828850  0.999337  1
  Si  Si10  1  0.170827  0.341653  0.500882  1
  Si  Si11  1  0.341983  0.170983  0.000516  1
  Si  Si12  1  0.171162  0.828846  0.999337  1
  Si  Si13  1  0.658346  0.829174  0.500882  1
  Si  Si14  1  0.829019  0.658037  0.000516  1
  Si  Si15  1  0.331184  0.165589  0.499341  1
  Si  Si16  1  0.170833  0.829169  0.500882  1
  Si  Si17  1  0.834415  0.668826  0.499342  1
  Si  Si18  1  0.828992  0.170990  0.000514  1
  Si  Si19  1  0.834408  0.165592  0.499342  1
  Ni  Ni20  1  0.333329  0.666649  0.999114  1
  Ni  Ni21  1  0.333336  0.666660  0.501737  1
  Ni  Ni22  1  0.666667  0.333353  0.001230  1
  Rh  Rh23  1  0.666671  0.333341  0.498031  1
