# generated using pymatgen
data_La16Hg4Ir3Os
_symmetry_space_group_name_H-M   'P 1'
_cell_length_a   10.13110026
_cell_length_b   10.13110008
_cell_length_c   10.13110001
_cell_angle_alpha   59.70289583
_cell_angle_beta   59.70289293
_cell_angle_gamma   59.70289646
_symmetry_Int_Tables_number   1
_chemical_formula_structural   La16Hg4Ir3Os
_chemical_formula_sum   'La16 Hg4 Ir3 Os1'
_cell_volume   730.32138109
_cell_formula_units_Z   1
loop_
 _symmetry_equiv_pos_site_id
 _symmetry_equiv_pos_as_xyz
  1  'x, y, z'
loop_
 _atom_site_type_symbol
 _atom_site_label
 _atom_site_symmetry_multiplicity
 _atom_site_fract_x
 _atom_site_fract_y
 _atom_site_fract_z
 _atom_site_occupancy
  La  La0  1  0.347886  0.347886  0.347886  1
  La  La1  1  0.347008  0.347008  0.955999  1
  La  La2  1  0.347008  0.955999  0.347008  1
  La  La3  1  0.955999  0.347008  0.347008  1
  La  La4  1  0.811495  0.190191  0.190191  1
  La  La5  1  0.191065  0.808393  0.808393  1
  La  La6  1  0.190191  0.811495  0.190191  1
  La  La7  1  0.808393  0.191065  0.808393  1
  La  La8  1  0.190191  0.190191  0.811495  1
  La  La9  1  0.808393  0.808393  0.191065  1
  La  La10  1  0.941120  0.560241  0.560241  1
  La  La11  1  0.556070  0.941680  0.941680  1
  La  La12  1  0.560241  0.941120  0.560241  1
  La  La13  1  0.941680  0.556070  0.941680  1
  La  La14  1  0.560241  0.560241  0.941120  1
  La  La15  1  0.941680  0.941680  0.556070  1
  Hg  Hg16  1  0.582201  0.582201  0.582201  1
  Hg  Hg17  1  0.582871  0.582871  0.251031  1
  Hg  Hg18  1  0.582871  0.251031  0.582871  1
  Hg  Hg19  1  0.251031  0.582871  0.582871  1
  Ir  Ir20  1  0.141706  0.141706  0.578814  1
  Ir  Ir21  1  0.141706  0.578814  0.141706  1
  Ir  Ir22  1  0.578814  0.141706  0.141706  1
  Os  Os23  1  0.140139  0.140139  0.140139  1
