# generated using pymatgen
data_TbLu2V(Co4P3)2
_symmetry_space_group_name_H-M   'P 1'
_cell_length_a   3.66716800
_cell_length_b   10.51048100
_cell_length_c   12.17249400
_cell_angle_alpha   90.00000000
_cell_angle_beta   90.00000000
_cell_angle_gamma   90.00000000
_symmetry_Int_Tables_number   1
_chemical_formula_structural   TbLu2V(Co4P3)2
_chemical_formula_sum   'Tb2 Lu4 V2 Co16 P12'
_cell_volume   469.17295197
_cell_formula_units_Z   2
loop_
 _symmetry_equiv_pos_site_id
 _symmetry_equiv_pos_as_xyz
  1  'x, y, z'
loop_
 _atom_site_type_symbol
 _atom_site_label
 _atom_site_symmetry_multiplicity
 _atom_site_fract_x
 _atom_site_fract_y
 _atom_site_fract_z
 _atom_site_occupancy
  Tb  Tb0  1  0.000000  0.500000  0.524266  1
  Tb  Tb1  1  0.500000  0.000000  0.475734  1
  Lu  Lu2  1  0.500000  0.819395  0.203537  1
  Lu  Lu3  1  0.500000  0.180605  0.203537  1
  Lu  Lu4  1  0.000000  0.680605  0.796463  1
  Lu  Lu5  1  0.000000  0.319395  0.796463  1
  V  V6  1  0.500000  0.500000  0.153909  1
  V  V7  1  0.000000  0.000000  0.846091  1
  Co  Co8  1  0.500000  0.500000  0.703905  1
  Co  Co9  1  0.000000  0.000000  0.296095  1
  Co  Co10  1  0.000000  0.500000  0.986893  1
  Co  Co11  1  0.500000  0.000000  0.013107  1
  Co  Co12  1  0.500000  0.332255  0.992396  1
  Co  Co13  1  0.500000  0.667745  0.992396  1
  Co  Co14  1  0.000000  0.167745  0.007604  1
  Co  Co15  1  0.000000  0.832255  0.007604  1
  Co  Co16  1  0.500000  0.295282  0.430830  1
  Co  Co17  1  0.500000  0.704718  0.430830  1
  Co  Co18  1  0.000000  0.204718  0.569170  1
  Co  Co19  1  0.000000  0.795282  0.569170  1
  Co  Co20  1  0.500000  0.877787  0.708256  1
  Co  Co21  1  0.500000  0.122213  0.708256  1
  Co  Co22  1  0.000000  0.622213  0.291744  1
  Co  Co23  1  0.000000  0.377787  0.291744  1
  P  P24  1  0.500000  0.500000  0.881656  1
  P  P25  1  0.000000  0.000000  0.118344  1
  P  P26  1  0.500000  0.500000  0.346883  1
  P  P27  1  0.000000  0.000000  0.653117  1
  P  P28  1  0.500000  0.311391  0.617673  1
  P  P29  1  0.500000  0.688609  0.617673  1
  P  P30  1  0.000000  0.188609  0.382327  1
  P  P31  1  0.000000  0.811391  0.382327  1
  P  P32  1  0.500000  0.844858  0.891055  1
  P  P33  1  0.500000  0.155142  0.891055  1
  P  P34  1  0.000000  0.655142  0.108945  1
  P  P35  1  0.000000  0.344858  0.108945  1
