# generated using pymatgen
data_KRb3YbBr6
_symmetry_space_group_name_H-M   'P 1'
_cell_length_a   9.45060327
_cell_length_b   9.45060486
_cell_length_c   9.45060500
_cell_angle_alpha   90.35779611
_cell_angle_beta   90.35779617
_cell_angle_gamma   90.35779797
_symmetry_Int_Tables_number   1
_chemical_formula_structural   KRb3YbBr6
_chemical_formula_sum   'K2 Rb6 Yb2 Br12'
_cell_volume   844.02097220
_cell_formula_units_Z   2
loop_
 _symmetry_equiv_pos_site_id
 _symmetry_equiv_pos_as_xyz
  1  'x, y, z'
loop_
 _atom_site_type_symbol
 _atom_site_label
 _atom_site_symmetry_multiplicity
 _atom_site_fract_x
 _atom_site_fract_y
 _atom_site_fract_z
 _atom_site_occupancy
  K  K0  1  0.250000  0.250000  0.250000  1
  K  K1  1  0.750000  0.750000  0.750000  1
  Rb  Rb2  1  0.870734  0.629266  0.250000  1
  Rb  Rb3  1  0.629266  0.250000  0.870734  1
  Rb  Rb4  1  0.250000  0.870734  0.629266  1
  Rb  Rb5  1  0.129266  0.370734  0.750000  1
  Rb  Rb6  1  0.370734  0.750000  0.129266  1
  Rb  Rb7  1  0.750000  0.129266  0.370734  1
  Yb  Yb8  1  0.000000  0.000000  0.000000  1
  Yb  Yb9  1  0.500000  0.500000  0.500000  1
  Br  Br10  1  0.207431  0.553548  0.426766  1
  Br  Br11  1  0.053548  0.707431  0.926766  1
  Br  Br12  1  0.926766  0.053548  0.707431  1
  Br  Br13  1  0.792569  0.446452  0.573234  1
  Br  Br14  1  0.707431  0.926766  0.053548  1
  Br  Br15  1  0.446452  0.573234  0.792569  1
  Br  Br16  1  0.573234  0.792569  0.446452  1
  Br  Br17  1  0.553548  0.426766  0.207431  1
  Br  Br18  1  0.073234  0.946452  0.292569  1
  Br  Br19  1  0.946452  0.292569  0.073234  1
  Br  Br20  1  0.292569  0.073234  0.946452  1
  Br  Br21  1  0.426766  0.207431  0.553548  1
