# generated using pymatgen
data_Sc20Si13AsSe2
_symmetry_space_group_name_H-M   'P 1'
_cell_length_a   7.01728762
_cell_length_b   7.17483950
_cell_length_c   13.73326535
_cell_angle_alpha   90.41273227
_cell_angle_beta   86.43180913
_cell_angle_gamma   90.41590940
_symmetry_Int_Tables_number   1
_chemical_formula_structural   Sc20Si13AsSe2
_chemical_formula_sum   'Sc20 Si13 As1 Se2'
_cell_volume   690.06686335
_cell_formula_units_Z   1
loop_
 _symmetry_equiv_pos_site_id
 _symmetry_equiv_pos_as_xyz
  1  'x, y, z'
loop_
 _atom_site_type_symbol
 _atom_site_label
 _atom_site_symmetry_multiplicity
 _atom_site_fract_x
 _atom_site_fract_y
 _atom_site_fract_z
 _atom_site_occupancy
  Sc  Sc0  1  0.196591  0.995391  0.754439  1
  Sc  Sc1  1  0.803441  0.004779  0.245290  1
  Sc  Sc2  1  0.303233  0.497873  0.247523  1
  Sc  Sc3  1  0.696420  0.501814  0.750549  1
  Sc  Sc4  1  0.040755  0.665261  0.610653  1
  Sc  Sc5  1  0.953818  0.333652  0.389446  1
  Sc  Sc6  1  0.462478  0.184040  0.390169  1
  Sc  Sc7  1  0.996206  0.322177  0.097007  1
  Sc  Sc8  1  0.542725  0.817011  0.611380  1
  Sc  Sc9  1  0.003948  0.677393  0.902763  1
  Sc  Sc10  1  0.504145  0.821431  0.902689  1
  Sc  Sc11  1  0.495786  0.178070  0.097130  1
  Sc  Sc12  1  0.385377  0.340405  0.620042  1
  Sc  Sc13  1  0.616183  0.659671  0.380853  1
  Sc  Sc14  1  0.115025  0.832343  0.378976  1
  Sc  Sc15  1  0.647239  0.679514  0.124734  1
  Sc  Sc16  1  0.882664  0.169158  0.620918  1
  Sc  Sc17  1  0.352325  0.320788  0.875291  1
  Sc  Sc18  1  0.853017  0.177587  0.874845  1
  Sc  Sc19  1  0.147811  0.822891  0.125358  1
  Si  Si20  1  0.070806  0.384916  0.748582  1
  Si  Si21  1  0.929366  0.615182  0.251349  1
  Si  Si22  1  0.430086  0.887570  0.253993  1
  Si  Si23  1  0.570072  0.113060  0.746920  1
  Si  Si24  1  0.321387  0.631687  0.753763  1
  Si  Si25  1  0.677326  0.368613  0.246127  1
  Si  Si26  1  0.178207  0.133442  0.248572  1
  Si  Si27  1  0.822507  0.866982  0.752055  1
  Si  Si28  1  0.829242  0.968696  0.038736  1
  Si  Si29  1  0.727868  0.479041  0.544622  1
  Si  Si30  1  0.171335  0.030946  0.961099  1
  Si  Si31  1  0.671641  0.467083  0.961241  1
  Si  Si32  1  0.328622  0.532897  0.038779  1
  As  As33  1  0.270082  0.519154  0.454652  1
  Se  Se34  1  0.232301  0.013914  0.546580  1
  Se  Se35  1  0.769967  0.985569  0.452873  1
