# generated using pymatgen
data_Ce10GeAs3Os2
_symmetry_space_group_name_H-M   'P 1'
_cell_length_a   7.85110204
_cell_length_b   8.68223618
_cell_length_c   11.89584520
_cell_angle_alpha   89.97955672
_cell_angle_beta   89.99452621
_cell_angle_gamma   90.01106968
_symmetry_Int_Tables_number   1
_chemical_formula_structural   Ce10GeAs3Os2
_chemical_formula_sum   'Ce20 Ge2 As6 Os4'
_cell_volume   810.88167175
_cell_formula_units_Z   2
loop_
 _symmetry_equiv_pos_site_id
 _symmetry_equiv_pos_as_xyz
  1  'x, y, z'
loop_
 _atom_site_type_symbol
 _atom_site_label
 _atom_site_symmetry_multiplicity
 _atom_site_fract_x
 _atom_site_fract_y
 _atom_site_fract_z
 _atom_site_occupancy
  Ce  Ce0  1  0.698880  0.462304  0.065960  1
  Ce  Ce1  1  0.198241  0.537447  0.434189  1
  Ce  Ce2  1  0.301990  0.962133  0.933509  1
  Ce  Ce3  1  0.802103  0.037830  0.566418  1
  Ce  Ce4  1  0.301789  0.537543  0.933971  1
  Ce  Ce5  1  0.801388  0.462298  0.566255  1
  Ce  Ce6  1  0.698108  0.037977  0.066669  1
  Ce  Ce7  1  0.197786  0.961954  0.433268  1
  Ce  Ce8  1  0.971170  0.749829  0.002295  1
  Ce  Ce9  1  0.471461  0.250381  0.497683  1
  Ce  Ce10  1  0.029217  0.250031  0.997963  1
  Ce  Ce11  1  0.529342  0.749946  0.502097  1
  Ce  Ce12  1  0.363575  0.748820  0.207885  1
  Ce  Ce13  1  0.863641  0.251233  0.292056  1
  Ce  Ce14  1  0.636634  0.249950  0.792063  1
  Ce  Ce15  1  0.136490  0.750130  0.707899  1
  Ce  Ce16  1  0.842648  0.748277  0.286017  1
  Ce  Ce17  1  0.342551  0.251809  0.213869  1
  Ce  Ce18  1  0.156978  0.249919  0.714143  1
  Ce  Ce19  1  0.657140  0.750172  0.785850  1
  Ge  Ge20  1  0.575216  0.005300  0.326923  1
  Ge  Ge21  1  0.075181  0.994752  0.173036  1
  As  As22  1  0.575445  0.494739  0.326997  1
  As  As23  1  0.075376  0.505308  0.172999  1
  As  As24  1  0.424812  0.994855  0.673317  1
  As  As25  1  0.924793  0.005220  0.826697  1
  As  As26  1  0.423939  0.505368  0.673766  1
  As  As27  1  0.923884  0.494626  0.826221  1
  Os  Os28  1  0.577066  0.749528  0.019892  1
  Os  Os29  1  0.076771  0.250594  0.480115  1
  Os  Os30  1  0.423210  0.250282  0.979322  1
  Os  Os31  1  0.923175  0.749443  0.520655  1
