# generated using pymatgen
data_Pr8HoErIr6
_symmetry_space_group_name_H-M   'P 1'
_cell_length_a   11.26027300
_cell_length_b   11.26027300
_cell_length_c   6.56730600
_cell_angle_alpha   90.00000000
_cell_angle_beta   90.00000000
_cell_angle_gamma   90.00000000
_symmetry_Int_Tables_number   1
_chemical_formula_structural   Pr8HoErIr6
_chemical_formula_sum   'Pr16 Ho2 Er2 Ir12'
_cell_volume   832.69334223
_cell_formula_units_Z   2
loop_
 _symmetry_equiv_pos_site_id
 _symmetry_equiv_pos_as_xyz
  1  'x, y, z'
loop_
 _atom_site_type_symbol
 _atom_site_label
 _atom_site_symmetry_multiplicity
 _atom_site_fract_x
 _atom_site_fract_y
 _atom_site_fract_z
 _atom_site_occupancy
  Pr  Pr0  1  0.288714  0.087574  0.381810  1
  Pr  Pr1  1  0.288714  0.912426  0.881810  1
  Pr  Pr2  1  0.711286  0.087574  0.881810  1
  Pr  Pr3  1  0.711286  0.912426  0.381810  1
  Pr  Pr4  1  0.587579  0.788787  0.881830  1
  Pr  Pr5  1  0.587579  0.211213  0.381830  1
  Pr  Pr6  1  0.412421  0.788787  0.381830  1
  Pr  Pr7  1  0.412421  0.211213  0.881830  1
  Pr  Pr8  1  0.211213  0.412421  0.618170  1
  Pr  Pr9  1  0.211213  0.587579  0.118170  1
  Pr  Pr10  1  0.788787  0.412421  0.118170  1
  Pr  Pr11  1  0.788787  0.587579  0.618170  1
  Pr  Pr12  1  0.912426  0.711286  0.118190  1
  Pr  Pr13  1  0.912426  0.288714  0.618190  1
  Pr  Pr14  1  0.087574  0.711286  0.618190  1
  Pr  Pr15  1  0.087574  0.288714  0.118190  1
  Ho  Ho16  1  0.500000  0.500000  0.000000  1
  Ho  Ho17  1  0.500000  0.500000  0.500000  1
  Er  Er18  1  0.000000  0.000000  0.500000  1
  Er  Er19  1  0.000000  0.000000  0.000000  1
  Ir  Ir20  1  0.852641  0.147359  0.250000  1
  Ir  Ir21  1  0.852641  0.852641  0.750000  1
  Ir  Ir22  1  0.147359  0.147359  0.750000  1
  Ir  Ir23  1  0.147359  0.852641  0.250000  1
  Ir  Ir24  1  0.647607  0.352393  0.750000  1
  Ir  Ir25  1  0.647607  0.647607  0.250000  1
  Ir  Ir26  1  0.352393  0.352393  0.250000  1
  Ir  Ir27  1  0.352393  0.647607  0.750000  1
  Ir  Ir28  1  0.500000  0.000000  0.117675  1
  Ir  Ir29  1  0.500000  0.000000  0.617675  1
  Ir  Ir30  1  0.000000  0.500000  0.882325  1
  Ir  Ir31  1  0.000000  0.500000  0.382325  1
