# generated using pymatgen
data_LiS4IO14
_symmetry_space_group_name_H-M   'P 1'
_cell_length_a   5.60064423
_cell_length_b   6.75674442
_cell_length_c   9.02292926
_cell_angle_alpha   106.18016956
_cell_angle_beta   91.27972341
_cell_angle_gamma   104.56191856
_symmetry_Int_Tables_number   1
_chemical_formula_structural   LiS4IO14
_chemical_formula_sum   'Li1 S4 I1 O14'
_cell_volume   315.81630798
_cell_formula_units_Z   1
loop_
 _symmetry_equiv_pos_site_id
 _symmetry_equiv_pos_as_xyz
  1  'x, y, z'
loop_
 _atom_site_type_symbol
 _atom_site_label
 _atom_site_symmetry_multiplicity
 _atom_site_fract_x
 _atom_site_fract_y
 _atom_site_fract_z
 _atom_site_occupancy
  Li  Li0  1  0.500000  0.000000  0.000000  1
  S  S1  1  0.935999  0.744433  0.781200  1
  S  S2  1  0.064001  0.255567  0.218800  1
  S  S3  1  0.659704  0.303366  0.762156  1
  S  S4  1  0.340296  0.696634  0.237844  1
  I  I5  1  0.500000  0.500000  0.500000  1
  O  O6  1  0.877696  0.670062  0.603798  1
  O  O7  1  0.122304  0.329938  0.396202  1
  O  O8  1  0.457550  0.393353  0.707002  1
  O  O9  1  0.542450  0.606647  0.292998  1
  O  O10  1  0.197032  0.843410  0.815841  1
  O  O11  1  0.802968  0.156590  0.184159  1
  O  O12  1  0.762038  0.849605  0.859778  1
  O  O13  1  0.237962  0.150395  0.140222  1
  O  O14  1  0.592207  0.250391  0.901529  1
  O  O15  1  0.407793  0.749609  0.098471  1
  O  O16  1  0.902647  0.519641  0.825870  1
  O  O17  1  0.097353  0.480359  0.174130  1
  O  O18  1  0.740318  0.158268  0.638683  1
  O  O19  1  0.259682  0.841732  0.361317  1
