# generated using pymatgen
data_Rb4Zn4Si4SbAs7
_symmetry_space_group_name_H-M   'P 1'
_cell_length_a   8.51406550
_cell_length_b   8.34761591
_cell_length_c   8.55923083
_cell_angle_alpha   71.43361463
_cell_angle_beta   75.59538805
_cell_angle_gamma   73.28243071
_symmetry_Int_Tables_number   1
_chemical_formula_structural   Rb4Zn4Si4SbAs7
_chemical_formula_sum   'Rb4 Zn4 Si4 Sb1 As7'
_cell_volume   543.95034272
_cell_formula_units_Z   1
loop_
 _symmetry_equiv_pos_site_id
 _symmetry_equiv_pos_as_xyz
  1  'x, y, z'
loop_
 _atom_site_type_symbol
 _atom_site_label
 _atom_site_symmetry_multiplicity
 _atom_site_fract_x
 _atom_site_fract_y
 _atom_site_fract_z
 _atom_site_occupancy
  Rb  Rb0  1  0.449751  0.767689  0.317686  1
  Rb  Rb1  1  0.546426  0.235542  0.681887  1
  Rb  Rb2  1  0.437762  0.798461  0.818601  1
  Rb  Rb3  1  0.555325  0.207216  0.177983  1
  Zn  Zn4  1  0.001265  0.893284  0.689003  1
  Zn  Zn5  1  0.006775  0.115196  0.309063  1
  Zn  Zn6  1  0.964835  0.808651  0.165647  1
  Zn  Zn7  1  0.038803  0.186140  0.826540  1
  Si  Si8  1  0.966578  0.576137  0.602272  1
  Si  Si9  1  0.038144  0.409623  0.406704  1
  Si  Si10  1  0.144417  0.447745  0.977805  1
  Si  Si11  1  0.857838  0.551631  0.022809  1
  Sb  Sb12  1  0.809413  0.883471  0.456146  1
  As  As13  1  0.178108  0.122693  0.545755  1
  As  As14  1  0.791727  0.406518  0.314488  1
  As  As15  1  0.208840  0.596890  0.686929  1
  As  As16  1  0.789094  0.864019  0.954921  1
  As  As17  1  0.213773  0.136223  0.039999  1
  As  As18  1  0.783378  0.436549  0.830997  1
  As  As19  1  0.217749  0.556320  0.174767  1
