# generated using pymatgen
data_Li4La4OsPt3
_symmetry_space_group_name_H-M   'P 1'
_cell_length_a   4.13709800
_cell_length_b   7.27280871
_cell_length_c   8.67949709
_cell_angle_alpha   89.12623263
_cell_angle_beta   90.00000000
_cell_angle_gamma   90.00000000
_symmetry_Int_Tables_number   1
_chemical_formula_structural   Li4La4OsPt3
_chemical_formula_sum   'Li4 La4 Os1 Pt3'
_cell_volume   261.12113949
_cell_formula_units_Z   1
loop_
 _symmetry_equiv_pos_site_id
 _symmetry_equiv_pos_as_xyz
  1  'x, y, z'
loop_
 _atom_site_type_symbol
 _atom_site_label
 _atom_site_symmetry_multiplicity
 _atom_site_fract_x
 _atom_site_fract_y
 _atom_site_fract_z
 _atom_site_occupancy
  Li  Li0  1  0.750000  0.870913  0.947318  1
  Li  Li1  1  0.250000  0.626974  0.444610  1
  Li  Li2  1  0.750000  0.375255  0.550740  1
  Li  Li3  1  0.250000  0.125760  0.058414  1
  La  La4  1  0.750000  0.457032  0.178329  1
  La  La5  1  0.250000  0.030983  0.684710  1
  La  La6  1  0.750000  0.950161  0.330766  1
  La  La7  1  0.250000  0.549548  0.799233  1
  Os  Os8  1  0.750000  0.759627  0.626243  1
  Pt  Pt9  1  0.750000  0.251938  0.880791  1
  Pt  Pt10  1  0.250000  0.253514  0.375270  1
  Pt  Pt11  1  0.250000  0.748295  0.123575  1
