# generated using pymatgen
data_Nd3Al12(RePd)2
_symmetry_space_group_name_H-M   'P 1'
_cell_length_a   8.94685700
_cell_length_b   9.02120343
_cell_length_c   9.73444900
_cell_angle_alpha   90.00000000
_cell_angle_beta   90.00000000
_cell_angle_gamma   119.72774879
_symmetry_Int_Tables_number   1
_chemical_formula_structural   Nd3Al12(RePd)2
_chemical_formula_sum   'Nd6 Al24 Re4 Pd4'
_cell_volume   682.27881943
_cell_formula_units_Z   2
loop_
 _symmetry_equiv_pos_site_id
 _symmetry_equiv_pos_as_xyz
  1  'x, y, z'
loop_
 _atom_site_type_symbol
 _atom_site_label
 _atom_site_symmetry_multiplicity
 _atom_site_fract_x
 _atom_site_fract_y
 _atom_site_fract_z
 _atom_site_occupancy
  Nd  Nd0  1  0.188405  0.376811  0.250000  1
  Nd  Nd1  1  0.811595  0.623189  0.750000  1
  Nd  Nd2  1  0.615861  0.813284  0.250000  1
  Nd  Nd3  1  0.384139  0.186716  0.750000  1
  Nd  Nd4  1  0.197421  0.813284  0.250000  1
  Nd  Nd5  1  0.802579  0.186716  0.750000  1
  Al  Al6  1  0.334897  0.669794  0.019755  1
  Al  Al7  1  0.665103  0.330206  0.980245  1
  Al  Al8  1  0.665103  0.330206  0.519755  1
  Al  Al9  1  0.334897  0.669794  0.480245  1
  Al  Al10  1  0.161722  0.323442  0.576804  1
  Al  Al11  1  0.838278  0.676558  0.423196  1
  Al  Al12  1  0.674909  0.843256  0.575382  1
  Al  Al13  1  0.838278  0.676558  0.076804  1
  Al  Al14  1  0.325091  0.156744  0.424618  1
  Al  Al15  1  0.161722  0.323442  0.923196  1
  Al  Al16  1  0.168347  0.843256  0.575382  1
  Al  Al17  1  0.325091  0.156744  0.075382  1
  Al  Al18  1  0.831653  0.156744  0.424618  1
  Al  Al19  1  0.674909  0.843256  0.924618  1
  Al  Al20  1  0.831653  0.156744  0.075382  1
  Al  Al21  1  0.168347  0.843256  0.924618  1
  Al  Al22  1  0.564484  0.128969  0.250000  1
  Al  Al23  1  0.435516  0.871031  0.750000  1
  Al  Al24  1  0.872805  0.435934  0.250000  1
  Al  Al25  1  0.127195  0.564066  0.750000  1
  Al  Al26  1  0.563130  0.435934  0.250000  1
  Al  Al27  1  0.436870  0.564066  0.750000  1
  Al  Al28  1  0.000889  0.001779  0.250000  1
  Al  Al29  1  0.999111  0.998221  0.750000  1
  Re  Re30  1  0.500000  0.000000  0.000000  1
  Re  Re31  1  0.500000  0.000000  0.500000  1
  Re  Re32  1  0.000000  0.000000  0.000000  1
  Re  Re33  1  0.000000  0.000000  0.500000  1
  Pd  Pd34  1  0.000000  0.500000  0.000000  1
  Pd  Pd35  1  0.500000  0.500000  0.000000  1
  Pd  Pd36  1  0.000000  0.500000  0.500000  1
  Pd  Pd37  1  0.500000  0.500000  0.500000  1
