# generated using pymatgen
data_Ba2LaPaO6
_symmetry_space_group_name_H-M   'P 1'
_cell_length_a   6.37258220
_cell_length_b   6.34558100
_cell_length_c   8.94487200
_cell_angle_alpha   90.00000000
_cell_angle_beta   90.46426349
_cell_angle_gamma   90.00000000
_symmetry_Int_Tables_number   1
_chemical_formula_structural   Ba2LaPaO6
_chemical_formula_sum   'Ba4 La2 Pa2 O12'
_cell_volume   361.69850295
_cell_formula_units_Z   2
loop_
 _symmetry_equiv_pos_site_id
 _symmetry_equiv_pos_as_xyz
  1  'x, y, z'
loop_
 _atom_site_type_symbol
 _atom_site_label
 _atom_site_symmetry_multiplicity
 _atom_site_fract_x
 _atom_site_fract_y
 _atom_site_fract_z
 _atom_site_occupancy
  Ba  Ba0  1  0.490051  0.479308  0.250830  1
  Ba  Ba1  1  0.009951  0.979307  0.249169  1
  Ba  Ba2  1  0.509950  0.520693  0.749170  1
  Ba  Ba3  1  0.990050  0.020692  0.750829  1
  La  La4  1  0.500000  0.000000  0.999999  1
  La  La5  1  0.000000  0.500000  0.500001  1
  Pa  Pa6  1  0.000000  0.500000  0.000000  1
  Pa  Pa7  1  0.499999  0.000000  0.499999  1
  O  O8  1  0.589059  0.018054  0.263452  1
  O  O9  1  0.910940  0.518054  0.236548  1
  O  O10  1  0.410940  0.981947  0.736548  1
  O  O11  1  0.089060  0.481947  0.763451  1
  O  O12  1  0.262472  0.713446  0.048499  1
  O  O13  1  0.237527  0.213447  0.451501  1
  O  O14  1  0.737527  0.286553  0.951500  1
  O  O15  1  0.762473  0.786552  0.548499  1
  O  O16  1  0.211027  0.234107  0.050133  1
  O  O17  1  0.288975  0.734107  0.449868  1
  O  O18  1  0.788974  0.765893  0.949867  1
  O  O19  1  0.711026  0.265894  0.550132  1
