# generated using pymatgen
data_Er2TmV(Co4P3)2
_symmetry_space_group_name_H-M   'P 1'
_cell_length_a   3.66865500
_cell_length_b   10.51285300
_cell_length_c   12.17091000
_cell_angle_alpha   90.00000000
_cell_angle_beta   90.00000000
_cell_angle_gamma   90.00000000
_symmetry_Int_Tables_number   1
_chemical_formula_structural   Er2TmV(Co4P3)2
_chemical_formula_sum   'Er4 Tm2 V2 Co16 P12'
_cell_volume   469.40803080
_cell_formula_units_Z   2
loop_
 _symmetry_equiv_pos_site_id
 _symmetry_equiv_pos_as_xyz
  1  'x, y, z'
loop_
 _atom_site_type_symbol
 _atom_site_label
 _atom_site_symmetry_multiplicity
 _atom_site_fract_x
 _atom_site_fract_y
 _atom_site_fract_z
 _atom_site_occupancy
  Er  Er0  1  0.750000  0.250000  0.476756  1
  Er  Er1  1  0.250000  0.750000  0.523369  1
  Er  Er2  1  0.750000  0.068771  0.204634  1
  Er  Er3  1  0.750000  0.431229  0.204634  1
  Tm  Tm4  1  0.250000  0.931051  0.795377  1
  Tm  Tm5  1  0.250000  0.568949  0.795377  1
  V  V6  1  0.250000  0.250000  0.845358  1
  V  V7  1  0.750000  0.750000  0.154662  1
  Co  Co8  1  0.250000  0.250000  0.298067  1
  Co  Co9  1  0.750000  0.750000  0.702123  1
  Co  Co10  1  0.750000  0.250000  0.013367  1
  Co  Co11  1  0.250000  0.750000  0.985950  1
  Co  Co12  1  0.250000  0.417627  0.006708  1
  Co  Co13  1  0.250000  0.082373  0.006708  1
  Co  Co14  1  0.750000  0.582716  0.992648  1
  Co  Co15  1  0.750000  0.917284  0.992648  1
  Co  Co16  1  0.250000  0.453820  0.568957  1
  Co  Co17  1  0.250000  0.046180  0.568957  1
  Co  Co18  1  0.750000  0.546346  0.431516  1
  Co  Co19  1  0.750000  0.953654  0.431516  1
  Co  Co20  1  0.250000  0.871604  0.292188  1
  Co  Co21  1  0.250000  0.628396  0.292188  1
  Co  Co22  1  0.750000  0.128125  0.708150  1
  Co  Co23  1  0.750000  0.371875  0.708150  1
  P  P24  1  0.250000  0.250000  0.118446  1
  P  P25  1  0.750000  0.750000  0.880913  1
  P  P26  1  0.250000  0.250000  0.652306  1
  P  P27  1  0.750000  0.750000  0.347812  1
  P  P28  1  0.250000  0.438050  0.383967  1
  P  P29  1  0.250000  0.061950  0.383967  1
  P  P30  1  0.750000  0.562106  0.616633  1
  P  P31  1  0.750000  0.937894  0.616633  1
  P  P32  1  0.250000  0.904294  0.108163  1
  P  P33  1  0.250000  0.595706  0.108163  1
  P  P34  1  0.750000  0.095163  0.891495  1
  P  P35  1  0.750000  0.404837  0.891495  1
