# generated using pymatgen
data_Ba3PrOs6O19
_symmetry_space_group_name_H-M   'P 1'
_cell_length_a   8.09463470
_cell_length_b   8.22730282
_cell_length_c   8.09463518
_cell_angle_alpha   109.80355650
_cell_angle_beta   109.13683323
_cell_angle_gamma   109.80357639
_symmetry_Int_Tables_number   1
_chemical_formula_structural   Ba3PrOs6O19
_chemical_formula_sum   'Ba3 Pr1 Os6 O19'
_cell_volume   413.26859264
_cell_formula_units_Z   1
loop_
 _symmetry_equiv_pos_site_id
 _symmetry_equiv_pos_as_xyz
  1  'x, y, z'
loop_
 _atom_site_type_symbol
 _atom_site_label
 _atom_site_symmetry_multiplicity
 _atom_site_fract_x
 _atom_site_fract_y
 _atom_site_fract_z
 _atom_site_occupancy
  Ba  Ba0  1  0.002592  0.004263  0.323255  1
  Ba  Ba1  1  0.676745  0.681008  0.679337  1
  Ba  Ba2  1  0.320663  0.001671  0.997408  1
  Pr  Pr3  1  0.000000  0.295702  0.000000  1
  Os  Os4  1  0.498743  0.362676  0.860600  1
  Os  Os5  1  0.497428  0.634523  0.136478  1
  Os  Os6  1  0.361857  0.863933  0.501257  1
  Os  Os7  1  0.639050  0.137095  0.502572  1
  Os  Os8  1  0.863522  0.498045  0.360950  1
  Os  Os9  1  0.139400  0.502076  0.638143  1
  O  O10  1  0.000000  0.032495  0.000000  1
  O  O11  1  0.707252  0.344513  0.060037  1
  O  O12  1  0.649408  0.351593  0.715309  1
  O  O13  1  0.284691  0.636284  0.934099  1
  O  O14  1  0.652208  0.292822  0.363607  1
  O  O15  1  0.352127  0.724469  0.654909  1
  O  O16  1  0.939963  0.284476  0.647215  1
  O  O17  1  0.065901  0.702185  0.350592  1
  O  O18  1  0.997021  0.658055  0.663915  1
  O  O19  1  0.666894  0.661034  0.002979  1
  O  O20  1  0.711399  0.640614  0.347792  1
  O  O21  1  0.345091  0.069560  0.697218  1
  O  O22  1  0.668407  0.009946  0.673482  1
  O  O23  1  0.005074  0.341539  0.331593  1
  O  O24  1  0.636393  0.929216  0.288601  1
  O  O25  1  0.352785  0.637261  0.292748  1
  O  O26  1  0.302782  0.372342  0.647873  1
  O  O27  1  0.336085  0.994140  0.333106  1
  O  O28  1  0.326518  0.336465  0.994926  1
