# generated using pymatgen
data_DyY5Al24(Ir3Ru)2
_symmetry_space_group_name_H-M   'P 1'
_cell_length_a   8.83221103
_cell_length_b   8.83101050
_cell_length_c   9.49491200
_cell_angle_alpha   90.00000000
_cell_angle_beta   90.00000000
_cell_angle_gamma   119.99551004
_symmetry_Int_Tables_number   1
_chemical_formula_structural   DyY5Al24(Ir3Ru)2
_chemical_formula_sum   'Dy1 Y5 Al24 Ir6 Ru2'
_cell_volume   641.38834110
_cell_formula_units_Z   1
loop_
 _symmetry_equiv_pos_site_id
 _symmetry_equiv_pos_as_xyz
  1  'x, y, z'
loop_
 _atom_site_type_symbol
 _atom_site_label
 _atom_site_symmetry_multiplicity
 _atom_site_fract_x
 _atom_site_fract_y
 _atom_site_fract_z
 _atom_site_occupancy
  Dy  Dy0  1  0.385239  0.192620  0.750000  1
  Y  Y1  1  0.192694  0.807400  0.250000  1
  Y  Y2  1  0.192694  0.385293  0.250000  1
  Y  Y3  1  0.614715  0.807357  0.250000  1
  Y  Y4  1  0.807357  0.192640  0.750000  1
  Y  Y5  1  0.807357  0.614718  0.750000  1
  Al  Al6  1  0.562187  0.437789  0.250000  1
  Al  Al7  1  0.562187  0.124397  0.250000  1
  Al  Al8  1  0.875575  0.437787  0.250000  1
  Al  Al9  1  0.437752  0.562141  0.750000  1
  Al  Al10  1  0.437752  0.875611  0.750000  1
  Al  Al11  1  0.124412  0.562206  0.750000  1
  Al  Al12  1  0.326100  0.163051  0.424155  1
  Al  Al13  1  0.836939  0.163041  0.424076  1
  Al  Al14  1  0.836939  0.673899  0.424076  1
  Al  Al15  1  0.673911  0.836955  0.575962  1
  Al  Al16  1  0.163077  0.837014  0.576003  1
  Al  Al17  1  0.163077  0.326062  0.576003  1
  Al  Al18  1  0.673911  0.836955  0.924038  1
  Al  Al19  1  0.163077  0.837014  0.923997  1
  Al  Al20  1  0.163077  0.326062  0.923997  1
  Al  Al21  1  0.326100  0.163051  0.075845  1
  Al  Al22  1  0.836939  0.163041  0.075924  1
  Al  Al23  1  0.836939  0.673899  0.075924  1
  Al  Al24  1  0.666637  0.333318  0.528544  1
  Al  Al25  1  0.333341  0.666671  0.471513  1
  Al  Al26  1  0.333341  0.666671  0.028487  1
  Al  Al27  1  0.666637  0.333318  0.971456  1
  Al  Al28  1  0.999958  0.999979  0.250000  1
  Al  Al29  1  0.000227  0.000114  0.750000  1
  Ir  Ir30  1  0.499982  0.499905  0.500079  1
  Ir  Ir31  1  0.499982  0.000077  0.500079  1
  Ir  Ir32  1  0.999950  0.499975  0.499993  1
  Ir  Ir33  1  0.499982  0.499905  0.999921  1
  Ir  Ir34  1  0.499982  0.000077  0.999921  1
  Ir  Ir35  1  0.999950  0.499975  0.000007  1
  Ru  Ru36  1  0.000011  0.000006  0.499965  1
  Ru  Ru37  1  0.000011  0.000006  0.000035  1
