# generated using pymatgen
data_Pr5Gd(BO3)6
_symmetry_space_group_name_H-M   'P 1'
_cell_length_a   6.82873664
_cell_length_b   6.85179298
_cell_length_c   9.91705834
_cell_angle_alpha   70.18362892
_cell_angle_beta   70.16610468
_cell_angle_gamma   59.96876510
_symmetry_Int_Tables_number   1
_chemical_formula_structural   Pr5Gd(BO3)6
_chemical_formula_sum   'Pr5 Gd1 B6 O18'
_cell_volume   369.64257894
_cell_formula_units_Z   1
loop_
 _symmetry_equiv_pos_site_id
 _symmetry_equiv_pos_as_xyz
  1  'x, y, z'
loop_
 _atom_site_type_symbol
 _atom_site_label
 _atom_site_symmetry_multiplicity
 _atom_site_fract_x
 _atom_site_fract_y
 _atom_site_fract_z
 _atom_site_occupancy
  Pr  Pr0  1  0.998905  0.500540  0.500014  1
  Pr  Pr1  1  0.500005  0.999908  0.999956  1
  Pr  Pr2  1  0.829120  0.342871  0.000887  1
  Pr  Pr3  1  0.655186  0.172020  0.499075  1
  Pr  Pr4  1  0.171147  0.657222  0.999143  1
  Gd  Gd5  1  0.342815  0.828901  0.500811  1
  B  B6  1  0.084389  0.147677  0.255001  1
  B  B7  1  0.847203  0.916883  0.248286  1
  B  B8  1  0.919870  0.850246  0.745034  1
  B  B9  1  0.151328  0.081119  0.750770  1
  B  B10  1  0.316677  0.684407  0.251946  1
  B  B11  1  0.681195  0.319324  0.748986  1
  O  O12  1  0.040191  0.208769  0.392627  1
  O  O13  1  0.785529  0.964141  0.110028  1
  O  O14  1  0.968655  0.786799  0.607433  1
  O  O15  1  0.214107  0.035826  0.888694  1
  O  O16  1  0.129720  0.303013  0.116703  1
  O  O17  1  0.689132  0.870129  0.385207  1
  O  O18  1  0.871422  0.696283  0.883301  1
  O  O19  1  0.306170  0.125270  0.612598  1
  O  O20  1  0.472823  0.620811  0.114211  1
  O  O21  1  0.379480  0.530593  0.389549  1
  O  O22  1  0.526402  0.380039  0.887129  1
  O  O23  1  0.613798  0.479561  0.612717  1
  O  O24  1  0.083276  0.708954  0.248922  1
  O  O25  1  0.293337  0.914578  0.255386  1
  O  O26  1  0.915850  0.291523  0.750963  1
  O  O27  1  0.708954  0.085643  0.746039  1
  O  O28  1  0.874184  0.123873  0.251633  1
  O  O29  1  0.129129  0.873078  0.746955  1
