# generated using pymatgen
data_Ca17Yb3(CdAg3)3
_symmetry_space_group_name_H-M   'P 1'
_cell_length_a   8.11100700
_cell_length_b   8.11100700
_cell_length_c   14.81709800
_cell_angle_alpha   90.00000000
_cell_angle_beta   90.00000000
_cell_angle_gamma   90.00000000
_symmetry_Int_Tables_number   1
_chemical_formula_structural   Ca17Yb3(CdAg3)3
_chemical_formula_sum   'Ca17 Yb3 Cd3 Ag9'
_cell_volume   974.79368205
_cell_formula_units_Z   1
loop_
 _symmetry_equiv_pos_site_id
 _symmetry_equiv_pos_as_xyz
  1  'x, y, z'
loop_
 _atom_site_type_symbol
 _atom_site_label
 _atom_site_symmetry_multiplicity
 _atom_site_fract_x
 _atom_site_fract_y
 _atom_site_fract_z
 _atom_site_occupancy
  Ca  Ca0  1  0.670991  0.162933  0.105523  1
  Ca  Ca1  1  0.168105  0.666799  0.608380  1
  Ca  Ca2  1  0.329009  0.837067  0.105523  1
  Ca  Ca3  1  0.831895  0.333201  0.608380  1
  Ca  Ca4  1  0.837067  0.670991  0.105523  1
  Ca  Ca5  1  0.333201  0.168105  0.608380  1
  Ca  Ca6  1  0.162933  0.329009  0.105523  1
  Ca  Ca7  1  0.666799  0.831895  0.608380  1
  Ca  Ca8  1  0.836838  0.329165  0.894347  1
  Ca  Ca9  1  0.333066  0.832072  0.391757  1
  Ca  Ca10  1  0.163162  0.670835  0.894347  1
  Ca  Ca11  1  0.666934  0.167928  0.391757  1
  Ca  Ca12  1  0.670835  0.836838  0.894347  1
  Ca  Ca13  1  0.167928  0.333066  0.391757  1
  Ca  Ca14  1  0.329165  0.163162  0.894347  1
  Ca  Ca15  1  0.832072  0.666934  0.391757  1
  Ca  Ca16  1  0.500000  0.500000  0.245767  1
  Yb  Yb17  1  0.500000  0.500000  0.754238  1
  Yb  Yb18  1  0.000000  0.000000  0.250660  1
  Yb  Yb19  1  0.000000  0.000000  0.749368  1
  Cd  Cd20  1  0.500000  0.500000  0.500180  1
  Cd  Cd21  1  0.500000  0.500000  0.999759  1
  Cd  Cd22  1  0.000000  0.000000  0.499952  1
  Ag  Ag23  1  0.626899  0.127588  0.751371  1
  Ag  Ag24  1  0.126232  0.627353  0.248631  1
  Ag  Ag25  1  0.873768  0.372647  0.248631  1
  Ag  Ag26  1  0.373101  0.872412  0.751371  1
  Ag  Ag27  1  0.872412  0.626899  0.751371  1
  Ag  Ag28  1  0.372647  0.126232  0.248631  1
  Ag  Ag29  1  0.127588  0.373101  0.751371  1
  Ag  Ag30  1  0.627353  0.873768  0.248631  1
  Ag  Ag31  1  0.000000  0.000000  0.000039  1
