# generated using pymatgen
data_Hf6TlBCl15
_symmetry_space_group_name_H-M   'P 1'
_cell_length_a   9.86399900
_cell_length_b   14.12539300
_cell_length_c   18.74675700
_cell_angle_alpha   90.00000000
_cell_angle_beta   90.00000000
_cell_angle_gamma   90.00000000
_symmetry_Int_Tables_number   1
_chemical_formula_structural   Hf6TlBCl15
_chemical_formula_sum   'Hf24 Tl4 B4 Cl60'
_cell_volume   2612.03931403
_cell_formula_units_Z   4
loop_
 _symmetry_equiv_pos_site_id
 _symmetry_equiv_pos_as_xyz
  1  'x, y, z'
loop_
 _atom_site_type_symbol
 _atom_site_label
 _atom_site_symmetry_multiplicity
 _atom_site_fract_x
 _atom_site_fract_y
 _atom_site_fract_z
 _atom_site_occupancy
  Hf  Hf0  1  0.111103  0.500000  0.750000  1
  Hf  Hf1  1  0.888897  0.500000  0.250000  1
  Hf  Hf2  1  0.081993  0.000000  0.113738  1
  Hf  Hf3  1  0.918007  0.000000  0.886262  1
  Hf  Hf4  1  0.081993  0.000000  0.386262  1
  Hf  Hf5  1  0.918007  0.000000  0.613738  1
  Hf  Hf6  1  0.340338  0.383799  0.662761  1
  Hf  Hf7  1  0.659662  0.616201  0.337239  1
  Hf  Hf8  1  0.340338  0.616201  0.837239  1
  Hf  Hf9  1  0.659662  0.383799  0.337239  1
  Hf  Hf10  1  0.659662  0.383799  0.162761  1
  Hf  Hf11  1  0.340338  0.616201  0.662761  1
  Hf  Hf12  1  0.659662  0.616201  0.162761  1
  Hf  Hf13  1  0.340338  0.383799  0.837239  1
  Hf  Hf14  1  0.572449  0.500000  0.750000  1
  Hf  Hf15  1  0.427551  0.500000  0.250000  1
  Hf  Hf16  1  0.156075  0.115713  0.529625  1
  Hf  Hf17  1  0.843925  0.884287  0.470375  1
  Hf  Hf18  1  0.156075  0.884287  0.970375  1
  Hf  Hf19  1  0.843925  0.115713  0.470375  1
  Hf  Hf20  1  0.843925  0.115713  0.029625  1
  Hf  Hf21  1  0.156075  0.884287  0.529625  1
  Hf  Hf22  1  0.843925  0.884287  0.029625  1
  Hf  Hf23  1  0.156075  0.115713  0.970375  1
  Tl  Tl24  1  0.829402  0.247251  0.750000  1
  Tl  Tl25  1  0.170598  0.752749  0.250000  1
  Tl  Tl26  1  0.829402  0.752749  0.750000  1
  Tl  Tl27  1  0.170598  0.247251  0.250000  1
  B  B28  1  0.000000  0.000000  0.500000  1
  B  B29  1  0.000000  0.000000  0.000000  1
  B  B30  1  0.342066  0.500000  0.750000  1
  B  B31  1  0.657934  0.500000  0.250000  1
  Cl  Cl32  1  0.820939  0.000000  0.750000  1
  Cl  Cl33  1  0.179061  0.000000  0.250000  1
  Cl  Cl34  1  0.840990  0.500000  0.750000  1
  Cl  Cl35  1  0.159010  0.500000  0.250000  1
  Cl  Cl36  1  0.340794  0.500000  0.560512  1
  Cl  Cl37  1  0.659206  0.500000  0.439488  1
  Cl  Cl38  1  0.340794  0.500000  0.939488  1
  Cl  Cl39  1  0.659206  0.500000  0.060512  1
  Cl  Cl40  1  0.000000  0.250753  0.500000  1
  Cl  Cl41  1  0.000000  0.749247  0.500000  1
  Cl  Cl42  1  0.000000  0.749247  0.000000  1
  Cl  Cl43  1  0.000000  0.250753  0.000000  1
  Cl  Cl44  1  0.349042  0.248254  0.750000  1
  Cl  Cl45  1  0.650958  0.751746  0.250000  1
  Cl  Cl46  1  0.349042  0.751746  0.750000  1
  Cl  Cl47  1  0.650958  0.248254  0.250000  1
  Cl  Cl48  1  0.332776  0.249092  0.564654  1
  Cl  Cl49  1  0.667224  0.750908  0.435346  1
  Cl  Cl50  1  0.332776  0.750908  0.935346  1
  Cl  Cl51  1  0.667224  0.249092  0.435346  1
  Cl  Cl52  1  0.667224  0.249092  0.064654  1
  Cl  Cl53  1  0.332776  0.750908  0.564654  1
  Cl  Cl54  1  0.667224  0.750908  0.064654  1
  Cl  Cl55  1  0.332776  0.249092  0.935346  1
  Cl  Cl56  1  0.080760  0.123645  0.658454  1
  Cl  Cl57  1  0.919240  0.876355  0.341546  1
  Cl  Cl58  1  0.080760  0.876355  0.841546  1
  Cl  Cl59  1  0.919240  0.123645  0.341546  1
  Cl  Cl60  1  0.919240  0.123645  0.158454  1
  Cl  Cl61  1  0.080760  0.876355  0.658454  1
  Cl  Cl62  1  0.919240  0.876355  0.158454  1
  Cl  Cl63  1  0.080760  0.123645  0.841546  1
  Cl  Cl64  1  0.084102  0.375318  0.655321  1
  Cl  Cl65  1  0.915898  0.624682  0.344679  1
  Cl  Cl66  1  0.084102  0.624682  0.844679  1
  Cl  Cl67  1  0.915898  0.375318  0.344679  1
  Cl  Cl68  1  0.915898  0.375318  0.155321  1
  Cl  Cl69  1  0.084102  0.624682  0.655321  1
  Cl  Cl70  1  0.915898  0.624682  0.155321  1
  Cl  Cl71  1  0.084102  0.375318  0.844679  1
  Cl  Cl72  1  0.338171  0.000000  0.565647  1
  Cl  Cl73  1  0.661829  0.000000  0.434353  1
  Cl  Cl74  1  0.338171  0.000000  0.934353  1
  Cl  Cl75  1  0.661829  0.000000  0.065647  1
  Cl  Cl76  1  0.597857  0.375040  0.653407  1
  Cl  Cl77  1  0.402143  0.624960  0.346593  1
  Cl  Cl78  1  0.597857  0.624960  0.846593  1
  Cl  Cl79  1  0.402143  0.375040  0.346593  1
  Cl  Cl80  1  0.402143  0.375040  0.153407  1
  Cl  Cl81  1  0.597857  0.624960  0.653407  1
  Cl  Cl82  1  0.402143  0.624960  0.153407  1
  Cl  Cl83  1  0.597857  0.375040  0.846593  1
  Cl  Cl84  1  0.260502  0.126042  0.094442  1
  Cl  Cl85  1  0.739498  0.873958  0.905558  1
  Cl  Cl86  1  0.260502  0.873958  0.405558  1
  Cl  Cl87  1  0.739498  0.126042  0.905558  1
  Cl  Cl88  1  0.739498  0.126042  0.594442  1
  Cl  Cl89  1  0.260502  0.873958  0.094442  1
  Cl  Cl90  1  0.739498  0.873958  0.594442  1
  Cl  Cl91  1  0.260502  0.126042  0.405558  1
