# generated using pymatgen
data_Zr3In3PdRu5
_symmetry_space_group_name_H-M   'P 1'
_cell_length_a   4.60318000
_cell_length_b   6.55942100
_cell_length_c   13.76426700
_cell_angle_alpha   90.00000000
_cell_angle_beta   89.99888406
_cell_angle_gamma   90.00000000
_symmetry_Int_Tables_number   1
_chemical_formula_structural   Zr3In3PdRu5
_chemical_formula_sum   'Zr6 In6 Pd2 Ru10'
_cell_volume   415.60096953
_cell_formula_units_Z   2
loop_
 _symmetry_equiv_pos_site_id
 _symmetry_equiv_pos_as_xyz
  1  'x, y, z'
loop_
 _atom_site_type_symbol
 _atom_site_label
 _atom_site_symmetry_multiplicity
 _atom_site_fract_x
 _atom_site_fract_y
 _atom_site_fract_z
 _atom_site_occupancy
  Zr  Zr0  1  0.000007  0.000000  0.006665  1
  Zr  Zr1  1  0.500032  0.500001  0.167281  1
  Zr  Zr2  1  0.000042  0.000000  0.333378  1
  Zr  Zr3  1  0.500015  0.500001  0.499410  1
  Zr  Zr4  1  0.999935  0.000000  0.660032  1
  Zr  Zr5  1  0.499966  0.500001  0.833249  1
  In  In6  1  0.999826  0.500001  0.002149  1
  In  In7  1  0.500083  0.000000  0.166789  1
  In  In8  1  0.999942  0.500001  0.333425  1
  In  In9  1  0.499956  0.000000  0.499878  1
  In  In10  1  0.000005  0.500001  0.664482  1
  In  In11  1  0.500161  0.000000  0.833255  1
  Pd  Pd12  1  0.999935  0.251098  0.833328  1
  Pd  Pd13  1  0.999935  0.748901  0.833328  1
  Ru  Ru14  1  0.500035  0.250233  0.997254  1
  Ru  Ru15  1  0.500035  0.749766  0.997254  1
  Ru  Ru16  1  0.000119  0.248886  0.165782  1
  Ru  Ru17  1  0.000119  0.751113  0.165782  1
  Ru  Ru18  1  0.500041  0.249946  0.333353  1
  Ru  Ru19  1  0.500041  0.750055  0.333353  1
  Ru  Ru20  1  0.999956  0.248870  0.501012  1
  Ru  Ru21  1  0.999956  0.751130  0.501012  1
  Ru  Ru22  1  0.499930  0.250252  0.669275  1
  Ru  Ru23  1  0.499930  0.749749  0.669275  1
