# generated using pymatgen
data_Li3Dy5As2(P5Ir8)2
_symmetry_space_group_name_H-M   'P 1'
_cell_length_a   12.82761300
_cell_length_b   12.80924205
_cell_length_c   3.97599800
_cell_angle_alpha   90.00000000
_cell_angle_beta   90.00000000
_cell_angle_gamma   120.04745155
_symmetry_Int_Tables_number   1
_chemical_formula_structural   Li3Dy5As2(P5Ir8)2
_chemical_formula_sum   'Li3 Dy5 As2 P10 Ir16'
_cell_volume   565.50729610
_cell_formula_units_Z   1
loop_
 _symmetry_equiv_pos_site_id
 _symmetry_equiv_pos_as_xyz
  1  'x, y, z'
loop_
 _atom_site_type_symbol
 _atom_site_label
 _atom_site_symmetry_multiplicity
 _atom_site_fract_x
 _atom_site_fract_y
 _atom_site_fract_z
 _atom_site_occupancy
  Li  Li0  1  0.998514  0.436144  0.500000  1
  Li  Li1  1  0.562370  0.563856  0.500000  1
  Li  Li2  1  0.442519  0.000000  0.500000  1
  Dy  Dy3  1  0.334269  0.667764  0.500000  1
  Dy  Dy4  1  0.666506  0.332236  0.500000  1
  Dy  Dy5  1  0.999862  0.810212  0.000000  1
  Dy  Dy6  1  0.189650  0.189788  0.000000  1
  Dy  Dy7  1  0.808387  0.000000  0.000000  1
  As  As8  1  0.000287  0.628656  0.500000  1
  As  As9  1  0.371631  0.371344  0.500000  1
  P  P10  1  0.631036  0.000000  0.500000  1
  P  P11  1  0.517107  0.689774  0.000000  1
  P  P12  1  0.314024  0.830405  0.000000  1
  P  P13  1  0.170418  0.482779  0.000000  1
  P  P14  1  0.483619  0.169595  0.000000  1
  P  P15  1  0.687639  0.517221  0.000000  1
  P  P16  1  0.827333  0.310226  0.000000  1
  P  P17  1  0.998786  0.178366  0.500000  1
  P  P18  1  0.820421  0.821634  0.500000  1
  P  P19  1  0.179509  0.000000  0.500000  1
  Ir  Ir20  1  0.510705  0.870232  0.000000  1
  Ir  Ir21  1  0.136564  0.642413  0.000000  1
  Ir  Ir22  1  0.358301  0.495221  0.000000  1
  Ir  Ir23  1  0.494152  0.357587  0.000000  1
  Ir  Ir24  1  0.863081  0.504779  0.000000  1
  Ir  Ir25  1  0.640474  0.129768  0.000000  1
  Ir  Ir26  1  0.996891  0.276933  0.000000  1
  Ir  Ir27  1  0.719957  0.723067  0.000000  1
  Ir  Ir28  1  0.277591  0.000000  0.000000  1
  Ir  Ir29  1  0.627504  0.808597  0.500000  1
  Ir  Ir30  1  0.202327  0.825656  0.500000  1
  Ir  Ir31  1  0.173495  0.374762  0.500000  1
  Ir  Ir32  1  0.376671  0.174344  0.500000  1
  Ir  Ir33  1  0.798733  0.625238  0.500000  1
  Ir  Ir34  1  0.818907  0.191403  0.500000  1
  Ir  Ir35  1  0.000760  0.000000  0.500000  1
