# generated using pymatgen
data_Ba3P2Rh7
_symmetry_space_group_name_H-M   'P 1'
_cell_length_a   8.64009250
_cell_length_b   8.64009311
_cell_length_c   8.64009387
_cell_angle_alpha   39.94162364
_cell_angle_beta   39.94161728
_cell_angle_gamma   39.94162057
_symmetry_Int_Tables_number   1
_chemical_formula_structural   Ba3P2Rh7
_chemical_formula_sum   'Ba3 P2 Rh7'
_cell_volume   239.50997349
_cell_formula_units_Z   1
loop_
 _symmetry_equiv_pos_site_id
 _symmetry_equiv_pos_as_xyz
  1  'x, y, z'
loop_
 _atom_site_type_symbol
 _atom_site_label
 _atom_site_symmetry_multiplicity
 _atom_site_fract_x
 _atom_site_fract_y
 _atom_site_fract_z
 _atom_site_occupancy
  Ba  Ba0  1  0.355904  0.355904  0.355904  1
  Ba  Ba1  1  0.500000  0.500000  0.500000  1
  Ba  Ba2  1  0.644096  0.644096  0.644096  1
  P  P3  1  0.171811  0.171811  0.171811  1
  P  P4  1  0.828189  0.828189  0.828189  1
  Rh  Rh5  1  0.000000  0.000000  0.000000  1
  Rh  Rh6  1  0.583148  0.056854  0.056854  1
  Rh  Rh7  1  0.056854  0.583148  0.056854  1
  Rh  Rh8  1  0.943146  0.943146  0.416851  1
  Rh  Rh9  1  0.056854  0.056854  0.583149  1
  Rh  Rh10  1  0.943146  0.416852  0.943146  1
  Rh  Rh11  1  0.416852  0.943146  0.943146  1
