# generated using pymatgen
data_Zr10AlBi6Ir
_symmetry_space_group_name_H-M   'P 1'
_cell_length_a   8.93050300
_cell_length_b   8.93050371
_cell_length_c   5.93689500
_cell_angle_alpha   90.00000000
_cell_angle_beta   90.00000000
_cell_angle_gamma   120.00000107
_symmetry_Int_Tables_number   1
_chemical_formula_structural   Zr10AlBi6Ir
_chemical_formula_sum   'Zr10 Al1 Bi6 Ir1'
_cell_volume   410.05477271
_cell_formula_units_Z   1
loop_
 _symmetry_equiv_pos_site_id
 _symmetry_equiv_pos_as_xyz
  1  'x, y, z'
loop_
 _atom_site_type_symbol
 _atom_site_label
 _atom_site_symmetry_multiplicity
 _atom_site_fract_x
 _atom_site_fract_y
 _atom_site_fract_z
 _atom_site_occupancy
  Zr  Zr0  1  0.738540  0.000000  0.244425  1
  Zr  Zr1  1  0.000000  0.738540  0.244425  1
  Zr  Zr2  1  0.261460  0.261460  0.244425  1
  Zr  Zr3  1  0.261460  0.000000  0.755575  1
  Zr  Zr4  1  0.000000  0.261460  0.755575  1
  Zr  Zr5  1  0.738540  0.738540  0.755575  1
  Zr  Zr6  1  0.333333  0.666667  0.500000  1
  Zr  Zr7  1  0.666667  0.333333  0.500000  1
  Zr  Zr8  1  0.666667  0.333333  0.000000  1
  Zr  Zr9  1  0.333333  0.666667  0.000000  1
  Al  Al10  1  0.000000  0.000000  0.500000  1
  Bi  Bi11  1  0.388177  0.000000  0.251299  1
  Bi  Bi12  1  0.000000  0.388177  0.251299  1
  Bi  Bi13  1  0.611823  0.611823  0.251299  1
  Bi  Bi14  1  0.611823  0.000000  0.748701  1
  Bi  Bi15  1  0.000000  0.611823  0.748701  1
  Bi  Bi16  1  0.388177  0.388177  0.748701  1
  Ir  Ir17  1  0.000000  0.000000  0.000000  1
