# generated using pymatgen
data_Yb3HoNpRu7
_symmetry_space_group_name_H-M   'P 1'
_cell_length_a   5.58095037
_cell_length_b   5.58095092
_cell_length_c   8.04305701
_cell_angle_alpha   90.00755131
_cell_angle_beta   89.99243734
_cell_angle_gamma   119.98413331
_symmetry_Int_Tables_number   1
_chemical_formula_structural   Yb3HoNpRu7
_chemical_formula_sum   'Yb3 Ho1 Np1 Ru7'
_cell_volume   216.98891654
_cell_formula_units_Z   1
loop_
 _symmetry_equiv_pos_site_id
 _symmetry_equiv_pos_as_xyz
  1  'x, y, z'
loop_
 _atom_site_type_symbol
 _atom_site_label
 _atom_site_symmetry_multiplicity
 _atom_site_fract_x
 _atom_site_fract_y
 _atom_site_fract_z
 _atom_site_occupancy
  Yb  Yb0  1  0.333298  0.666702  0.422618  1
  Yb  Yb1  1  0.333303  0.666697  0.058098  1
  Yb  Yb2  1  0.666685  0.333315  0.948953  1
  Ho  Ho3  1  0.666663  0.333337  0.576620  1
  Np  Np4  1  0.000000  0.000000  0.496926  1
  Ru  Ru5  1  0.999975  0.000025  0.998850  1
  Ru  Ru6  1  0.171765  0.343361  0.739630  1
  Ru  Ru7  1  0.171764  0.828236  0.739768  1
  Ru  Ru8  1  0.656639  0.828235  0.739630  1
  Ru  Ru9  1  0.828030  0.656278  0.259653  1
  Ru  Ru10  1  0.828158  0.171842  0.259603  1
  Ru  Ru11  1  0.343722  0.171970  0.259653  1
