# generated using pymatgen
data_Ac4La2FeI10
_symmetry_space_group_name_H-M   'P 1'
_cell_length_a   8.45076801
_cell_length_b   10.49721171
_cell_length_c   10.04892664
_cell_angle_alpha   107.78515535
_cell_angle_beta   97.31916334
_cell_angle_gamma   105.23292444
_symmetry_Int_Tables_number   1
_chemical_formula_structural   Ac4La2FeI10
_chemical_formula_sum   'Ac4 La2 Fe1 I10'
_cell_volume   797.81652043
_cell_formula_units_Z   1
loop_
 _symmetry_equiv_pos_site_id
 _symmetry_equiv_pos_as_xyz
  1  'x, y, z'
loop_
 _atom_site_type_symbol
 _atom_site_label
 _atom_site_symmetry_multiplicity
 _atom_site_fract_x
 _atom_site_fract_y
 _atom_site_fract_z
 _atom_site_occupancy
  Ac  Ac0  1  0.463716  0.297008  0.593443  1
  Ac  Ac1  1  0.536284  0.702992  0.406557  1
  Ac  Ac2  1  0.861527  0.136979  0.689256  1
  Ac  Ac3  1  0.138473  0.863021  0.310744  1
  La  La4  1  0.397028  0.961453  0.710803  1
  La  La5  1  0.602972  0.038547  0.289197  1
  Fe  Fe6  1  0.500000  0.000000  0.500000  1
  I  I7  1  0.411649  0.637422  0.684041  1
  I  I8  1  0.588351  0.362578  0.315959  1
  I  I9  1  0.292830  0.251450  0.859140  1
  I  I10  1  0.707170  0.748550  0.140860  1
  I  I11  1  0.856076  0.463280  0.776831  1
  I  I12  1  0.143924  0.536720  0.223169  1
  I  I13  1  0.034931  0.176975  0.408517  1
  I  I14  1  0.256387  0.918083  0.031928  1
  I  I15  1  0.743613  0.081917  0.968072  1
  I  I16  1  0.965069  0.823025  0.591483  1
