# generated using pymatgen
data_Hf6Zr3CoRe3W
_symmetry_space_group_name_H-M   'P 1'
_cell_length_a   8.68359200
_cell_length_b   8.68359127
_cell_length_c   8.44009000
_cell_angle_alpha   90.00000000
_cell_angle_beta   90.00000000
_cell_angle_gamma   119.99999517
_symmetry_Int_Tables_number   1
_chemical_formula_structural   Hf6Zr3CoRe3W
_chemical_formula_sum   'Hf12 Zr6 Co2 Re6 W2'
_cell_volume   551.15850524
_cell_formula_units_Z   2
loop_
 _symmetry_equiv_pos_site_id
 _symmetry_equiv_pos_as_xyz
  1  'x, y, z'
loop_
 _atom_site_type_symbol
 _atom_site_label
 _atom_site_symmetry_multiplicity
 _atom_site_fract_x
 _atom_site_fract_y
 _atom_site_fract_z
 _atom_site_occupancy
  Hf  Hf0  1  0.199507  0.800493  0.440494  1
  Hf  Hf1  1  0.199507  0.399016  0.440494  1
  Hf  Hf2  1  0.600984  0.800493  0.440494  1
  Hf  Hf3  1  0.800493  0.199507  0.559506  1
  Hf  Hf4  1  0.800493  0.600984  0.559506  1
  Hf  Hf5  1  0.399016  0.199507  0.559506  1
  Hf  Hf6  1  0.800493  0.199507  0.940494  1
  Hf  Hf7  1  0.800493  0.600984  0.940494  1
  Hf  Hf8  1  0.399016  0.199507  0.940494  1
  Hf  Hf9  1  0.199507  0.800493  0.059506  1
  Hf  Hf10  1  0.199507  0.399016  0.059506  1
  Hf  Hf11  1  0.600984  0.800493  0.059506  1
  Zr  Zr12  1  0.541335  0.458665  0.250000  1
  Zr  Zr13  1  0.541335  0.082669  0.250000  1
  Zr  Zr14  1  0.917331  0.458665  0.250000  1
  Zr  Zr15  1  0.458665  0.541335  0.750000  1
  Zr  Zr16  1  0.458665  0.917331  0.750000  1
  Zr  Zr17  1  0.082669  0.541335  0.750000  1
  Co  Co18  1  0.333333  0.666667  0.250000  1
  Co  Co19  1  0.666667  0.333333  0.750000  1
  Re  Re20  1  0.889194  0.110806  0.250000  1
  Re  Re21  1  0.889194  0.778390  0.250000  1
  Re  Re22  1  0.221610  0.110806  0.250000  1
  Re  Re23  1  0.110806  0.889194  0.750000  1
  Re  Re24  1  0.110806  0.221610  0.750000  1
  Re  Re25  1  0.778390  0.889194  0.750000  1
  W  W26  1  0.000000  0.000000  0.500000  1
  W  W27  1  0.000000  0.000000  0.000000  1
