# generated using pymatgen
data_Na4PdAu
_symmetry_space_group_name_H-M   'P 1'
_cell_length_a   5.86768863
_cell_length_b   5.86768799
_cell_length_c   5.86768860
_cell_angle_alpha   103.66685283
_cell_angle_beta   103.66685645
_cell_angle_gamma   121.83318110
_symmetry_Int_Tables_number   1
_chemical_formula_structural   Na4PdAu
_chemical_formula_sum   'Na4 Pd1 Au1'
_cell_volume   149.99520561
_cell_formula_units_Z   1
loop_
 _symmetry_equiv_pos_site_id
 _symmetry_equiv_pos_as_xyz
  1  'x, y, z'
loop_
 _atom_site_type_symbol
 _atom_site_label
 _atom_site_symmetry_multiplicity
 _atom_site_fract_x
 _atom_site_fract_y
 _atom_site_fract_z
 _atom_site_occupancy
  Na  Na0  1  0.923047  0.423047  0.846095  1
  Na  Na1  1  0.576953  0.076953  0.153905  1
  Na  Na2  1  0.076953  0.923047  0.500000  1
  Na  Na3  1  0.423047  0.576953  0.500000  1
  Pd  Pd4  1  0.500000  0.500000  0.000000  1
  Au  Au5  1  0.000000  0.000000  0.000000  1
