# generated using pymatgen
data_Ho5TaVO12
_symmetry_space_group_name_H-M   'P 1'
_cell_length_a   6.80220907
_cell_length_b   6.80220743
_cell_length_c   7.30916046
_cell_angle_alpha   74.33277746
_cell_angle_beta   74.33278324
_cell_angle_gamma   51.28958823
_symmetry_Int_Tables_number   1
_chemical_formula_structural   Ho5TaVO12
_chemical_formula_sum   'Ho5 Ta1 V1 O12'
_cell_volume   251.78059202
_cell_formula_units_Z   1
loop_
 _symmetry_equiv_pos_site_id
 _symmetry_equiv_pos_as_xyz
  1  'x, y, z'
loop_
 _atom_site_type_symbol
 _atom_site_label
 _atom_site_symmetry_multiplicity
 _atom_site_fract_x
 _atom_site_fract_y
 _atom_site_fract_z
 _atom_site_occupancy
  Ho  Ho0  1  0.307877  0.296960  0.361411  1
  Ho  Ho1  1  0.703040  0.692123  0.638589  1
  Ho  Ho2  1  0.312824  0.304974  0.827167  1
  Ho  Ho3  1  0.695026  0.687176  0.172833  1
  Ho  Ho4  1  0.999414  0.000586  0.500000  1
  Ta  Ta5  1  0.225801  0.774199  0.000000  1
  V  V6  1  0.742187  0.257813  0.000000  1
  O  O7  1  0.900485  0.417670  0.917950  1
  O  O8  1  0.436041  0.899010  0.916292  1
  O  O9  1  0.100990  0.563959  0.083708  1
  O  O10  1  0.582330  0.099515  0.082050  1
  O  O11  1  0.100649  0.591758  0.575759  1
  O  O12  1  0.599878  0.093212  0.573480  1
  O  O13  1  0.906788  0.400122  0.426520  1
  O  O14  1  0.408242  0.899351  0.424241  1
  O  O15  1  0.995268  0.004294  0.810786  1
  O  O16  1  0.995706  0.004732  0.189214  1
  O  O17  1  0.493179  0.505726  0.813157  1
  O  O18  1  0.494274  0.506821  0.186843  1
