# generated using pymatgen
data_Nd11Sm(SiI3)4
_symmetry_space_group_name_H-M   'P 1'
_cell_length_a   10.81223262
_cell_length_b   10.81223486
_cell_length_c   10.81873636
_cell_angle_alpha   109.46263285
_cell_angle_beta   109.46261047
_cell_angle_gamma   109.47477550
_symmetry_Int_Tables_number   1
_chemical_formula_structural   Nd11Sm(SiI3)4
_chemical_formula_sum   'Nd11 Sm1 Si4 I12'
_cell_volume   973.77494505
_cell_formula_units_Z   1
loop_
 _symmetry_equiv_pos_site_id
 _symmetry_equiv_pos_as_xyz
  1  'x, y, z'
loop_
 _atom_site_type_symbol
 _atom_site_label
 _atom_site_symmetry_multiplicity
 _atom_site_fract_x
 _atom_site_fract_y
 _atom_site_fract_z
 _atom_site_occupancy
  Nd  Nd0  1  0.465335  0.482443  0.232608  1
  Nd  Nd1  1  0.751219  0.232586  0.268632  1
  Nd  Nd2  1  0.749634  0.017289  0.482251  1
  Nd  Nd3  1  0.232571  0.464998  0.482397  1
  Nd  Nd4  1  0.267415  0.748781  0.231368  1
  Nd  Nd5  1  0.035002  0.267429  0.017603  1
  Nd  Nd6  1  0.017557  0.034665  0.267392  1
  Nd  Nd7  1  0.482711  0.750366  0.017749  1
  Nd  Nd8  1  0.482545  0.232605  0.465195  1
  Nd  Nd9  1  0.017805  0.482195  0.750000  1
  Nd  Nd10  1  0.267395  0.017455  0.034805  1
  Sm  Sm11  1  0.231643  0.268357  0.750000  1
  Si  Si12  1  0.250034  0.249966  0.250000  1
  Si  Si13  1  0.499818  0.000182  0.250000  1
  Si  Si14  1  0.001081  0.249527  0.500767  1
  Si  Si15  1  0.250473  0.498919  0.999233  1
  I  I16  1  0.249996  0.757350  0.742594  1
  I  I17  1  0.512328  0.505119  0.757388  1
  I  I18  1  0.984883  0.742159  0.992369  1
  I  I19  1  0.742650  0.250004  0.757406  1
  I  I20  1  0.994881  0.987672  0.742612  1
  I  I21  1  0.249976  0.994394  0.509117  1
  I  I22  1  0.757841  0.515117  0.507631  1
  I  I23  1  0.505606  0.250024  0.990883  1
  I  I24  1  0.757498  0.742502  0.250000  1
  I  I25  1  0.742317  0.992593  0.984960  1
  I  I26  1  0.992383  0.507617  0.250000  1
  I  I27  1  0.507407  0.757683  0.515040  1
