# generated using pymatgen
data_Tb5Sm3Cu4(As3O)4
_symmetry_space_group_name_H-M   'P 1'
_cell_length_a   34.41379308
_cell_length_b   3.94960200
_cell_length_c   3.95161701
_cell_angle_alpha   90.00000000
_cell_angle_beta   90.00091033
_cell_angle_gamma   90.00000000
_symmetry_Int_Tables_number   1
_chemical_formula_structural   Tb5Sm3Cu4(As3O)4
_chemical_formula_sum   'Tb5 Sm3 Cu4 As12 O4'
_cell_volume   537.10689024
_cell_formula_units_Z   1
loop_
 _symmetry_equiv_pos_site_id
 _symmetry_equiv_pos_as_xyz
  1  'x, y, z'
loop_
 _atom_site_type_symbol
 _atom_site_label
 _atom_site_symmetry_multiplicity
 _atom_site_fract_x
 _atom_site_fract_y
 _atom_site_fract_z
 _atom_site_occupancy
  Tb  Tb0  1  0.467317  0.750002  0.251019  1
  Tb  Tb1  1  0.032193  0.250002  0.750862  1
  Tb  Tb2  1  0.967974  0.750002  0.249020  1
  Tb  Tb3  1  0.531749  0.250002  0.749203  1
  Tb  Tb4  1  0.325927  0.250002  0.805307  1
  Sm  Sm5  1  0.174363  0.750002  0.306001  1
  Sm  Sm6  1  0.826057  0.250002  0.693944  1
  Sm  Sm7  1  0.673902  0.750002  0.194116  1
  Cu  Cu8  1  0.250803  0.250002  0.307671  1
  Cu  Cu9  1  0.250867  0.750002  0.807781  1
  Cu  Cu10  1  0.750005  0.250002  0.192273  1
  Cu  Cu11  1  0.749980  0.750002  0.692448  1
  As  As12  1  0.394231  0.250002  0.313856  1
  As  As13  1  0.104822  0.750002  0.815195  1
  As  As14  1  0.895419  0.250002  0.184807  1
  As  As15  1  0.604472  0.750002  0.685053  1
  As  As16  1  0.394398  0.750002  0.768943  1
  As  As17  1  0.104579  0.250002  0.266129  1
  As  As18  1  0.895612  0.750002  0.733377  1
  As  As19  1  0.604283  0.250002  0.233296  1
  As  As20  1  0.205653  0.250002  0.807196  1
  As  As21  1  0.296176  0.750002  0.306819  1
  As  As22  1  0.705032  0.250002  0.692813  1
  As  As23  1  0.794944  0.750002  0.192780  1
  O  O24  1  0.499536  0.750002  0.751569  1
  O  O25  1  0.000074  0.250002  0.251399  1
  O  O26  1  0.000054  0.750002  0.748480  1
  O  O27  1  0.499575  0.250002  0.248642  1
