# generated using pymatgen
data_Er2Pa(InRh)3
_symmetry_space_group_name_H-M   'P 1'
_cell_length_a   7.53042105
_cell_length_b   7.79001708
_cell_length_c   3.81860400
_cell_angle_alpha   90.00000000
_cell_angle_beta   90.00000000
_cell_angle_gamma   121.14705723
_symmetry_Int_Tables_number   1
_chemical_formula_structural   Er2Pa(InRh)3
_chemical_formula_sum   'Er2 Pa1 In3 Rh3'
_cell_volume   191.71503576
_cell_formula_units_Z   1
loop_
 _symmetry_equiv_pos_site_id
 _symmetry_equiv_pos_as_xyz
  1  'x, y, z'
loop_
 _atom_site_type_symbol
 _atom_site_label
 _atom_site_symmetry_multiplicity
 _atom_site_fract_x
 _atom_site_fract_y
 _atom_site_fract_z
 _atom_site_occupancy
  Er  Er0  1  0.403092  0.405208  0.500000  1
  Er  Er1  1  0.596908  0.002116  0.500000  1
  Pa  Pa2  1  0.000000  0.583535  0.500000  1
  In  In3  1  0.273436  0.013714  0.000000  1
  In  In4  1  0.726564  0.740278  0.000000  1
  In  In5  1  0.000000  0.241719  0.000000  1
  Rh  Rh6  1  0.703371  0.365743  0.000000  1
  Rh  Rh7  1  0.296629  0.662373  0.000000  1
  Rh  Rh8  1  0.000000  0.985314  0.500000  1
