# generated using pymatgen
data_Ca2Al16TcPt8
_symmetry_space_group_name_H-M   'P 1'
_cell_length_a   11.13726314
_cell_length_b   11.13726319
_cell_length_c   11.13726400
_cell_angle_alpha   158.64139618
_cell_angle_beta   115.86319035
_cell_angle_gamma   68.43583711
_symmetry_Int_Tables_number   1
_chemical_formula_structural   Ca2Al16TcPt8
_chemical_formula_sum   'Ca2 Al16 Tc1 Pt8'
_cell_volume   449.56451299
_cell_formula_units_Z   1
loop_
 _symmetry_equiv_pos_site_id
 _symmetry_equiv_pos_as_xyz
  1  'x, y, z'
loop_
 _atom_site_type_symbol
 _atom_site_label
 _atom_site_symmetry_multiplicity
 _atom_site_fract_x
 _atom_site_fract_y
 _atom_site_fract_z
 _atom_site_occupancy
  Ca  Ca0  1  0.230431  0.230208  0.000223  1
  Ca  Ca1  1  0.770015  0.769792  0.000223  1
  Al  Al2  1  0.274786  0.391769  0.883015  1
  Al  Al3  1  0.087163  0.924033  0.163131  1
  Al  Al4  1  0.504181  0.200248  0.303935  1
  Al  Al5  1  0.239099  0.075967  0.163131  1
  Al  Al6  1  0.907318  0.415759  0.491559  1
  Al  Al7  1  0.725182  0.598399  0.126782  1
  Al  Al8  1  0.903281  0.209946  0.693336  1
  Al  Al9  1  0.483390  0.790054  0.693336  1
  Al  Al10  1  0.388065  0.000000  0.388065  1
  Al  Al11  1  0.629475  0.000000  0.629475  1
  Al  Al12  1  0.491247  0.608231  0.883015  1
  Al  Al13  1  0.103689  0.799752  0.303935  1
  Al  Al14  1  0.908305  0.087102  0.821203  1
  Al  Al15  1  0.734102  0.912898  0.821203  1
  Al  Al16  1  0.528382  0.401601  0.126782  1
  Al  Al17  1  0.075800  0.584241  0.491559  1
  Tc  Tc18  1  0.787701  0.500000  0.287701  1
  Pt  Pt19  1  0.026414  0.344836  0.681579  1
  Pt  Pt20  1  0.626899  0.123160  0.503739  1
  Pt  Pt21  1  0.253490  0.500000  0.753490  1
  Pt  Pt22  1  0.380578  0.876840  0.503739  1
  Pt  Pt23  1  0.983354  0.000000  0.983354  1
  Pt  Pt24  1  0.645339  0.334883  0.310455  1
  Pt  Pt25  1  0.336742  0.655164  0.681579  1
  Pt  Pt26  1  0.975572  0.665117  0.310455  1
