# generated using pymatgen
data_La6YbRuI12
_symmetry_space_group_name_H-M   'P 1'
_cell_length_a   10.19142139
_cell_length_b   10.19141931
_cell_length_c   10.19141963
_cell_angle_alpha   107.09263331
_cell_angle_beta   107.09263253
_cell_angle_gamma   107.09263646
_symmetry_Int_Tables_number   1
_chemical_formula_structural   La6YbRuI12
_chemical_formula_sum   'La6 Yb1 Ru1 I12'
_cell_volume   879.31866657
_cell_formula_units_Z   1
loop_
 _symmetry_equiv_pos_site_id
 _symmetry_equiv_pos_as_xyz
  1  'x, y, z'
loop_
 _atom_site_type_symbol
 _atom_site_label
 _atom_site_symmetry_multiplicity
 _atom_site_fract_x
 _atom_site_fract_y
 _atom_site_fract_z
 _atom_site_occupancy
  La  La0  1  0.899074  0.694334  0.972721  1
  La  La1  1  0.972721  0.899074  0.694334  1
  La  La2  1  0.694334  0.972721  0.899074  1
  La  La3  1  0.100926  0.305666  0.027279  1
  La  La4  1  0.027279  0.100926  0.305666  1
  La  La5  1  0.305666  0.027279  0.100926  1
  Yb  Yb6  1  0.500000  0.500000  0.500000  1
  Ru  Ru7  1  0.000000  0.000000  0.000000  1
  I  I8  1  0.613004  0.833967  0.535711  1
  I  I9  1  0.535711  0.613004  0.833967  1
  I  I10  1  0.833967  0.535711  0.613004  1
  I  I11  1  0.386996  0.166033  0.464289  1
  I  I12  1  0.464289  0.386996  0.166033  1
  I  I13  1  0.166033  0.464289  0.386996  1
  I  I14  1  0.681339  0.073421  0.227188  1
  I  I15  1  0.227188  0.681339  0.073421  1
  I  I16  1  0.073421  0.227188  0.681339  1
  I  I17  1  0.318661  0.926579  0.772812  1
  I  I18  1  0.772812  0.318661  0.926579  1
  I  I19  1  0.926579  0.772812  0.318661  1
