# generated using pymatgen
data_CaCe2PbCl12
_symmetry_space_group_name_H-M   'P 1'
_cell_length_a   6.71940000
_cell_length_b   6.71939941
_cell_length_c   12.63799600
_cell_angle_alpha   90.00000000
_cell_angle_beta   90.00000000
_cell_angle_gamma   119.99999303
_symmetry_Int_Tables_number   1
_chemical_formula_structural   CaCe2PbCl12
_chemical_formula_sum   'Ca1 Ce2 Pb1 Cl12'
_cell_volume   494.16254840
_cell_formula_units_Z   1
loop_
 _symmetry_equiv_pos_site_id
 _symmetry_equiv_pos_as_xyz
  1  'x, y, z'
loop_
 _atom_site_type_symbol
 _atom_site_label
 _atom_site_symmetry_multiplicity
 _atom_site_fract_x
 _atom_site_fract_y
 _atom_site_fract_z
 _atom_site_occupancy
  Ca  Ca0  1  0.666667  0.333333  0.750000  1
  Ce  Ce1  1  0.000000  0.000000  0.504534  1
  Ce  Ce2  1  0.000000  0.000000  0.995466  1
  Pb  Pb3  1  0.333333  0.666667  0.250000  1
  Cl  Cl4  1  0.677764  0.001114  0.623850  1
  Cl  Cl5  1  0.324233  0.014276  0.381850  1
  Cl  Cl6  1  0.998886  0.676650  0.623850  1
  Cl  Cl7  1  0.677764  0.676650  0.876150  1
  Cl  Cl8  1  0.985724  0.309957  0.381850  1
  Cl  Cl9  1  0.324233  0.309957  0.118150  1
  Cl  Cl10  1  0.323350  0.322236  0.623850  1
  Cl  Cl11  1  0.998886  0.322236  0.876150  1
  Cl  Cl12  1  0.690043  0.675767  0.381850  1
  Cl  Cl13  1  0.985724  0.675767  0.118150  1
  Cl  Cl14  1  0.323350  0.001114  0.876150  1
  Cl  Cl15  1  0.690043  0.014276  0.118150  1
