# generated using pymatgen
data_Pm2(IO4)3
_symmetry_space_group_name_H-M   'P 1'
_cell_length_a   6.86286929
_cell_length_b   6.86286929
_cell_length_c   12.31775096
_cell_angle_alpha   78.98142905
_cell_angle_beta   78.98142761
_cell_angle_gamma   104.83833515
_symmetry_Int_Tables_number   1
_chemical_formula_structural   Pm2(IO4)3
_chemical_formula_sum   'Pm4 I6 O24'
_cell_volume   532.55668425
_cell_formula_units_Z   2
loop_
 _symmetry_equiv_pos_site_id
 _symmetry_equiv_pos_as_xyz
  1  'x, y, z'
loop_
 _atom_site_type_symbol
 _atom_site_label
 _atom_site_symmetry_multiplicity
 _atom_site_fract_x
 _atom_site_fract_y
 _atom_site_fract_z
 _atom_site_occupancy
  Pm  Pm0  1  0.202941  0.429193  0.591602  1
  Pm  Pm1  1  0.797059  0.570807  0.408398  1
  Pm  Pm2  1  0.570807  0.797059  0.908398  1
  Pm  Pm3  1  0.429193  0.202941  0.091602  1
  I  I4  1  0.954841  0.268649  0.968899  1
  I  I5  1  0.045159  0.731351  0.031101  1
  I  I6  1  0.731351  0.045159  0.531101  1
  I  I7  1  0.268649  0.954841  0.468899  1
  I  I8  1  0.577211  0.422789  0.750000  1
  I  I9  1  0.422789  0.577211  0.250000  1
  O  O10  1  0.579011  0.455081  0.593135  1
  O  O11  1  0.420989  0.544919  0.406865  1
  O  O12  1  0.544919  0.420989  0.906865  1
  O  O13  1  0.455081  0.579011  0.093135  1
  O  O14  1  0.577762  0.136488  0.768048  1
  O  O15  1  0.422238  0.863512  0.231952  1
  O  O16  1  0.863512  0.422238  0.731952  1
  O  O17  1  0.136488  0.577762  0.268048  1
  O  O18  1  0.696340  0.062877  0.006315  1
  O  O19  1  0.303660  0.937123  0.993685  1
  O  O20  1  0.937123  0.303660  0.493685  1
  O  O21  1  0.062877  0.696340  0.506315  1
  O  O22  1  0.406463  0.812016  0.559296  1
  O  O23  1  0.593537  0.187984  0.440704  1
  O  O24  1  0.187984  0.593537  0.940704  1
  O  O25  1  0.812016  0.406463  0.059296  1
  O  O26  1  0.285956  0.354094  0.772209  1
  O  O27  1  0.714044  0.645906  0.227791  1
  O  O28  1  0.645906  0.714044  0.727791  1
  O  O29  1  0.354094  0.285956  0.272209  1
  O  O30  1  0.932132  0.842966  0.921280  1
  O  O31  1  0.067868  0.157034  0.078720  1
  O  O32  1  0.157034  0.067868  0.578720  1
  O  O33  1  0.842966  0.932132  0.421280  1
