# generated using pymatgen
data_Er3Sc3As2Os
_symmetry_space_group_name_H-M   'P 1'
_cell_length_a   7.51277100
_cell_length_b   7.51277115
_cell_length_c   4.06373700
_cell_angle_alpha   90.00000000
_cell_angle_beta   90.00000000
_cell_angle_gamma   119.99999494
_symmetry_Int_Tables_number   1
_chemical_formula_structural   Er3Sc3As2Os
_chemical_formula_sum   'Er3 Sc3 As2 Os1'
_cell_volume   198.63535822
_cell_formula_units_Z   1
loop_
 _symmetry_equiv_pos_site_id
 _symmetry_equiv_pos_as_xyz
  1  'x, y, z'
loop_
 _atom_site_type_symbol
 _atom_site_label
 _atom_site_symmetry_multiplicity
 _atom_site_fract_x
 _atom_site_fract_y
 _atom_site_fract_z
 _atom_site_occupancy
  Er  Er0  1  0.594918  0.000000  0.000000  1
  Er  Er1  1  0.000000  0.594918  0.000000  1
  Er  Er2  1  0.405082  0.405082  0.000000  1
  Sc  Sc3  1  0.237811  0.000000  0.500000  1
  Sc  Sc4  1  0.000000  0.237811  0.500000  1
  Sc  Sc5  1  0.762189  0.762189  0.500000  1
  As  As6  1  0.333333  0.666667  0.500000  1
  As  As7  1  0.666667  0.333333  0.500000  1
  Os  Os8  1  0.000000  0.000000  0.000000  1
