# generated using pymatgen
data_SrNd(SiPt2)2
_symmetry_space_group_name_H-M   'P 1'
_cell_length_a   4.20469812
_cell_length_b   4.21425200
_cell_length_c   9.29123482
_cell_angle_alpha   90.00000000
_cell_angle_beta   103.07768289
_cell_angle_gamma   90.00000000
_symmetry_Int_Tables_number   1
_chemical_formula_structural   SrNd(SiPt2)2
_chemical_formula_sum   'Sr1 Nd1 Si2 Pt4'
_cell_volume   160.36748898
_cell_formula_units_Z   1
loop_
 _symmetry_equiv_pos_site_id
 _symmetry_equiv_pos_as_xyz
  1  'x, y, z'
loop_
 _atom_site_type_symbol
 _atom_site_label
 _atom_site_symmetry_multiplicity
 _atom_site_fract_x
 _atom_site_fract_y
 _atom_site_fract_z
 _atom_site_occupancy
  Sr  Sr0  1  0.599696  0.250000  0.199392  1
  Nd  Nd1  1  0.399726  0.750000  0.799453  1
  Si  Si2  1  0.822548  0.250000  0.645094  1
  Si  Si3  1  0.177360  0.750000  0.354721  1
  Pt  Pt4  1  0.952012  0.250000  0.904025  1
  Pt  Pt5  1  0.045851  0.750000  0.091702  1
  Pt  Pt6  1  0.252860  0.250000  0.505720  1
  Pt  Pt7  1  0.749946  0.750000  0.499893  1
