# generated using pymatgen
data_Tb20TcBi8Pt3
_symmetry_space_group_name_H-M   'P 1'
_cell_length_a   8.08960731
_cell_length_b   9.09470200
_cell_length_c   12.50276600
_cell_angle_alpha   90.00001260
_cell_angle_beta   90.17690919
_cell_angle_gamma   89.99998736
_symmetry_Int_Tables_number   1
_chemical_formula_structural   Tb20TcBi8Pt3
_chemical_formula_sum   'Tb20 Tc1 Bi8 Pt3'
_cell_volume   919.85621382
_cell_formula_units_Z   1
loop_
 _symmetry_equiv_pos_site_id
 _symmetry_equiv_pos_as_xyz
  1  'x, y, z'
loop_
 _atom_site_type_symbol
 _atom_site_label
 _atom_site_symmetry_multiplicity
 _atom_site_fract_x
 _atom_site_fract_y
 _atom_site_fract_z
 _atom_site_occupancy
  Tb  Tb0  1  0.834163  0.750001  0.784497  1
  Tb  Tb1  1  0.161261  0.250000  0.210835  1
  Tb  Tb2  1  0.342627  0.250000  0.706766  1
  Tb  Tb3  1  0.654275  0.750000  0.296121  1
  Tb  Tb4  1  0.378072  0.750000  0.696674  1
  Tb  Tb5  1  0.626182  0.249999  0.301079  1
  Tb  Tb6  1  0.872299  0.250000  0.801315  1
  Tb  Tb7  1  0.126758  0.749999  0.197443  1
  Tb  Tb8  1  0.951821  0.750000  0.501134  1
  Tb  Tb9  1  0.048857  0.250000  0.498574  1
  Tb  Tb10  1  0.452356  0.250000  0.001232  1
  Tb  Tb11  1  0.548442  0.750000  0.001016  1
  Tb  Tb12  1  0.678229  0.038206  0.564225  1
  Tb  Tb13  1  0.320782  0.951170  0.436913  1
  Tb  Tb14  1  0.179907  0.956729  0.932100  1
  Tb  Tb15  1  0.320782  0.548830  0.436913  1
  Tb  Tb16  1  0.820661  0.043839  0.066249  1
  Tb  Tb17  1  0.678228  0.461794  0.564225  1
  Tb  Tb18  1  0.820660  0.456162  0.066249  1
  Tb  Tb19  1  0.179907  0.543272  0.932100  1
  Tc  Tc20  1  0.580306  0.750000  0.516461  1
  Bi  Bi21  1  0.571328  0.489514  0.828863  1
  Bi  Bi22  1  0.427913  0.509439  0.173129  1
  Bi  Bi23  1  0.071492  0.508043  0.673745  1
  Bi  Bi24  1  0.427912  0.990561  0.173129  1
  Bi  Bi25  1  0.929594  0.491493  0.326348  1
  Bi  Bi26  1  0.571328  0.010486  0.828864  1
  Bi  Bi27  1  0.929594  0.008507  0.326348  1
  Bi  Bi28  1  0.071491  0.991958  0.673745  1
  Pt  Pt29  1  0.422821  0.249999  0.486290  1
  Pt  Pt30  1  0.071782  0.250000  0.989206  1
  Pt  Pt31  1  0.928170  0.750000  0.008206  1
