# generated using pymatgen
data_Ho9Er3Os3Rh
_symmetry_space_group_name_H-M   'P 1'
_cell_length_a   6.33805548
_cell_length_b   7.32045512
_cell_length_c   9.02449520
_cell_angle_alpha   89.97957809
_cell_angle_beta   89.92274473
_cell_angle_gamma   90.24081215
_symmetry_Int_Tables_number   1
_chemical_formula_structural   Ho9Er3Os3Rh
_chemical_formula_sum   'Ho9 Er3 Os3 Rh1'
_cell_volume   418.70946517
_cell_formula_units_Z   1
loop_
 _symmetry_equiv_pos_site_id
 _symmetry_equiv_pos_as_xyz
  1  'x, y, z'
loop_
 _atom_site_type_symbol
 _atom_site_label
 _atom_site_symmetry_multiplicity
 _atom_site_fract_x
 _atom_site_fract_y
 _atom_site_fract_z
 _atom_site_occupancy
  Ho  Ho0  1  0.826550  0.823447  0.933748  1
  Ho  Ho1  1  0.669807  0.323879  0.936774  1
  Ho  Ho2  1  0.826100  0.823912  0.566217  1
  Ho  Ho3  1  0.333625  0.672288  0.438820  1
  Ho  Ho4  1  0.170254  0.178178  0.062084  1
  Ho  Ho5  1  0.870993  0.539240  0.250040  1
  Ho  Ho6  1  0.629636  0.039769  0.250414  1
  Ho  Ho7  1  0.128456  0.461840  0.749855  1
  Ho  Ho8  1  0.368359  0.962123  0.749998  1
  Er  Er9  1  0.333741  0.672212  0.061325  1
  Er  Er10  1  0.170300  0.177318  0.438679  1
  Er  Er11  1  0.669810  0.324591  0.562913  1
  Os  Os12  1  0.462017  0.383495  0.250595  1
  Os  Os13  1  0.961462  0.115930  0.749111  1
  Os  Os14  1  0.536270  0.616467  0.750374  1
  Rh  Rh15  1  0.042621  0.885314  0.249054  1
