# generated using pymatgen
data_Tm5Zr(Si3Ru)8
_symmetry_space_group_name_H-M   'P 1'
_cell_length_a   10.05979870
_cell_length_b   10.05979877
_cell_length_c   8.10346682
_cell_angle_alpha   89.98484429
_cell_angle_beta   89.98483754
_cell_angle_gamma   132.54592017
_symmetry_Int_Tables_number   1
_chemical_formula_structural   Tm5Zr(Si3Ru)8
_chemical_formula_sum   'Tm5 Zr1 Si24 Ru8'
_cell_volume   604.17260570
_cell_formula_units_Z   1
loop_
 _symmetry_equiv_pos_site_id
 _symmetry_equiv_pos_as_xyz
  1  'x, y, z'
loop_
 _atom_site_type_symbol
 _atom_site_label
 _atom_site_symmetry_multiplicity
 _atom_site_fract_x
 _atom_site_fract_y
 _atom_site_fract_z
 _atom_site_occupancy
  Tm  Tm0  1  0.500000  0.500000  0.500000  1
  Tm  Tm1  1  0.502210  0.002459  0.749904  1
  Tm  Tm2  1  0.997541  0.497790  0.250096  1
  Tm  Tm3  1  0.497790  0.997541  0.250096  1
  Tm  Tm4  1  0.002459  0.502210  0.749904  1
  Zr  Zr5  1  0.000000  0.000000  0.000000  1
  Si  Si6  1  0.794774  0.205226  0.500000  1
  Si  Si7  1  0.294602  0.705398  0.000000  1
  Si  Si8  1  0.205226  0.794774  0.500000  1
  Si  Si9  1  0.705398  0.294602  0.000000  1
  Si  Si10  1  0.331215  0.331215  0.833248  1
  Si  Si11  1  0.668785  0.668785  0.166752  1
  Si  Si12  1  0.165967  0.165967  0.331134  1
  Si  Si13  1  0.834033  0.834033  0.668866  1
  Si  Si14  1  0.121472  0.887912  0.729377  1
  Si  Si15  1  0.112088  0.878528  0.270623  1
  Si  Si16  1  0.612525  0.377891  0.228721  1
  Si  Si17  1  0.622109  0.387475  0.771279  1
  Si  Si18  1  0.878528  0.112088  0.270623  1
  Si  Si19  1  0.887912  0.121472  0.729377  1
  Si  Si20  1  0.387475  0.622109  0.771279  1
  Si  Si21  1  0.377891  0.612525  0.228721  1
  Si  Si22  1  0.345921  0.111511  0.505205  1
  Si  Si23  1  0.888489  0.654079  0.494795  1
  Si  Si24  1  0.387106  0.153938  0.005230  1
  Si  Si25  1  0.846062  0.612894  0.994770  1
  Si  Si26  1  0.654079  0.888489  0.494795  1
  Si  Si27  1  0.111511  0.345921  0.505205  1
  Si  Si28  1  0.612894  0.846062  0.994770  1
  Si  Si29  1  0.153938  0.387106  0.005230  1
  Ru  Ru30  1  0.669150  0.330850  0.500000  1
  Ru  Ru31  1  0.168221  0.831779  0.000000  1
  Ru  Ru32  1  0.330850  0.669150  0.500000  1
  Ru  Ru33  1  0.831779  0.168221  0.000000  1
  Ru  Ru34  1  0.127979  0.127979  0.627137  1
  Ru  Ru35  1  0.872021  0.872021  0.372863  1
  Ru  Ru36  1  0.371810  0.371810  0.128250  1
  Ru  Ru37  1  0.628190  0.628190  0.871750  1
