# generated using pymatgen
data_Ca3In(Ga4Ag)2
_symmetry_space_group_name_H-M   'P 1'
_cell_length_a   4.47349140
_cell_length_b   8.49675240
_cell_length_c   8.49675235
_cell_angle_alpha   70.98420794
_cell_angle_beta   74.73716147
_cell_angle_gamma   74.73716917
_symmetry_Int_Tables_number   1
_chemical_formula_structural   Ca3In(Ga4Ag)2
_chemical_formula_sum   'Ca3 In1 Ga8 Ag2'
_cell_volume   288.93832848
_cell_formula_units_Z   1
loop_
 _symmetry_equiv_pos_site_id
 _symmetry_equiv_pos_as_xyz
  1  'x, y, z'
loop_
 _atom_site_type_symbol
 _atom_site_label
 _atom_site_symmetry_multiplicity
 _atom_site_fract_x
 _atom_site_fract_y
 _atom_site_fract_z
 _atom_site_occupancy
  Ca  Ca0  1  0.500000  0.500000  0.500000  1
  Ca  Ca1  1  0.199754  0.800246  0.800246  1
  Ca  Ca2  1  0.800246  0.199754  0.199754  1
  In  In3  1  0.500000  0.000000  0.000000  1
  Ga  Ga4  1  0.351210  0.374852  0.922727  1
  Ga  Ga5  1  0.648790  0.625148  0.077273  1
  Ga  Ga6  1  0.351210  0.922727  0.374852  1
  Ga  Ga7  1  0.648790  0.077273  0.625148  1
  Ga  Ga8  1  0.160490  0.470056  0.208965  1
  Ga  Ga9  1  0.839510  0.529944  0.791035  1
  Ga  Ga10  1  0.160490  0.208965  0.470056  1
  Ga  Ga11  1  0.839510  0.791035  0.529944  1
  Ag  Ag12  1  0.000000  0.802823  0.197177  1
  Ag  Ag13  1  0.000000  0.197177  0.802823  1
