# generated using pymatgen
data_Yb10Si5Ge
_symmetry_space_group_name_H-M   'P 1'
_cell_length_a   9.10094349
_cell_length_b   9.10094401
_cell_length_c   9.10094367
_cell_angle_alpha   130.91552860
_cell_angle_beta   130.91553448
_cell_angle_gamma   71.94731275
_symmetry_Int_Tables_number   1
_chemical_formula_structural   Yb10Si5Ge
_chemical_formula_sum   'Yb10 Si5 Ge1'
_cell_volume   420.99738455
_cell_formula_units_Z   1
loop_
 _symmetry_equiv_pos_site_id
 _symmetry_equiv_pos_as_xyz
  1  'x, y, z'
loop_
 _atom_site_type_symbol
 _atom_site_label
 _atom_site_symmetry_multiplicity
 _atom_site_fract_x
 _atom_site_fract_y
 _atom_site_fract_z
 _atom_site_occupancy
  Yb  Yb0  1  0.999865  0.999865  0.000000  1
  Yb  Yb1  1  0.500135  0.500135  0.000000  1
  Yb  Yb2  1  0.178996  0.679102  0.142686  1
  Yb  Yb3  1  0.463689  0.963582  0.142686  1
  Yb  Yb4  1  0.036311  0.178996  0.499894  1
  Yb  Yb5  1  0.321004  0.463689  0.500106  1
  Yb  Yb6  1  0.679102  0.536418  0.500106  1
  Yb  Yb7  1  0.963582  0.820898  0.499894  1
  Yb  Yb8  1  0.536418  0.036311  0.857315  1
  Yb  Yb9  1  0.820898  0.321004  0.857315  1
  Si  Si10  1  0.750000  0.750000  0.000000  1
  Si  Si11  1  0.887088  0.387088  0.274176  1
  Si  Si12  1  0.387088  0.112912  0.500000  1
  Si  Si13  1  0.612912  0.887088  0.500000  1
  Si  Si14  1  0.112912  0.612912  0.725824  1
  Ge  Ge15  1  0.250000  0.250000  0.000000  1
