# generated using pymatgen
data_TiP2WO10
_symmetry_space_group_name_H-M   'P 1'
_cell_length_a   11.26458126
_cell_length_b   6.63929500
_cell_length_c   5.28715286
_cell_angle_alpha   90.00000000
_cell_angle_beta   89.84500022
_cell_angle_gamma   90.00000000
_symmetry_Int_Tables_number   1
_chemical_formula_structural   TiP2WO10
_chemical_formula_sum   'Ti2 P4 W2 O20'
_cell_volume   395.41878332
_cell_formula_units_Z   2
loop_
 _symmetry_equiv_pos_site_id
 _symmetry_equiv_pos_as_xyz
  1  'x, y, z'
loop_
 _atom_site_type_symbol
 _atom_site_label
 _atom_site_symmetry_multiplicity
 _atom_site_fract_x
 _atom_site_fract_y
 _atom_site_fract_z
 _atom_site_occupancy
  Ti  Ti0  1  0.065610  0.676380  0.493616  1
  Ti  Ti1  1  0.565610  0.823622  0.493616  1
  P  P2  1  0.844599  0.023773  0.485293  1
  P  P3  1  0.344599  0.476227  0.485293  1
  P  P4  1  0.653491  0.532403  0.979972  1
  P  P5  1  0.153491  0.967596  0.979972  1
  W  W6  1  0.440144  0.162165  0.998222  1
  W  W7  1  0.940145  0.337835  0.998222  1
  O  O8  1  0.286283  0.025342  0.005259  1
  O  O9  1  0.786282  0.474658  0.005259  1
  O  O10  1  0.619152  0.673231  0.194677  1
  O  O11  1  0.119152  0.826769  0.194677  1
  O  O12  1  0.866605  0.125507  0.225434  1
  O  O13  1  0.366605  0.374493  0.225434  1
  O  O14  1  0.491673  0.025623  0.275649  1
  O  O15  1  0.991673  0.474377  0.275649  1
  O  O16  1  0.417951  0.670783  0.499089  1
  O  O17  1  0.917952  0.829217  0.499089  1
  O  O18  1  0.211422  0.523522  0.504214  1
  O  O19  1  0.711422  0.976477  0.504214  1
  O  O20  1  0.879517  0.167987  0.703160  1
  O  O21  1  0.379517  0.332013  0.703160  1
  O  O22  1  0.635070  0.625544  0.720079  1
  O  O23  1  0.135071  0.874456  0.720079  1
  O  O24  1  0.004699  0.517111  0.774597  1
  O  O25  1  0.504699  0.982889  0.774597  1
  O  O26  1  0.083784  0.168899  0.996737  1
  O  O27  1  0.583784  0.331101  0.996737  1
