# generated using pymatgen
data_Tb2PrDy(WO6)2
_symmetry_space_group_name_H-M   'P 1'
_cell_length_a   5.47213800
_cell_length_b   7.80331879
_cell_length_c   11.59406178
_cell_angle_alpha   75.65215171
_cell_angle_beta   90.00000000
_cell_angle_gamma   90.00000000
_symmetry_Int_Tables_number   1
_chemical_formula_structural   Tb2PrDy(WO6)2
_chemical_formula_sum   'Tb4 Pr2 Dy2 W4 O24'
_cell_volume   479.63428546
_cell_formula_units_Z   2
loop_
 _symmetry_equiv_pos_site_id
 _symmetry_equiv_pos_as_xyz
  1  'x, y, z'
loop_
 _atom_site_type_symbol
 _atom_site_label
 _atom_site_symmetry_multiplicity
 _atom_site_fract_x
 _atom_site_fract_y
 _atom_site_fract_z
 _atom_site_occupancy
  Tb  Tb0  1  0.740860  0.000294  0.750076  1
  Tb  Tb1  1  0.259140  0.000294  0.250076  1
  Tb  Tb2  1  0.187018  0.797569  0.576404  1
  Tb  Tb3  1  0.812982  0.797569  0.076404  1
  Pr  Pr4  1  0.684955  0.499644  0.750205  1
  Pr  Pr5  1  0.315045  0.499644  0.250205  1
  Dy  Dy6  1  0.187005  0.202913  0.923223  1
  Dy  Dy7  1  0.812995  0.202913  0.423223  1
  W  W8  1  0.252926  0.727496  0.884393  1
  W  W9  1  0.747074  0.727496  0.384393  1
  W  W10  1  0.252781  0.272214  0.615530  1
  W  W11  1  0.747219  0.272214  0.115530  1
  O  O12  1  0.043075  0.941132  0.895975  1
  O  O13  1  0.530150  0.846765  0.930470  1
  O  O14  1  0.956925  0.941132  0.395975  1
  O  O15  1  0.454892  0.793498  0.728167  1
  O  O16  1  0.469850  0.846765  0.430470  1
  O  O17  1  0.985982  0.719176  0.770501  1
  O  O18  1  0.545108  0.793498  0.228167  1
  O  O19  1  0.853592  0.641473  0.545082  1
  O  O20  1  0.348032  0.493867  0.887391  1
  O  O21  1  0.014018  0.719176  0.270501  1
  O  O22  1  0.348674  0.505425  0.612379  1
  O  O23  1  0.854838  0.358072  0.954910  1
  O  O24  1  0.146408  0.641473  0.045082  1
  O  O25  1  0.651968  0.493867  0.387391  1
  O  O26  1  0.986689  0.280951  0.730150  1
  O  O27  1  0.651326  0.505425  0.112379  1
  O  O28  1  0.145162  0.358072  0.454910  1
  O  O29  1  0.454168  0.205902  0.772214  1
  O  O30  1  0.013311  0.280951  0.230150  1
  O  O31  1  0.530643  0.153736  0.569143  1
  O  O32  1  0.545832  0.205902  0.272214  1
  O  O33  1  0.041529  0.059874  0.603788  1
  O  O34  1  0.469357  0.153736  0.069143  1
  O  O35  1  0.958471  0.059874  0.103788  1
