# generated using pymatgen
data_DyHo7Si12Ir3Rh
_symmetry_space_group_name_H-M   'P 1'
_cell_length_a   8.16374000
_cell_length_b   8.16372348
_cell_length_c   7.89005700
_cell_angle_alpha   90.00007017
_cell_angle_beta   89.99998572
_cell_angle_gamma   120.00009016
_symmetry_Int_Tables_number   1
_chemical_formula_structural   DyHo7Si12Ir3Rh
_chemical_formula_sum   'Dy1 Ho7 Si12 Ir3 Rh1'
_cell_volume   455.39454973
_cell_formula_units_Z   1
loop_
 _symmetry_equiv_pos_site_id
 _symmetry_equiv_pos_as_xyz
  1  'x, y, z'
loop_
 _atom_site_type_symbol
 _atom_site_label
 _atom_site_symmetry_multiplicity
 _atom_site_fract_x
 _atom_site_fract_y
 _atom_site_fract_z
 _atom_site_occupancy
  Dy  Dy0  1  0.000000  0.000000  0.248927  1
  Ho  Ho1  1  0.000000  0.000001  0.750351  1
  Ho  Ho2  1  0.509842  0.490158  0.250152  1
  Ho  Ho3  1  0.509842  0.019685  0.250152  1
  Ho  Ho4  1  0.980316  0.490158  0.250153  1
  Ho  Ho5  1  0.490708  0.509292  0.749861  1
  Ho  Ho6  1  0.490708  0.981415  0.749861  1
  Ho  Ho7  1  0.018584  0.509293  0.749861  1
  Si  Si8  1  0.166791  0.833209  0.498954  1
  Si  Si9  1  0.166791  0.333582  0.498954  1
  Si  Si10  1  0.666418  0.833209  0.498954  1
  Si  Si11  1  0.833274  0.166725  0.500760  1
  Si  Si12  1  0.833274  0.666548  0.500760  1
  Si  Si13  1  0.333452  0.166725  0.500760  1
  Si  Si14  1  0.833368  0.166631  0.999289  1
  Si  Si15  1  0.833368  0.666737  0.999289  1
  Si  Si16  1  0.333263  0.166632  0.999289  1
  Si  Si17  1  0.167237  0.832763  0.999936  1
  Si  Si18  1  0.167238  0.334475  0.999936  1
  Si  Si19  1  0.665525  0.832763  0.999936  1
  Ir  Ir20  1  0.333334  0.666668  0.468272  1
  Ir  Ir21  1  0.666666  0.333333  0.533650  1
  Ir  Ir22  1  0.666666  0.333333  0.965159  1
  Rh  Rh23  1  0.333333  0.666667  0.036785  1
