# generated using pymatgen
data_Tb5Y6Lu5(ZnCo)4
_symmetry_space_group_name_H-M   'P 1'
_cell_length_a   9.26786393
_cell_length_b   9.26699608
_cell_length_c   9.26699800
_cell_angle_alpha   59.94824859
_cell_angle_beta   59.99690157
_cell_angle_gamma   59.99690087
_symmetry_Int_Tables_number   1
_chemical_formula_structural   Tb5Y6Lu5(ZnCo)4
_chemical_formula_sum   'Tb5 Y6 Lu5 Zn4 Co4'
_cell_volume   562.53846952
_cell_formula_units_Z   1
loop_
 _symmetry_equiv_pos_site_id
 _symmetry_equiv_pos_as_xyz
  1  'x, y, z'
loop_
 _atom_site_type_symbol
 _atom_site_label
 _atom_site_symmetry_multiplicity
 _atom_site_fract_x
 _atom_site_fract_y
 _atom_site_fract_z
 _atom_site_occupancy
  Tb  Tb0  1  0.598359  0.602282  0.602282  1
  Tb  Tb1  1  0.601316  0.602336  0.195033  1
  Tb  Tb2  1  0.601316  0.195033  0.602336  1
  Tb  Tb3  1  0.197077  0.602282  0.602282  1
  Tb  Tb4  1  0.062278  0.437722  0.437722  1
  Y  Y5  1  0.187548  0.812452  0.812452  1
  Y  Y6  1  0.810697  0.189303  0.189303  1
  Y  Y7  1  0.810484  0.188066  0.812119  1
  Y  Y8  1  0.189332  0.812119  0.188066  1
  Y  Y9  1  0.810484  0.812119  0.188066  1
  Y  Y10  1  0.189332  0.188066  0.812119  1
  Lu  Lu11  1  0.437548  0.062452  0.062452  1
  Lu  Lu12  1  0.440068  0.060278  0.437346  1
  Lu  Lu13  1  0.062308  0.437346  0.060278  1
  Lu  Lu14  1  0.440068  0.437346  0.060278  1
  Lu  Lu15  1  0.062308  0.060278  0.437346  1
  Zn  Zn16  1  0.828010  0.827346  0.827346  1
  Zn  Zn17  1  0.827296  0.828178  0.517227  1
  Zn  Zn18  1  0.827296  0.517227  0.828178  1
  Zn  Zn19  1  0.517298  0.827346  0.827346  1
  Co  Co20  1  0.392038  0.390898  0.390898  1
  Co  Co21  1  0.390687  0.390863  0.827765  1
  Co  Co22  1  0.390687  0.827765  0.390863  1
  Co  Co23  1  0.826165  0.390898  0.390898  1
