# generated using pymatgen
data_Y17(ErRu2)7
_symmetry_space_group_name_H-M   'P 1'
_cell_length_a   11.33692128
_cell_length_b   8.39697793
_cell_length_c   11.25081077
_cell_angle_alpha   56.28648232
_cell_angle_beta   90.25102463
_cell_angle_gamma   90.20718539
_symmetry_Int_Tables_number   1
_chemical_formula_structural   Y17(ErRu2)7
_chemical_formula_sum   'Y17 Er7 Ru14'
_cell_volume   890.89881491
_cell_formula_units_Z   1
loop_
 _symmetry_equiv_pos_site_id
 _symmetry_equiv_pos_as_xyz
  1  'x, y, z'
loop_
 _atom_site_type_symbol
 _atom_site_label
 _atom_site_symmetry_multiplicity
 _atom_site_fract_x
 _atom_site_fract_y
 _atom_site_fract_z
 _atom_site_occupancy
  Y  Y0  1  0.705676  0.242164  0.532737  1
  Y  Y1  1  0.205960  0.756866  0.967866  1
  Y  Y2  1  0.843861  0.508824  0.655799  1
  Y  Y3  1  0.344447  0.491548  0.844679  1
  Y  Y4  1  0.155258  0.491486  0.343476  1
  Y  Y5  1  0.656323  0.508353  0.156469  1
  Y  Y6  1  0.004990  0.855437  0.358001  1
  Y  Y7  1  0.505472  0.144709  0.141803  1
  Y  Y8  1  0.993776  0.145283  0.641134  1
  Y  Y9  1  0.495368  0.854171  0.859716  1
  Y  Y10  1  0.794162  0.242110  0.032880  1
  Y  Y11  1  0.293966  0.757827  0.467260  1
  Y  Y12  1  0.930855  0.778189  0.087701  1
  Y  Y13  1  0.431056  0.222072  0.410872  1
  Y  Y14  1  0.068721  0.222856  0.911464  1
  Y  Y15  1  0.569154  0.777771  0.588601  1
  Y  Y16  1  0.301379  0.240315  0.676045  1
  Er  Er17  1  0.801897  0.758893  0.823130  1
  Er  Er18  1  0.698682  0.759380  0.323176  1
  Er  Er19  1  0.198341  0.240481  0.177158  1
  Er  Er20  1  0.926684  0.281842  0.293500  1
  Er  Er21  1  0.426745  0.717197  0.207302  1
  Er  Er22  1  0.073667  0.718507  0.706315  1
  Er  Er23  1  0.573941  0.282353  0.793568  1
  Ru  Ru24  1  0.501824  0.501397  0.499380  1
  Ru  Ru25  1  0.000414  0.499714  0.000101  1
  Ru  Ru26  1  0.644607  0.926540  0.034577  1
  Ru  Ru27  1  0.144251  0.072803  0.466344  1
  Ru  Ru28  1  0.355065  0.072759  0.967908  1
  Ru  Ru29  1  0.855542  0.926176  0.533588  1
  Ru  Ru30  1  0.396566  0.483849  0.104649  1
  Ru  Ru31  1  0.896232  0.516873  0.394923  1
  Ru  Ru32  1  0.603423  0.515764  0.895790  1
  Ru  Ru33  1  0.101067  0.486113  0.603191  1
  Ru  Ru34  1  0.813415  0.095721  0.848968  1
  Ru  Ru35  1  0.315289  0.903580  0.649741  1
  Ru  Ru36  1  0.185669  0.905405  0.150108  1
  Ru  Ru37  1  0.686253  0.094674  0.350079  1
