# generated using pymatgen
data_Dy3Er2Mg3(P3Ir4)4
_symmetry_space_group_name_H-M   'P 1'
_cell_length_a   12.79917400
_cell_length_b   12.80150556
_cell_length_c   3.97741900
_cell_angle_alpha   90.00000000
_cell_angle_beta   90.00000000
_cell_angle_gamma   119.99397532
_symmetry_Int_Tables_number   1
_chemical_formula_structural   Dy3Er2Mg3(P3Ir4)4
_chemical_formula_sum   'Dy3 Er2 Mg3 P12 Ir16'
_cell_volume   564.41861693
_cell_formula_units_Z   1
loop_
 _symmetry_equiv_pos_site_id
 _symmetry_equiv_pos_as_xyz
  1  'x, y, z'
loop_
 _atom_site_type_symbol
 _atom_site_label
 _atom_site_symmetry_multiplicity
 _atom_site_fract_x
 _atom_site_fract_y
 _atom_site_fract_z
 _atom_site_occupancy
  Dy  Dy0  1  0.333355  0.666674  0.500000  1
  Dy  Dy1  1  0.666682  0.333326  0.500000  1
  Dy  Dy2  1  0.809319  0.000000  0.000000  1
  Er  Er3  1  0.999890  0.809275  0.000000  1
  Er  Er4  1  0.190615  0.190725  0.000000  1
  Mg  Mg5  1  0.999954  0.444615  0.500000  1
  Mg  Mg6  1  0.555339  0.555385  0.500000  1
  Mg  Mg7  1  0.444528  0.000000  0.500000  1
  P  P8  1  0.999994  0.641343  0.500000  1
  P  P9  1  0.358650  0.358657  0.500000  1
  P  P10  1  0.641074  0.000000  0.500000  1
  P  P11  1  0.516451  0.688553  0.000000  1
  P  P12  1  0.311347  0.827747  0.000000  1
  P  P13  1  0.172235  0.483723  0.000000  1
  P  P14  1  0.483600  0.172253  0.000000  1
  P  P15  1  0.688511  0.516277  0.000000  1
  P  P16  1  0.827898  0.311447  0.000000  1
  P  P17  1  0.000288  0.176977  0.500000  1
  P  P18  1  0.823311  0.823023  0.500000  1
  P  P19  1  0.176978  0.000000  0.500000  1
  Ir  Ir20  1  0.508587  0.868212  0.000000  1
  Ir  Ir21  1  0.131785  0.640534  0.000000  1
  Ir  Ir22  1  0.359548  0.491390  0.000000  1
  Ir  Ir23  1  0.491253  0.359466  0.000000  1
  Ir  Ir24  1  0.868160  0.508610  0.000000  1
  Ir  Ir25  1  0.640376  0.131788  0.000000  1
  Ir  Ir26  1  0.000361  0.278872  0.000000  1
  Ir  Ir27  1  0.721489  0.721128  0.000000  1
  Ir  Ir28  1  0.278632  0.000000  0.000000  1
  Ir  Ir29  1  0.627781  0.806181  0.500000  1
  Ir  Ir30  1  0.192549  0.821401  0.500000  1
  Ir  Ir31  1  0.178739  0.371267  0.500000  1
  Ir  Ir32  1  0.371147  0.178599  0.500000  1
  Ir  Ir33  1  0.807473  0.628733  0.500000  1
  Ir  Ir34  1  0.821600  0.193819  0.500000  1
  Ir  Ir35  1  0.000503  0.000000  0.500000  1
