# generated using pymatgen
data_Gd8InHg3Au8
_symmetry_space_group_name_H-M   'P 1'
_cell_length_a   8.14093300
_cell_length_b   8.14093300
_cell_length_c   7.51818900
_cell_angle_alpha   90.00000000
_cell_angle_beta   90.00000000
_cell_angle_gamma   90.00000000
_symmetry_Int_Tables_number   1
_chemical_formula_structural   Gd8InHg3Au8
_chemical_formula_sum   'Gd8 In1 Hg3 Au8'
_cell_volume   498.26639799
_cell_formula_units_Z   1
loop_
 _symmetry_equiv_pos_site_id
 _symmetry_equiv_pos_as_xyz
  1  'x, y, z'
loop_
 _atom_site_type_symbol
 _atom_site_label
 _atom_site_symmetry_multiplicity
 _atom_site_fract_x
 _atom_site_fract_y
 _atom_site_fract_z
 _atom_site_occupancy
  Gd  Gd0  1  0.822105  0.170215  0.499496  1
  Gd  Gd1  1  0.177895  0.829785  0.499496  1
  Gd  Gd2  1  0.329785  0.322105  0.000504  1
  Gd  Gd3  1  0.670215  0.677895  0.000504  1
  Gd  Gd4  1  0.667521  0.676028  0.499453  1
  Gd  Gd5  1  0.332479  0.323972  0.499453  1
  Gd  Gd6  1  0.176028  0.832479  0.000547  1
  Gd  Gd7  1  0.823972  0.167521  0.000547  1
  In  In8  1  0.000000  0.500000  0.250000  1
  Hg  Hg9  1  0.500000  0.000000  0.250000  1
  Hg  Hg10  1  0.000000  0.500000  0.750000  1
  Hg  Hg11  1  0.500000  0.000000  0.750000  1
  Au  Au12  1  0.631048  0.378522  0.247750  1
  Au  Au13  1  0.368952  0.621478  0.247750  1
  Au  Au14  1  0.124170  0.127894  0.747634  1
  Au  Au15  1  0.875830  0.872106  0.747634  1
  Au  Au16  1  0.372106  0.624170  0.752366  1
  Au  Au17  1  0.627894  0.375830  0.752366  1
  Au  Au18  1  0.878522  0.868952  0.252250  1
  Au  Au19  1  0.121478  0.131048  0.252250  1
