# generated using pymatgen
data_Ba6CaTb(BO3)6
_symmetry_space_group_name_H-M   'P 1'
_cell_length_a   8.23673132
_cell_length_b   8.23673165
_cell_length_c   8.23673101
_cell_angle_alpha   105.58955421
_cell_angle_beta   105.58954331
_cell_angle_gamma   105.58953590
_symmetry_Int_Tables_number   1
_chemical_formula_structural   Ba6CaTb(BO3)6
_chemical_formula_sum   'Ba6 Ca1 Tb1 B6 O18'
_cell_volume   482.16998394
_cell_formula_units_Z   1
loop_
 _symmetry_equiv_pos_site_id
 _symmetry_equiv_pos_as_xyz
  1  'x, y, z'
loop_
 _atom_site_type_symbol
 _atom_site_label
 _atom_site_symmetry_multiplicity
 _atom_site_fract_x
 _atom_site_fract_y
 _atom_site_fract_z
 _atom_site_occupancy
  Ba  Ba0  1  0.352470  0.730216  0.837102  1
  Ba  Ba1  1  0.837102  0.352470  0.730216  1
  Ba  Ba2  1  0.730216  0.837102  0.352470  1
  Ba  Ba3  1  0.647530  0.269784  0.162898  1
  Ba  Ba4  1  0.162898  0.647530  0.269784  1
  Ba  Ba5  1  0.269784  0.162898  0.647530  1
  Ca  Ca6  1  0.500000  0.500000  0.500000  1
  Tb  Tb7  1  0.000000  0.000000  0.000000  1
  B  B8  1  0.709337  0.621741  0.958669  1
  B  B9  1  0.958669  0.709337  0.621741  1
  B  B10  1  0.621741  0.958669  0.709337  1
  B  B11  1  0.041331  0.290663  0.378259  1
  B  B12  1  0.378259  0.041331  0.290663  1
  B  B13  1  0.290663  0.378259  0.041331  1
  O  O14  1  0.065401  0.810216  0.552686  1
  O  O15  1  0.552686  0.065401  0.810216  1
  O  O16  1  0.430344  0.494307  0.203948  1
  O  O17  1  0.494307  0.203948  0.430344  1
  O  O18  1  0.203948  0.430344  0.494307  1
  O  O19  1  0.796052  0.569656  0.505693  1
  O  O20  1  0.569656  0.505693  0.796052  1
  O  O21  1  0.505693  0.796052  0.569656  1
  O  O22  1  0.255354  0.191859  0.983198  1
  O  O23  1  0.191859  0.983198  0.255354  1
  O  O24  1  0.983198  0.255354  0.191859  1
  O  O25  1  0.744646  0.808141  0.016802  1
  O  O26  1  0.808141  0.016802  0.744646  1
  O  O27  1  0.016802  0.744646  0.808141  1
  O  O28  1  0.189784  0.447314  0.934599  1
  O  O29  1  0.447314  0.934599  0.189784  1
  O  O30  1  0.934599  0.189784  0.447314  1
  O  O31  1  0.810216  0.552686  0.065401  1
