# generated using pymatgen
data_CeTh3(ReB2)6
_symmetry_space_group_name_H-M   'P 1'
_cell_length_a   6.35573690
_cell_length_b   6.33683472
_cell_length_c   7.60409940
_cell_angle_alpha   90.76810502
_cell_angle_beta   90.77194714
_cell_angle_gamma   115.00709704
_symmetry_Int_Tables_number   1
_chemical_formula_structural   CeTh3(ReB2)6
_chemical_formula_sum   'Ce1 Th3 Re6 B12'
_cell_volume   277.46025373
_cell_formula_units_Z   1
loop_
 _symmetry_equiv_pos_site_id
 _symmetry_equiv_pos_as_xyz
  1  'x, y, z'
loop_
 _atom_site_type_symbol
 _atom_site_label
 _atom_site_symmetry_multiplicity
 _atom_site_fract_x
 _atom_site_fract_y
 _atom_site_fract_z
 _atom_site_occupancy
  Ce  Ce0  1  0.443779  0.098870  0.827174  1
  Th  Th1  1  0.096238  0.441033  0.326793  1
  Th  Th2  1  0.556888  0.906411  0.169575  1
  Th  Th3  1  0.903294  0.558085  0.674360  1
  Re  Re4  1  0.589232  0.411561  0.250133  1
  Re  Re5  1  0.410939  0.589452  0.750334  1
  Re  Re6  1  0.991848  0.805689  0.086096  1
  Re  Re7  1  0.193364  0.007650  0.413502  1
  Re  Re8  1  0.009404  0.193371  0.913632  1
  Re  Re9  1  0.805550  0.992627  0.586852  1
  B  B10  1  0.248189  0.153717  0.132839  1
  B  B11  1  0.845387  0.753627  0.365306  1
  B  B12  1  0.753113  0.845718  0.864458  1
  B  B13  1  0.155468  0.245606  0.635910  1
  B  B14  1  0.582336  0.160446  0.483412  1
  B  B15  1  0.838174  0.413884  0.018340  1
  B  B16  1  0.416164  0.840155  0.519780  1
  B  B17  1  0.161187  0.584168  0.981231  1
  B  B18  1  0.443853  0.349147  0.536039  1
  B  B19  1  0.649655  0.554305  0.965092  1
  B  B20  1  0.555530  0.650742  0.465317  1
  B  B21  1  0.350409  0.443737  0.033825  1
