# generated using pymatgen
data_Pr2NdY(Mo2O7)2
_symmetry_space_group_name_H-M   'P 1'
_cell_length_a   7.50229869
_cell_length_b   7.51062578
_cell_length_c   7.49123694
_cell_angle_alpha   120.05163748
_cell_angle_beta   119.75183347
_cell_angle_gamma   90.11954862
_symmetry_Int_Tables_number   1
_chemical_formula_structural   Pr2NdY(Mo2O7)2
_chemical_formula_sum   'Pr2 Nd1 Y1 Mo4 O14'
_cell_volume   299.04804068
_cell_formula_units_Z   1
loop_
 _symmetry_equiv_pos_site_id
 _symmetry_equiv_pos_as_xyz
  1  'x, y, z'
loop_
 _atom_site_type_symbol
 _atom_site_label
 _atom_site_symmetry_multiplicity
 _atom_site_fract_x
 _atom_site_fract_y
 _atom_site_fract_z
 _atom_site_occupancy
  Pr  Pr0  1  0.375000  0.625000  0.750000  1
  Pr  Pr1  1  0.875000  0.625000  0.250000  1
  Nd  Nd2  1  0.375000  0.125000  0.750000  1
  Y  Y3  1  0.375000  0.625000  0.250000  1
  Mo  Mo4  1  0.875000  0.625000  0.750000  1
  Mo  Mo5  1  0.375000  0.125000  0.250000  1
  Mo  Mo6  1  0.875000  0.125000  0.250000  1
  Mo  Mo7  1  0.875000  0.125000  0.750000  1
  O  O8  1  0.782242  0.200997  0.996765  1
  O  O9  1  0.544535  0.465316  0.492061  1
  O  O10  1  0.208882  0.210979  0.002364  1
  O  O11  1  0.958280  0.458721  0.500727  1
  O  O12  1  0.796024  0.796370  0.582409  1
  O  O13  1  0.535759  0.034019  0.081179  1
  O  O14  1  0.254915  0.747511  0.492068  1
  O  O15  1  0.953976  0.453630  0.917591  1
  O  O16  1  0.967758  0.049003  0.503235  1
  O  O17  1  0.541118  0.039021  0.497636  1
  O  O18  1  0.214241  0.215981  0.418821  1
  O  O19  1  0.495085  0.502489  0.007932  1
  O  O20  1  0.791720  0.791279  0.999273  1
  O  O21  1  0.205465  0.784684  0.007939  1
