# generated using pymatgen
data_Dy3Tm3ReSb2
_symmetry_space_group_name_H-M   'P 1'
_cell_length_a   8.08379800
_cell_length_b   8.08379886
_cell_length_c   4.29204500
_cell_angle_alpha   90.00000000
_cell_angle_beta   90.00000000
_cell_angle_gamma   119.99998829
_symmetry_Int_Tables_number   1
_chemical_formula_structural   Dy3Tm3ReSb2
_chemical_formula_sum   'Dy3 Tm3 Re1 Sb2'
_cell_volume   242.89909762
_cell_formula_units_Z   1
loop_
 _symmetry_equiv_pos_site_id
 _symmetry_equiv_pos_as_xyz
  1  'x, y, z'
loop_
 _atom_site_type_symbol
 _atom_site_label
 _atom_site_symmetry_multiplicity
 _atom_site_fract_x
 _atom_site_fract_y
 _atom_site_fract_z
 _atom_site_occupancy
  Dy  Dy0  1  0.000000  0.605814  0.500000  1
  Dy  Dy1  1  0.394186  0.394186  0.500000  1
  Dy  Dy2  1  0.605814  0.000000  0.500000  1
  Tm  Tm3  1  0.234550  0.000000  0.000000  1
  Tm  Tm4  1  0.765450  0.765450  0.000000  1
  Tm  Tm5  1  0.000000  0.234550  0.000000  1
  Re  Re6  1  0.000000  0.000000  0.500000  1
  Sb  Sb7  1  0.333333  0.666667  0.000000  1
  Sb  Sb8  1  0.666667  0.333333  0.000000  1
