# generated using pymatgen
data_Tb17Y3(Ag3Os)2
_symmetry_space_group_name_H-M   'P 1'
_cell_length_a   9.40678900
_cell_length_b   9.40678854
_cell_length_c   9.67843900
_cell_angle_alpha   90.00000000
_cell_angle_beta   90.00000000
_cell_angle_gamma   119.99999810
_symmetry_Int_Tables_number   1
_chemical_formula_structural   Tb17Y3(Ag3Os)2
_chemical_formula_sum   'Tb17 Y3 Ag6 Os2'
_cell_volume   741.68371136
_cell_formula_units_Z   1
loop_
 _symmetry_equiv_pos_site_id
 _symmetry_equiv_pos_as_xyz
  1  'x, y, z'
loop_
 _atom_site_type_symbol
 _atom_site_label
 _atom_site_symmetry_multiplicity
 _atom_site_fract_x
 _atom_site_fract_y
 _atom_site_fract_z
 _atom_site_occupancy
  Tb  Tb0  1  0.000000  0.000000  0.500251  1
  Tb  Tb1  1  0.000000  0.000000  0.999749  1
  Tb  Tb2  1  0.208227  0.791773  0.442108  1
  Tb  Tb3  1  0.208227  0.416453  0.442108  1
  Tb  Tb4  1  0.583547  0.791773  0.442108  1
  Tb  Tb5  1  0.791818  0.208182  0.557933  1
  Tb  Tb6  1  0.791818  0.583637  0.557933  1
  Tb  Tb7  1  0.416363  0.208182  0.557933  1
  Tb  Tb8  1  0.791818  0.208182  0.942067  1
  Tb  Tb9  1  0.791818  0.583637  0.942067  1
  Tb  Tb10  1  0.416363  0.208182  0.942067  1
  Tb  Tb11  1  0.208227  0.791773  0.057892  1
  Tb  Tb12  1  0.208227  0.416453  0.057892  1
  Tb  Tb13  1  0.583547  0.791773  0.057892  1
  Tb  Tb14  1  0.540661  0.459339  0.250000  1
  Tb  Tb15  1  0.540661  0.081322  0.250000  1
  Tb  Tb16  1  0.918678  0.459339  0.250000  1
  Y  Y17  1  0.459348  0.540652  0.750000  1
  Y  Y18  1  0.459348  0.918694  0.750000  1
  Y  Y19  1  0.081306  0.540652  0.750000  1
  Ag  Ag20  1  0.885468  0.114532  0.250000  1
  Ag  Ag21  1  0.885468  0.770937  0.250000  1
  Ag  Ag22  1  0.229063  0.114532  0.250000  1
  Ag  Ag23  1  0.114538  0.885462  0.750000  1
  Ag  Ag24  1  0.114538  0.229075  0.750000  1
  Ag  Ag25  1  0.770925  0.885462  0.750000  1
  Os  Os26  1  0.333333  0.666667  0.250000  1
  Os  Os27  1  0.666667  0.333333  0.750000  1
