# generated using pymatgen
data_Tb3Ho5(ErOs)4
_symmetry_space_group_name_H-M   'P 1'
_cell_length_a   6.30100000
_cell_length_b   7.38543127
_cell_length_c   9.01996000
_cell_angle_alpha   89.99697523
_cell_angle_beta   89.99967756
_cell_angle_gamma   89.93972306
_symmetry_Int_Tables_number   1
_chemical_formula_structural   Tb3Ho5(ErOs)4
_chemical_formula_sum   'Tb3 Ho5 Er4 Os4'
_cell_volume   419.74904007
_cell_formula_units_Z   1
loop_
 _symmetry_equiv_pos_site_id
 _symmetry_equiv_pos_as_xyz
  1  'x, y, z'
loop_
 _atom_site_type_symbol
 _atom_site_label
 _atom_site_symmetry_multiplicity
 _atom_site_fract_x
 _atom_site_fract_y
 _atom_site_fract_z
 _atom_site_occupancy
  Tb  Tb0  1  0.870243  0.538081  0.250034  1
  Tb  Tb1  1  0.629902  0.038088  0.249972  1
  Tb  Tb2  1  0.130203  0.461793  0.750016  1
  Ho  Ho3  1  0.333086  0.675965  0.062810  1
  Ho  Ho4  1  0.167440  0.174949  0.437340  1
  Ho  Ho5  1  0.666751  0.324228  0.563084  1
  Ho  Ho6  1  0.832184  0.824814  0.936646  1
  Ho  Ho7  1  0.369656  0.961620  0.749970  1
  Er  Er8  1  0.666742  0.324231  0.936948  1
  Er  Er9  1  0.832181  0.824797  0.563333  1
  Er  Er10  1  0.333083  0.675960  0.437222  1
  Er  Er11  1  0.167412  0.174902  0.062641  1
  Os  Os12  1  0.043054  0.883027  0.250094  1
  Os  Os13  1  0.456979  0.382883  0.249905  1
  Os  Os14  1  0.958642  0.116701  0.750100  1
  Os  Os15  1  0.542439  0.617960  0.749885  1
