# generated using pymatgen
data_AuSe23
_symmetry_space_group_name_H-M   'P 1'
_cell_length_a   6.12113826
_cell_length_b   10.09588829
_cell_length_c   16.23841400
_cell_angle_alpha   89.63401781
_cell_angle_beta   90.46346231
_cell_angle_gamma   87.71809494
_symmetry_Int_Tables_number   1
_chemical_formula_structural   AuSe23
_chemical_formula_sum   'Au1 Se23'
_cell_volume   1002.65566271
_cell_formula_units_Z   1
loop_
 _symmetry_equiv_pos_site_id
 _symmetry_equiv_pos_as_xyz
  1  'x, y, z'
loop_
 _atom_site_type_symbol
 _atom_site_label
 _atom_site_symmetry_multiplicity
 _atom_site_fract_x
 _atom_site_fract_y
 _atom_site_fract_z
 _atom_site_occupancy
  Au  Au0  1  0.506559  0.307794  0.426263  1
  Se  Se1  1  0.513265  0.810836  0.377502  1
  Se  Se2  1  0.996391  0.322669  0.125055  1
  Se  Se3  1  0.890431  0.252683  0.474011  1
  Se  Se4  1  0.294606  0.773293  0.493116  1
  Se  Se5  1  0.195709  0.264071  0.005858  1
  Se  Se6  1  0.786657  0.733174  0.000574  1
  Se  Se7  1  0.119468  0.336633  0.372540  1
  Se  Se8  1  0.760525  0.625572  0.362796  1
  Se  Se9  1  0.793803  0.136165  0.160793  1
  Se  Se10  1  0.218299  0.856334  0.144843  1
  Se  Se11  1  0.700280  0.611820  0.637012  1
  Se  Se12  1  0.240257  0.368584  0.624343  1
  Se  Se13  1  0.209357  0.861015  0.855760  1
  Se  Se14  1  0.779037  0.138932  0.852961  1
  Se  Se15  1  0.999592  0.673864  0.117842  1
  Se  Se16  1  0.504965  0.815337  0.612079  1
  Se  Se17  1  0.424224  0.189353  0.559646  1
  Se  Se18  1  0.996129  0.676196  0.883704  1
  Se  Se19  1  0.983877  0.324381  0.888325  1
  Se  Se20  1  0.574491  0.451786  0.301999  1
  Se  Se21  1  0.027896  0.993245  0.239932  1
  Se  Se22  1  0.483204  0.472704  0.715931  1
  Se  Se23  1  0.000979  0.003561  0.767117  1
