# generated using pymatgen
data_Zr10AlSn5Se
_symmetry_space_group_name_H-M   'P 1'
_cell_length_a   5.88536888
_cell_length_b   8.57245666
_cell_length_c   8.58122963
_cell_angle_alpha   119.96996816
_cell_angle_beta   89.96871145
_cell_angle_gamma   90.06233789
_symmetry_Int_Tables_number   1
_chemical_formula_structural   Zr10AlSn5Se
_chemical_formula_sum   'Zr10 Al1 Sn5 Se1'
_cell_volume   375.05091739
_cell_formula_units_Z   1
loop_
 _symmetry_equiv_pos_site_id
 _symmetry_equiv_pos_as_xyz
  1  'x, y, z'
loop_
 _atom_site_type_symbol
 _atom_site_label
 _atom_site_symmetry_multiplicity
 _atom_site_fract_x
 _atom_site_fract_y
 _atom_site_fract_z
 _atom_site_occupancy
  Zr  Zr0  1  0.502053  0.336502  0.671379  1
  Zr  Zr1  1  0.502048  0.665135  0.328620  1
  Zr  Zr2  1  0.997675  0.665551  0.328366  1
  Zr  Zr3  1  0.997673  0.337184  0.671638  1
  Zr  Zr4  1  0.761700  0.263358  0.000016  1
  Zr  Zr5  1  0.765091  0.740733  0.749294  1
  Zr  Zr6  1  0.765095  0.991400  0.250677  1
  Zr  Zr7  1  0.230639  0.744151  0.000029  1
  Zr  Zr8  1  0.236540  0.256354  0.255974  1
  Zr  Zr9  1  0.236529  0.000336  0.744015  1
  Al  Al10  1  0.749277  0.605717  0.999996  1
  Sn  Sn11  1  0.747814  0.390220  0.391765  1
  Sn  Sn12  1  0.747807  0.998424  0.608209  1
  Sn  Sn13  1  0.252868  0.394686  0.000029  1
  Sn  Sn14  1  0.253033  0.608065  0.606417  1
  Sn  Sn15  1  0.253051  0.001615  0.393572  1
  Se  Se16  1  0.501105  0.000573  0.000005  1
