# generated using pymatgen
data_P2Br13Cl
_symmetry_space_group_name_H-M   'P 1'
_cell_length_a   8.45425964
_cell_length_b   9.47704277
_cell_length_c   15.31555900
_cell_angle_alpha   90.00000000
_cell_angle_beta   90.00000000
_cell_angle_gamma   88.24835204
_symmetry_Int_Tables_number   1
_chemical_formula_structural   P2Br13Cl
_chemical_formula_sum   'P4 Br26 Cl2'
_cell_volume   1226.53031439
_cell_formula_units_Z   2
loop_
 _symmetry_equiv_pos_site_id
 _symmetry_equiv_pos_as_xyz
  1  'x, y, z'
loop_
 _atom_site_type_symbol
 _atom_site_label
 _atom_site_symmetry_multiplicity
 _atom_site_fract_x
 _atom_site_fract_y
 _atom_site_fract_z
 _atom_site_occupancy
  P  P0  1  0.756526  0.878988  0.142866  1
  P  P1  1  0.747644  0.379648  0.358447  1
  P  P2  1  0.243474  0.621012  0.642866  1
  P  P3  1  0.252356  0.120352  0.858447  1
  Br  Br4  1  0.243650  0.350982  0.123876  1
  Br  Br5  1  0.744681  0.876076  0.799389  1
  Br  Br6  1  0.757316  0.915910  0.283863  1
  Br  Br7  1  0.255319  0.623924  0.299389  1
  Br  Br8  1  0.242684  0.584090  0.783863  1
  Br  Br9  1  0.256967  0.108039  0.469338  1
  Br  Br10  1  0.741087  0.584528  0.425195  1
  Br  Br11  1  0.463764  0.237860  0.895070  1
  Br  Br12  1  0.258913  0.915472  0.925195  1
  Br  Br13  1  0.747730  0.418394  0.217504  1
  Br  Br14  1  0.536236  0.262140  0.395070  1
  Br  Br15  1  0.756350  0.149018  0.623876  1
  Br  Br16  1  0.257569  0.848038  0.374818  1
  Br  Br17  1  0.965970  0.262757  0.396676  1
  Br  Br18  1  0.762736  0.894359  0.526237  1
  Br  Br19  1  0.968227  0.753067  0.097918  1
  Br  Br20  1  0.253221  0.125694  0.198307  1
  Br  Br21  1  0.742900  0.082951  0.075840  1
  Br  Br22  1  0.742431  0.651962  0.874818  1
  Br  Br23  1  0.746779  0.374306  0.698307  1
  Br  Br24  1  0.237264  0.605641  0.026237  1
  Br  Br25  1  0.031773  0.746933  0.597918  1
  Br  Br26  1  0.743033  0.391961  0.969338  1
  Br  Br27  1  0.257100  0.417049  0.575840  1
  Br  Br28  1  0.252270  0.081606  0.717504  1
  Br  Br29  1  0.034030  0.237243  0.896676  1
  Cl  Cl30  1  0.558173  0.778207  0.114656  1
  Cl  Cl31  1  0.441827  0.721793  0.614656  1
