# generated using pymatgen
data_Y6Ho5Sc5(In3Ir)2
_symmetry_space_group_name_H-M   'P 1'
_cell_length_a   10.10734531
_cell_length_b   10.10734429
_cell_length_c   7.14041886
_cell_angle_alpha   89.82855876
_cell_angle_beta   90.17143784
_cell_angle_gamma   120.04550541
_symmetry_Int_Tables_number   1
_chemical_formula_structural   Y6Ho5Sc5(In3Ir)2
_chemical_formula_sum   'Y6 Ho5 Sc5 In6 Ir2'
_cell_volume   631.43196960
_cell_formula_units_Z   1
loop_
 _symmetry_equiv_pos_site_id
 _symmetry_equiv_pos_as_xyz
  1  'x, y, z'
loop_
 _atom_site_type_symbol
 _atom_site_label
 _atom_site_symmetry_multiplicity
 _atom_site_fract_x
 _atom_site_fract_y
 _atom_site_fract_z
 _atom_site_occupancy
  Y  Y0  1  0.528235  0.063950  0.506437  1
  Y  Y1  1  0.936050  0.471765  0.506437  1
  Y  Y2  1  0.531573  0.468427  0.503633  1
  Y  Y3  1  0.464459  0.932893  0.002927  1
  Y  Y4  1  0.067107  0.535541  0.002927  1
  Y  Y5  1  0.468385  0.531615  0.002880  1
  Ho  Ho6  1  0.823639  0.176361  0.211148  1
  Ho  Ho7  1  0.665732  0.334268  0.886621  1
  Ho  Ho8  1  0.333070  0.666930  0.387723  1
  Ho  Ho9  1  0.001234  0.998766  0.495637  1
  Ho  Ho10  1  0.001287  0.998713  0.991789  1
  Sc  Sc11  1  0.177939  0.356652  0.710864  1
  Sc  Sc12  1  0.643348  0.822061  0.710864  1
  Sc  Sc13  1  0.177735  0.822265  0.710043  1
  Sc  Sc14  1  0.822641  0.643812  0.210570  1
  Sc  Sc15  1  0.356188  0.177359  0.210570  1
  In  In16  1  0.840028  0.680335  0.760807  1
  In  In17  1  0.319665  0.159972  0.760807  1
  In  In18  1  0.839907  0.160093  0.753447  1
  In  In19  1  0.168577  0.324074  0.262897  1
  In  In20  1  0.675926  0.831423  0.262897  1
  In  In21  1  0.160322  0.839678  0.261877  1
  Ir  Ir22  1  0.663750  0.336250  0.273155  1
  Ir  Ir23  1  0.333203  0.666797  0.771089  1
