# generated using pymatgen
data_Eu3Th(ZnRh)4
_symmetry_space_group_name_H-M   'P 1'
_cell_length_a   4.18559700
_cell_length_b   7.13469096
_cell_length_c   8.19214479
_cell_angle_alpha   90.35749699
_cell_angle_beta   90.00000000
_cell_angle_gamma   90.00000000
_symmetry_Int_Tables_number   1
_chemical_formula_structural   Eu3Th(ZnRh)4
_chemical_formula_sum   'Eu3 Th1 Zn4 Rh4'
_cell_volume   244.63677523
_cell_formula_units_Z   1
loop_
 _symmetry_equiv_pos_site_id
 _symmetry_equiv_pos_as_xyz
  1  'x, y, z'
loop_
 _atom_site_type_symbol
 _atom_site_label
 _atom_site_symmetry_multiplicity
 _atom_site_fract_x
 _atom_site_fract_y
 _atom_site_fract_z
 _atom_site_occupancy
  Eu  Eu0  1  0.250000  0.527972  0.184672  1
  Eu  Eu1  1  0.750000  0.472593  0.815775  1
  Eu  Eu2  1  0.250000  0.027474  0.309930  1
  Th  Th3  1  0.750000  0.970006  0.682946  1
  Zn  Zn4  1  0.250000  0.151148  0.939377  1
  Zn  Zn5  1  0.750000  0.858195  0.066900  1
  Zn  Zn6  1  0.250000  0.633794  0.563858  1
  Zn  Zn7  1  0.750000  0.357893  0.433588  1
  Rh  Rh8  1  0.750000  0.735646  0.392134  1
  Rh  Rh9  1  0.250000  0.250392  0.622542  1
  Rh  Rh10  1  0.750000  0.229203  0.121428  1
  Rh  Rh11  1  0.250000  0.785685  0.866852  1
