# generated using pymatgen
data_LiNb6PbS12
_symmetry_space_group_name_H-M   'P 1'
_cell_length_a   5.84345200
_cell_length_b   5.84345211
_cell_length_c   14.12356600
_cell_angle_alpha   90.00000000
_cell_angle_beta   90.00000000
_cell_angle_gamma   119.99999940
_symmetry_Int_Tables_number   1
_chemical_formula_structural   LiNb6PbS12
_chemical_formula_sum   'Li1 Nb6 Pb1 S12'
_cell_volume   417.65142531
_cell_formula_units_Z   1
loop_
 _symmetry_equiv_pos_site_id
 _symmetry_equiv_pos_as_xyz
  1  'x, y, z'
loop_
 _atom_site_type_symbol
 _atom_site_label
 _atom_site_symmetry_multiplicity
 _atom_site_fract_x
 _atom_site_fract_y
 _atom_site_fract_z
 _atom_site_occupancy
  Li  Li0  1  0.000000  0.000000  0.000000  1
  Nb  Nb1  1  0.000000  0.000000  0.769125  1
  Nb  Nb2  1  0.000000  0.000000  0.230875  1
  Nb  Nb3  1  0.333333  0.666667  0.231078  1
  Nb  Nb4  1  0.666667  0.333333  0.768922  1
  Nb  Nb5  1  0.666667  0.333333  0.231078  1
  Nb  Nb6  1  0.333333  0.666667  0.768922  1
  Pb  Pb7  1  0.000000  0.000000  0.500000  1
  S  S8  1  0.334805  0.000000  0.121060  1
  S  S9  1  0.000000  0.334805  0.121060  1
  S  S10  1  0.665195  0.665195  0.121060  1
  S  S11  1  0.334322  0.334322  0.658099  1
  S  S12  1  0.665678  0.665678  0.341901  1
  S  S13  1  0.665678  0.000000  0.658099  1
  S  S14  1  0.000000  0.665678  0.658099  1
  S  S15  1  0.000000  0.665195  0.878940  1
  S  S16  1  0.334805  0.334805  0.878940  1
  S  S17  1  0.000000  0.334322  0.341901  1
  S  S18  1  0.334322  0.000000  0.341901  1
  S  S19  1  0.665195  0.000000  0.878940  1
