# generated using pymatgen
data_SrPPbBrO4
_symmetry_space_group_name_H-M   'P 1'
_cell_length_a   8.67925500
_cell_length_b   8.74785675
_cell_length_c   9.10653450
_cell_angle_alpha   65.85178756
_cell_angle_beta   90.00000000
_cell_angle_gamma   90.00000000
_symmetry_Int_Tables_number   1
_chemical_formula_structural   SrPPbBrO4
_chemical_formula_sum   'Sr4 P4 Pb4 Br4 O16'
_cell_volume   630.90720142
_cell_formula_units_Z   4
loop_
 _symmetry_equiv_pos_site_id
 _symmetry_equiv_pos_as_xyz
  1  'x, y, z'
loop_
 _atom_site_type_symbol
 _atom_site_label
 _atom_site_symmetry_multiplicity
 _atom_site_fract_x
 _atom_site_fract_y
 _atom_site_fract_z
 _atom_site_occupancy
  Sr  Sr0  1  0.304965  0.453651  0.156146  1
  Sr  Sr1  1  0.804965  0.046349  0.843854  1
  Sr  Sr2  1  0.695035  0.546349  0.843854  1
  Sr  Sr3  1  0.195035  0.953651  0.156146  1
  P  P4  1  0.046679  0.737813  0.948519  1
  P  P5  1  0.546679  0.762187  0.051481  1
  P  P6  1  0.953321  0.262187  0.051481  1
  P  P7  1  0.453321  0.237813  0.948519  1
  Pb  Pb8  1  0.324731  0.992278  0.721143  1
  Pb  Pb9  1  0.824731  0.507722  0.278857  1
  Pb  Pb10  1  0.675269  0.007722  0.278857  1
  Pb  Pb11  1  0.175269  0.492278  0.721143  1
  Br  Br12  1  0.926257  0.732455  0.492805  1
  Br  Br13  1  0.426257  0.767545  0.507195  1
  Br  Br14  1  0.073743  0.267545  0.507195  1
  Br  Br15  1  0.573743  0.232455  0.492805  1
  O  O16  1  0.057965  0.639929  0.136231  1
  O  O17  1  0.557965  0.860071  0.863769  1
  O  O18  1  0.942035  0.360071  0.863769  1
  O  O19  1  0.442035  0.139929  0.136231  1
  O  O20  1  0.118339  0.263621  0.111956  1
  O  O21  1  0.618339  0.236379  0.888044  1
  O  O22  1  0.881661  0.736379  0.888044  1
  O  O23  1  0.381661  0.763621  0.111956  1
  O  O24  1  0.670019  0.838959  0.126103  1
  O  O25  1  0.170019  0.661041  0.873897  1
  O  O26  1  0.329981  0.161041  0.873897  1
  O  O27  1  0.829981  0.338959  0.126103  1
  O  O28  1  0.410075  0.425134  0.904797  1
  O  O29  1  0.910075  0.074866  0.095203  1
  O  O30  1  0.589925  0.574866  0.095203  1
  O  O31  1  0.089925  0.925134  0.904797  1
