# generated using pymatgen
data_Er2Th(InRh)3
_symmetry_space_group_name_H-M   'P 1'
_cell_length_a   7.56904726
_cell_length_b   7.81193907
_cell_length_c   3.87396500
_cell_angle_alpha   90.00000000
_cell_angle_beta   90.00000000
_cell_angle_gamma   121.06732351
_symmetry_Int_Tables_number   1
_chemical_formula_structural   Er2Th(InRh)3
_chemical_formula_sum   'Er2 Th1 In3 Rh3'
_cell_volume   196.20692099
_cell_formula_units_Z   1
loop_
 _symmetry_equiv_pos_site_id
 _symmetry_equiv_pos_as_xyz
  1  'x, y, z'
loop_
 _atom_site_type_symbol
 _atom_site_label
 _atom_site_symmetry_multiplicity
 _atom_site_fract_x
 _atom_site_fract_y
 _atom_site_fract_z
 _atom_site_occupancy
  Er  Er0  1  0.404281  0.405394  0.500000  1
  Er  Er1  1  0.595719  0.001113  0.500000  1
  Th  Th2  1  0.000000  0.581750  0.500000  1
  In  In3  1  0.268948  0.011020  0.000000  1
  In  In4  1  0.731052  0.742073  0.000000  1
  In  In5  1  0.000000  0.243647  0.000000  1
  Rh  Rh6  1  0.684436  0.351878  0.000000  1
  Rh  Rh7  1  0.315564  0.667443  0.000000  1
  Rh  Rh8  1  0.000000  0.995682  0.500000  1
