# generated using pymatgen
data_Lu10Zn3Ru
_symmetry_space_group_name_H-M   'P 1'
_cell_length_a   9.20438700
_cell_length_b   9.20417983
_cell_length_c   9.44615900
_cell_angle_alpha   90.00288165
_cell_angle_beta   89.99886479
_cell_angle_gamma   120.00296984
_symmetry_Int_Tables_number   1
_chemical_formula_structural   Lu10Zn3Ru
_chemical_formula_sum   'Lu20 Zn6 Ru2'
_cell_volume   693.03130207
_cell_formula_units_Z   2
loop_
 _symmetry_equiv_pos_site_id
 _symmetry_equiv_pos_as_xyz
  1  'x, y, z'
loop_
 _atom_site_type_symbol
 _atom_site_label
 _atom_site_symmetry_multiplicity
 _atom_site_fract_x
 _atom_site_fract_y
 _atom_site_fract_z
 _atom_site_occupancy
  Lu  Lu0  1  0.999971  0.999988  0.500004  1
  Lu  Lu1  1  0.999974  0.000002  0.999992  1
  Lu  Lu2  1  0.207452  0.792538  0.442709  1
  Lu  Lu3  1  0.207456  0.414915  0.442703  1
  Lu  Lu4  1  0.585082  0.792549  0.442710  1
  Lu  Lu5  1  0.792535  0.207449  0.557265  1
  Lu  Lu6  1  0.792547  0.585103  0.557273  1
  Lu  Lu7  1  0.414910  0.207442  0.557253  1
  Lu  Lu8  1  0.792553  0.207444  0.942720  1
  Lu  Lu9  1  0.792552  0.585111  0.942726  1
  Lu  Lu10  1  0.414932  0.207458  0.942737  1
  Lu  Lu11  1  0.207465  0.792542  0.057306  1
  Lu  Lu12  1  0.207465  0.414929  0.057283  1
  Lu  Lu13  1  0.585093  0.792543  0.057275  1
  Lu  Lu14  1  0.541275  0.458783  0.250011  1
  Lu  Lu15  1  0.541219  0.082406  0.249998  1
  Lu  Lu16  1  0.917534  0.458773  0.250007  1
  Lu  Lu17  1  0.458773  0.541265  0.749994  1
  Lu  Lu18  1  0.458776  0.917525  0.750001  1
  Lu  Lu19  1  0.082474  0.541241  0.750003  1
  Zn  Zn20  1  0.886572  0.113409  0.250009  1
  Zn  Zn21  1  0.886580  0.773160  0.250008  1
  Zn  Zn22  1  0.226826  0.113400  0.250009  1
  Zn  Zn23  1  0.113417  0.886583  0.749999  1
  Zn  Zn24  1  0.113403  0.226826  0.750002  1
  Zn  Zn25  1  0.773147  0.886599  0.750006  1
  Ru  Ru26  1  0.333341  0.666673  0.250004  1
  Ru  Ru27  1  0.666674  0.333346  0.749993  1
