# generated using pymatgen
data_Li2Ho3AgPb3
_symmetry_space_group_name_H-M   'P 1'
_cell_length_a   7.39219800
_cell_length_b   7.38220696
_cell_length_c   4.63480200
_cell_angle_alpha   90.00000000
_cell_angle_beta   90.00000000
_cell_angle_gamma   120.04478003
_symmetry_Int_Tables_number   1
_chemical_formula_structural   Li2Ho3AgPb3
_chemical_formula_sum   'Li2 Ho3 Ag1 Pb3'
_cell_volume   218.94018466
_cell_formula_units_Z   1
loop_
 _symmetry_equiv_pos_site_id
 _symmetry_equiv_pos_as_xyz
  1  'x, y, z'
loop_
 _atom_site_type_symbol
 _atom_site_label
 _atom_site_symmetry_multiplicity
 _atom_site_fract_x
 _atom_site_fract_y
 _atom_site_fract_z
 _atom_site_occupancy
  Li  Li0  1  0.770200  0.766559  0.000000  1
  Li  Li1  1  0.003641  0.233441  0.000000  1
  Ho  Ho2  1  0.553078  0.000000  0.500000  1
  Ho  Ho3  1  0.431982  0.428525  0.500000  1
  Ho  Ho4  1  0.003457  0.571475  0.500000  1
  Ag  Ag5  1  0.237870  0.000000  0.000000  1
  Pb  Pb6  1  0.987212  0.000000  0.500000  1
  Pb  Pb7  1  0.335588  0.658618  0.000000  1
  Pb  Pb8  1  0.676972  0.341382  0.000000  1
