# generated using pymatgen
data_Yb5(GaP3)2
_symmetry_space_group_name_H-M   'P 1'
_cell_length_a   4.00925700
_cell_length_b   11.05515300
_cell_length_c   12.68550100
_cell_angle_alpha   90.00000000
_cell_angle_beta   90.00000000
_cell_angle_gamma   90.00000000
_symmetry_Int_Tables_number   1
_chemical_formula_structural   Yb5(GaP3)2
_chemical_formula_sum   'Yb10 Ga4 P12'
_cell_volume   562.25882086
_cell_formula_units_Z   2
loop_
 _symmetry_equiv_pos_site_id
 _symmetry_equiv_pos_as_xyz
  1  'x, y, z'
loop_
 _atom_site_type_symbol
 _atom_site_label
 _atom_site_symmetry_multiplicity
 _atom_site_fract_x
 _atom_site_fract_y
 _atom_site_fract_z
 _atom_site_occupancy
  Yb  Yb0  1  0.500000  0.087332  0.753159  1
  Yb  Yb1  1  0.500000  0.587332  0.746841  1
  Yb  Yb2  1  0.500000  0.325603  0.516303  1
  Yb  Yb3  1  0.500000  0.674397  0.483697  1
  Yb  Yb4  1  0.500000  0.825603  0.983697  1
  Yb  Yb5  1  0.500000  0.912668  0.246841  1
  Yb  Yb6  1  0.500000  0.174397  0.016303  1
  Yb  Yb7  1  0.500000  0.500000  0.000000  1
  Yb  Yb8  1  0.500000  0.000000  0.500000  1
  Yb  Yb9  1  0.500000  0.412668  0.253159  1
  Ga  Ga10  1  0.000000  0.827480  0.787011  1
  Ga  Ga11  1  0.000000  0.172520  0.212989  1
  Ga  Ga12  1  0.000000  0.672520  0.287011  1
  Ga  Ga13  1  0.000000  0.327480  0.712989  1
  P  P14  1  0.500000  0.838859  0.681408  1
  P  P15  1  0.000000  0.483258  0.412057  1
  P  P16  1  0.500000  0.161141  0.318592  1
  P  P17  1  0.000000  0.016742  0.912057  1
  P  P18  1  0.000000  0.843653  0.401646  1
  P  P19  1  0.000000  0.983258  0.087943  1
  P  P20  1  0.000000  0.343653  0.098354  1
  P  P21  1  0.000000  0.516742  0.587943  1
  P  P22  1  0.000000  0.156347  0.598354  1
  P  P23  1  0.000000  0.656347  0.901646  1
  P  P24  1  0.500000  0.661141  0.181408  1
  P  P25  1  0.500000  0.338859  0.818592  1
