# generated using pymatgen
data_HfHgPd8Se
_symmetry_space_group_name_H-M   'P 1'
_cell_length_a   4.06502700
_cell_length_b   4.06502700
_cell_length_c   11.21713600
_cell_angle_alpha   90.00000000
_cell_angle_beta   90.00000000
_cell_angle_gamma   90.00000000
_symmetry_Int_Tables_number   1
_chemical_formula_structural   HfHgPd8Se
_chemical_formula_sum   'Hf1 Hg1 Pd8 Se1'
_cell_volume   185.35694140
_cell_formula_units_Z   1
loop_
 _symmetry_equiv_pos_site_id
 _symmetry_equiv_pos_as_xyz
  1  'x, y, z'
loop_
 _atom_site_type_symbol
 _atom_site_label
 _atom_site_symmetry_multiplicity
 _atom_site_fract_x
 _atom_site_fract_y
 _atom_site_fract_z
 _atom_site_occupancy
  Hf  Hf0  1  0.500000  0.500000  0.826603  1
  Hg  Hg1  1  0.500000  0.500000  0.178725  1
  Pd  Pd2  1  0.500000  0.000000  0.991727  1
  Pd  Pd3  1  0.000000  0.500000  0.991727  1
  Pd  Pd4  1  0.500000  0.000000  0.645313  1
  Pd  Pd5  1  0.000000  0.500000  0.645313  1
  Pd  Pd6  1  0.500000  0.000000  0.362402  1
  Pd  Pd7  1  0.000000  0.500000  0.362402  1
  Pd  Pd8  1  0.000000  0.000000  0.818604  1
  Pd  Pd9  1  0.000000  0.000000  0.178210  1
  Se  Se10  1  0.000000  0.000000  0.498972  1
