# generated using pymatgen
data_Lu4GeAsSe2
_symmetry_space_group_name_H-M   'P 1'
_cell_length_a   7.01338695
_cell_length_b   7.01338656
_cell_length_c   7.01338672
_cell_angle_alpha   132.15090482
_cell_angle_beta   132.15091756
_cell_angle_gamma   69.99079568
_symmetry_Int_Tables_number   1
_chemical_formula_structural   Lu4GeAsSe2
_chemical_formula_sum   'Lu4 Ge1 As1 Se2'
_cell_volume   185.90245465
_cell_formula_units_Z   1
loop_
 _symmetry_equiv_pos_site_id
 _symmetry_equiv_pos_as_xyz
  1  'x, y, z'
loop_
 _atom_site_type_symbol
 _atom_site_label
 _atom_site_symmetry_multiplicity
 _atom_site_fract_x
 _atom_site_fract_y
 _atom_site_fract_z
 _atom_site_occupancy
  Lu  Lu0  1  0.245114  0.245114  0.000000  1
  Lu  Lu1  1  0.754886  0.754886  0.000000  1
  Lu  Lu2  1  0.507354  0.007354  0.500000  1
  Lu  Lu3  1  0.992646  0.492646  0.500000  1
  Ge  Ge4  1  0.750000  0.250000  0.500000  1
  As  As5  1  0.000000  0.000000  0.000000  1
  Se  Se6  1  0.250000  0.750000  0.500000  1
  Se  Se7  1  0.500000  0.500000  0.000000  1
