# generated using pymatgen
data_TbNd16Y3Sn16
_symmetry_space_group_name_H-M   'P 1'
_cell_length_a   8.24711201
_cell_length_b   8.39867901
_cell_length_c   15.93706900
_cell_angle_alpha   90.00000000
_cell_angle_beta   90.00000000
_cell_angle_gamma   89.99575246
_symmetry_Int_Tables_number   1
_chemical_formula_structural   TbNd16Y3Sn16
_chemical_formula_sum   'Tb1 Nd16 Y3 Sn16'
_cell_volume   1103.87863428
_cell_formula_units_Z   1
loop_
 _symmetry_equiv_pos_site_id
 _symmetry_equiv_pos_as_xyz
  1  'x, y, z'
loop_
 _atom_site_type_symbol
 _atom_site_label
 _atom_site_symmetry_multiplicity
 _atom_site_fract_x
 _atom_site_fract_y
 _atom_site_fract_z
 _atom_site_occupancy
  Tb  Tb0  1  0.198795  0.502019  0.250000  1
  Nd  Nd1  1  0.018040  0.180928  0.401300  1
  Nd  Nd2  1  0.368083  0.837216  0.120639  1
  Nd  Nd3  1  0.131946  0.337301  0.620654  1
  Nd  Nd4  1  0.481953  0.680919  0.901329  1
  Nd  Nd5  1  0.868091  0.662747  0.120703  1
  Nd  Nd6  1  0.131946  0.337301  0.879346  1
  Nd  Nd7  1  0.481953  0.680919  0.598671  1
  Nd  Nd8  1  0.631904  0.162739  0.620621  1
  Nd  Nd9  1  0.868091  0.662747  0.379297  1
  Nd  Nd10  1  0.018040  0.180928  0.098700  1
  Nd  Nd11  1  0.981985  0.819057  0.901338  1
  Nd  Nd12  1  0.631904  0.162739  0.879379  1
  Nd  Nd13  1  0.518030  0.319059  0.098675  1
  Nd  Nd14  1  0.368083  0.837216  0.379361  1
  Nd  Nd15  1  0.981985  0.819057  0.598662  1
  Nd  Nd16  1  0.518030  0.319059  0.401325  1
  Y  Y17  1  0.699009  0.998053  0.250000  1
  Y  Y18  1  0.301013  0.001899  0.750000  1
  Y  Y19  1  0.801021  0.498062  0.750000  1
  Sn  Sn20  1  0.791648  0.464711  0.543432  1
  Sn  Sn21  1  0.708345  0.964671  0.456590  1
  Sn  Sn22  1  0.675359  0.854529  0.750000  1
  Sn  Sn23  1  0.208352  0.535341  0.456628  1
  Sn  Sn24  1  0.291656  0.035313  0.956569  1
  Sn  Sn25  1  0.824723  0.354485  0.250000  1
  Sn  Sn26  1  0.791648  0.464711  0.956568  1
  Sn  Sn27  1  0.565397  0.616949  0.250000  1
  Sn  Sn28  1  0.208352  0.535341  0.043372  1
  Sn  Sn29  1  0.434777  0.383013  0.750000  1
  Sn  Sn30  1  0.175301  0.645523  0.750000  1
  Sn  Sn31  1  0.934769  0.116989  0.750000  1
  Sn  Sn32  1  0.291656  0.035313  0.543431  1
  Sn  Sn33  1  0.708345  0.964671  0.043410  1
  Sn  Sn34  1  0.324567  0.145415  0.250000  1
  Sn  Sn35  1  0.065202  0.883056  0.250000  1
