# generated using pymatgen
data_Sc3Ni6B2Ir
_symmetry_space_group_name_H-M   'P 1'
_cell_length_a   4.93309400
_cell_length_b   4.93309337
_cell_length_c   14.33359100
_cell_angle_alpha   90.00000000
_cell_angle_beta   90.00000000
_cell_angle_gamma   120.00000420
_symmetry_Int_Tables_number   1
_chemical_formula_structural   Sc3Ni6B2Ir
_chemical_formula_sum   'Sc6 Ni12 B4 Ir2'
_cell_volume   302.08165237
_cell_formula_units_Z   2
loop_
 _symmetry_equiv_pos_site_id
 _symmetry_equiv_pos_as_xyz
  1  'x, y, z'
loop_
 _atom_site_type_symbol
 _atom_site_label
 _atom_site_symmetry_multiplicity
 _atom_site_fract_x
 _atom_site_fract_y
 _atom_site_fract_z
 _atom_site_occupancy
  Sc  Sc0  1  0.333333  0.666667  0.532062  1
  Sc  Sc1  1  0.666667  0.333333  0.032062  1
  Sc  Sc2  1  0.666667  0.333333  0.467938  1
  Sc  Sc3  1  0.333333  0.666667  0.967938  1
  Sc  Sc4  1  0.333333  0.666667  0.750000  1
  Sc  Sc5  1  0.666667  0.333333  0.250000  1
  Ni  Ni6  1  0.166037  0.332075  0.150296  1
  Ni  Ni7  1  0.833963  0.667925  0.650296  1
  Ni  Ni8  1  0.667925  0.833963  0.150296  1
  Ni  Ni9  1  0.166037  0.833963  0.150296  1
  Ni  Ni10  1  0.833963  0.166037  0.650296  1
  Ni  Ni11  1  0.332075  0.166037  0.650296  1
  Ni  Ni12  1  0.833963  0.667925  0.849704  1
  Ni  Ni13  1  0.833963  0.166037  0.849704  1
  Ni  Ni14  1  0.332075  0.166037  0.849704  1
  Ni  Ni15  1  0.667925  0.833963  0.349704  1
  Ni  Ni16  1  0.166037  0.833963  0.349704  1
  Ni  Ni17  1  0.166037  0.332075  0.349704  1
  B  B18  1  0.333333  0.666667  0.250000  1
  B  B19  1  0.666667  0.333333  0.750000  1
  B  B20  1  0.000000  0.000000  0.250000  1
  B  B21  1  0.000000  0.000000  0.750000  1
  Ir  Ir22  1  0.000000  0.000000  0.000000  1
  Ir  Ir23  1  0.000000  0.000000  0.500000  1
