# generated using pymatgen
data_Ca4Ti3V(SiO5)4
_symmetry_space_group_name_H-M   'P 1'
_cell_length_a   5.49702898
_cell_length_b   5.51526216
_cell_length_c   13.01705823
_cell_angle_alpha   92.28380424
_cell_angle_beta   92.41276636
_cell_angle_gamma   105.66910146
_symmetry_Int_Tables_number   1
_chemical_formula_structural   Ca4Ti3V(SiO5)4
_chemical_formula_sum   'Ca4 Ti3 V1 Si4 O20'
_cell_volume   379.10403576
_cell_formula_units_Z   1
loop_
 _symmetry_equiv_pos_site_id
 _symmetry_equiv_pos_as_xyz
  1  'x, y, z'
loop_
 _atom_site_type_symbol
 _atom_site_label
 _atom_site_symmetry_multiplicity
 _atom_site_fract_x
 _atom_site_fract_y
 _atom_site_fract_z
 _atom_site_occupancy
  Ca  Ca0  1  0.952671  0.293101  0.121128  1
  Ca  Ca1  1  0.455590  0.797185  0.626534  1
  Ca  Ca2  1  0.544410  0.202815  0.373466  1
  Ca  Ca3  1  0.047329  0.706899  0.878872  1
  Ti  Ti4  1  0.000000  0.000000  0.500000  1
  Ti  Ti5  1  0.751382  0.751838  0.250079  1
  Ti  Ti6  1  0.248618  0.248162  0.749921  1
  V  V7  1  0.500000  0.500000  0.000000  1
  Si  Si8  1  0.193849  0.555002  0.374506  1
  Si  Si9  1  0.694734  0.057656  0.876425  1
  Si  Si10  1  0.305266  0.942344  0.123575  1
  Si  Si11  1  0.806151  0.444998  0.625494  1
  O  O12  1  0.418127  0.544908  0.295705  1
  O  O13  1  0.918768  0.050098  0.796037  1
  O  O14  1  0.290366  0.163698  0.044994  1
  O  O15  1  0.796323  0.669081  0.546267  1
  O  O16  1  0.081232  0.949902  0.203963  1
  O  O17  1  0.581873  0.455092  0.704295  1
  O  O18  1  0.203677  0.330919  0.453733  1
  O  O19  1  0.709634  0.836302  0.955006  1
  O  O20  1  0.804580  0.943244  0.374624  1
  O  O21  1  0.313405  0.446893  0.877277  1
  O  O22  1  0.686595  0.553107  0.122723  1
  O  O23  1  0.195420  0.056756  0.625376  1
  O  O24  1  0.241463  0.667605  0.058430  1
  O  O25  1  0.745842  0.172278  0.558073  1
  O  O26  1  0.919656  0.494323  0.307452  1
  O  O27  1  0.421232  0.996286  0.808423  1
  O  O28  1  0.254158  0.827722  0.441927  1
  O  O29  1  0.758537  0.332395  0.941570  1
  O  O30  1  0.578768  0.003714  0.191577  1
  O  O31  1  0.080344  0.505677  0.692548  1
