# generated using pymatgen
data_KMn5AlO12
_symmetry_space_group_name_H-M   'P 1'
_cell_length_a   8.10403735
_cell_length_b   8.11335986
_cell_length_c   9.63432000
_cell_angle_alpha   54.13220577
_cell_angle_beta   54.18101080
_cell_angle_gamma   64.64836977
_symmetry_Int_Tables_number   1
_chemical_formula_structural   KMn5AlO12
_chemical_formula_sum   'K2 Mn10 Al2 O24'
_cell_volume   412.73368990
_cell_formula_units_Z   2
loop_
 _symmetry_equiv_pos_site_id
 _symmetry_equiv_pos_as_xyz
  1  'x, y, z'
loop_
 _atom_site_type_symbol
 _atom_site_label
 _atom_site_symmetry_multiplicity
 _atom_site_fract_x
 _atom_site_fract_y
 _atom_site_fract_z
 _atom_site_occupancy
  K  K0  1  0.711561  0.294212  0.001644  1
  K  K1  1  0.292537  0.706797  0.002529  1
  Mn  Mn2  1  0.669361  0.002482  0.818651  1
  Mn  Mn3  1  0.001450  0.334335  0.173796  1
  Mn  Mn4  1  0.667821  0.665107  0.178082  1
  Mn  Mn5  1  0.331247  0.001552  0.178274  1
  Mn  Mn6  1  0.145111  0.146415  0.523033  1
  Mn  Mn7  1  0.478114  0.810852  0.524904  1
  Mn  Mn8  1  0.812871  0.478996  0.522664  1
  Mn  Mn9  1  0.851748  0.848895  0.481268  1
  Mn  Mn10  1  0.183961  0.516870  0.482774  1
  Mn  Mn11  1  0.515285  0.185112  0.481553  1
  Al  Al12  1  0.333937  0.339087  0.815418  1
  Al  Al13  1  0.006656  0.668845  0.814868  1
  O  O14  1  0.345709  0.345659  0.612999  1
  O  O15  1  0.009649  0.674694  0.616579  1
  O  O16  1  0.674495  0.008702  0.616097  1
  O  O17  1  0.988843  0.323600  0.386536  1
  O  O18  1  0.654590  0.654433  0.388264  1
  O  O19  1  0.325133  0.991351  0.384840  1
  O  O20  1  0.342385  0.343294  0.353614  1
  O  O21  1  0.008052  0.675142  0.356589  1
  O  O22  1  0.675658  0.008392  0.357131  1
  O  O23  1  0.989701  0.321933  0.647623  1
  O  O24  1  0.655528  0.654302  0.650363  1
  O  O25  1  0.321888  0.990191  0.647488  1
  O  O26  1  0.621049  0.293250  0.718629  1
  O  O27  1  0.291116  0.624803  0.716662  1
  O  O28  1  0.960374  0.953963  0.714537  1
  O  O29  1  0.708344  0.375903  0.277373  1
  O  O30  1  0.374783  0.709609  0.279431  1
  O  O31  1  0.042782  0.041545  0.281922  1
  O  O32  1  0.960619  0.628387  0.054358  1
  O  O33  1  0.630392  0.962844  0.054096  1
  O  O34  1  0.296403  0.295937  0.054219  1
  O  O35  1  0.374054  0.040840  0.943945  1
  O  O36  1  0.042003  0.375204  0.942763  1
  O  O37  1  0.704791  0.706464  0.944479  1
