# generated using pymatgen
data_Hf4Ta2NbSi4W
_symmetry_space_group_name_H-M   'P 1'
_cell_length_a   3.60097000
_cell_length_b   6.95146919
_cell_length_c   8.38315440
_cell_angle_alpha   90.19909133
_cell_angle_beta   90.00000000
_cell_angle_gamma   90.00000000
_symmetry_Int_Tables_number   1
_chemical_formula_structural   Hf4Ta2NbSi4W
_chemical_formula_sum   'Hf4 Ta2 Nb1 Si4 W1'
_cell_volume   209.84612219
_cell_formula_units_Z   1
loop_
 _symmetry_equiv_pos_site_id
 _symmetry_equiv_pos_as_xyz
  1  'x, y, z'
loop_
 _atom_site_type_symbol
 _atom_site_label
 _atom_site_symmetry_multiplicity
 _atom_site_fract_x
 _atom_site_fract_y
 _atom_site_fract_z
 _atom_site_occupancy
  Hf  Hf0  1  0.250000  0.544699  0.164479  1
  Hf  Hf1  1  0.250000  0.041980  0.331768  1
  Hf  Hf2  1  0.750000  0.459297  0.833728  1
  Hf  Hf3  1  0.750000  0.958218  0.669295  1
  Ta  Ta4  1  0.250000  0.635622  0.559008  1
  Ta  Ta5  1  0.250000  0.129964  0.940943  1
  Nb  Nb6  1  0.750000  0.366494  0.440440  1
  Si  Si7  1  0.250000  0.754386  0.862157  1
  Si  Si8  1  0.250000  0.254692  0.641930  1
  Si  Si9  1  0.750000  0.242878  0.141193  1
  Si  Si10  1  0.750000  0.746957  0.356072  1
  W  W11  1  0.750000  0.864812  0.058989  1
