# generated using pymatgen
data_Dy16Mg2Cd2OsPt3
_symmetry_space_group_name_H-M   'P 1'
_cell_length_a   9.74054151
_cell_length_b   9.74053975
_cell_length_c   9.75621313
_cell_angle_alpha   59.37413391
_cell_angle_beta   59.37413316
_cell_angle_gamma   59.31007917
_symmetry_Int_Tables_number   1
_chemical_formula_structural   Dy16Mg2Cd2OsPt3
_chemical_formula_sum   'Dy16 Mg2 Cd2 Os1 Pt3'
_cell_volume   644.89078636
_cell_formula_units_Z   1
loop_
 _symmetry_equiv_pos_site_id
 _symmetry_equiv_pos_as_xyz
  1  'x, y, z'
loop_
 _atom_site_type_symbol
 _atom_site_label
 _atom_site_symmetry_multiplicity
 _atom_site_fract_x
 _atom_site_fract_y
 _atom_site_fract_z
 _atom_site_occupancy
  Dy  Dy0  1  0.350832  0.350832  0.351739  1
  Dy  Dy1  1  0.348743  0.348743  0.950188  1
  Dy  Dy2  1  0.347481  0.953172  0.348345  1
  Dy  Dy3  1  0.953172  0.347481  0.348345  1
  Dy  Dy4  1  0.814592  0.188635  0.188373  1
  Dy  Dy5  1  0.187854  0.810282  0.810462  1
  Dy  Dy6  1  0.188635  0.814592  0.188373  1
  Dy  Dy7  1  0.810282  0.187854  0.810462  1
  Dy  Dy8  1  0.189629  0.189629  0.813678  1
  Dy  Dy9  1  0.811557  0.811557  0.186779  1
  Dy  Dy10  1  0.936579  0.565992  0.565952  1
  Dy  Dy11  1  0.558912  0.939018  0.935330  1
  Dy  Dy12  1  0.565992  0.936579  0.565952  1
  Dy  Dy13  1  0.939018  0.558911  0.935330  1
  Dy  Dy14  1  0.566760  0.566760  0.933651  1
  Dy  Dy15  1  0.937550  0.937550  0.558499  1
  Mg  Mg16  1  0.576632  0.576632  0.579433  1
  Mg  Mg17  1  0.576601  0.576601  0.264575  1
  Cd  Cd18  1  0.581471  0.254134  0.581001  1
  Cd  Cd19  1  0.254134  0.581471  0.581001  1
  Os  Os20  1  0.143521  0.143521  0.142144  1
  Pt  Pt21  1  0.143532  0.143532  0.573452  1
  Pt  Pt22  1  0.144037  0.572481  0.143466  1
  Pt  Pt23  1  0.572481  0.144037  0.143466  1
