# generated using pymatgen
data_GaBi6(SbO9)2
_symmetry_space_group_name_H-M   'P 1'
_cell_length_a   9.25791700
_cell_length_b   9.25791648
_cell_length_c   5.24235400
_cell_angle_alpha   90.00000000
_cell_angle_beta   90.00000000
_cell_angle_gamma   119.99999827
_symmetry_Int_Tables_number   1
_chemical_formula_structural   GaBi6(SbO9)2
_chemical_formula_sum   'Ga1 Bi6 Sb2 O18'
_cell_volume   389.11997463
_cell_formula_units_Z   1
loop_
 _symmetry_equiv_pos_site_id
 _symmetry_equiv_pos_as_xyz
  1  'x, y, z'
loop_
 _atom_site_type_symbol
 _atom_site_label
 _atom_site_symmetry_multiplicity
 _atom_site_fract_x
 _atom_site_fract_y
 _atom_site_fract_z
 _atom_site_occupancy
  Ga  Ga0  1  0.000000  0.000000  0.500000  1
  Bi  Bi1  1  0.000000  0.368732  0.500000  1
  Bi  Bi2  1  0.282632  0.282632  0.000000  1
  Bi  Bi3  1  0.000000  0.717368  0.000000  1
  Bi  Bi4  1  0.631268  0.631268  0.500000  1
  Bi  Bi5  1  0.368732  0.000000  0.500000  1
  Bi  Bi6  1  0.717368  0.000000  0.000000  1
  Sb  Sb7  1  0.333333  0.666667  0.002482  1
  Sb  Sb8  1  0.666667  0.333333  0.997518  1
  O  O9  1  0.086634  0.207002  0.714097  1
  O  O10  1  0.228699  0.457186  0.221264  1
  O  O11  1  0.128273  0.598104  0.791439  1
  O  O12  1  0.401896  0.530169  0.791439  1
  O  O13  1  0.228488  0.771301  0.221264  1
  O  O14  1  0.120368  0.913366  0.714097  1
  O  O15  1  0.542814  0.771512  0.221264  1
  O  O16  1  0.207002  0.086634  0.285903  1
  O  O17  1  0.469831  0.871727  0.791439  1
  O  O18  1  0.792998  0.879632  0.714097  1
  O  O19  1  0.457186  0.228699  0.778736  1
  O  O20  1  0.598104  0.128273  0.208561  1
  O  O21  1  0.530169  0.401896  0.208561  1
  O  O22  1  0.771301  0.228488  0.778736  1
  O  O23  1  0.913366  0.120368  0.285903  1
  O  O24  1  0.771512  0.542814  0.778736  1
  O  O25  1  0.871727  0.469831  0.208561  1
  O  O26  1  0.879632  0.792998  0.285903  1
