# generated using pymatgen
data_CsNd10(C2Cl9)2
_symmetry_space_group_name_H-M   'P 1'
_cell_length_a   10.58038100
_cell_length_b   10.65888242
_cell_length_c   10.89148122
_cell_angle_alpha   112.61550818
_cell_angle_beta   88.41005742
_cell_angle_gamma   117.88537319
_symmetry_Int_Tables_number   1
_chemical_formula_structural   CsNd10(C2Cl9)2
_chemical_formula_sum   'Cs1 Nd10 C4 Cl18'
_cell_volume   984.61483438
_cell_formula_units_Z   1
loop_
 _symmetry_equiv_pos_site_id
 _symmetry_equiv_pos_as_xyz
  1  'x, y, z'
loop_
 _atom_site_type_symbol
 _atom_site_label
 _atom_site_symmetry_multiplicity
 _atom_site_fract_x
 _atom_site_fract_y
 _atom_site_fract_z
 _atom_site_occupancy
  Cs  Cs0  1  0.500000  0.000000  0.500000  1
  Nd  Nd1  1  0.646299  0.711027  0.694525  1
  Nd  Nd2  1  0.282867  0.375843  0.009630  1
  Nd  Nd3  1  0.092321  0.422327  0.309446  1
  Nd  Nd4  1  0.958537  0.037238  0.340109  1
  Nd  Nd5  1  0.907679  0.577673  0.690554  1
  Nd  Nd6  1  0.120376  0.939286  0.001166  1
  Nd  Nd7  1  0.041463  0.962762  0.659891  1
  Nd  Nd8  1  0.353701  0.288973  0.305475  1
  Nd  Nd9  1  0.717133  0.624157  0.990370  1
  Nd  Nd10  1  0.879624  0.060714  0.998834  1
  C  C11  1  0.158604  0.233957  0.128124  1
  C  C12  1  0.841396  0.766043  0.871876  1
  C  C13  1  0.917066  0.844132  0.791725  1
  C  C14  1  0.082934  0.155868  0.208275  1
  Cl  Cl15  1  0.457190  0.532494  0.834183  1
  Cl  Cl16  1  0.383742  0.037896  0.165178  1
  Cl  Cl17  1  0.774570  0.860343  0.505296  1
  Cl  Cl18  1  0.838651  0.315062  0.157054  1
  Cl  Cl19  1  0.542810  0.467506  0.165817  1
  Cl  Cl20  1  0.225430  0.139657  0.494704  1
  Cl  Cl21  1  0.307384  0.102991  0.833202  1
  Cl  Cl22  1  0.692616  0.897009  0.166798  1
  Cl  Cl23  1  0.977765  0.769166  0.174419  1
  Cl  Cl24  1  0.929719  0.301492  0.496668  1
  Cl  Cl25  1  0.022235  0.230834  0.825581  1
  Cl  Cl26  1  0.070281  0.698508  0.503332  1
  Cl  Cl27  1  0.262870  0.627065  0.194174  1
  Cl  Cl28  1  0.737130  0.372935  0.805826  1
  Cl  Cl29  1  0.636237  0.433118  0.502134  1
  Cl  Cl30  1  0.161349  0.684938  0.842946  1
  Cl  Cl31  1  0.616258  0.962104  0.834822  1
  Cl  Cl32  1  0.363763  0.566882  0.497866  1
