# generated using pymatgen
data_Lu3Al9Si3Os4
_symmetry_space_group_name_H-M   'P 1'
_cell_length_a   8.67229500
_cell_length_b   8.64737059
_cell_length_c   9.48077800
_cell_angle_alpha   90.00000000
_cell_angle_beta   90.00000000
_cell_angle_gamma   120.09538814
_symmetry_Int_Tables_number   1
_chemical_formula_structural   Lu3Al9Si3Os4
_chemical_formula_sum   'Lu6 Al18 Si6 Os8'
_cell_volume   615.14072292
_cell_formula_units_Z   2
loop_
 _symmetry_equiv_pos_site_id
 _symmetry_equiv_pos_as_xyz
  1  'x, y, z'
loop_
 _atom_site_type_symbol
 _atom_site_label
 _atom_site_symmetry_multiplicity
 _atom_site_fract_x
 _atom_site_fract_y
 _atom_site_fract_z
 _atom_site_occupancy
  Lu  Lu0  1  0.194933  0.389867  0.250000  1
  Lu  Lu1  1  0.805067  0.610133  0.750000  1
  Lu  Lu2  1  0.607015  0.806262  0.250000  1
  Lu  Lu3  1  0.392985  0.193738  0.750000  1
  Lu  Lu4  1  0.199248  0.806262  0.250000  1
  Lu  Lu5  1  0.800752  0.193738  0.750000  1
  Al  Al6  1  0.164730  0.329461  0.579318  1
  Al  Al7  1  0.835270  0.670539  0.420682  1
  Al  Al8  1  0.670892  0.834894  0.577894  1
  Al  Al9  1  0.835270  0.670539  0.079318  1
  Al  Al10  1  0.329108  0.165106  0.422106  1
  Al  Al11  1  0.164730  0.329461  0.920682  1
  Al  Al12  1  0.164002  0.834894  0.577894  1
  Al  Al13  1  0.329108  0.165106  0.077894  1
  Al  Al14  1  0.835998  0.165106  0.422106  1
  Al  Al15  1  0.670892  0.834894  0.922106  1
  Al  Al16  1  0.835998  0.165106  0.077894  1
  Al  Al17  1  0.164002  0.834894  0.922106  1
  Al  Al18  1  0.873335  0.433642  0.250000  1
  Al  Al19  1  0.126665  0.566358  0.750000  1
  Al  Al20  1  0.560308  0.433642  0.250000  1
  Al  Al21  1  0.439692  0.566358  0.750000  1
  Al  Al22  1  0.999672  0.999344  0.250000  1
  Al  Al23  1  0.000328  0.000656  0.750000  1
  Si  Si24  1  0.332135  0.664270  0.040564  1
  Si  Si25  1  0.667865  0.335730  0.959436  1
  Si  Si26  1  0.667865  0.335730  0.540564  1
  Si  Si27  1  0.332135  0.664270  0.459436  1
  Si  Si28  1  0.562912  0.125824  0.250000  1
  Si  Si29  1  0.437088  0.874176  0.750000  1
  Os  Os30  1  0.500000  0.000000  0.000000  1
  Os  Os31  1  0.000000  0.500000  0.000000  1
  Os  Os32  1  0.500000  0.000000  0.500000  1
  Os  Os33  1  0.500000  0.500000  0.000000  1
  Os  Os34  1  0.000000  0.500000  0.500000  1
  Os  Os35  1  0.500000  0.500000  0.500000  1
  Os  Os36  1  0.000000  0.000000  0.000000  1
  Os  Os37  1  0.000000  0.000000  0.500000  1
