# generated using pymatgen
data_Tb9Y(Bi2Te)2
_symmetry_space_group_name_H-M   'P 1'
_cell_length_a   8.20743000
_cell_length_b   9.51129805
_cell_length_c   11.97618000
_cell_angle_alpha   89.99437964
_cell_angle_beta   90.00000000
_cell_angle_gamma   90.00000000
_symmetry_Int_Tables_number   1
_chemical_formula_structural   Tb9Y(Bi2Te)2
_chemical_formula_sum   'Tb18 Y2 Bi8 Te4'
_cell_volume   934.90028242
_cell_formula_units_Z   2
loop_
 _symmetry_equiv_pos_site_id
 _symmetry_equiv_pos_as_xyz
  1  'x, y, z'
loop_
 _atom_site_type_symbol
 _atom_site_label
 _atom_site_symmetry_multiplicity
 _atom_site_fract_x
 _atom_site_fract_y
 _atom_site_fract_z
 _atom_site_occupancy
  Tb  Tb0  1  0.353402  0.750035  0.213307  1
  Tb  Tb1  1  0.853402  0.749965  0.286693  1
  Tb  Tb2  1  0.646418  0.249970  0.786650  1
  Tb  Tb3  1  0.146418  0.250030  0.713350  1
  Tb  Tb4  1  0.689580  0.560902  0.057538  1
  Tb  Tb5  1  0.189580  0.939098  0.442462  1
  Tb  Tb6  1  0.310283  0.061137  0.942564  1
  Tb  Tb7  1  0.810283  0.438863  0.557436  1
  Tb  Tb8  1  0.310527  0.438964  0.942597  1
  Tb  Tb9  1  0.810527  0.061036  0.557403  1
  Tb  Tb10  1  0.476713  0.249955  0.488084  1
  Tb  Tb11  1  0.976713  0.250045  0.011916  1
  Tb  Tb12  1  0.523658  0.750189  0.511931  1
  Tb  Tb13  1  0.023658  0.749811  0.988069  1
  Tb  Tb14  1  0.319513  0.250119  0.218317  1
  Tb  Tb15  1  0.819513  0.249881  0.281683  1
  Tb  Tb16  1  0.680400  0.749934  0.781614  1
  Tb  Tb17  1  0.180400  0.750066  0.718386  1
  Y  Y18  1  0.689305  0.939428  0.057357  1
  Y  Y19  1  0.189305  0.560572  0.442643  1
  Bi  Bi20  1  0.568784  0.995429  0.325140  1
  Bi  Bi21  1  0.068784  0.504571  0.174860  1
  Bi  Bi22  1  0.431203  0.495490  0.674747  1
  Bi  Bi23  1  0.931203  0.004510  0.825253  1
  Bi  Bi24  1  0.431192  0.004472  0.674748  1
  Bi  Bi25  1  0.931192  0.495528  0.825252  1
  Bi  Bi26  1  0.568651  0.504614  0.325220  1
  Bi  Bi27  1  0.068651  0.995386  0.174780  1
  Te  Te28  1  0.406893  0.750153  0.957609  1
  Te  Te29  1  0.906893  0.749847  0.542391  1
  Te  Te30  1  0.593479  0.249289  0.042582  1
  Te  Te31  1  0.093479  0.250711  0.457418  1
