# generated using pymatgen
data_Er2SnP6(Ir3Rh)3
_symmetry_space_group_name_H-M   'P 1'
_cell_length_a   9.73688500
_cell_length_b   9.73688466
_cell_length_c   3.96504500
_cell_angle_alpha   90.00000000
_cell_angle_beta   90.00000000
_cell_angle_gamma   119.99999964
_symmetry_Int_Tables_number   1
_chemical_formula_structural   Er2SnP6(Ir3Rh)3
_chemical_formula_sum   'Er2 Sn1 P6 Ir9 Rh3'
_cell_volume   325.55083984
_cell_formula_units_Z   1
loop_
 _symmetry_equiv_pos_site_id
 _symmetry_equiv_pos_as_xyz
  1  'x, y, z'
loop_
 _atom_site_type_symbol
 _atom_site_label
 _atom_site_symmetry_multiplicity
 _atom_site_fract_x
 _atom_site_fract_y
 _atom_site_fract_z
 _atom_site_occupancy
  Er  Er0  1  0.333333  0.666667  0.751076  1
  Er  Er1  1  0.666667  0.333333  0.236932  1
  Sn  Sn2  1  0.000000  0.000000  0.621434  1
  P  P3  1  0.412480  0.287245  0.736323  1
  P  P4  1  0.712755  0.125235  0.736323  1
  P  P5  1  0.874765  0.587520  0.736323  1
  P  P6  1  0.597787  0.721601  0.250647  1
  P  P7  1  0.278399  0.876185  0.250647  1
  P  P8  1  0.123815  0.402213  0.250647  1
  Ir  Ir9  1  0.453530  0.072096  0.741416  1
  Ir  Ir10  1  0.927904  0.381433  0.741416  1
  Ir  Ir11  1  0.618567  0.546470  0.741416  1
  Ir  Ir12  1  0.536101  0.931943  0.248456  1
  Ir  Ir13  1  0.068057  0.604159  0.248456  1
  Ir  Ir14  1  0.395841  0.463899  0.248456  1
  Ir  Ir15  1  0.176950  0.300140  0.755297  1
  Ir  Ir16  1  0.699860  0.876810  0.755297  1
  Ir  Ir17  1  0.123190  0.823050  0.755297  1
  Rh  Rh18  1  0.845198  0.721734  0.231380  1
  Rh  Rh19  1  0.278266  0.123464  0.231380  1
  Rh  Rh20  1  0.876536  0.154802  0.231380  1
