# generated using pymatgen
data_Tb4Dy3Co6Sn23
_symmetry_space_group_name_H-M   'P 1'
_cell_length_a   9.71948714
_cell_length_b   9.72100098
_cell_length_c   9.98233101
_cell_angle_alpha   90.00196979
_cell_angle_beta   89.99573041
_cell_angle_gamma   120.01412095
_symmetry_Int_Tables_number   1
_chemical_formula_structural   Tb4Dy3Co6Sn23
_chemical_formula_sum   'Tb4 Dy3 Co6 Sn23'
_cell_volume   816.68601679
_cell_formula_units_Z   1
loop_
 _symmetry_equiv_pos_site_id
 _symmetry_equiv_pos_as_xyz
  1  'x, y, z'
loop_
 _atom_site_type_symbol
 _atom_site_label
 _atom_site_symmetry_multiplicity
 _atom_site_fract_x
 _atom_site_fract_y
 _atom_site_fract_z
 _atom_site_occupancy
  Tb  Tb0  1  0.999949  0.999916  0.000078  1
  Tb  Tb1  1  0.521642  0.043212  0.694307  1
  Tb  Tb2  1  0.043262  0.521600  0.305677  1
  Tb  Tb3  1  0.956781  0.478324  0.694328  1
  Dy  Dy4  1  0.478508  0.521389  0.305622  1
  Dy  Dy5  1  0.521384  0.478563  0.694390  1
  Dy  Dy6  1  0.478565  0.957163  0.305578  1
  Co  Co7  1  0.832466  0.167112  0.196781  1
  Co  Co8  1  0.167309  0.832739  0.803266  1
  Co  Co9  1  0.832410  0.665304  0.196853  1
  Co  Co10  1  0.167682  0.334878  0.803236  1
  Co  Co11  1  0.335028  0.167551  0.196883  1
  Co  Co12  1  0.665052  0.832304  0.803162  1
  Sn  Sn13  1  0.345880  0.000038  0.000056  1
  Sn  Sn14  1  0.654088  0.999866  0.000039  1
  Sn  Sn15  1  0.000062  0.345784  0.999969  1
  Sn  Sn16  1  0.000026  0.654167  0.999935  1
  Sn  Sn17  1  0.654014  0.654155  0.999886  1
  Sn  Sn18  1  0.345835  0.345870  0.999940  1
  Sn  Sn19  1  0.333362  0.666543  0.818104  1
  Sn  Sn20  1  0.666540  0.333208  0.181924  1
  Sn  Sn21  1  0.999972  0.999938  0.500034  1
  Sn  Sn22  1  0.780796  0.218628  0.451462  1
  Sn  Sn23  1  0.219050  0.781125  0.548190  1
  Sn  Sn24  1  0.780608  0.562026  0.451714  1
  Sn  Sn25  1  0.219336  0.437796  0.548459  1
  Sn  Sn26  1  0.437849  0.219062  0.451469  1
  Sn  Sn27  1  0.562143  0.780780  0.548259  1
  Sn  Sn28  1  0.334048  0.666959  0.116384  1
  Sn  Sn29  1  0.666280  0.333663  0.883908  1
  Sn  Sn30  1  0.118039  0.882484  0.274887  1
  Sn  Sn31  1  0.882400  0.117629  0.725213  1
  Sn  Sn32  1  0.117955  0.235632  0.274881  1
  Sn  Sn33  1  0.881956  0.764373  0.725076  1
  Sn  Sn34  1  0.763913  0.882062  0.274983  1
  Sn  Sn35  1  0.235811  0.118154  0.725067  1
