# generated using pymatgen
data_Er4Al24ZnPd8
_symmetry_space_group_name_H-M   'P 1'
_cell_length_a   7.55278886
_cell_length_b   7.57410926
_cell_length_c   13.12803705
_cell_angle_alpha   84.46870091
_cell_angle_beta   78.96918354
_cell_angle_gamma   59.93336004
_symmetry_Int_Tables_number   1
_chemical_formula_structural   Er4Al24ZnPd8
_chemical_formula_sum   'Er4 Al24 Zn1 Pd8'
_cell_volume   637.93779593
_cell_formula_units_Z   1
loop_
 _symmetry_equiv_pos_site_id
 _symmetry_equiv_pos_as_xyz
  1  'x, y, z'
loop_
 _atom_site_type_symbol
 _atom_site_label
 _atom_site_symmetry_multiplicity
 _atom_site_fract_x
 _atom_site_fract_y
 _atom_site_fract_z
 _atom_site_occupancy
  Er  Er0  1  0.390385  0.171559  0.808036  1
  Er  Er1  1  0.606099  0.831506  0.191927  1
  Er  Er2  1  0.736752  0.498267  0.807877  1
  Er  Er3  1  0.266928  0.501449  0.191143  1
  Al  Al4  1  0.681917  0.834747  0.945372  1
  Al  Al5  1  0.316008  0.166177  0.056210  1
  Al  Al6  1  0.146096  0.838732  0.560287  1
  Al  Al7  1  0.856155  0.166052  0.433604  1
  Al  Al8  1  0.488284  0.160123  0.558281  1
  Al  Al9  1  0.520541  0.833201  0.437187  1
  Al  Al10  1  0.218865  0.164334  0.327612  1
  Al  Al11  1  0.779522  0.836885  0.675008  1
  Al  Al12  1  0.437042  0.507447  0.675255  1
  Al  Al13  1  0.563777  0.494102  0.327316  1
  Al  Al14  1  0.108445  0.154910  0.673299  1
  Al  Al15  1  0.889707  0.840307  0.328786  1
  Al  Al16  1  0.354639  0.498515  0.944874  1
  Al  Al17  1  0.647144  0.501118  0.056098  1
  Al  Al18  1  0.014898  0.167707  0.954934  1
  Al  Al19  1  0.984111  0.832018  0.046928  1
  Al  Al20  1  0.188220  0.499975  0.436299  1
  Al  Al21  1  0.806308  0.500349  0.558288  1
  Al  Al22  1  0.732584  0.164349  0.183992  1
  Al  Al23  1  0.269038  0.835476  0.817060  1
  Al  Al24  1  0.060787  0.632956  0.817104  1
  Al  Al25  1  0.938719  0.369720  0.185519  1
  Al  Al26  1  0.852392  0.043671  0.816734  1
  Al  Al27  1  0.144645  0.957536  0.184219  1
  Zn  Zn28  1  0.119938  0.489106  0.639881  1
  Pd  Pd29  1  0.880842  0.507595  0.362354  1
  Pd  Pd30  1  0.657251  0.171347  0.999496  1
  Pd  Pd31  1  0.342876  0.828723  0.999991  1
  Pd  Pd32  1  0.536240  0.167954  0.362230  1
  Pd  Pd33  1  0.462446  0.833352  0.637627  1
  Pd  Pd34  1  0.779098  0.175057  0.636849  1
  Pd  Pd35  1  0.221015  0.823682  0.362800  1
  Pd  Pd36  1  0.000283  0.499996  0.999521  1
