# generated using pymatgen
data_PrEr3Zr4F28
_symmetry_space_group_name_H-M   'P 1'
_cell_length_a   5.77056519
_cell_length_b   9.13470427
_cell_length_c   12.27581809
_cell_angle_alpha   62.38412668
_cell_angle_beta   89.95320482
_cell_angle_gamma   90.00151286
_symmetry_Int_Tables_number   1
_chemical_formula_structural   PrEr3Zr4F28
_chemical_formula_sum   'Pr1 Er3 Zr4 F28'
_cell_volume   573.36829619
_cell_formula_units_Z   1
loop_
 _symmetry_equiv_pos_site_id
 _symmetry_equiv_pos_as_xyz
  1  'x, y, z'
loop_
 _atom_site_type_symbol
 _atom_site_label
 _atom_site_symmetry_multiplicity
 _atom_site_fract_x
 _atom_site_fract_y
 _atom_site_fract_z
 _atom_site_occupancy
  Pr  Pr0  1  0.756748  0.817214  0.766679  1
  Er  Er1  1  0.743900  0.818143  0.266082  1
  Er  Er2  1  0.243724  0.183969  0.234123  1
  Er  Er3  1  0.257069  0.189849  0.733229  1
  Zr  Zr4  1  0.743625  0.278636  0.452258  1
  Zr  Zr5  1  0.245013  0.725364  0.050616  1
  Zr  Zr6  1  0.255165  0.725189  0.539514  1
  Zr  Zr7  1  0.755316  0.268914  0.957334  1
  F  F8  1  0.460152  0.708051  0.926284  1
  F  F9  1  0.967096  0.288713  0.577195  1
  F  F10  1  0.530873  0.286480  0.079033  1
  F  F11  1  0.029217  0.711080  0.417846  1
  F  F12  1  0.454849  0.280971  0.549822  1
  F  F13  1  0.956311  0.715084  0.958473  1
  F  F14  1  0.548754  0.720066  0.446649  1
  F  F15  1  0.044830  0.277645  0.052615  1
  F  F16  1  0.769813  0.517907  0.860575  1
  F  F17  1  0.267653  0.473756  0.639928  1
  F  F18  1  0.234972  0.473235  0.143973  1
  F  F19  1  0.732915  0.528848  0.356130  1
  F  F20  1  0.759110  0.019204  0.060537  1
  F  F21  1  0.258798  0.976161  0.439454  1
  F  F22  1  0.240440  0.974791  0.942620  1
  F  F23  1  0.739558  0.028498  0.552515  1
  F  F24  1  0.986327  0.730857  0.644129  1
  F  F25  1  0.485361  0.265563  0.850779  1
  F  F26  1  0.011599  0.264867  0.347816  1
  F  F27  1  0.514992  0.735795  0.153933  1
  F  F28  1  0.030230  0.747727  0.175687  1
  F  F29  1  0.528977  0.253931  0.327038  1
  F  F30  1  0.968753  0.250535  0.829019  1
  F  F31  1  0.457070  0.742763  0.669514  1
  F  F32  1  0.434548  0.976429  0.236078  1
  F  F33  1  0.934885  0.024439  0.264052  1
  F  F34  1  0.564650  0.038714  0.765322  1
  F  F35  1  0.086710  0.980608  0.733146  1
