# generated using pymatgen
data_Tb4Gd2C3Cl5
_symmetry_space_group_name_H-M   'P 1'
_cell_length_a   3.68782449
_cell_length_b   8.41499129
_cell_length_c   10.36372394
_cell_angle_alpha   85.54899208
_cell_angle_beta   79.70441168
_cell_angle_gamma   77.35557339
_symmetry_Int_Tables_number   1
_chemical_formula_structural   Tb4Gd2C3Cl5
_chemical_formula_sum   'Tb4 Gd2 C3 Cl5'
_cell_volume   308.51646784
_cell_formula_units_Z   1
loop_
 _symmetry_equiv_pos_site_id
 _symmetry_equiv_pos_as_xyz
  1  'x, y, z'
loop_
 _atom_site_type_symbol
 _atom_site_label
 _atom_site_symmetry_multiplicity
 _atom_site_fract_x
 _atom_site_fract_y
 _atom_site_fract_z
 _atom_site_occupancy
  Tb  Tb0  1  0.684557  0.178973  0.454605  1
  Tb  Tb1  1  0.047419  0.568492  0.340365  1
  Tb  Tb2  1  0.321518  0.818197  0.542322  1
  Tb  Tb3  1  0.431212  0.923665  0.218321  1
  Gd  Gd4  1  0.573915  0.074288  0.780696  1
  Gd  Gd5  1  0.958114  0.429980  0.657124  1
  C  C6  1  0.128209  0.122440  0.624787  1
  C  C7  1  0.877921  0.874599  0.372857  1
  C  C8  1  0.502769  0.499418  0.498460  1
  Cl  Cl9  1  0.753205  0.746304  0.751694  1
  Cl  Cl10  1  0.378199  0.379918  0.868307  1
  Cl  Cl11  1  0.252244  0.251489  0.245164  1
  Cl  Cl12  1  0.625651  0.619323  0.132735  1
  Cl  Cl13  1  0.002286  0.996505  0.001878  1
