# generated using pymatgen
data_Tb7Yb3(IrPb3)2
_symmetry_space_group_name_H-M   'P 1'
_cell_length_a   9.30767700
_cell_length_b   9.30767698
_cell_length_c   6.89390600
_cell_angle_alpha   90.00000000
_cell_angle_beta   90.00000000
_cell_angle_gamma   119.99999651
_symmetry_Int_Tables_number   1
_chemical_formula_structural   Tb7Yb3(IrPb3)2
_chemical_formula_sum   'Tb7 Yb3 Ir2 Pb6'
_cell_volume   517.22393143
_cell_formula_units_Z   1
loop_
 _symmetry_equiv_pos_site_id
 _symmetry_equiv_pos_as_xyz
  1  'x, y, z'
loop_
 _atom_site_type_symbol
 _atom_site_label
 _atom_site_symmetry_multiplicity
 _atom_site_fract_x
 _atom_site_fract_y
 _atom_site_fract_z
 _atom_site_occupancy
  Tb  Tb0  1  0.235387  0.235860  0.750127  1
  Tb  Tb1  1  0.000473  0.764613  0.750127  1
  Tb  Tb2  1  0.235387  0.999527  0.249873  1
  Tb  Tb3  1  0.764140  0.999527  0.750127  1
  Tb  Tb4  1  0.764140  0.764613  0.249873  1
  Tb  Tb5  1  0.000473  0.235860  0.249873  1
  Tb  Tb6  1  0.666667  0.333333  0.000000  1
  Yb  Yb7  1  0.333333  0.666667  0.500000  1
  Yb  Yb8  1  0.666667  0.333333  0.500000  1
  Yb  Yb9  1  0.333333  0.666667  0.000000  1
  Ir  Ir10  1  0.000000  0.000000  0.000000  1
  Ir  Ir11  1  0.000000  0.000000  0.500000  1
  Pb  Pb12  1  0.594769  0.000516  0.249151  1
  Pb  Pb13  1  0.999484  0.594252  0.249151  1
  Pb  Pb14  1  0.594769  0.594252  0.750849  1
  Pb  Pb15  1  0.405748  0.405231  0.249151  1
  Pb  Pb16  1  0.999484  0.405231  0.750849  1
  Pb  Pb17  1  0.405748  0.000516  0.750849  1
