# generated using pymatgen
data_Dy5Y3(Si3Rh4)2
_symmetry_space_group_name_H-M   'P 1'
_cell_length_a   10.71562016
_cell_length_b   10.71687633
_cell_length_c   7.73153062
_cell_angle_alpha   71.33648975
_cell_angle_beta   71.33559458
_cell_angle_gamma   29.84512612
_symmetry_Int_Tables_number   1
_chemical_formula_structural   Dy5Y3(Si3Rh4)2
_chemical_formula_sum   'Dy5 Y3 Si6 Rh8'
_cell_volume   416.92057898
_cell_formula_units_Z   1
loop_
 _symmetry_equiv_pos_site_id
 _symmetry_equiv_pos_as_xyz
  1  'x, y, z'
loop_
 _atom_site_type_symbol
 _atom_site_label
 _atom_site_symmetry_multiplicity
 _atom_site_fract_x
 _atom_site_fract_y
 _atom_site_fract_z
 _atom_site_occupancy
  Dy  Dy0  1  0.550524  0.789170  0.100091  1
  Dy  Dy1  1  0.790831  0.073790  0.168424  1
  Dy  Dy2  1  0.926321  0.209089  0.331548  1
  Dy  Dy3  1  0.209221  0.926205  0.831500  1
  Dy  Dy4  1  0.073858  0.790779  0.668426  1
  Y  Y5  1  0.790111  0.549610  0.600006  1
  Y  Y6  1  0.450339  0.209874  0.900035  1
  Y  Y7  1  0.209950  0.450357  0.399979  1
  Si  Si8  1  0.952916  0.702781  0.056108  1
  Si  Si9  1  0.297108  0.047293  0.443804  1
  Si  Si10  1  0.047519  0.296903  0.943852  1
  Si  Si11  1  0.702875  0.952772  0.556103  1
  Si  Si12  1  0.632393  0.367639  0.749956  1
  Si  Si13  1  0.367601  0.632335  0.250026  1
  Rh  Rh14  1  0.577885  0.297356  0.520414  1
  Rh  Rh15  1  0.702589  0.422529  0.979793  1
  Rh  Rh16  1  0.422150  0.702929  0.479038  1
  Rh  Rh17  1  0.297463  0.577811  0.020407  1
  Rh  Rh18  1  0.629888  0.928712  0.308716  1
  Rh  Rh19  1  0.070449  0.370579  0.191143  1
  Rh  Rh20  1  0.370118  0.070976  0.691329  1
  Rh  Rh21  1  0.927891  0.630512  0.809304  1
