# generated using pymatgen
data_Dy12ZnCo2Ni2Bi
_symmetry_space_group_name_H-M   'P 1'
_cell_length_a   8.39542918
_cell_length_b   8.39542962
_cell_length_c   8.39542943
_cell_angle_alpha   109.15643975
_cell_angle_beta   111.48900606
_cell_angle_gamma   107.78998339
_symmetry_Int_Tables_number   1
_chemical_formula_structural   Dy12ZnCo2Ni2Bi
_chemical_formula_sum   'Dy12 Zn1 Co2 Ni2 Bi1'
_cell_volume   455.03158918
_cell_formula_units_Z   1
loop_
 _symmetry_equiv_pos_site_id
 _symmetry_equiv_pos_as_xyz
  1  'x, y, z'
loop_
 _atom_site_type_symbol
 _atom_site_label
 _atom_site_symmetry_multiplicity
 _atom_site_fract_x
 _atom_site_fract_y
 _atom_site_fract_z
 _atom_site_occupancy
  Dy  Dy0  1  0.284293  0.179223  0.463517  1
  Dy  Dy1  1  0.715707  0.820777  0.536483  1
  Dy  Dy2  1  0.284293  0.820777  0.105071  1
  Dy  Dy3  1  0.715707  0.179223  0.894929  1
  Dy  Dy4  1  0.626419  0.315947  0.310474  1
  Dy  Dy5  1  0.373581  0.684053  0.689526  1
  Dy  Dy6  1  0.005473  0.315947  0.689526  1
  Dy  Dy7  1  0.994527  0.684053  0.310474  1
  Dy  Dy8  1  0.225377  0.428953  0.203577  1
  Dy  Dy9  1  0.774623  0.571047  0.796423  1
  Dy  Dy10  1  0.225377  0.021801  0.796423  1
  Dy  Dy11  1  0.774623  0.978199  0.203577  1
  Zn  Zn12  1  0.000000  0.000000  0.000000  1
  Co  Co13  1  0.387183  0.887183  0.500000  1
  Co  Co14  1  0.612817  0.112817  0.500000  1
  Ni  Ni15  1  0.000000  0.359550  0.359550  1
  Ni  Ni16  1  0.000000  0.640450  0.640450  1
  Bi  Bi17  1  0.500000  0.500000  0.000000  1
