# generated using pymatgen
data_La12AlCo4Sn
_symmetry_space_group_name_H-M   'P 1'
_cell_length_a   8.78997867
_cell_length_b   8.78995960
_cell_length_c   8.78997981
_cell_angle_alpha   114.88923319
_cell_angle_beta   108.11486764
_cell_angle_gamma   105.55796591
_symmetry_Int_Tables_number   1
_chemical_formula_structural   La12AlCo4Sn
_chemical_formula_sum   'La12 Al1 Co4 Sn1'
_cell_volume   519.03125003
_cell_formula_units_Z   1
loop_
 _symmetry_equiv_pos_site_id
 _symmetry_equiv_pos_as_xyz
  1  'x, y, z'
loop_
 _atom_site_type_symbol
 _atom_site_label
 _atom_site_symmetry_multiplicity
 _atom_site_fract_x
 _atom_site_fract_y
 _atom_site_fract_z
 _atom_site_occupancy
  La  La0  1  0.576120  0.272748  0.303375  1
  La  La1  1  0.171236  0.203991  0.375218  1
  La  La2  1  0.171227  0.796009  0.967245  1
  La  La3  1  0.669613  0.485949  0.816337  1
  La  La4  1  0.669616  0.853276  0.183660  1
  La  La5  1  0.969372  0.272748  0.696628  1
  La  La6  1  0.030628  0.727252  0.303372  1
  La  La7  1  0.330387  0.514051  0.183663  1
  La  La8  1  0.330384  0.146724  0.816340  1
  La  La9  1  0.828773  0.203991  0.032755  1
  La  La10  1  0.828764  0.796009  0.624782  1
  La  La11  1  0.423880  0.727252  0.696625  1
  Al  Al12  1  0.000000  0.500000  0.500000  1
  Co  Co13  1  0.854922  0.854921  0.999999  1
  Co  Co14  1  0.264544  0.500000  0.764544  1
  Co  Co15  1  0.735456  0.500000  0.235456  1
  Co  Co16  1  0.145078  0.145079  0.000001  1
  Sn  Sn17  1  0.500000  0.000000  0.500000  1
