# generated using pymatgen
data_Eu2Al4Ga3Au
_symmetry_space_group_name_H-M   'P 1'
_cell_length_a   4.36473900
_cell_length_b   4.36535100
_cell_length_c   10.87684500
_cell_angle_alpha   90.00000000
_cell_angle_beta   90.00000000
_cell_angle_gamma   90.00000000
_symmetry_Int_Tables_number   1
_chemical_formula_structural   Eu2Al4Ga3Au
_chemical_formula_sum   'Eu2 Al4 Ga3 Au1'
_cell_volume   207.24324705
_cell_formula_units_Z   1
loop_
 _symmetry_equiv_pos_site_id
 _symmetry_equiv_pos_as_xyz
  1  'x, y, z'
loop_
 _atom_site_type_symbol
 _atom_site_label
 _atom_site_symmetry_multiplicity
 _atom_site_fract_x
 _atom_site_fract_y
 _atom_site_fract_z
 _atom_site_occupancy
  Eu  Eu0  1  0.000000  0.500000  0.758878  1
  Eu  Eu1  1  0.500000  0.000000  0.252052  1
  Al  Al2  1  0.000000  0.500000  0.132038  1
  Al  Al3  1  0.500000  0.000000  0.860365  1
  Al  Al4  1  0.000000  0.000000  0.503054  1
  Al  Al5  1  0.500000  0.500000  0.503095  1
  Ga  Ga6  1  0.000000  0.500000  0.362533  1
  Ga  Ga7  1  0.000000  0.000000  0.999298  1
  Ga  Ga8  1  0.500000  0.500000  0.999244  1
  Au  Au9  1  0.500000  0.000000  0.629443  1
