# generated using pymatgen
data_KRbGd6(CBr6)2
_symmetry_space_group_name_H-M   'P 1'
_cell_length_a   8.83567420
_cell_length_b   8.86649703
_cell_length_c   9.52807700
_cell_angle_alpha   69.69714010
_cell_angle_beta   86.01257483
_cell_angle_gamma   89.34412352
_symmetry_Int_Tables_number   1
_chemical_formula_structural   KRbGd6(CBr6)2
_chemical_formula_sum   'K1 Rb1 Gd6 C2 Br12'
_cell_volume   698.30952246
_cell_formula_units_Z   1
loop_
 _symmetry_equiv_pos_site_id
 _symmetry_equiv_pos_as_xyz
  1  'x, y, z'
loop_
 _atom_site_type_symbol
 _atom_site_label
 _atom_site_symmetry_multiplicity
 _atom_site_fract_x
 _atom_site_fract_y
 _atom_site_fract_z
 _atom_site_occupancy
  K  K0  1  0.519391  0.676326  0.654386  1
  Rb  Rb1  1  0.479565  0.341591  0.342455  1
  Gd  Gd2  1  0.915549  0.739539  0.004320  1
  Gd  Gd3  1  0.085049  0.259357  0.995571  1
  Gd  Gd4  1  0.739522  0.085547  0.001698  1
  Gd  Gd5  1  0.261182  0.913224  0.999201  1
  Gd  Gd6  1  0.980542  0.874580  0.329586  1
  Gd  Gd7  1  0.019456  0.123540  0.671575  1
  C  C8  1  0.004859  0.028722  0.920683  1
  C  C9  1  0.995996  0.970267  0.079974  1
  Br  Br10  1  0.086809  0.191621  0.327418  1
  Br  Br11  1  0.907672  0.808576  0.672854  1
  Br  Br12  1  0.208691  0.589887  0.998844  1
  Br  Br13  1  0.791643  0.408607  0.001421  1
  Br  Br14  1  0.406973  0.202151  0.007780  1
  Br  Br15  1  0.593331  0.796977  0.991082  1
  Br  Br16  1  0.669013  0.991625  0.329105  1
  Br  Br17  1  0.327989  0.998932  0.671680  1
  Br  Br18  1  0.290858  0.761305  0.324893  1
  Br  Br19  1  0.711512  0.240280  0.676591  1
  Br  Br20  1  0.850165  0.579540  0.326103  1
  Br  Br21  1  0.154232  0.417805  0.672782  1
