# generated using pymatgen
data_Er6CoP12Ir17
_symmetry_space_group_name_H-M   'P 1'
_cell_length_a   3.94563900
_cell_length_b   11.13909800
_cell_length_c   12.76579500
_cell_angle_alpha   90.00000000
_cell_angle_beta   90.00000000
_cell_angle_gamma   90.00000000
_symmetry_Int_Tables_number   1
_chemical_formula_structural   Er6CoP12Ir17
_chemical_formula_sum   'Er6 Co1 P12 Ir17'
_cell_volume   561.06766237
_cell_formula_units_Z   1
loop_
 _symmetry_equiv_pos_site_id
 _symmetry_equiv_pos_as_xyz
  1  'x, y, z'
loop_
 _atom_site_type_symbol
 _atom_site_label
 _atom_site_symmetry_multiplicity
 _atom_site_fract_x
 _atom_site_fract_y
 _atom_site_fract_z
 _atom_site_occupancy
  Er  Er0  1  0.000000  0.500000  0.522350  1
  Er  Er1  1  0.500000  0.000000  0.477188  1
  Er  Er2  1  0.500000  0.818922  0.202412  1
  Er  Er3  1  0.500000  0.181078  0.202412  1
  Er  Er4  1  0.000000  0.688372  0.797998  1
  Er  Er5  1  0.000000  0.311628  0.797998  1
  Co  Co6  1  0.500000  0.000000  0.025633  1
  P  P7  1  0.500000  0.315394  0.618334  1
  P  P8  1  0.500000  0.684606  0.618334  1
  P  P9  1  0.000000  0.184347  0.381270  1
  P  P10  1  0.000000  0.815653  0.381270  1
  P  P11  1  0.500000  0.500000  0.875994  1
  P  P12  1  0.000000  0.000000  0.122132  1
  P  P13  1  0.500000  0.854498  0.896454  1
  P  P14  1  0.500000  0.145502  0.896454  1
  P  P15  1  0.000000  0.657526  0.106119  1
  P  P16  1  0.000000  0.342474  0.106119  1
  P  P17  1  0.500000  0.500000  0.358503  1
  P  P18  1  0.000000  0.000000  0.639588  1
  Ir  Ir19  1  0.000000  0.500000  0.971512  1
  Ir  Ir20  1  0.500000  0.294812  0.429740  1
  Ir  Ir21  1  0.500000  0.705188  0.429740  1
  Ir  Ir22  1  0.000000  0.206880  0.569852  1
  Ir  Ir23  1  0.000000  0.793120  0.569852  1
  Ir  Ir24  1  0.500000  0.869459  0.714141  1
  Ir  Ir25  1  0.500000  0.130541  0.714141  1
  Ir  Ir26  1  0.000000  0.631377  0.284931  1
  Ir  Ir27  1  0.000000  0.368623  0.284931  1
  Ir  Ir28  1  0.500000  0.333228  0.000992  1
  Ir  Ir29  1  0.500000  0.666772  0.000992  1
  Ir  Ir30  1  0.000000  0.157473  0.001927  1
  Ir  Ir31  1  0.000000  0.842527  0.001927  1
  Ir  Ir32  1  0.500000  0.500000  0.179310  1
  Ir  Ir33  1  0.000000  0.000000  0.819749  1
  Ir  Ir34  1  0.500000  0.500000  0.699922  1
  Ir  Ir35  1  0.000000  0.000000  0.299780  1
