# generated using pymatgen
data_KBa3(CrN2)4
_symmetry_space_group_name_H-M   'P 1'
_cell_length_a   6.47299861
_cell_length_b   6.47299786
_cell_length_c   7.81516705
_cell_angle_alpha   89.57897266
_cell_angle_beta   90.42102869
_cell_angle_gamma   126.40261867
_symmetry_Int_Tables_number   1
_chemical_formula_structural   KBa3(CrN2)4
_chemical_formula_sum   'K1 Ba3 Cr4 N8'
_cell_volume   263.54723919
_cell_formula_units_Z   1
loop_
 _symmetry_equiv_pos_site_id
 _symmetry_equiv_pos_as_xyz
  1  'x, y, z'
loop_
 _atom_site_type_symbol
 _atom_site_label
 _atom_site_symmetry_multiplicity
 _atom_site_fract_x
 _atom_site_fract_y
 _atom_site_fract_z
 _atom_site_occupancy
  K  K0  1  0.841030  0.158970  0.562246  1
  Ba  Ba1  1  0.165025  0.834975  0.447283  1
  Ba  Ba2  1  0.662059  0.337941  0.063804  1
  Ba  Ba3  1  0.340243  0.659757  0.930753  1
  Cr  Cr4  1  0.549664  0.450336  0.634215  1
  Cr  Cr5  1  0.448806  0.551194  0.361546  1
  Cr  Cr6  1  0.951091  0.048909  0.138381  1
  Cr  Cr7  1  0.048188  0.951812  0.865512  1
  N  N8  1  0.893754  0.106246  0.915690  1
  N  N9  1  0.107778  0.892222  0.089034  1
  N  N10  1  0.604513  0.395487  0.411577  1
  N  N11  1  0.394539  0.605461  0.585182  1
  N  N12  1  0.342508  0.158425  0.752403  1
  N  N13  1  0.157109  0.347882  0.244985  1
  N  N14  1  0.652118  0.842891  0.244985  1
  N  N15  1  0.841575  0.657492  0.752403  1
