# generated using pymatgen
data_TbTm9(TlSb)3
_symmetry_space_group_name_H-M   'P 1'
_cell_length_a   6.42774900
_cell_length_b   8.86868713
_cell_length_c   8.86862600
_cell_angle_alpha   59.88515977
_cell_angle_beta   89.99974150
_cell_angle_gamma   90.00029669
_symmetry_Int_Tables_number   1
_chemical_formula_structural   TbTm9(TlSb)3
_chemical_formula_sum   'Tb1 Tm9 Tl3 Sb3'
_cell_volume   437.32215910
_cell_formula_units_Z   1
loop_
 _symmetry_equiv_pos_site_id
 _symmetry_equiv_pos_as_xyz
  1  'x, y, z'
loop_
 _atom_site_type_symbol
 _atom_site_label
 _atom_site_symmetry_multiplicity
 _atom_site_fract_x
 _atom_site_fract_y
 _atom_site_fract_z
 _atom_site_occupancy
  Tb  Tb0  1  0.250026  0.762358  0.237635  1
  Tm  Tm1  1  0.502292  0.333554  0.333265  1
  Tm  Tm2  1  0.502292  0.666735  0.666445  1
  Tm  Tm3  1  0.997700  0.666678  0.666405  1
  Tm  Tm4  1  0.997701  0.333597  0.333321  1
  Tm  Tm5  1  0.749988  0.237813  0.762183  1
  Tm  Tm6  1  0.750022  0.761901  0.999511  1
  Tm  Tm7  1  0.750024  0.000482  0.238107  1
  Tm  Tm8  1  0.250000  0.238353  0.999841  1
  Tm  Tm9  1  0.249999  0.000153  0.761652  1
  Tl  Tl10  1  0.749896  0.606491  0.393515  1
  Tl  Tl11  1  0.750026  0.393318  0.000211  1
  Tl  Tl12  1  0.750030  0.999793  0.606689  1
  Sb  Sb13  1  0.250039  0.394398  0.605598  1
  Sb  Sb14  1  0.249983  0.603817  0.999431  1
  Sb  Sb15  1  0.249982  0.000563  0.396190  1
