# generated using pymatgen
data_Hf6Zn15Pd8S
_symmetry_space_group_name_H-M   'P 1'
_cell_length_a   8.58959880
_cell_length_b   8.58959786
_cell_length_c   8.58959800
_cell_angle_alpha   59.99999946
_cell_angle_beta   60.00000308
_cell_angle_gamma   59.99999621
_symmetry_Int_Tables_number   1
_chemical_formula_structural   Hf6Zn15Pd8S
_chemical_formula_sum   'Hf6 Zn15 Pd8 S1'
_cell_volume   448.12951471
_cell_formula_units_Z   1
loop_
 _symmetry_equiv_pos_site_id
 _symmetry_equiv_pos_as_xyz
  1  'x, y, z'
loop_
 _atom_site_type_symbol
 _atom_site_label
 _atom_site_symmetry_multiplicity
 _atom_site_fract_x
 _atom_site_fract_y
 _atom_site_fract_z
 _atom_site_occupancy
  Hf  Hf0  1  0.712460  0.287540  0.287540  1
  Hf  Hf1  1  0.287540  0.712460  0.712460  1
  Hf  Hf2  1  0.287540  0.712460  0.287540  1
  Hf  Hf3  1  0.712460  0.287540  0.712460  1
  Hf  Hf4  1  0.287540  0.287540  0.712460  1
  Hf  Hf5  1  0.712460  0.712460  0.287540  1
  Zn  Zn6  1  0.500000  0.000000  0.000000  1
  Zn  Zn7  1  0.000000  0.500000  0.500000  1
  Zn  Zn8  1  0.000000  0.500000  0.000000  1
  Zn  Zn9  1  0.500000  0.000000  0.500000  1
  Zn  Zn10  1  0.000000  0.000000  0.500000  1
  Zn  Zn11  1  0.500000  0.500000  0.000000  1
  Zn  Zn12  1  0.332810  0.332810  0.332810  1
  Zn  Zn13  1  0.667190  0.667190  0.667190  1
  Zn  Zn14  1  0.332810  0.332810  0.001568  1
  Zn  Zn15  1  0.332810  0.001568  0.332810  1
  Zn  Zn16  1  0.667190  0.667190  0.998432  1
  Zn  Zn17  1  0.667190  0.998432  0.667190  1
  Zn  Zn18  1  0.001568  0.332810  0.332810  1
  Zn  Zn19  1  0.998432  0.667190  0.667190  1
  Zn  Zn20  1  0.000000  0.000000  0.000000  1
  Pd  Pd21  1  0.120404  0.120404  0.120404  1
  Pd  Pd22  1  0.879596  0.879596  0.879596  1
  Pd  Pd23  1  0.120404  0.120404  0.638789  1
  Pd  Pd24  1  0.120404  0.638789  0.120404  1
  Pd  Pd25  1  0.879596  0.879596  0.361211  1
  Pd  Pd26  1  0.879596  0.361211  0.879596  1
  Pd  Pd27  1  0.638789  0.120404  0.120404  1
  Pd  Pd28  1  0.361211  0.879596  0.879596  1
  S  S29  1  0.500000  0.500000  0.500000  1
