# generated using pymatgen
data_Rb2Dy2GaAgTe6
_symmetry_space_group_name_H-M   'P 1'
_cell_length_a   8.64456546
_cell_length_b   8.64456587
_cell_length_c   11.71182200
_cell_angle_alpha   90.00000000
_cell_angle_beta   90.00000000
_cell_angle_gamma   149.95584036
_symmetry_Int_Tables_number   1
_chemical_formula_structural   Rb2Dy2GaAgTe6
_chemical_formula_sum   'Rb2 Dy2 Ga1 Ag1 Te6'
_cell_volume   438.18758296
_cell_formula_units_Z   1
loop_
 _symmetry_equiv_pos_site_id
 _symmetry_equiv_pos_as_xyz
  1  'x, y, z'
loop_
 _atom_site_type_symbol
 _atom_site_label
 _atom_site_symmetry_multiplicity
 _atom_site_fract_x
 _atom_site_fract_y
 _atom_site_fract_z
 _atom_site_occupancy
  Rb  Rb0  1  0.258084  0.741916  0.250000  1
  Rb  Rb1  1  0.750828  0.249172  0.750000  1
  Dy  Dy2  1  0.494997  0.505003  0.021407  1
  Dy  Dy3  1  0.494997  0.505003  0.478593  1
  Ga  Ga4  1  0.035423  0.964577  0.750000  1
  Ag  Ag5  1  0.966951  0.033049  0.250000  1
  Te  Te6  1  0.873316  0.126684  0.048734  1
  Te  Te7  1  0.577010  0.422990  0.250000  1
  Te  Te8  1  0.873316  0.126684  0.451265  1
  Te  Te9  1  0.118259  0.881741  0.560969  1
  Te  Te10  1  0.438560  0.561440  0.750000  1
  Te  Te11  1  0.118259  0.881741  0.939031  1
