# generated using pymatgen
data_Pr7Tm13In16
_symmetry_space_group_name_H-M   'P 1'
_cell_length_a   8.30386263
_cell_length_b   8.31131004
_cell_length_c   15.26501800
_cell_angle_alpha   90.00077210
_cell_angle_beta   90.18359272
_cell_angle_gamma   90.02868901
_symmetry_Int_Tables_number   1
_chemical_formula_structural   Pr7Tm13In16
_chemical_formula_sum   'Pr7 Tm13 In16'
_cell_volume   1053.52458847
_cell_formula_units_Z   1
loop_
 _symmetry_equiv_pos_site_id
 _symmetry_equiv_pos_as_xyz
  1  'x, y, z'
loop_
 _atom_site_type_symbol
 _atom_site_label
 _atom_site_symmetry_multiplicity
 _atom_site_fract_x
 _atom_site_fract_y
 _atom_site_fract_z
 _atom_site_occupancy
  Pr  Pr0  1  0.648712  0.999242  0.965425  1
  Pr  Pr1  1  0.852423  0.498361  0.285002  1
  Pr  Pr2  1  0.147876  0.502041  0.783563  1
  Pr  Pr3  1  0.999533  0.647473  0.035433  1
  Pr  Pr4  1  0.002158  0.351219  0.533243  1
  Pr  Pr5  1  0.500342  0.147626  0.216211  1
  Pr  Pr6  1  0.497328  0.853260  0.715685  1
  Tm  Tm7  1  0.327249  0.327201  0.999717  1
  Tm  Tm8  1  0.670763  0.673308  0.500070  1
  Tm  Tm9  1  0.825737  0.174299  0.748938  1
  Tm  Tm10  1  0.174389  0.828211  0.251470  1
  Tm  Tm11  1  0.154874  0.002920  0.872197  1
  Tm  Tm12  1  0.845438  0.996886  0.373301  1
  Tm  Tm13  1  0.655831  0.498261  0.877262  1
  Tm  Tm14  1  0.345463  0.504143  0.377948  1
  Tm  Tm15  1  0.996724  0.846553  0.625419  1
  Tm  Tm16  1  0.004258  0.155607  0.129114  1
  Tm  Tm17  1  0.500439  0.343665  0.619611  1
  Tm  Tm18  1  0.497086  0.655130  0.123269  1
  Tm  Tm19  1  0.357384  0.995556  0.466017  1
  In  In20  1  0.289166  0.949578  0.064314  1
  In  In21  1  0.704623  0.047902  0.563124  1
  In  In22  1  0.788278  0.550256  0.685123  1
  In  In23  1  0.211272  0.448137  0.187043  1
  In  In24  1  0.051152  0.711601  0.436189  1
  In  In25  1  0.949818  0.289156  0.936062  1
  In  In26  1  0.448613  0.211915  0.813007  1
  In  In27  1  0.548590  0.791995  0.315148  1
  In  In28  1  0.201386  0.142079  0.675235  1
  In  In29  1  0.798510  0.858848  0.177507  1
  In  In30  1  0.702070  0.358025  0.073310  1
  In  In31  1  0.299885  0.645938  0.572216  1
  In  In32  1  0.857632  0.799270  0.821808  1
  In  In33  1  0.147600  0.197414  0.327800  1
  In  In34  1  0.639116  0.295188  0.425899  1
  In  In35  1  0.358276  0.701728  0.927317  1
