# generated using pymatgen
data_LiDy3Cd3Au2
_symmetry_space_group_name_H-M   'P 1'
_cell_length_a   7.83319800
_cell_length_b   7.83319810
_cell_length_c   3.83848000
_cell_angle_alpha   90.00000000
_cell_angle_beta   90.00000000
_cell_angle_gamma   120.00000802
_symmetry_Int_Tables_number   1
_chemical_formula_structural   LiDy3Cd3Au2
_chemical_formula_sum   'Li1 Dy3 Cd3 Au2'
_cell_volume   203.97084403
_cell_formula_units_Z   1
loop_
 _symmetry_equiv_pos_site_id
 _symmetry_equiv_pos_as_xyz
  1  'x, y, z'
loop_
 _atom_site_type_symbol
 _atom_site_label
 _atom_site_symmetry_multiplicity
 _atom_site_fract_x
 _atom_site_fract_y
 _atom_site_fract_z
 _atom_site_occupancy
  Li  Li0  1  0.000000  0.000000  0.000000  1
  Dy  Dy1  1  0.583210  0.000000  0.000000  1
  Dy  Dy2  1  0.000000  0.583210  0.000000  1
  Dy  Dy3  1  0.416790  0.416790  0.000000  1
  Cd  Cd4  1  0.243235  0.000000  0.500000  1
  Cd  Cd5  1  0.000000  0.243235  0.500000  1
  Cd  Cd6  1  0.756765  0.756765  0.500000  1
  Au  Au7  1  0.333333  0.666667  0.500000  1
  Au  Au8  1  0.666667  0.333333  0.500000  1
