# generated using pymatgen
data_CeDy4Co19(Si2P)4
_symmetry_space_group_name_H-M   'P 1'
_cell_length_a   12.16347231
_cell_length_b   12.16609298
_cell_length_c   3.71397500
_cell_angle_alpha   90.00000000
_cell_angle_beta   90.00000000
_cell_angle_gamma   120.07603526
_symmetry_Int_Tables_number   1
_chemical_formula_structural   CeDy4Co19(Si2P)4
_chemical_formula_sum   'Ce1 Dy4 Co19 Si8 P4'
_cell_volume   475.60350998
_cell_formula_units_Z   1
loop_
 _symmetry_equiv_pos_site_id
 _symmetry_equiv_pos_as_xyz
  1  'x, y, z'
loop_
 _atom_site_type_symbol
 _atom_site_label
 _atom_site_symmetry_multiplicity
 _atom_site_fract_x
 _atom_site_fract_y
 _atom_site_fract_z
 _atom_site_occupancy
  Ce  Ce0  1  0.182453  0.181078  0.500000  1
  Dy  Dy1  1  0.665759  0.334164  0.000000  1
  Dy  Dy2  1  0.331841  0.663345  0.000000  1
  Dy  Dy3  1  0.813186  0.000374  0.500000  1
  Dy  Dy4  1  0.999350  0.811703  0.500000  1
  Co  Co5  1  0.559461  0.560166  0.000000  1
  Co  Co6  1  0.440929  0.000696  0.000000  1
  Co  Co7  1  0.996691  0.440630  0.000000  1
  Co  Co8  1  0.823167  0.197714  0.000000  1
  Co  Co9  1  0.803499  0.627548  0.000000  1
  Co  Co10  1  0.371415  0.175632  0.000000  1
  Co  Co11  1  0.197144  0.820433  0.000000  1
  Co  Co12  1  0.627414  0.803559  0.000000  1
  Co  Co13  1  0.175233  0.377147  0.000000  1
  Co  Co14  1  0.643011  0.123571  0.500000  1
  Co  Co15  1  0.877023  0.521010  0.500000  1
  Co  Co16  1  0.479345  0.357205  0.500000  1
  Co  Co17  1  0.124344  0.636735  0.500000  1
  Co  Co18  1  0.520725  0.876926  0.500000  1
  Co  Co19  1  0.355015  0.480268  0.500000  1
  Co  Co20  1  0.723407  0.723786  0.500000  1
  Co  Co21  1  0.278024  0.998076  0.500000  1
  Co  Co22  1  0.003421  0.283463  0.500000  1
  Co  Co23  1  0.002874  0.003286  0.000000  1
  Si  Si24  1  0.372279  0.373221  0.000000  1
  Si  Si25  1  0.628366  0.000325  0.000000  1
  Si  Si26  1  0.000640  0.628580  0.000000  1
  Si  Si27  1  0.838616  0.317596  0.500000  1
  Si  Si28  1  0.683732  0.523872  0.500000  1
  Si  Si29  1  0.477085  0.160222  0.500000  1
  Si  Si30  1  0.317152  0.837475  0.500000  1
  Si  Si31  1  0.523442  0.684151  0.500000  1
  P  P32  1  0.165339  0.478239  0.500000  1
  P  P33  1  0.819325  0.819510  0.000000  1
  P  P34  1  0.181963  0.994580  0.000000  1
  P  P35  1  0.997329  0.183709  0.000000  1
