# generated using pymatgen
data_Tb3Ho2(Hg2Pd)2
_symmetry_space_group_name_H-M   'P 1'
_cell_length_a   3.66351200
_cell_length_b   7.99295300
_cell_length_c   18.15093500
_cell_angle_alpha   90.00000000
_cell_angle_beta   90.00000000
_cell_angle_gamma   90.00000000
_symmetry_Int_Tables_number   1
_chemical_formula_structural   Tb3Ho2(Hg2Pd)2
_chemical_formula_sum   'Tb6 Ho4 Hg8 Pd4'
_cell_volume   531.50074697
_cell_formula_units_Z   2
loop_
 _symmetry_equiv_pos_site_id
 _symmetry_equiv_pos_as_xyz
  1  'x, y, z'
loop_
 _atom_site_type_symbol
 _atom_site_label
 _atom_site_symmetry_multiplicity
 _atom_site_fract_x
 _atom_site_fract_y
 _atom_site_fract_z
 _atom_site_occupancy
  Tb  Tb0  1  0.000000  0.500000  0.500000  1
  Tb  Tb1  1  0.000000  0.000000  0.000000  1
  Tb  Tb2  1  0.000000  0.734218  0.284536  1
  Tb  Tb3  1  0.000000  0.265782  0.715464  1
  Tb  Tb4  1  0.000000  0.765782  0.784536  1
  Tb  Tb5  1  0.000000  0.234218  0.215464  1
  Ho  Ho6  1  0.000000  0.613473  0.084735  1
  Ho  Ho7  1  0.000000  0.386527  0.915265  1
  Ho  Ho8  1  0.000000  0.886527  0.584735  1
  Ho  Ho9  1  0.000000  0.113473  0.415265  1
  Hg  Hg10  1  0.500000  0.710335  0.935605  1
  Hg  Hg11  1  0.500000  0.289665  0.064395  1
  Hg  Hg12  1  0.500000  0.789665  0.435605  1
  Hg  Hg13  1  0.500000  0.210335  0.564395  1
  Hg  Hg14  1  0.500000  0.582785  0.647703  1
  Hg  Hg15  1  0.500000  0.417215  0.352297  1
  Hg  Hg16  1  0.500000  0.917215  0.147703  1
  Hg  Hg17  1  0.500000  0.082785  0.852297  1
  Pd  Pd18  1  0.500000  0.524348  0.195358  1
  Pd  Pd19  1  0.500000  0.475652  0.804642  1
  Pd  Pd20  1  0.500000  0.975652  0.695358  1
  Pd  Pd21  1  0.500000  0.024348  0.304642  1
