# generated using pymatgen
data_Er(SbO3)3
_symmetry_space_group_name_H-M   'P 1'
_cell_length_a   7.47644100
_cell_length_b   5.34407537
_cell_length_c   8.17889367
_cell_angle_alpha   86.04792199
_cell_angle_beta   90.00000000
_cell_angle_gamma   90.00000000
_symmetry_Int_Tables_number   1
_chemical_formula_structural   Er(SbO3)3
_chemical_formula_sum   'Er2 Sb6 O18'
_cell_volume   326.00787048
_cell_formula_units_Z   2
loop_
 _symmetry_equiv_pos_site_id
 _symmetry_equiv_pos_as_xyz
  1  'x, y, z'
loop_
 _atom_site_type_symbol
 _atom_site_label
 _atom_site_symmetry_multiplicity
 _atom_site_fract_x
 _atom_site_fract_y
 _atom_site_fract_z
 _atom_site_occupancy
  Er  Er0  1  0.250000  0.965399  0.434179  1
  Er  Er1  1  0.750000  0.034601  0.565821  1
  Sb  Sb2  1  0.000000  0.000000  0.000000  1
  Sb  Sb3  1  0.500000  0.000000  0.000000  1
  Sb  Sb4  1  0.005015  0.530481  0.697368  1
  Sb  Sb5  1  0.494985  0.530481  0.697368  1
  Sb  Sb6  1  0.994985  0.469519  0.302632  1
  Sb  Sb7  1  0.505015  0.469519  0.302632  1
  O  O8  1  0.250000  0.877416  0.983472  1
  O  O9  1  0.936064  0.859017  0.777736  1
  O  O10  1  0.563936  0.859017  0.777736  1
  O  O11  1  0.958294  0.739896  0.472237  1
  O  O12  1  0.541706  0.739896  0.472237  1
  O  O13  1  0.250000  0.669043  0.653500  1
  O  O14  1  0.929956  0.673507  0.111517  1
  O  O15  1  0.570044  0.673507  0.111517  1
  O  O16  1  0.250000  0.598524  0.309031  1
  O  O17  1  0.750000  0.401476  0.690969  1
  O  O18  1  0.070044  0.326493  0.888483  1
  O  O19  1  0.429956  0.326493  0.888483  1
  O  O20  1  0.750000  0.330957  0.346500  1
  O  O21  1  0.041706  0.260104  0.527763  1
  O  O22  1  0.458294  0.260104  0.527763  1
  O  O23  1  0.063936  0.140983  0.222264  1
  O  O24  1  0.436064  0.140983  0.222264  1
  O  O25  1  0.750000  0.122584  0.016528  1
