# generated using pymatgen
data_Ho8Er3Tm5(Ga3Co)2
_symmetry_space_group_name_H-M   'P 1'
_cell_length_a   9.91639500
_cell_length_b   9.91639526
_cell_length_c   6.89412300
_cell_angle_alpha   90.00000000
_cell_angle_beta   90.00000000
_cell_angle_gamma   120.00000246
_symmetry_Int_Tables_number   1
_chemical_formula_structural   Ho8Er3Tm5(Ga3Co)2
_chemical_formula_sum   'Ho8 Er3 Tm5 Ga6 Co2'
_cell_volume   587.10704999
_cell_formula_units_Z   1
loop_
 _symmetry_equiv_pos_site_id
 _symmetry_equiv_pos_as_xyz
  1  'x, y, z'
loop_
 _atom_site_type_symbol
 _atom_site_label
 _atom_site_symmetry_multiplicity
 _atom_site_fract_x
 _atom_site_fract_y
 _atom_site_fract_z
 _atom_site_occupancy
  Ho  Ho0  1  0.463977  0.536023  0.207589  1
  Ho  Ho1  1  0.072046  0.536023  0.207589  1
  Ho  Ho2  1  0.463977  0.927954  0.207589  1
  Ho  Ho3  1  0.536147  0.463853  0.708172  1
  Ho  Ho4  1  0.927707  0.463853  0.708172  1
  Ho  Ho5  1  0.536147  0.072293  0.708172  1
  Ho  Ho6  1  0.000000  0.000000  0.230610  1
  Ho  Ho7  1  0.000000  0.000000  0.731606  1
  Er  Er8  1  0.173377  0.826623  0.511259  1
  Er  Er9  1  0.653244  0.826623  0.511259  1
  Er  Er10  1  0.173377  0.346756  0.511259  1
  Tm  Tm11  1  0.826565  0.173435  0.011232  1
  Tm  Tm12  1  0.346873  0.173435  0.011232  1
  Tm  Tm13  1  0.826565  0.653127  0.011232  1
  Tm  Tm14  1  0.333333  0.666667  0.827390  1
  Tm  Tm15  1  0.666667  0.333333  0.326727  1
  Ga  Ga16  1  0.163475  0.836525  0.958983  1
  Ga  Ga17  1  0.673049  0.836525  0.958983  1
  Ga  Ga18  1  0.163475  0.326951  0.958983  1
  Ga  Ga19  1  0.836356  0.163644  0.458603  1
  Ga  Ga20  1  0.327288  0.163644  0.458603  1
  Ga  Ga21  1  0.836356  0.672712  0.458603  1
  Co  Co22  1  0.333333  0.666667  0.445015  1
  Co  Co23  1  0.666667  0.333333  0.945184  1
