# generated using pymatgen
data_Ho3Er13MgCd3Pd4
_symmetry_space_group_name_H-M   'P 1'
_cell_length_a   9.65022226
_cell_length_b   9.64844744
_cell_length_c   9.64518189
_cell_angle_alpha   59.91356180
_cell_angle_beta   59.90770027
_cell_angle_gamma   59.89172437
_symmetry_Int_Tables_number   1
_chemical_formula_structural   Ho3Er13MgCd3Pd4
_chemical_formula_sum   'Ho3 Er13 Mg1 Cd3 Pd4'
_cell_volume   633.64574305
_cell_formula_units_Z   1
loop_
 _symmetry_equiv_pos_site_id
 _symmetry_equiv_pos_as_xyz
  1  'x, y, z'
loop_
 _atom_site_type_symbol
 _atom_site_label
 _atom_site_symmetry_multiplicity
 _atom_site_fract_x
 _atom_site_fract_y
 _atom_site_fract_z
 _atom_site_occupancy
  Ho  Ho0  1  0.935141  0.565093  0.935117  1
  Ho  Ho1  1  0.567222  0.567411  0.933332  1
  Ho  Ho2  1  0.934924  0.935099  0.565046  1
  Er  Er3  1  0.351189  0.351214  0.351360  1
  Er  Er4  1  0.354953  0.354703  0.938875  1
  Er  Er5  1  0.354968  0.938911  0.354706  1
  Er  Er6  1  0.938818  0.354942  0.354907  1
  Er  Er7  1  0.810206  0.190473  0.190871  1
  Er  Er8  1  0.188604  0.812405  0.812313  1
  Er  Er9  1  0.190713  0.810203  0.190742  1
  Er  Er10  1  0.812365  0.188479  0.812370  1
  Er  Er11  1  0.190876  0.190523  0.810216  1
  Er  Er12  1  0.812237  0.812333  0.188778  1
  Er  Er13  1  0.933799  0.567105  0.566889  1
  Er  Er14  1  0.564877  0.935344  0.935101  1
  Er  Er15  1  0.567108  0.933768  0.567089  1
  Mg  Mg16  1  0.577478  0.577516  0.577451  1
  Cd  Cd17  1  0.581495  0.581649  0.252387  1
  Cd  Cd18  1  0.581442  0.252259  0.581666  1
  Cd  Cd19  1  0.252361  0.581485  0.581548  1
  Pd  Pd20  1  0.145431  0.145295  0.145298  1
  Pd  Pd21  1  0.142888  0.142942  0.568075  1
  Pd  Pd22  1  0.142793  0.568132  0.142968  1
  Pd  Pd23  1  0.568113  0.142715  0.142894  1
