# generated using pymatgen
data_Eu4Mg4Fe3H22
_symmetry_space_group_name_H-M   'P 1'
_cell_length_a   6.77100100
_cell_length_b   6.77100100
_cell_length_c   6.77100100
_cell_angle_alpha   90.00000000
_cell_angle_beta   90.00000000
_cell_angle_gamma   90.00000000
_symmetry_Int_Tables_number   1
_chemical_formula_structural   Eu4Mg4Fe3H22
_chemical_formula_sum   'Eu4 Mg4 Fe3 H22'
_cell_volume   310.42638955
_cell_formula_units_Z   1
loop_
 _symmetry_equiv_pos_site_id
 _symmetry_equiv_pos_as_xyz
  1  'x, y, z'
loop_
 _atom_site_type_symbol
 _atom_site_label
 _atom_site_symmetry_multiplicity
 _atom_site_fract_x
 _atom_site_fract_y
 _atom_site_fract_z
 _atom_site_occupancy
  Eu  Eu0  1  0.290318  0.290318  0.709682  1
  Eu  Eu1  1  0.290318  0.709682  0.290318  1
  Eu  Eu2  1  0.709682  0.290318  0.290318  1
  Eu  Eu3  1  0.709682  0.709682  0.709682  1
  Mg  Mg4  1  0.788502  0.788502  0.211498  1
  Mg  Mg5  1  0.788502  0.211498  0.788502  1
  Mg  Mg6  1  0.211498  0.788502  0.788502  1
  Mg  Mg7  1  0.211498  0.211498  0.211498  1
  Fe  Fe8  1  0.000000  0.000000  0.500000  1
  Fe  Fe9  1  0.000000  0.500000  0.000000  1
  Fe  Fe10  1  0.500000  0.000000  0.000000  1
  H  H11  1  0.000000  0.500000  0.235213  1
  H  H12  1  0.500000  0.764787  0.000000  1
  H  H13  1  0.764787  0.000000  0.500000  1
  H  H14  1  0.000000  0.764787  0.500000  1
  H  H15  1  0.500000  0.000000  0.235213  1
  H  H16  1  0.764787  0.500000  0.000000  1
  H  H17  1  0.000000  0.500000  0.764787  1
  H  H18  1  0.500000  0.235213  0.000000  1
  H  H19  1  0.000000  0.235213  0.500000  1
  H  H20  1  0.500000  0.000000  0.764787  1
  H  H21  1  0.235213  0.000000  0.500000  1
  H  H22  1  0.235213  0.500000  0.000000  1
  H  H23  1  0.000000  0.000000  0.264810  1
  H  H24  1  0.000000  0.735190  0.000000  1
  H  H25  1  0.735190  0.000000  0.000000  1
  H  H26  1  0.000000  0.000000  0.735190  1
  H  H27  1  0.000000  0.264810  0.000000  1
  H  H28  1  0.264810  0.000000  0.000000  1
  H  H29  1  0.629574  0.629574  0.370426  1
  H  H30  1  0.629574  0.370426  0.629574  1
  H  H31  1  0.370426  0.629574  0.629574  1
  H  H32  1  0.370426  0.370426  0.370426  1
