# generated using pymatgen
data_Pu8Si12OsPd3
_symmetry_space_group_name_H-M   'P 1'
_cell_length_a   8.06641800
_cell_length_b   8.06641858
_cell_length_c   8.24153800
_cell_angle_alpha   90.00000000
_cell_angle_beta   90.00000000
_cell_angle_gamma   120.00000582
_symmetry_Int_Tables_number   1
_chemical_formula_structural   Pu8Si12OsPd3
_chemical_formula_sum   'Pu8 Si12 Os1 Pd3'
_cell_volume   464.40870276
_cell_formula_units_Z   1
loop_
 _symmetry_equiv_pos_site_id
 _symmetry_equiv_pos_as_xyz
  1  'x, y, z'
loop_
 _atom_site_type_symbol
 _atom_site_label
 _atom_site_symmetry_multiplicity
 _atom_site_fract_x
 _atom_site_fract_y
 _atom_site_fract_z
 _atom_site_occupancy
  Pu  Pu0  1  0.495579  0.991157  0.243387  1
  Pu  Pu1  1  0.493643  0.987287  0.756790  1
  Pu  Pu2  1  0.008843  0.504421  0.243387  1
  Pu  Pu3  1  0.012713  0.506357  0.756790  1
  Pu  Pu4  1  0.495579  0.504421  0.243387  1
  Pu  Pu5  1  0.493643  0.506357  0.756790  1
  Pu  Pu6  1  0.000000  0.000000  0.249796  1
  Pu  Pu7  1  0.000000  0.000000  0.750228  1
  Si  Si8  1  0.163219  0.326436  0.001268  1
  Si  Si9  1  0.835364  0.670730  0.998496  1
  Si  Si10  1  0.673564  0.836781  0.001268  1
  Si  Si11  1  0.834173  0.668346  0.500093  1
  Si  Si12  1  0.329270  0.164636  0.998496  1
  Si  Si13  1  0.163734  0.327466  0.499975  1
  Si  Si14  1  0.163219  0.836781  0.001268  1
  Si  Si15  1  0.331654  0.165827  0.500093  1
  Si  Si16  1  0.835364  0.164636  0.998496  1
  Si  Si17  1  0.672534  0.836266  0.499975  1
  Si  Si18  1  0.834173  0.165827  0.500093  1
  Si  Si19  1  0.163734  0.836266  0.499975  1
  Os  Os20  1  0.333333  0.666667  0.000778  1
  Pd  Pd21  1  0.666667  0.333333  0.998498  1
  Pd  Pd22  1  0.666667  0.333333  0.503633  1
  Pd  Pd23  1  0.333333  0.666667  0.497041  1
