# generated using pymatgen
data_Lu20N19
_symmetry_space_group_name_H-M   'P 1'
_cell_length_a   8.90808420
_cell_length_b   8.90808361
_cell_length_c   8.90808432
_cell_angle_alpha   106.57507174
_cell_angle_beta   106.57506681
_cell_angle_gamma   115.43312512
_symmetry_Int_Tables_number   1
_chemical_formula_structural   Lu20N19
_chemical_formula_sum   'Lu20 N19'
_cell_volume   539.70094017
_cell_formula_units_Z   1
loop_
 _symmetry_equiv_pos_site_id
 _symmetry_equiv_pos_as_xyz
  1  'x, y, z'
loop_
 _atom_site_type_symbol
 _atom_site_label
 _atom_site_symmetry_multiplicity
 _atom_site_fract_x
 _atom_site_fract_y
 _atom_site_fract_z
 _atom_site_occupancy
  Lu  Lu0  1  0.047791  0.650067  0.200560  1
  Lu  Lu1  1  0.396249  0.706869  0.103119  1
  Lu  Lu2  1  0.100086  0.798726  0.898812  1
  Lu  Lu3  1  0.757777  0.757777  0.000000  1
  Lu  Lu4  1  0.798726  0.899914  0.698640  1
  Lu  Lu5  1  0.449508  0.847230  0.799440  1
  Lu  Lu6  1  0.500000  0.000000  0.500000  1
  Lu  Lu7  1  0.152770  0.952209  0.602276  1
  Lu  Lu8  1  0.201274  0.100086  0.301360  1
  Lu  Lu9  1  0.847230  0.047791  0.397724  1
  Lu  Lu10  1  0.899914  0.201274  0.101188  1
  Lu  Lu11  1  0.550492  0.152770  0.200560  1
  Lu  Lu12  1  0.603751  0.293131  0.896881  1
  Lu  Lu13  1  0.242223  0.242223  0.000000  1
  Lu  Lu14  1  0.293131  0.396249  0.689381  1
  Lu  Lu15  1  0.952209  0.349933  0.799440  1
  Lu  Lu16  1  0.000000  0.500000  0.500000  1
  Lu  Lu17  1  0.650067  0.449508  0.602276  1
  Lu  Lu18  1  0.706869  0.603751  0.310619  1
  Lu  Lu19  1  0.349933  0.550492  0.397724  1
  N  N20  1  0.898871  0.699743  0.598614  1
  N  N21  1  0.550171  0.650043  0.701794  1
  N  N22  1  0.600104  0.799063  0.399167  1
  N  N23  1  0.250000  0.750000  0.500000  1
  N  N24  1  0.300257  0.898871  0.199128  1
  N  N25  1  0.948249  0.848377  0.298206  1
  N  N26  1  0.000000  0.000000  0.000000  1
  N  N27  1  0.650043  0.948249  0.099872  1
  N  N28  1  0.699743  0.101129  0.800872  1
  N  N29  1  0.349957  0.051751  0.900128  1
  N  N30  1  0.051751  0.151623  0.701794  1
  N  N31  1  0.750000  0.250000  0.500000  1
  N  N32  1  0.399896  0.200937  0.600833  1
  N  N33  1  0.449829  0.349957  0.298206  1
  N  N34  1  0.101129  0.300257  0.401386  1
  N  N35  1  0.151623  0.449829  0.099872  1
  N  N36  1  0.200937  0.600104  0.801042  1
  N  N37  1  0.799063  0.399896  0.198958  1
  N  N38  1  0.848377  0.550171  0.900128  1
