# generated using pymatgen
data_TbEr3BeCo3I2
_symmetry_space_group_name_H-M   'P 1'
_cell_length_a   3.92036900
_cell_length_b   3.92036899
_cell_length_c   16.81857700
_cell_angle_alpha   90.00000000
_cell_angle_beta   90.00000000
_cell_angle_gamma   119.99997478
_symmetry_Int_Tables_number   1
_chemical_formula_structural   TbEr3BeCo3I2
_chemical_formula_sum   'Tb1 Er3 Be1 Co3 I2'
_cell_volume   223.85865061
_cell_formula_units_Z   1
loop_
 _symmetry_equiv_pos_site_id
 _symmetry_equiv_pos_as_xyz
  1  'x, y, z'
loop_
 _atom_site_type_symbol
 _atom_site_label
 _atom_site_symmetry_multiplicity
 _atom_site_fract_x
 _atom_site_fract_y
 _atom_site_fract_z
 _atom_site_occupancy
  Tb  Tb0  1  0.000000  0.000000  0.897963  1
  Er  Er1  1  0.000000  0.000000  0.100506  1
  Er  Er2  1  0.000000  0.000000  0.603264  1
  Er  Er3  1  0.000000  0.000000  0.396773  1
  Be  Be4  1  0.666667  0.333333  0.000398  1
  Co  Co5  1  0.333333  0.666667  0.002211  1
  Co  Co6  1  0.666667  0.333333  0.501821  1
  Co  Co7  1  0.333333  0.666667  0.497966  1
  I  I8  1  0.666667  0.333333  0.250198  1
  I  I9  1  0.333333  0.666667  0.748901  1
