# generated using pymatgen
data_Tb12AlGaCo3Os
_symmetry_space_group_name_H-M   'P 1'
_cell_length_a   8.34403907
_cell_length_b   8.34403932
_cell_length_c   8.34403865
_cell_angle_alpha   112.08528796
_cell_angle_beta   110.16762603
_cell_angle_gamma   106.21520184
_symmetry_Int_Tables_number   1
_chemical_formula_structural   Tb12AlGaCo3Os
_chemical_formula_sum   'Tb12 Al1 Ga1 Co3 Os1'
_cell_volume   445.99725233
_cell_formula_units_Z   1
loop_
 _symmetry_equiv_pos_site_id
 _symmetry_equiv_pos_as_xyz
  1  'x, y, z'
loop_
 _atom_site_type_symbol
 _atom_site_label
 _atom_site_symmetry_multiplicity
 _atom_site_fract_x
 _atom_site_fract_y
 _atom_site_fract_z
 _atom_site_occupancy
  Tb  Tb0  1  0.054534  0.749025  0.305509  1
  Tb  Tb1  1  0.960762  0.265124  0.695637  1
  Tb  Tb2  1  0.556482  0.250975  0.305509  1
  Tb  Tb3  1  0.430514  0.734876  0.695637  1
  Tb  Tb4  1  0.675828  0.860844  0.186704  1
  Tb  Tb5  1  0.325860  0.510876  0.186704  1
  Tb  Tb6  1  0.325860  0.139156  0.814984  1
  Tb  Tb7  1  0.675828  0.489124  0.814984  1
  Tb  Tb8  1  0.177202  0.221644  0.398845  1
  Tb  Tb9  1  0.815248  0.216051  0.031299  1
  Tb  Tb10  1  0.177202  0.778356  0.955558  1
  Tb  Tb11  1  0.815248  0.783949  0.599196  1
  Al  Al12  1  0.986675  0.500000  0.486675  1
  Ga  Ga13  1  0.507845  0.000000  0.507845  1
  Co  Co14  1  0.333290  0.500000  0.833290  1
  Co  Co15  1  0.888183  0.887207  0.000976  1
  Co  Co16  1  0.113770  0.112793  0.000976  1
  Os  Os17  1  0.679668  0.500000  0.179668  1
