# generated using pymatgen
data_La7Tb13Ir16
_symmetry_space_group_name_H-M   'P 1'
_cell_length_a   7.52362631
_cell_length_b   7.65721077
_cell_length_c   14.67036700
_cell_angle_alpha   89.91652418
_cell_angle_beta   89.90984830
_cell_angle_gamma   89.96235099
_symmetry_Int_Tables_number   1
_chemical_formula_structural   La7Tb13Ir16
_chemical_formula_sum   'La7 Tb13 Ir16'
_cell_volume   845.15760734
_cell_formula_units_Z   1
loop_
 _symmetry_equiv_pos_site_id
 _symmetry_equiv_pos_as_xyz
  1  'x, y, z'
loop_
 _atom_site_type_symbol
 _atom_site_label
 _atom_site_symmetry_multiplicity
 _atom_site_fract_x
 _atom_site_fract_y
 _atom_site_fract_z
 _atom_site_occupancy
  La  La0  1  0.978058  0.177701  0.596395  1
  La  La1  1  0.521910  0.678461  0.404523  1
  La  La2  1  0.022955  0.821664  0.095135  1
  La  La3  1  0.522060  0.677620  0.093758  1
  La  La4  1  0.021604  0.821792  0.404118  1
  La  La5  1  0.477879  0.320683  0.596447  1
  La  La6  1  0.977992  0.179570  0.904955  1
  Tb  Tb7  1  0.329751  0.825129  0.877499  1
  Tb  Tb8  1  0.830102  0.673621  0.623655  1
  Tb  Tb9  1  0.669471  0.174330  0.377175  1
  Tb  Tb10  1  0.170789  0.326859  0.121866  1
  Tb  Tb11  1  0.668120  0.175984  0.121012  1
  Tb  Tb12  1  0.169130  0.325281  0.377159  1
  Tb  Tb13  1  0.330160  0.825040  0.623646  1
  Tb  Tb14  1  0.828671  0.672584  0.878181  1
  Tb  Tb15  1  0.477113  0.319346  0.901883  1
  Tb  Tb16  1  0.162290  0.493837  0.751305  1
  Tb  Tb17  1  0.661505  0.004928  0.751326  1
  Tb  Tb18  1  0.838179  0.505117  0.249310  1
  Tb  Tb19  1  0.338541  0.995482  0.249304  1
  Ir  Ir20  1  0.336978  0.036721  0.040101  1
  Ir  Ir21  1  0.836697  0.467912  0.457428  1
  Ir  Ir22  1  0.663639  0.967275  0.542746  1
  Ir  Ir23  1  0.168971  0.528855  0.956725  1
  Ir  Ir24  1  0.660128  0.971839  0.956177  1
  Ir  Ir25  1  0.163584  0.531654  0.542666  1
  Ir  Ir26  1  0.336459  0.031652  0.457708  1
  Ir  Ir27  1  0.838559  0.468613  0.042267  1
  Ir  Ir28  1  0.532507  0.610880  0.751969  1
  Ir  Ir29  1  0.035317  0.886497  0.750690  1
  Ir  Ir30  1  0.465717  0.385986  0.249713  1
  Ir  Ir31  1  0.964765  0.114935  0.249438  1
  Ir  Ir32  1  0.288478  0.135668  0.752976  1
  Ir  Ir33  1  0.782016  0.365062  0.752212  1
  Ir  Ir34  1  0.714298  0.867063  0.249158  1
  Ir  Ir35  1  0.215606  0.634355  0.249373  1
