# generated using pymatgen
data_Sc6BS4
_symmetry_space_group_name_H-M   'P 1'
_cell_length_a   6.28881076
_cell_length_b   7.19034470
_cell_length_c   8.07111732
_cell_angle_alpha   48.08281128
_cell_angle_beta   129.68054111
_cell_angle_gamma   106.80478424
_symmetry_Int_Tables_number   1
_chemical_formula_structural   Sc6BS4
_chemical_formula_sum   'Sc6 B1 S4'
_cell_volume   202.89956717
_cell_formula_units_Z   1
loop_
 _symmetry_equiv_pos_site_id
 _symmetry_equiv_pos_as_xyz
  1  'x, y, z'
loop_
 _atom_site_type_symbol
 _atom_site_label
 _atom_site_symmetry_multiplicity
 _atom_site_fract_x
 _atom_site_fract_y
 _atom_site_fract_z
 _atom_site_occupancy
  Sc  Sc0  1  0.329673  0.390025  0.251912  1
  Sc  Sc1  1  0.629786  0.250149  0.862324  1
  Sc  Sc2  1  0.335822  0.867043  0.253317  1
  Sc  Sc3  1  0.025339  0.559267  0.565804  1
  Sc  Sc4  1  0.725173  0.699137  0.955354  1
  Sc  Sc5  1  0.019181  0.082258  0.564393  1
  B  B6  1  0.177480  0.474646  0.408861  1
  S  S7  1  0.844703  0.143866  0.741942  1
  S  S8  1  0.510282  0.805418  0.075775  1
  S  S9  1  0.849562  0.647395  0.736072  1
  S  S10  1  0.505442  0.301904  0.081623  1
