# generated using pymatgen
data_Ba8UFeS12
_symmetry_space_group_name_H-M   'P 1'
_cell_length_a   8.55422983
_cell_length_b   8.55422998
_cell_length_c   8.55423100
_cell_angle_alpha   89.47082787
_cell_angle_beta   89.47083456
_cell_angle_gamma   89.47084591
_symmetry_Int_Tables_number   1
_chemical_formula_structural   Ba8UFeS12
_chemical_formula_sum   'Ba8 U1 Fe1 S12'
_cell_volume   625.87496594
_cell_formula_units_Z   1
loop_
 _symmetry_equiv_pos_site_id
 _symmetry_equiv_pos_as_xyz
  1  'x, y, z'
loop_
 _atom_site_type_symbol
 _atom_site_label
 _atom_site_symmetry_multiplicity
 _atom_site_fract_x
 _atom_site_fract_y
 _atom_site_fract_z
 _atom_site_occupancy
  Ba  Ba0  1  0.874188  0.617499  0.262677  1
  Ba  Ba1  1  0.262677  0.874188  0.617499  1
  Ba  Ba2  1  0.617499  0.262677  0.874188  1
  Ba  Ba3  1  0.737323  0.125812  0.382501  1
  Ba  Ba4  1  0.382501  0.737323  0.125812  1
  Ba  Ba5  1  0.125812  0.382501  0.737323  1
  Ba  Ba6  1  0.259772  0.259772  0.259772  1
  Ba  Ba7  1  0.740228  0.740228  0.740228  1
  U  U8  1  0.000000  0.000000  0.000000  1
  Fe  Fe9  1  0.500000  0.500000  0.500000  1
  S  S10  1  0.227859  0.563990  0.430661  1
  S  S11  1  0.430661  0.227859  0.563990  1
  S  S12  1  0.563990  0.430661  0.227859  1
  S  S13  1  0.926777  0.059639  0.707833  1
  S  S14  1  0.707833  0.926777  0.059639  1
  S  S15  1  0.059639  0.707833  0.926777  1
  S  S16  1  0.772141  0.436010  0.569339  1
  S  S17  1  0.569339  0.772141  0.436010  1
  S  S18  1  0.436010  0.569339  0.772141  1
  S  S19  1  0.073223  0.940361  0.292167  1
  S  S20  1  0.292167  0.073223  0.940361  1
  S  S21  1  0.940361  0.292167  0.073223  1
