# generated using pymatgen
data_Ho2B4IrRu3
_symmetry_space_group_name_H-M   'P 1'
_cell_length_a   6.68633004
_cell_length_b   5.92793417
_cell_length_c   5.52470950
_cell_angle_alpha   71.34101337
_cell_angle_beta   57.13761277
_cell_angle_gamma   51.97814146
_symmetry_Int_Tables_number   1
_chemical_formula_structural   Ho2B4IrRu3
_chemical_formula_sum   'Ho2 B4 Ir1 Ru3'
_cell_volume   144.86679278
_cell_formula_units_Z   1
loop_
 _symmetry_equiv_pos_site_id
 _symmetry_equiv_pos_as_xyz
  1  'x, y, z'
loop_
 _atom_site_type_symbol
 _atom_site_label
 _atom_site_symmetry_multiplicity
 _atom_site_fract_x
 _atom_site_fract_y
 _atom_site_fract_z
 _atom_site_occupancy
  Ho  Ho0  1  0.998863  0.998863  0.001137  1
  Ho  Ho1  1  0.249334  0.249334  0.250666  1
  B  B2  1  0.685863  0.312822  0.685946  1
  B  B3  1  0.312822  0.685863  0.315369  1
  B  B4  1  0.940402  0.562629  0.938473  1
  B  B5  1  0.562629  0.940402  0.558496  1
  Ir  Ir6  1  0.613007  0.613007  0.886993  1
  Ru  Ru7  1  0.637368  0.637368  0.362631  1
  Ru  Ru8  1  0.362715  0.362716  0.637284  1
  Ru  Ru9  1  0.886997  0.886996  0.613003  1
