# generated using pymatgen
data_Tb2Tm2Al3ZnPt4
_symmetry_space_group_name_H-M   'P 1'
_cell_length_a   4.41908500
_cell_length_b   6.80337479
_cell_length_c   7.79688508
_cell_angle_alpha   89.81130210
_cell_angle_beta   90.00000000
_cell_angle_gamma   90.00000000
_symmetry_Int_Tables_number   1
_chemical_formula_structural   Tb2Tm2Al3ZnPt4
_chemical_formula_sum   'Tb2 Tm2 Al3 Zn1 Pt4'
_cell_volume   234.40967312
_cell_formula_units_Z   1
loop_
 _symmetry_equiv_pos_site_id
 _symmetry_equiv_pos_as_xyz
  1  'x, y, z'
loop_
 _atom_site_type_symbol
 _atom_site_label
 _atom_site_symmetry_multiplicity
 _atom_site_fract_x
 _atom_site_fract_y
 _atom_site_fract_z
 _atom_site_occupancy
  Tb  Tb0  1  0.750000  0.972142  0.318308  1
  Tb  Tb1  1  0.750000  0.467629  0.177492  1
  Tm  Tm2  1  0.250000  0.028490  0.687408  1
  Tm  Tm3  1  0.250000  0.527169  0.816500  1
  Al  Al4  1  0.250000  0.649271  0.438961  1
  Al  Al5  1  0.750000  0.854317  0.935790  1
  Al  Al6  1  0.750000  0.356580  0.561428  1
  Zn  Zn7  1  0.250000  0.150792  0.065171  1
  Pt  Pt8  1  0.250000  0.273136  0.394206  1
  Pt  Pt9  1  0.250000  0.761884  0.113339  1
  Pt  Pt10  1  0.750000  0.729142  0.619356  1
  Pt  Pt11  1  0.750000  0.229447  0.872041  1
