# generated using pymatgen
data_HfSc7Si16Mo11W
_symmetry_space_group_name_H-M   'P 1'
_cell_length_a   6.57537337
_cell_length_b   6.78914850
_cell_length_c   12.69470509
_cell_angle_alpha   89.94804118
_cell_angle_beta   89.96062733
_cell_angle_gamma   90.13138029
_symmetry_Int_Tables_number   1
_chemical_formula_structural   HfSc7Si16Mo11W
_chemical_formula_sum   'Hf1 Sc7 Si16 Mo11 W1'
_cell_volume   566.70483674
_cell_formula_units_Z   1
loop_
 _symmetry_equiv_pos_site_id
 _symmetry_equiv_pos_as_xyz
  1  'x, y, z'
loop_
 _atom_site_type_symbol
 _atom_site_label
 _atom_site_symmetry_multiplicity
 _atom_site_fract_x
 _atom_site_fract_y
 _atom_site_fract_z
 _atom_site_occupancy
  Hf  Hf0  1  0.504755  0.669488  0.594595  1
  Sc  Sc1  1  0.995456  0.169458  0.093032  1
  Sc  Sc2  1  0.005459  0.830426  0.907622  1
  Sc  Sc3  1  0.505164  0.669003  0.907451  1
  Sc  Sc4  1  0.006533  0.830175  0.592324  1
  Sc  Sc5  1  0.495012  0.330432  0.092939  1
  Sc  Sc6  1  0.994955  0.169955  0.407010  1
  Sc  Sc7  1  0.495416  0.331055  0.407151  1
  Si  Si8  1  0.032954  0.123013  0.749492  1
  Si  Si9  1  0.965813  0.876482  0.249709  1
  Si  Si10  1  0.466046  0.622764  0.249192  1
  Si  Si11  1  0.534763  0.375705  0.750319  1
  Si  Si12  1  0.300239  0.860953  0.751080  1
  Si  Si13  1  0.698711  0.140090  0.249863  1
  Si  Si14  1  0.198957  0.359658  0.250144  1
  Si  Si15  1  0.802289  0.640878  0.751163  1
  Si  Si16  1  0.166622  0.461847  0.543533  1
  Si  Si17  1  0.832979  0.537351  0.455542  1
  Si  Si18  1  0.334065  0.963392  0.455659  1
  Si  Si19  1  0.834521  0.536786  0.045054  1
  Si  Si20  1  0.666528  0.038383  0.543975  1
  Si  Si21  1  0.165200  0.463068  0.955342  1
  Si  Si22  1  0.664854  0.036502  0.954810  1
  Si  Si23  1  0.334769  0.963546  0.045083  1
  Mo  Mo24  1  0.833668  0.494147  0.250499  1
  Mo  Mo25  1  0.333657  0.005446  0.249856  1
  Mo  Mo26  1  0.665874  0.991596  0.748527  1
  Mo  Mo27  1  0.331561  0.164933  0.623980  1
  Mo  Mo28  1  0.667656  0.832794  0.376723  1
  Mo  Mo29  1  0.169849  0.666365  0.376257  1
  Mo  Mo30  1  0.668675  0.834321  0.124100  1
  Mo  Mo31  1  0.830473  0.338188  0.624332  1
  Mo  Mo32  1  0.329840  0.166935  0.875518  1
  Mo  Mo33  1  0.830762  0.334541  0.875779  1
  Mo  Mo34  1  0.169011  0.664645  0.123935  1
  W  W35  1  0.166917  0.505680  0.748413  1
