# generated using pymatgen
data_Sc10In8Ga2RuRh
_symmetry_space_group_name_H-M   'P 1'
_cell_length_a   3.38818000
_cell_length_b   7.81833753
_cell_length_c   17.68527521
_cell_angle_alpha   89.00737897
_cell_angle_beta   90.00000000
_cell_angle_gamma   90.00000000
_symmetry_Int_Tables_number   1
_chemical_formula_structural   Sc10In8Ga2RuRh
_chemical_formula_sum   'Sc10 In8 Ga2 Ru1 Rh1'
_cell_volume   468.41148526
_cell_formula_units_Z   1
loop_
 _symmetry_equiv_pos_site_id
 _symmetry_equiv_pos_as_xyz
  1  'x, y, z'
loop_
 _atom_site_type_symbol
 _atom_site_label
 _atom_site_symmetry_multiplicity
 _atom_site_fract_x
 _atom_site_fract_y
 _atom_site_fract_z
 _atom_site_occupancy
  Sc  Sc0  1  0.000000  0.999869  0.000599  1
  Sc  Sc1  1  0.000000  0.501235  0.499648  1
  Sc  Sc2  1  0.000000  0.732177  0.783644  1
  Sc  Sc3  1  0.000000  0.259878  0.216825  1
  Sc  Sc4  1  0.000000  0.281735  0.725186  1
  Sc  Sc5  1  0.000000  0.720941  0.275291  1
  Sc  Sc6  1  0.000000  0.877301  0.576268  1
  Sc  Sc7  1  0.000000  0.123934  0.422591  1
  Sc  Sc8  1  0.000000  0.380353  0.916637  1
  Sc  Sc9  1  0.000000  0.621575  0.082839  1
  In  In10  1  0.500000  0.792110  0.430778  1
  In  In11  1  0.500000  0.209371  0.568477  1
  In  In12  1  0.500000  0.294198  0.066030  1
  In  In13  1  0.500000  0.705451  0.933959  1
  In  In14  1  0.500000  0.919155  0.148362  1
  In  In15  1  0.500000  0.083533  0.852002  1
  In  In16  1  0.500000  0.423521  0.352335  1
  In  In17  1  0.500000  0.578023  0.648391  1
  Ga  Ga18  1  0.500000  0.972798  0.696434  1
  Ga  Ga19  1  0.500000  0.026581  0.303593  1
  Ru  Ru20  1  0.500000  0.469678  0.806436  1
  Rh  Rh21  1  0.500000  0.526584  0.193675  1
