# generated using pymatgen
data_Y2Co9Si7Ru3
_symmetry_space_group_name_H-M   'P 1'
_cell_length_a   3.73904800
_cell_length_b   9.17278266
_cell_length_c   9.17278300
_cell_angle_alpha   119.99999761
_cell_angle_beta   90.00000000
_cell_angle_gamma   90.00000000
_symmetry_Int_Tables_number   1
_chemical_formula_structural   Y2Co9Si7Ru3
_chemical_formula_sum   'Y2 Co9 Si7 Ru3'
_cell_volume   272.45445004
_cell_formula_units_Z   1
loop_
 _symmetry_equiv_pos_site_id
 _symmetry_equiv_pos_as_xyz
  1  'x, y, z'
loop_
 _atom_site_type_symbol
 _atom_site_label
 _atom_site_symmetry_multiplicity
 _atom_site_fract_x
 _atom_site_fract_y
 _atom_site_fract_z
 _atom_site_occupancy
  Y  Y0  1  0.000000  0.666667  0.333333  1
  Y  Y1  1  0.500000  0.333333  0.666667  1
  Co  Co2  1  0.000000  0.569836  0.945900  1
  Co  Co3  1  0.000000  0.376065  0.430164  1
  Co  Co4  1  0.000000  0.054100  0.623935  1
  Co  Co5  1  0.000000  0.873409  0.155638  1
  Co  Co6  1  0.000000  0.282229  0.126591  1
  Co  Co7  1  0.000000  0.844362  0.717771  1
  Co  Co8  1  0.500000  0.948712  0.383984  1
  Co  Co9  1  0.500000  0.435271  0.051288  1
  Co  Co10  1  0.500000  0.616016  0.564729  1
  Si  Si11  1  0.000000  0.000000  0.000000  1
  Si  Si12  1  0.500000  0.708933  0.112686  1
  Si  Si13  1  0.500000  0.403753  0.291067  1
  Si  Si14  1  0.500000  0.887314  0.596247  1
  Si  Si15  1  0.000000  0.593592  0.704809  1
  Si  Si16  1  0.000000  0.111218  0.406408  1
  Si  Si17  1  0.000000  0.295191  0.888782  1
  Ru  Ru18  1  0.500000  0.783527  0.899004  1
  Ru  Ru19  1  0.500000  0.115477  0.216473  1
  Ru  Ru20  1  0.500000  0.100996  0.884523  1
