# generated using pymatgen
data_Hf3PaRh4
_symmetry_space_group_name_H-M   'P 1'
_cell_length_a   4.45369600
_cell_length_b   5.36653651
_cell_length_c   6.29690621
_cell_angle_alpha   90.08289279
_cell_angle_beta   90.00000000
_cell_angle_gamma   90.00000000
_symmetry_Int_Tables_number   1
_chemical_formula_structural   Hf3PaRh4
_chemical_formula_sum   'Hf3 Pa1 Rh4'
_cell_volume   150.50170787
_cell_formula_units_Z   1
loop_
 _symmetry_equiv_pos_site_id
 _symmetry_equiv_pos_as_xyz
  1  'x, y, z'
loop_
 _atom_site_type_symbol
 _atom_site_label
 _atom_site_symmetry_multiplicity
 _atom_site_fract_x
 _atom_site_fract_y
 _atom_site_fract_z
 _atom_site_occupancy
  Hf  Hf0  1  0.250000  0.357197  0.669351  1
  Hf  Hf1  1  0.750000  0.635166  0.322238  1
  Hf  Hf2  1  0.250000  0.147780  0.186515  1
  Pa  Pa3  1  0.750000  0.859063  0.822456  1
  Rh  Rh4  1  0.750000  0.167221  0.458868  1
  Rh  Rh5  1  0.250000  0.829710  0.539842  1
  Rh  Rh6  1  0.250000  0.666804  0.053785  1
  Rh  Rh7  1  0.750000  0.337060  0.946944  1
