# generated using pymatgen
data_Rb3Ba(NpTe3)2
_symmetry_space_group_name_H-M   'P 1'
_cell_length_a   8.17866026
_cell_length_b   8.17866123
_cell_length_c   8.93847105
_cell_angle_alpha   81.31748836
_cell_angle_beta   81.31748575
_cell_angle_gamma   119.31941205
_symmetry_Int_Tables_number   1
_chemical_formula_structural   Rb3Ba(NpTe3)2
_chemical_formula_sum   'Rb3 Ba1 Np2 Te6'
_cell_volume   497.48625090
_cell_formula_units_Z   1
loop_
 _symmetry_equiv_pos_site_id
 _symmetry_equiv_pos_as_xyz
  1  'x, y, z'
loop_
 _atom_site_type_symbol
 _atom_site_label
 _atom_site_symmetry_multiplicity
 _atom_site_fract_x
 _atom_site_fract_y
 _atom_site_fract_z
 _atom_site_occupancy
  Rb  Rb0  1  0.657427  0.342573  0.500000  1
  Rb  Rb1  1  0.342573  0.657427  0.500000  1
  Rb  Rb2  1  0.000000  0.000000  0.500000  1
  Ba  Ba3  1  0.500000  0.500000  0.000000  1
  Np  Np4  1  0.832321  0.167679  0.000000  1
  Np  Np5  1  0.167679  0.832321  0.000000  1
  Te  Te6  1  0.795761  0.795761  0.203584  1
  Te  Te7  1  0.204239  0.204239  0.796416  1
  Te  Te8  1  0.429064  0.063778  0.205372  1
  Te  Te9  1  0.570936  0.936222  0.794628  1
  Te  Te10  1  0.936222  0.570936  0.794628  1
  Te  Te11  1  0.063778  0.429064  0.205372  1
