# generated using pymatgen
data_Nd8AlCo2Si12Pd
_symmetry_space_group_name_H-M   'P 1'
_cell_length_a   8.15984700
_cell_length_b   8.15984916
_cell_length_c   8.48308000
_cell_angle_alpha   90.00000000
_cell_angle_beta   90.00000000
_cell_angle_gamma   119.99999529
_symmetry_Int_Tables_number   1
_chemical_formula_structural   Nd8AlCo2Si12Pd
_chemical_formula_sum   'Nd8 Al1 Co2 Si12 Pd1'
_cell_volume   489.15709967
_cell_formula_units_Z   1
loop_
 _symmetry_equiv_pos_site_id
 _symmetry_equiv_pos_as_xyz
  1  'x, y, z'
loop_
 _atom_site_type_symbol
 _atom_site_label
 _atom_site_symmetry_multiplicity
 _atom_site_fract_x
 _atom_site_fract_y
 _atom_site_fract_z
 _atom_site_occupancy
  Nd  Nd0  1  0.495200  0.504800  0.748027  1
  Nd  Nd1  1  0.496243  0.503757  0.251766  1
  Nd  Nd2  1  0.009600  0.504800  0.748027  1
  Nd  Nd3  1  0.007514  0.503757  0.251766  1
  Nd  Nd4  1  0.495200  0.990400  0.748027  1
  Nd  Nd5  1  0.496243  0.992486  0.251766  1
  Nd  Nd6  1  0.000000  0.000000  0.746792  1
  Nd  Nd7  1  0.000000  0.000000  0.253657  1
  Al  Al8  1  0.666667  0.333333  0.995847  1
  Co  Co9  1  0.333333  0.666667  0.002747  1
  Co  Co10  1  0.333333  0.666667  0.498286  1
  Si  Si11  1  0.838878  0.161122  0.000570  1
  Si  Si12  1  0.174889  0.825111  0.000026  1
  Si  Si13  1  0.322245  0.161122  0.000570  1
  Si  Si14  1  0.172658  0.827342  0.499513  1
  Si  Si15  1  0.650222  0.825111  0.000026  1
  Si  Si16  1  0.835245  0.164755  0.500410  1
  Si  Si17  1  0.838878  0.677755  0.000570  1
  Si  Si18  1  0.654684  0.827342  0.499513  1
  Si  Si19  1  0.174889  0.349778  0.000026  1
  Si  Si20  1  0.329510  0.164755  0.500410  1
  Si  Si21  1  0.172658  0.345316  0.499513  1
  Si  Si22  1  0.835245  0.670490  0.500410  1
  Pd  Pd23  1  0.666667  0.333333  0.501736  1
