# generated using pymatgen
data_Zn22Ir3
_symmetry_space_group_name_H-M   'P 1'
_cell_length_a   7.80038819
_cell_length_b   7.80038890
_cell_length_c   7.81701498
_cell_angle_alpha   72.21669864
_cell_angle_beta   72.21669614
_cell_angle_gamma   58.36388706
_symmetry_Int_Tables_number   1
_chemical_formula_structural   Zn22Ir3
_chemical_formula_sum   'Zn22 Ir3'
_cell_volume   379.36767029
_cell_formula_units_Z   1
loop_
 _symmetry_equiv_pos_site_id
 _symmetry_equiv_pos_as_xyz
  1  'x, y, z'
loop_
 _atom_site_type_symbol
 _atom_site_label
 _atom_site_symmetry_multiplicity
 _atom_site_fract_x
 _atom_site_fract_y
 _atom_site_fract_z
 _atom_site_occupancy
  Zn  Zn0  1  0.342588  0.739273  0.313725  1
  Zn  Zn1  1  0.657412  0.260727  0.686275  1
  Zn  Zn2  1  0.260727  0.657412  0.686275  1
  Zn  Zn3  1  0.739273  0.342588  0.313725  1
  Zn  Zn4  1  0.677682  0.322318  0.000000  1
  Zn  Zn5  1  0.322318  0.677682  0.000000  1
  Zn  Zn6  1  0.830721  0.830721  0.783445  1
  Zn  Zn7  1  0.169279  0.169279  0.216555  1
  Zn  Zn8  1  0.972937  0.972937  0.173675  1
  Zn  Zn9  1  0.027063  0.027063  0.826325  1
  Zn  Zn10  1  0.353509  0.353509  0.276880  1
  Zn  Zn11  1  0.646491  0.646491  0.723120  1
  Zn  Zn12  1  0.686218  0.686218  0.378286  1
  Zn  Zn13  1  0.313782  0.313782  0.621714  1
  Zn  Zn14  1  0.657618  0.027118  0.456807  1
  Zn  Zn15  1  0.342382  0.972882  0.543193  1
  Zn  Zn16  1  0.972882  0.342382  0.543193  1
  Zn  Zn17  1  0.027118  0.657618  0.456807  1
  Zn  Zn18  1  0.619132  0.998069  0.104104  1
  Zn  Zn19  1  0.380868  0.001931  0.895896  1
  Zn  Zn20  1  0.001931  0.380868  0.895896  1
  Zn  Zn21  1  0.998069  0.619132  0.104104  1
  Ir  Ir22  1  0.657938  0.657938  0.054456  1
  Ir  Ir23  1  0.342062  0.342062  0.945544  1
  Ir  Ir24  1  0.000000  0.000000  0.500000  1
