# generated using pymatgen
data_La2LuSi2
_symmetry_space_group_name_H-M   'P 1'
_cell_length_a   7.57843600
_cell_length_b   7.57843600
_cell_length_c   4.55168900
_cell_angle_alpha   90.00000000
_cell_angle_beta   90.00000000
_cell_angle_gamma   90.00000000
_symmetry_Int_Tables_number   1
_chemical_formula_structural   La2LuSi2
_chemical_formula_sum   'La4 Lu2 Si4'
_cell_volume   261.41575335
_cell_formula_units_Z   2
loop_
 _symmetry_equiv_pos_site_id
 _symmetry_equiv_pos_as_xyz
  1  'x, y, z'
loop_
 _atom_site_type_symbol
 _atom_site_label
 _atom_site_symmetry_multiplicity
 _atom_site_fract_x
 _atom_site_fract_y
 _atom_site_fract_z
 _atom_site_occupancy
  La  La0  1  0.677153  0.177153  0.500000  1
  La  La1  1  0.822847  0.677153  0.500000  1
  La  La2  1  0.177153  0.322847  0.500000  1
  La  La3  1  0.322847  0.822847  0.500000  1
  Lu  Lu4  1  0.500000  0.500000  0.000000  1
  Lu  Lu5  1  0.000000  0.000000  0.000000  1
  Si  Si6  1  0.614969  0.885031  0.000000  1
  Si  Si7  1  0.885031  0.385031  0.000000  1
  Si  Si8  1  0.114969  0.614969  0.000000  1
  Si  Si9  1  0.385031  0.114969  0.000000  1
