# generated using pymatgen
data_U4CuSi8Pt7
_symmetry_space_group_name_H-M   'P 1'
_cell_length_a   4.21422051
_cell_length_b   8.43211611
_cell_length_c   9.77368714
_cell_angle_alpha   89.73748730
_cell_angle_beta   89.89531047
_cell_angle_gamma   89.38540013
_symmetry_Int_Tables_number   1
_chemical_formula_structural   U4CuSi8Pt7
_chemical_formula_sum   'U4 Cu1 Si8 Pt7'
_cell_volume   347.28180984
_cell_formula_units_Z   1
loop_
 _symmetry_equiv_pos_site_id
 _symmetry_equiv_pos_as_xyz
  1  'x, y, z'
loop_
 _atom_site_type_symbol
 _atom_site_label
 _atom_site_symmetry_multiplicity
 _atom_site_fract_x
 _atom_site_fract_y
 _atom_site_fract_z
 _atom_site_occupancy
  U  U0  1  0.754088  0.627489  0.751260  1
  U  U1  1  0.745553  0.128350  0.751178  1
  U  U2  1  0.257166  0.873914  0.248195  1
  U  U3  1  0.246769  0.370654  0.248400  1
  Cu  Cu4  1  0.205356  0.134038  0.499181  1
  Si  Si5  1  0.737400  0.375909  0.000180  1
  Si  Si6  1  0.717591  0.116565  0.367633  1
  Si  Si7  1  0.284895  0.888763  0.631984  1
  Si  Si8  1  0.259281  0.623895  0.000388  1
  Si  Si9  1  0.762590  0.874739  0.000946  1
  Si  Si10  1  0.208665  0.382947  0.630787  1
  Si  Si11  1  0.240104  0.124108  0.998992  1
  Si  Si12  1  0.790096  0.613728  0.370146  1
  Pt  Pt13  1  0.239684  0.375405  0.877078  1
  Pt  Pt14  1  0.757362  0.624353  0.124036  1
  Pt  Pt15  1  0.795737  0.872426  0.499756  1
  Pt  Pt16  1  0.698499  0.357301  0.500571  1
  Pt  Pt17  1  0.741291  0.124809  0.121610  1
  Pt  Pt18  1  0.296553  0.636841  0.499938  1
  Pt  Pt19  1  0.261322  0.873768  0.877743  1
