# generated using pymatgen
data_Ba4CaCd(ReN4)2
_symmetry_space_group_name_H-M   'P 1'
_cell_length_a   11.16384326
_cell_length_b   10.85941741
_cell_length_c   8.26988458
_cell_angle_alpha   69.91323181
_cell_angle_beta   66.00251102
_cell_angle_gamma   44.80654359
_symmetry_Int_Tables_number   1
_chemical_formula_structural   Ba4CaCd(ReN4)2
_chemical_formula_sum   'Ba8 Ca2 Cd2 Re4 N16'
_cell_volume   643.11324229
_cell_formula_units_Z   2
loop_
 _symmetry_equiv_pos_site_id
 _symmetry_equiv_pos_as_xyz
  1  'x, y, z'
loop_
 _atom_site_type_symbol
 _atom_site_label
 _atom_site_symmetry_multiplicity
 _atom_site_fract_x
 _atom_site_fract_y
 _atom_site_fract_z
 _atom_site_occupancy
  Ba  Ba0  1  0.564844  0.959923  0.912642  1
  Ba  Ba1  1  0.959923  0.564844  0.562590  1
  Ba  Ba2  1  0.290077  0.685156  0.687410  1
  Ba  Ba3  1  0.112194  0.112194  0.887806  1
  Ba  Ba4  1  0.137806  0.137806  0.362194  1
  Ba  Ba5  1  0.361705  0.361705  0.138295  1
  Ba  Ba6  1  0.685156  0.290077  0.337358  1
  Ba  Ba7  1  0.888295  0.888295  0.111705  1
  Ca  Ca8  1  0.647212  0.647212  0.352788  1
  Ca  Ca9  1  0.602788  0.602788  0.897212  1
  Cd  Cd10  1  0.344355  0.344355  0.655645  1
  Cd  Cd11  1  0.905645  0.905645  0.594355  1
  Re  Re12  1  0.489909  0.008207  0.469076  1
  Re  Re13  1  0.008207  0.489909  0.032809  1
  Re  Re14  1  0.760091  0.241793  0.780924  1
  Re  Re15  1  0.241793  0.760091  0.217191  1
  N  N16  1  0.081235  0.612062  0.919637  1
  N  N17  1  0.744317  0.304051  0.974989  1
  N  N18  1  0.612062  0.081235  0.387066  1
  N  N19  1  0.574592  0.820540  0.642201  1
  N  N20  1  0.168765  0.637938  0.330363  1
  N  N21  1  0.675408  0.429460  0.607799  1
  N  N22  1  0.993979  0.052258  0.701772  1
  N  N23  1  0.505683  0.945949  0.275011  1
  N  N24  1  0.429460  0.675408  0.287332  1
  N  N25  1  0.945949  0.505683  0.273358  1
  N  N26  1  0.304051  0.744317  0.976642  1
  N  N27  1  0.820540  0.574592  0.962668  1
  N  N28  1  0.197742  0.256021  0.998010  1
  N  N29  1  0.637938  0.168765  0.862934  1
  N  N30  1  0.256021  0.197742  0.548228  1
  N  N31  1  0.052258  0.993979  0.251990  1
