# generated using pymatgen
data_CaTm7(Si4Mo3)4
_symmetry_space_group_name_H-M   'P 1'
_cell_length_a   6.72888810
_cell_length_b   6.92570124
_cell_length_c   12.89190006
_cell_angle_alpha   90.07601984
_cell_angle_beta   89.97542348
_cell_angle_gamma   90.09869815
_symmetry_Int_Tables_number   1
_chemical_formula_structural   CaTm7(Si4Mo3)4
_chemical_formula_sum   'Ca1 Tm7 Si16 Mo12'
_cell_volume   600.79031561
_cell_formula_units_Z   1
loop_
 _symmetry_equiv_pos_site_id
 _symmetry_equiv_pos_as_xyz
  1  'x, y, z'
loop_
 _atom_site_type_symbol
 _atom_site_label
 _atom_site_symmetry_multiplicity
 _atom_site_fract_x
 _atom_site_fract_y
 _atom_site_fract_z
 _atom_site_occupancy
  Ca  Ca0  1  0.997241  0.166863  0.091318  1
  Tm  Tm1  1  0.497892  0.331394  0.094240  1
  Tm  Tm2  1  0.997531  0.168811  0.405796  1
  Tm  Tm3  1  0.503475  0.668312  0.593737  1
  Tm  Tm4  1  0.002941  0.832540  0.906748  1
  Tm  Tm5  1  0.503131  0.667750  0.906363  1
  Tm  Tm6  1  0.003361  0.831862  0.593941  1
  Tm  Tm7  1  0.497106  0.331697  0.405980  1
  Si  Si8  1  0.661693  0.041347  0.546230  1
  Si  Si9  1  0.160271  0.459207  0.952643  1
  Si  Si10  1  0.340759  0.958760  0.046739  1
  Si  Si11  1  0.838802  0.541550  0.453971  1
  Si  Si12  1  0.338201  0.958713  0.453885  1
  Si  Si13  1  0.839707  0.540941  0.046916  1
  Si  Si14  1  0.659254  0.041318  0.952987  1
  Si  Si15  1  0.161247  0.458207  0.546198  1
  Si  Si16  1  0.533427  0.368157  0.749788  1
  Si  Si17  1  0.033804  0.132824  0.750533  1
  Si  Si18  1  0.465686  0.630952  0.250682  1
  Si  Si19  1  0.965778  0.868068  0.250492  1
  Si  Si20  1  0.802817  0.632613  0.750027  1
  Si  Si21  1  0.302290  0.868231  0.749968  1
  Si  Si22  1  0.196917  0.367888  0.249436  1
  Si  Si23  1  0.698576  0.130960  0.249351  1
  Mo  Mo24  1  0.829100  0.336088  0.624719  1
  Mo  Mo25  1  0.331049  0.164204  0.874602  1
  Mo  Mo26  1  0.170662  0.666384  0.125660  1
  Mo  Mo27  1  0.669238  0.835609  0.375029  1
  Mo  Mo28  1  0.170654  0.663299  0.375921  1
  Mo  Mo29  1  0.668331  0.831990  0.124989  1
  Mo  Mo30  1  0.827927  0.337513  0.874009  1
  Mo  Mo31  1  0.329966  0.164870  0.624967  1
  Mo  Mo32  1  0.666417  0.998030  0.749484  1
  Mo  Mo33  1  0.166320  0.501970  0.749812  1
  Mo  Mo34  1  0.334532  0.000641  0.251451  1
  Mo  Mo35  1  0.833898  0.500441  0.251387  1
