# generated using pymatgen
data_Y7Th(CdAu2)4
_symmetry_space_group_name_H-M   'P 1'
_cell_length_a   8.02567400
_cell_length_b   8.02567346
_cell_length_c   7.51433900
_cell_angle_alpha   90.00000000
_cell_angle_beta   90.00000000
_cell_angle_gamma   89.89504859
_symmetry_Int_Tables_number   1
_chemical_formula_structural   Y7Th(CdAu2)4
_chemical_formula_sum   'Y7 Th1 Cd4 Au8'
_cell_volume   484.00857503
_cell_formula_units_Z   1
loop_
 _symmetry_equiv_pos_site_id
 _symmetry_equiv_pos_as_xyz
  1  'x, y, z'
loop_
 _atom_site_type_symbol
 _atom_site_label
 _atom_site_symmetry_multiplicity
 _atom_site_fract_x
 _atom_site_fract_y
 _atom_site_fract_z
 _atom_site_occupancy
  Y  Y0  1  0.166726  0.833274  0.500000  1
  Y  Y1  1  0.334502  0.336261  0.000000  1
  Y  Y2  1  0.663739  0.665498  0.000000  1
  Y  Y3  1  0.675986  0.676310  0.500000  1
  Y  Y4  1  0.323690  0.324014  0.500000  1
  Y  Y5  1  0.178066  0.821934  0.000000  1
  Y  Y6  1  0.823785  0.176215  0.000000  1
  Th  Th7  1  0.833809  0.166191  0.500000  1
  Cd  Cd8  1  0.497089  0.997837  0.256025  1
  Cd  Cd9  1  0.002163  0.502911  0.743975  1
  Cd  Cd10  1  0.497089  0.997837  0.743975  1
  Cd  Cd11  1  0.002163  0.502911  0.256025  1
  Au  Au12  1  0.627783  0.372217  0.256378  1
  Au  Au13  1  0.371363  0.628637  0.261256  1
  Au  Au14  1  0.130121  0.128672  0.764198  1
  Au  Au15  1  0.871328  0.869879  0.764198  1
  Au  Au16  1  0.371363  0.628637  0.738744  1
  Au  Au17  1  0.627783  0.372217  0.743622  1
  Au  Au18  1  0.871328  0.869879  0.235802  1
  Au  Au19  1  0.130121  0.128672  0.235802  1
