# generated using pymatgen
data_Al2Fe(NiPt2)3
_symmetry_space_group_name_H-M   'P 1'
_cell_length_a   3.89457500
_cell_length_b   3.89457500
_cell_length_c   10.93792000
_cell_angle_alpha   90.00000000
_cell_angle_beta   90.00000000
_cell_angle_gamma   90.00000000
_symmetry_Int_Tables_number   1
_chemical_formula_structural   Al2Fe(NiPt2)3
_chemical_formula_sum   'Al2 Fe1 Ni3 Pt6'
_cell_volume   165.90324703
_cell_formula_units_Z   1
loop_
 _symmetry_equiv_pos_site_id
 _symmetry_equiv_pos_as_xyz
  1  'x, y, z'
loop_
 _atom_site_type_symbol
 _atom_site_label
 _atom_site_symmetry_multiplicity
 _atom_site_fract_x
 _atom_site_fract_y
 _atom_site_fract_z
 _atom_site_occupancy
  Al  Al0  1  0.000000  0.000000  0.332991  1
  Al  Al1  1  0.000000  0.000000  0.667009  1
  Fe  Fe2  1  0.000000  0.000000  0.000000  1
  Ni  Ni3  1  0.500000  0.500000  0.000000  1
  Ni  Ni4  1  0.500000  0.500000  0.333303  1
  Ni  Ni5  1  0.500000  0.500000  0.666697  1
  Pt  Pt6  1  0.500000  0.000000  0.166727  1
  Pt  Pt7  1  0.500000  0.000000  0.500000  1
  Pt  Pt8  1  0.500000  0.000000  0.833273  1
  Pt  Pt9  1  0.000000  0.500000  0.166727  1
  Pt  Pt10  1  0.000000  0.500000  0.500000  1
  Pt  Pt11  1  0.000000  0.500000  0.833273  1
