# generated using pymatgen
data_DyHfZr2F15
_symmetry_space_group_name_H-M   'P 1'
_cell_length_a   8.19319604
_cell_length_b   8.19319662
_cell_length_c   8.18167076
_cell_angle_alpha   79.81571416
_cell_angle_beta   79.81571956
_cell_angle_gamma   100.11988858
_symmetry_Int_Tables_number   1
_chemical_formula_structural   DyHfZr2F15
_chemical_formula_sum   'Dy2 Hf2 Zr4 F30'
_cell_volume   519.76728938
_cell_formula_units_Z   2
loop_
 _symmetry_equiv_pos_site_id
 _symmetry_equiv_pos_as_xyz
  1  'x, y, z'
loop_
 _atom_site_type_symbol
 _atom_site_label
 _atom_site_symmetry_multiplicity
 _atom_site_fract_x
 _atom_site_fract_y
 _atom_site_fract_z
 _atom_site_occupancy
  Dy  Dy0  1  0.178125  0.821875  0.250000  1
  Dy  Dy1  1  0.821875  0.178125  0.750000  1
  Hf  Hf2  1  0.750942  0.249058  0.250000  1
  Hf  Hf3  1  0.249058  0.750942  0.750000  1
  Zr  Zr4  1  0.748268  0.677755  0.674914  1
  Zr  Zr5  1  0.322245  0.251732  0.825086  1
  Zr  Zr6  1  0.251732  0.322245  0.325086  1
  Zr  Zr7  1  0.677755  0.748268  0.174914  1
  F  F8  1  0.315905  0.349824  0.053218  1
  F  F9  1  0.936264  0.812920  0.151021  1
  F  F10  1  0.845047  0.461101  0.683084  1
  F  F11  1  0.461101  0.845047  0.183084  1
  F  F12  1  0.812920  0.936264  0.651021  1
  F  F13  1  0.349824  0.315905  0.553217  1
  F  F14  1  0.684095  0.650176  0.946782  1
  F  F15  1  0.063736  0.187080  0.848979  1
  F  F16  1  0.154953  0.538899  0.316916  1
  F  F17  1  0.538899  0.154953  0.816916  1
  F  F18  1  0.187080  0.063736  0.348979  1
  F  F19  1  0.650176  0.684095  0.446782  1
  F  F20  1  0.774319  0.280524  0.998972  1
  F  F21  1  0.003979  0.275608  0.220517  1
  F  F22  1  0.775486  0.503693  0.224060  1
  F  F23  1  0.503693  0.775486  0.724060  1
  F  F24  1  0.275608  0.003979  0.720517  1
  F  F25  1  0.280524  0.774319  0.498972  1
  F  F26  1  0.225681  0.719476  0.001028  1
  F  F27  1  0.996021  0.724392  0.779483  1
  F  F28  1  0.224514  0.496307  0.775940  1
  F  F29  1  0.496307  0.224514  0.275940  1
  F  F30  1  0.724392  0.996021  0.279483  1
  F  F31  1  0.719476  0.225681  0.501028  1
  F  F32  1  0.466504  0.533496  0.250000  1
  F  F33  1  0.747509  0.954766  0.971160  1
  F  F34  1  0.045234  0.252491  0.528840  1
  F  F35  1  0.252491  0.045234  0.028840  1
  F  F36  1  0.954766  0.747509  0.471160  1
  F  F37  1  0.533496  0.466504  0.750000  1
