# generated using pymatgen
data_YbSm(CoO2)6
_symmetry_space_group_name_H-M   'P 1'
_cell_length_a   4.93023248
_cell_length_b   5.60942289
_cell_length_c   8.51161700
_cell_angle_alpha   89.99965986
_cell_angle_beta   90.00003639
_cell_angle_gamma   73.24372009
_symmetry_Int_Tables_number   1
_chemical_formula_structural   YbSm(CoO2)6
_chemical_formula_sum   'Yb1 Sm1 Co6 O12'
_cell_volume   225.40029167
_cell_formula_units_Z   1
loop_
 _symmetry_equiv_pos_site_id
 _symmetry_equiv_pos_as_xyz
  1  'x, y, z'
loop_
 _atom_site_type_symbol
 _atom_site_label
 _atom_site_symmetry_multiplicity
 _atom_site_fract_x
 _atom_site_fract_y
 _atom_site_fract_z
 _atom_site_occupancy
  Yb  Yb0  1  0.500000  0.500000  0.667333  1
  Sm  Sm1  1  0.000000  0.500000  0.166991  1
  Co  Co2  1  0.500000  0.000000  0.166578  1
  Co  Co3  1  0.500000  0.000000  0.832921  1
  Co  Co4  1  0.500000  0.000000  0.500339  1
  Co  Co5  1  0.000001  0.000000  0.666531  1
  Co  Co6  1  0.000000  0.000000  0.336016  1
  Co  Co7  1  0.000000  0.000000  0.997288  1
  O  O8  1  0.772779  0.187161  0.166625  1
  O  O9  1  0.272458  0.185078  0.666580  1
  O  O10  1  0.227221  0.812839  0.166627  1
  O  O11  1  0.727542  0.814922  0.666582  1
  O  O12  1  0.270093  0.189293  0.999852  1
  O  O13  1  0.771875  0.185722  0.504379  1
  O  O14  1  0.270163  0.189069  0.333365  1
  O  O15  1  0.772067  0.185403  0.828863  1
  O  O16  1  0.729837  0.810930  0.333367  1
  O  O17  1  0.227934  0.814597  0.828864  1
  O  O18  1  0.729907  0.810709  0.999854  1
  O  O19  1  0.228124  0.814278  0.504380  1
