# generated using pymatgen
data_Rb4Na2GdInAs4
_symmetry_space_group_name_H-M   'P 1'
_cell_length_a   10.71636203
_cell_length_b   10.71472290
_cell_length_c   7.02015100
_cell_angle_alpha   90.00000000
_cell_angle_beta   90.00000000
_cell_angle_gamma   100.21729781
_symmetry_Int_Tables_number   1
_chemical_formula_structural   Rb4Na2GdInAs4
_chemical_formula_sum   'Rb8 Na4 Gd2 In2 As8'
_cell_volume   793.29110678
_cell_formula_units_Z   2
loop_
 _symmetry_equiv_pos_site_id
 _symmetry_equiv_pos_as_xyz
  1  'x, y, z'
loop_
 _atom_site_type_symbol
 _atom_site_label
 _atom_site_symmetry_multiplicity
 _atom_site_fract_x
 _atom_site_fract_y
 _atom_site_fract_z
 _atom_site_occupancy
  Rb  Rb0  1  0.573508  0.926522  0.749958  1
  Rb  Rb1  1  0.926492  0.573478  0.249958  1
  Rb  Rb2  1  0.432418  0.067587  0.249950  1
  Rb  Rb3  1  0.067582  0.432413  0.749950  1
  Rb  Rb4  1  0.681792  0.326107  0.783415  1
  Rb  Rb5  1  0.818208  0.173893  0.283415  1
  Rb  Rb6  1  0.326152  0.681795  0.216474  1
  Rb  Rb7  1  0.173848  0.818205  0.716474  1
  Na  Na8  1  0.621947  0.621931  0.000020  1
  Na  Na9  1  0.878053  0.878069  0.500020  1
  Na  Na10  1  0.385620  0.385626  0.999958  1
  Na  Na11  1  0.114380  0.114374  0.499958  1
  Gd  Gd12  1  0.126341  0.126340  0.999936  1
  Gd  Gd13  1  0.373659  0.373660  0.499936  1
  In  In14  1  0.868227  0.868287  0.000256  1
  In  In15  1  0.631773  0.631713  0.500256  1
  As  As16  1  0.344791  0.155187  0.749967  1
  As  As17  1  0.155209  0.344813  0.249967  1
  As  As18  1  0.655082  0.844861  0.250065  1
  As  As19  1  0.844918  0.655139  0.750065  1
  As  As20  1  0.894142  0.094142  0.793011  1
  As  As21  1  0.605858  0.405858  0.293011  1
  As  As22  1  0.094142  0.894129  0.206989  1
  As  As23  1  0.405858  0.605871  0.706989  1
