# generated using pymatgen
data_Tm8B24Mo3Os
_symmetry_space_group_name_H-M   'P 1'
_cell_length_a   3.60775300
_cell_length_b   9.18120858
_cell_length_c   11.55651073
_cell_angle_alpha   89.95939074
_cell_angle_beta   90.00000000
_cell_angle_gamma   90.00000000
_symmetry_Int_Tables_number   1
_chemical_formula_structural   Tm8B24Mo3Os
_chemical_formula_sum   'Tm8 B24 Mo3 Os1'
_cell_volume   382.79236576
_cell_formula_units_Z   1
loop_
 _symmetry_equiv_pos_site_id
 _symmetry_equiv_pos_as_xyz
  1  'x, y, z'
loop_
 _atom_site_type_symbol
 _atom_site_label
 _atom_site_symmetry_multiplicity
 _atom_site_fract_x
 _atom_site_fract_y
 _atom_site_fract_z
 _atom_site_occupancy
  Tm  Tm0  1  0.000000  0.321614  0.413780  1
  Tm  Tm1  1  0.000000  0.678228  0.586239  1
  Tm  Tm2  1  0.000000  0.821236  0.085617  1
  Tm  Tm3  1  0.000000  0.177503  0.913905  1
  Tm  Tm4  1  0.000000  0.943709  0.372255  1
  Tm  Tm5  1  0.000000  0.055694  0.629837  1
  Tm  Tm6  1  0.000000  0.444479  0.127738  1
  Tm  Tm7  1  0.000000  0.558241  0.870680  1
  B  B8  1  0.500000  0.550976  0.434838  1
  B  B9  1  0.500000  0.447656  0.565700  1
  B  B10  1  0.500000  0.050952  0.063736  1
  B  B11  1  0.500000  0.945476  0.932319  1
  B  B12  1  0.500000  0.751659  0.422091  1
  B  B13  1  0.500000  0.248321  0.579099  1
  B  B14  1  0.500000  0.252313  0.078061  1
  B  B15  1  0.500000  0.751424  0.918596  1
  B  B16  1  0.500000  0.795024  0.264395  1
  B  B17  1  0.500000  0.204616  0.737157  1
  B  B18  1  0.500000  0.294213  0.235356  1
  B  B19  1  0.500000  0.708866  0.765213  1
  B  B20  1  0.500000  0.631663  0.182861  1
  B  B21  1  0.500000  0.369430  0.817834  1
  B  B22  1  0.500000  0.130382  0.316321  1
  B  B23  1  0.500000  0.869284  0.685656  1
  B  B24  1  0.500000  0.978466  0.211969  1
  B  B25  1  0.500000  0.016863  0.788397  1
  B  B26  1  0.500000  0.478534  0.287336  1
  B  B27  1  0.500000  0.521982  0.712267  1
  B  B28  1  0.500000  0.602409  0.027056  1
  B  B29  1  0.500000  0.400992  0.971586  1
  B  B30  1  0.500000  0.100289  0.472692  1
  B  B31  1  0.500000  0.898953  0.529611  1
  Mo  Mo32  1  0.000000  0.639477  0.320326  1
  Mo  Mo33  1  0.000000  0.360233  0.681254  1
  Mo  Mo34  1  0.000000  0.138113  0.178023  1
  Os  Os35  1  0.000000  0.860728  0.820195  1
