# generated using pymatgen
data_Tb4Dy7Lu5(CdPd)4
_symmetry_space_group_name_H-M   'P 1'
_cell_length_a   9.63144385
_cell_length_b   9.63144498
_cell_length_c   9.62889600
_cell_angle_alpha   60.00876108
_cell_angle_beta   60.00875722
_cell_angle_gamma   60.14314855
_symmetry_Int_Tables_number   1
_chemical_formula_structural   Tb4Dy7Lu5(CdPd)4
_chemical_formula_sum   'Tb4 Dy7 Lu5 Cd4 Pd4'
_cell_volume   632.36757203
_cell_formula_units_Z   1
loop_
 _symmetry_equiv_pos_site_id
 _symmetry_equiv_pos_as_xyz
  1  'x, y, z'
loop_
 _atom_site_type_symbol
 _atom_site_label
 _atom_site_symmetry_multiplicity
 _atom_site_fract_x
 _atom_site_fract_y
 _atom_site_fract_z
 _atom_site_occupancy
  Tb  Tb0  1  0.353661  0.353661  0.352748  1
  Tb  Tb1  1  0.353661  0.353661  0.939930  1
  Tb  Tb2  1  0.355033  0.935986  0.354492  1
  Tb  Tb3  1  0.935986  0.355033  0.354492  1
  Dy  Dy4  1  0.813977  0.813977  0.186023  1
  Dy  Dy5  1  0.935592  0.564530  0.565766  1
  Dy  Dy6  1  0.564530  0.935592  0.934111  1
  Dy  Dy7  1  0.564530  0.935592  0.565766  1
  Dy  Dy8  1  0.935592  0.564529  0.934111  1
  Dy  Dy9  1  0.566259  0.566259  0.933741  1
  Dy  Dy10  1  0.935847  0.935847  0.564152  1
  Lu  Lu11  1  0.812911  0.188529  0.186691  1
  Lu  Lu12  1  0.188529  0.812911  0.811869  1
  Lu  Lu13  1  0.188529  0.812911  0.186691  1
  Lu  Lu14  1  0.812911  0.188529  0.811869  1
  Lu  Lu15  1  0.187407  0.187407  0.812593  1
  Cd  Cd16  1  0.581088  0.581088  0.583329  1
  Cd  Cd17  1  0.581088  0.581088  0.254494  1
  Cd  Cd18  1  0.580805  0.253622  0.582786  1
  Cd  Cd19  1  0.253622  0.580805  0.582786  1
  Pd  Pd20  1  0.141631  0.141631  0.144490  1
  Pd  Pd21  1  0.141631  0.141631  0.572249  1
  Pd  Pd22  1  0.143927  0.571256  0.142409  1
  Pd  Pd23  1  0.571256  0.143927  0.142409  1
