# generated using pymatgen
data_Tb8Tl3Ir
_symmetry_space_group_name_H-M   'P 1'
_cell_length_a   10.43678100
_cell_length_b   10.43677983
_cell_length_c   7.25572900
_cell_angle_alpha   90.00000000
_cell_angle_beta   90.00000000
_cell_angle_gamma   119.99999419
_symmetry_Int_Tables_number   1
_chemical_formula_structural   Tb8Tl3Ir
_chemical_formula_sum   'Tb16 Tl6 Ir2'
_cell_volume   684.45484697
_cell_formula_units_Z   2
loop_
 _symmetry_equiv_pos_site_id
 _symmetry_equiv_pos_as_xyz
  1  'x, y, z'
loop_
 _atom_site_type_symbol
 _atom_site_label
 _atom_site_symmetry_multiplicity
 _atom_site_fract_x
 _atom_site_fract_y
 _atom_site_fract_z
 _atom_site_occupancy
  Tb  Tb0  1  0.824566  0.649134  0.490018  1
  Tb  Tb1  1  0.350866  0.175434  0.490018  1
  Tb  Tb2  1  0.824566  0.175434  0.490018  1
  Tb  Tb3  1  0.175434  0.350866  0.990018  1
  Tb  Tb4  1  0.649134  0.824566  0.990018  1
  Tb  Tb5  1  0.175434  0.824566  0.990018  1
  Tb  Tb6  1  0.666667  0.333333  0.171630  1
  Tb  Tb7  1  0.333333  0.666667  0.671630  1
  Tb  Tb8  1  0.536717  0.073434  0.788936  1
  Tb  Tb9  1  0.926566  0.463283  0.788936  1
  Tb  Tb10  1  0.536717  0.463283  0.788936  1
  Tb  Tb11  1  0.463283  0.926566  0.288936  1
  Tb  Tb12  1  0.073434  0.536717  0.288936  1
  Tb  Tb13  1  0.463283  0.536717  0.288936  1
  Tb  Tb14  1  0.000000  0.000000  0.769261  1
  Tb  Tb15  1  0.000000  0.000000  0.269261  1
  Tl  Tl16  1  0.836118  0.672236  0.042067  1
  Tl  Tl17  1  0.327764  0.163882  0.042067  1
  Tl  Tl18  1  0.836118  0.163882  0.042067  1
  Tl  Tl19  1  0.163882  0.327764  0.542067  1
  Tl  Tl20  1  0.672236  0.836118  0.542067  1
  Tl  Tl21  1  0.163882  0.836118  0.542067  1
  Ir  Ir22  1  0.666667  0.333333  0.559084  1
  Ir  Ir23  1  0.333333  0.666667  0.059084  1
