# generated using pymatgen
data_ZrCu4Pd
_symmetry_space_group_name_H-M   'P 1'
_cell_length_a   4.90331221
_cell_length_b   4.90331182
_cell_length_c   4.90331200
_cell_angle_alpha   59.99999880
_cell_angle_beta   60.00000143
_cell_angle_gamma   59.99999053
_symmetry_Int_Tables_number   1
_chemical_formula_structural   ZrCu4Pd
_chemical_formula_sum   'Zr1 Cu4 Pd1'
_cell_volume   83.35920427
_cell_formula_units_Z   1
loop_
 _symmetry_equiv_pos_site_id
 _symmetry_equiv_pos_as_xyz
  1  'x, y, z'
loop_
 _atom_site_type_symbol
 _atom_site_label
 _atom_site_symmetry_multiplicity
 _atom_site_fract_x
 _atom_site_fract_y
 _atom_site_fract_z
 _atom_site_occupancy
  Zr  Zr0  1  0.250000  0.250000  0.250000  1
  Cu  Cu1  1  0.625524  0.625524  0.625524  1
  Cu  Cu2  1  0.625524  0.625524  0.123429  1
  Cu  Cu3  1  0.625524  0.123429  0.625524  1
  Cu  Cu4  1  0.123429  0.625524  0.625524  1
  Pd  Pd5  1  0.000000  0.000000  0.000000  1
