# generated using pymatgen
data_Dy2Ho2Al24Pd5(PtAu)2
_symmetry_space_group_name_H-M   'P 1'
_cell_length_a   7.56966202
_cell_length_b   7.58293478
_cell_length_c   13.15802700
_cell_angle_alpha   84.53328555
_cell_angle_beta   78.99127591
_cell_angle_gamma   59.93138226
_symmetry_Int_Tables_number   1
_chemical_formula_structural   Dy2Ho2Al24Pd5(PtAu)2
_chemical_formula_sum   'Dy2 Ho2 Al24 Pd5 Pt2 Au2'
_cell_volume   641.60564808
_cell_formula_units_Z   1
loop_
 _symmetry_equiv_pos_site_id
 _symmetry_equiv_pos_as_xyz
  1  'x, y, z'
loop_
 _atom_site_type_symbol
 _atom_site_label
 _atom_site_symmetry_multiplicity
 _atom_site_fract_x
 _atom_site_fract_y
 _atom_site_fract_z
 _atom_site_occupancy
  Dy  Dy0  1  0.392708  0.169241  0.809033  1
  Dy  Dy1  1  0.607292  0.830759  0.190967  1
  Ho  Ho2  1  0.733341  0.499202  0.809549  1
  Ho  Ho3  1  0.266659  0.500798  0.190451  1
  Al  Al4  1  0.683110  0.834214  0.944826  1
  Al  Al5  1  0.316890  0.165786  0.055174  1
  Al  Al6  1  0.145723  0.839349  0.562400  1
  Al  Al7  1  0.854277  0.160651  0.437600  1
  Al  Al8  1  0.488148  0.159512  0.559487  1
  Al  Al9  1  0.511852  0.840488  0.440513  1
  Al  Al10  1  0.223346  0.160641  0.325390  1
  Al  Al11  1  0.776654  0.839359  0.674610  1
  Al  Al12  1  0.439929  0.507047  0.674631  1
  Al  Al13  1  0.560071  0.492953  0.325369  1
  Al  Al14  1  0.109088  0.154792  0.673220  1
  Al  Al15  1  0.890912  0.845208  0.326780  1
  Al  Al16  1  0.353275  0.498872  0.944695  1
  Al  Al17  1  0.646725  0.501128  0.055305  1
  Al  Al18  1  0.015389  0.167665  0.953432  1
  Al  Al19  1  0.984611  0.832335  0.046568  1
  Al  Al20  1  0.195604  0.499201  0.437510  1
  Al  Al21  1  0.804396  0.500799  0.562490  1
  Al  Al22  1  0.732391  0.164557  0.183196  1
  Al  Al23  1  0.267609  0.835443  0.816804  1
  Al  Al24  1  0.060257  0.633774  0.818011  1
  Al  Al25  1  0.939743  0.366226  0.181989  1
  Al  Al26  1  0.854071  0.042789  0.816488  1
  Al  Al27  1  0.145929  0.957211  0.183512  1
  Pd  Pd28  1  0.657269  0.171686  0.999569  1
  Pd  Pd29  1  0.342731  0.828314  0.000431  1
  Pd  Pd30  1  0.537650  0.167055  0.362015  1
  Pd  Pd31  1  0.462350  0.832945  0.637985  1
  Pd  Pd32  1  0.000000  0.500000  0.000000  1
  Pt  Pt33  1  0.779853  0.175448  0.636541  1
  Pt  Pt34  1  0.220147  0.824552  0.363459  1
  Au  Au35  1  0.119946  0.491095  0.637810  1
  Au  Au36  1  0.880054  0.508905  0.362190  1
