# generated using pymatgen
data_Lu4Al2B4(IrRu)5
_symmetry_space_group_name_H-M   'P 1'
_cell_length_a   9.55104592
_cell_length_b   9.54958991
_cell_length_c   3.06339500
_cell_angle_alpha   90.00000000
_cell_angle_beta   90.00000000
_cell_angle_gamma   89.87248961
_symmetry_Int_Tables_number   1
_chemical_formula_structural   Lu4Al2B4(IrRu)5
_chemical_formula_sum   'Lu4 Al2 B4 Ir5 Ru5'
_cell_volume   279.40719059
_cell_formula_units_Z   1
loop_
 _symmetry_equiv_pos_site_id
 _symmetry_equiv_pos_as_xyz
  1  'x, y, z'
loop_
 _atom_site_type_symbol
 _atom_site_label
 _atom_site_symmetry_multiplicity
 _atom_site_fract_x
 _atom_site_fract_y
 _atom_site_fract_z
 _atom_site_occupancy
  Lu  Lu0  1  0.673307  0.171906  0.000000  1
  Lu  Lu1  1  0.324556  0.825264  0.000000  1
  Lu  Lu2  1  0.175043  0.324043  0.000000  1
  Lu  Lu3  1  0.827437  0.676549  0.000000  1
  Al  Al4  1  0.000174  0.000027  0.000000  1
  Al  Al5  1  0.499520  0.500577  0.000000  1
  B  B6  1  0.121066  0.624876  0.000000  1
  B  B7  1  0.878241  0.379392  0.000000  1
  B  B8  1  0.624935  0.878905  0.000000  1
  B  B9  1  0.375234  0.121062  0.000000  1
  Ir  Ir10  1  0.716120  0.429730  0.500000  1
  Ir  Ir11  1  0.929383  0.215621  0.500000  1
  Ir  Ir12  1  0.283477  0.569316  0.500000  1
  Ir  Ir13  1  0.571084  0.716226  0.500000  1
  Ir  Ir14  1  0.430207  0.284186  0.500000  1
  Ru  Ru15  1  0.216648  0.069645  0.500000  1
  Ru  Ru16  1  0.783973  0.930318  0.500000  1
  Ru  Ru17  1  0.070848  0.784233  0.500000  1
  Ru  Ru18  1  0.498551  0.998889  0.500000  1
  Ru  Ru19  1  0.000194  0.499236  0.500000  1
