# generated using pymatgen
data_La3Tb(Er3Pt4)2
_symmetry_space_group_name_H-M   'P 1'
_cell_length_a   7.62745700
_cell_length_b   7.67532421
_cell_length_c   14.66765600
_cell_angle_alpha   90.01334730
_cell_angle_beta   90.00000000
_cell_angle_gamma   90.00000000
_symmetry_Int_Tables_number   1
_chemical_formula_structural   La3Tb(Er3Pt4)2
_chemical_formula_sum   'La6 Tb2 Er12 Pt16'
_cell_volume   858.69157405
_cell_formula_units_Z   2
loop_
 _symmetry_equiv_pos_site_id
 _symmetry_equiv_pos_as_xyz
  1  'x, y, z'
loop_
 _atom_site_type_symbol
 _atom_site_label
 _atom_site_symmetry_multiplicity
 _atom_site_fract_x
 _atom_site_fract_y
 _atom_site_fract_z
 _atom_site_occupancy
  La  La0  1  0.503518  0.678952  0.595012  1
  La  La1  1  0.003518  0.821048  0.904988  1
  La  La2  1  0.496513  0.326965  0.093840  1
  La  La3  1  0.996513  0.173035  0.406160  1
  La  La4  1  0.496027  0.323997  0.403612  1
  La  La5  1  0.996027  0.176003  0.096388  1
  Tb  Tb6  1  0.504223  0.677180  0.899541  1
  Tb  Tb7  1  0.004223  0.822820  0.600459  1
  Er  Er8  1  0.660447  0.165788  0.623335  1
  Er  Er9  1  0.160447  0.334212  0.876665  1
  Er  Er10  1  0.345049  0.830210  0.120473  1
  Er  Er11  1  0.845049  0.669790  0.379527  1
  Er  Er12  1  0.339733  0.835385  0.376633  1
  Er  Er13  1  0.839733  0.664615  0.123367  1
  Er  Er14  1  0.659883  0.166514  0.875435  1
  Er  Er15  1  0.159883  0.333486  0.624565  1
  Er  Er16  1  0.822536  0.505887  0.750029  1
  Er  Er17  1  0.322536  0.994113  0.749971  1
  Er  Er18  1  0.176303  0.495411  0.250436  1
  Er  Er19  1  0.676303  0.004589  0.249564  1
  Pt  Pt20  1  0.675807  0.962843  0.457253  1
  Pt  Pt21  1  0.175807  0.537157  0.042747  1
  Pt  Pt22  1  0.329387  0.029970  0.952292  1
  Pt  Pt23  1  0.829387  0.470030  0.547708  1
  Pt  Pt24  1  0.314660  0.031260  0.546229  1
  Pt  Pt25  1  0.814660  0.468740  0.953771  1
  Pt  Pt26  1  0.676273  0.958967  0.042085  1
  Pt  Pt27  1  0.176273  0.541033  0.457915  1
  Pt  Pt28  1  0.455768  0.376652  0.751052  1
  Pt  Pt29  1  0.955768  0.123348  0.748948  1
  Pt  Pt30  1  0.545660  0.629676  0.251213  1
  Pt  Pt31  1  0.045660  0.870324  0.248787  1
  Pt  Pt32  1  0.688537  0.860910  0.750469  1
  Pt  Pt33  1  0.188537  0.639090  0.749531  1
  Pt  Pt34  1  0.309678  0.136278  0.249073  1
  Pt  Pt35  1  0.809678  0.363722  0.250927  1
