# generated using pymatgen
data_Pr6Cd(As3Rh5)4
_symmetry_space_group_name_H-M   'P 1'
_cell_length_a   13.95818900
_cell_length_b   13.95818715
_cell_length_c   4.04705900
_cell_angle_alpha   90.00000000
_cell_angle_beta   90.00000000
_cell_angle_gamma   119.99999726
_symmetry_Int_Tables_number   1
_chemical_formula_structural   Pr6Cd(As3Rh5)4
_chemical_formula_sum   'Pr6 Cd1 As12 Rh20'
_cell_volume   682.85465006
_cell_formula_units_Z   1
loop_
 _symmetry_equiv_pos_site_id
 _symmetry_equiv_pos_as_xyz
  1  'x, y, z'
loop_
 _atom_site_type_symbol
 _atom_site_label
 _atom_site_symmetry_multiplicity
 _atom_site_fract_x
 _atom_site_fract_y
 _atom_site_fract_z
 _atom_site_occupancy
  Pr  Pr0  1  0.531226  0.718593  0.252524  1
  Pr  Pr1  1  0.281407  0.812633  0.252524  1
  Pr  Pr2  1  0.187367  0.468774  0.252524  1
  Pr  Pr3  1  0.468774  0.281407  0.747476  1
  Pr  Pr4  1  0.718593  0.187367  0.747476  1
  Pr  Pr5  1  0.812633  0.531226  0.747476  1
  Cd  Cd6  1  0.000000  0.000000  0.000000  1
  As  As7  1  0.525519  0.136850  0.249347  1
  As  As8  1  0.863150  0.388670  0.249347  1
  As  As9  1  0.611330  0.474481  0.249347  1
  As  As10  1  0.949288  0.720201  0.242431  1
  As  As11  1  0.279799  0.229089  0.242431  1
  As  As12  1  0.770911  0.050712  0.242431  1
  As  As13  1  0.388670  0.525519  0.750653  1
  As  As14  1  0.474481  0.863150  0.750653  1
  As  As15  1  0.136850  0.611330  0.750653  1
  As  As16  1  0.720201  0.770911  0.757569  1
  As  As17  1  0.229089  0.949288  0.757569  1
  As  As18  1  0.050712  0.279799  0.757569  1
  Rh  Rh19  1  0.333333  0.666667  0.751383  1
  Rh  Rh20  1  0.923555  0.253439  0.245403  1
  Rh  Rh21  1  0.746561  0.670116  0.245403  1
  Rh  Rh22  1  0.329884  0.076445  0.245403  1
  Rh  Rh23  1  0.440748  0.024903  0.749189  1
  Rh  Rh24  1  0.975097  0.415847  0.749189  1
  Rh  Rh25  1  0.584153  0.559252  0.749189  1
  Rh  Rh26  1  0.666667  0.333333  0.248617  1
  Rh  Rh27  1  0.096415  0.206026  0.265707  1
  Rh  Rh28  1  0.793974  0.890387  0.265707  1
  Rh  Rh29  1  0.109613  0.903585  0.265707  1
  Rh  Rh30  1  0.024903  0.584153  0.250811  1
  Rh  Rh31  1  0.415847  0.440748  0.250811  1
  Rh  Rh32  1  0.559252  0.975097  0.250811  1
  Rh  Rh33  1  0.670116  0.923555  0.754597  1
  Rh  Rh34  1  0.076445  0.746561  0.754597  1
  Rh  Rh35  1  0.253439  0.329884  0.754597  1
  Rh  Rh36  1  0.903585  0.793974  0.734293  1
  Rh  Rh37  1  0.206026  0.109613  0.734293  1
  Rh  Rh38  1  0.890387  0.096415  0.734293  1
