# generated using pymatgen
data_LaNd15Cd4Ir3Pd
_symmetry_space_group_name_H-M   'P 1'
_cell_length_a   9.98638198
_cell_length_b   9.98638313
_cell_length_c   9.98638255
_cell_angle_alpha   60.20706165
_cell_angle_beta   60.20704961
_cell_angle_gamma   60.20706064
_symmetry_Int_Tables_number   1
_chemical_formula_structural   LaNd15Cd4Ir3Pd
_chemical_formula_sum   'La1 Nd15 Cd4 Ir3 Pd1'
_cell_volume   707.52364851
_cell_formula_units_Z   1
loop_
 _symmetry_equiv_pos_site_id
 _symmetry_equiv_pos_as_xyz
  1  'x, y, z'
loop_
 _atom_site_type_symbol
 _atom_site_label
 _atom_site_symmetry_multiplicity
 _atom_site_fract_x
 _atom_site_fract_y
 _atom_site_fract_z
 _atom_site_occupancy
  La  La0  1  0.346167  0.346167  0.346167  1
  Nd  Nd1  1  0.352309  0.352309  0.949552  1
  Nd  Nd2  1  0.352309  0.949552  0.352309  1
  Nd  Nd3  1  0.949552  0.352309  0.352309  1
  Nd  Nd4  1  0.805576  0.190129  0.190129  1
  Nd  Nd5  1  0.188800  0.809994  0.809994  1
  Nd  Nd6  1  0.190129  0.805576  0.190129  1
  Nd  Nd7  1  0.809994  0.188800  0.809994  1
  Nd  Nd8  1  0.190129  0.190129  0.805576  1
  Nd  Nd9  1  0.809994  0.809994  0.188800  1
  Nd  Nd10  1  0.938721  0.563066  0.563066  1
  Nd  Nd11  1  0.563680  0.938053  0.938053  1
  Nd  Nd12  1  0.563066  0.938721  0.563066  1
  Nd  Nd13  1  0.938053  0.563680  0.938053  1
  Nd  Nd14  1  0.563066  0.563066  0.938721  1
  Nd  Nd15  1  0.938053  0.938053  0.563680  1
  Cd  Cd16  1  0.580326  0.580326  0.580326  1
  Cd  Cd17  1  0.580365  0.580365  0.259384  1
  Cd  Cd18  1  0.580365  0.259384  0.580365  1
  Cd  Cd19  1  0.259384  0.580365  0.580365  1
  Ir  Ir20  1  0.141719  0.141719  0.573680  1
  Ir  Ir21  1  0.141719  0.573680  0.141719  1
  Ir  Ir22  1  0.573680  0.141719  0.141719  1
  Pd  Pd23  1  0.142843  0.142843  0.142843  1
