# generated using pymatgen
data_PrDy(ZnGa)2
_symmetry_space_group_name_H-M   'P 1'
_cell_length_a   4.47467200
_cell_length_b   4.47467232
_cell_length_c   7.44792600
_cell_angle_alpha   90.00000000
_cell_angle_beta   90.00000000
_cell_angle_gamma   119.99999760
_symmetry_Int_Tables_number   1
_chemical_formula_structural   PrDy(ZnGa)2
_chemical_formula_sum   'Pr1 Dy1 Zn2 Ga2'
_cell_volume   129.14822434
_cell_formula_units_Z   1
loop_
 _symmetry_equiv_pos_site_id
 _symmetry_equiv_pos_as_xyz
  1  'x, y, z'
loop_
 _atom_site_type_symbol
 _atom_site_label
 _atom_site_symmetry_multiplicity
 _atom_site_fract_x
 _atom_site_fract_y
 _atom_site_fract_z
 _atom_site_occupancy
  Pr  Pr0  1  0.000000  0.000000  0.500000  1
  Dy  Dy1  1  0.000000  0.000000  0.000000  1
  Zn  Zn2  1  0.333333  0.666667  0.777094  1
  Zn  Zn3  1  0.666667  0.333333  0.222906  1
  Ga  Ga4  1  0.333333  0.666667  0.228433  1
  Ga  Ga5  1  0.666667  0.333333  0.771567  1
