# generated using pymatgen
data_CeDy2In3NiRh2
_symmetry_space_group_name_H-M   'P 1'
_cell_length_a   7.72184200
_cell_length_b   7.47986736
_cell_length_c   3.84531400
_cell_angle_alpha   90.00000000
_cell_angle_beta   90.00000000
_cell_angle_gamma   121.07603018
_symmetry_Int_Tables_number   1
_chemical_formula_structural   CeDy2In3NiRh2
_chemical_formula_sum   'Ce1 Dy2 In3 Ni1 Rh2'
_cell_volume   190.22404650
_cell_formula_units_Z   1
loop_
 _symmetry_equiv_pos_site_id
 _symmetry_equiv_pos_as_xyz
  1  'x, y, z'
loop_
 _atom_site_type_symbol
 _atom_site_label
 _atom_site_symmetry_multiplicity
 _atom_site_fract_x
 _atom_site_fract_y
 _atom_site_fract_z
 _atom_site_occupancy
  Ce  Ce0  1  0.581235  0.000000  0.000000  1
  Dy  Dy1  1  0.002058  0.590906  0.000000  1
  Dy  Dy2  1  0.411152  0.409094  0.000000  1
  In  In3  1  0.752278  0.744188  0.500000  1
  In  In4  1  0.008090  0.255812  0.500000  1
  In  In5  1  0.238549  0.000000  0.500000  1
  Ni  Ni6  1  0.993427  0.000000  0.000000  1
  Rh  Rh7  1  0.350103  0.686998  0.500000  1
  Rh  Rh8  1  0.663106  0.313002  0.500000  1
