# generated using pymatgen
data_Pr3NdTa4(Bi2O11)2
_symmetry_space_group_name_H-M   'P 1'
_cell_length_a   6.71788377
_cell_length_b   7.76050768
_cell_length_c   9.95127742
_cell_angle_alpha   101.22303040
_cell_angle_beta   90.80146821
_cell_angle_gamma   90.06724828
_symmetry_Int_Tables_number   1
_chemical_formula_structural   Pr3NdTa4(Bi2O11)2
_chemical_formula_sum   'Pr3 Nd1 Ta4 Bi4 O22'
_cell_volume   508.82692779
_cell_formula_units_Z   1
loop_
 _symmetry_equiv_pos_site_id
 _symmetry_equiv_pos_as_xyz
  1  'x, y, z'
loop_
 _atom_site_type_symbol
 _atom_site_label
 _atom_site_symmetry_multiplicity
 _atom_site_fract_x
 _atom_site_fract_y
 _atom_site_fract_z
 _atom_site_occupancy
  Pr  Pr0  1  0.750161  0.369419  0.482592  1
  Pr  Pr1  1  0.249513  0.630007  0.517049  1
  Pr  Pr2  1  0.758940  0.873177  0.488823  1
  Nd  Nd3  1  0.241062  0.127446  0.512358  1
  Ta  Ta4  1  0.915428  0.701678  0.808465  1
  Ta  Ta5  1  0.084636  0.298241  0.191996  1
  Ta  Ta6  1  0.916467  0.201173  0.809984  1
  Ta  Ta7  1  0.083860  0.799126  0.190405  1
  Bi  Bi8  1  0.428782  0.955118  0.816415  1
  Bi  Bi9  1  0.569555  0.045197  0.183653  1
  Bi  Bi10  1  0.398028  0.454696  0.826782  1
  Bi  Bi11  1  0.601747  0.545036  0.173076  1
  O  O12  1  0.217583  0.726870  0.764194  1
  O  O13  1  0.782662  0.272626  0.235771  1
  O  O14  1  0.636018  0.662518  0.839173  1
  O  O15  1  0.364015  0.337234  0.160275  1
  O  O16  1  0.636342  0.254848  0.841521  1
  O  O17  1  0.364024  0.744910  0.157867  1
  O  O18  1  0.896281  0.156222  0.596577  1
  O  O19  1  0.106501  0.845786  0.403458  1
  O  O20  1  0.216140  0.152753  0.761879  1
  O  O21  1  0.784203  0.847948  0.237851  1
  O  O22  1  0.898667  0.642468  0.597567  1
  O  O23  1  0.102307  0.355555  0.402452  1
  O  O24  1  0.025241  0.550233  0.197929  1
  O  O25  1  0.975202  0.450250  0.803745  1
  O  O26  1  0.998884  0.779129  0.000052  1
  O  O27  1  0.001861  0.220843  0.999864  1
  O  O28  1  0.571008  0.598478  0.389124  1
  O  O29  1  0.427732  0.400027  0.610587  1
  O  O30  1  0.156215  0.054024  0.214239  1
  O  O31  1  0.844121  0.945634  0.784245  1
  O  O32  1  0.545383  0.100292  0.397776  1
  O  O33  1  0.451431  0.901036  0.602259  1
