# generated using pymatgen
data_Er3Lu2Co19(Si2P)4
_symmetry_space_group_name_H-M   'P 1'
_cell_length_a   12.06911018
_cell_length_b   12.06838432
_cell_length_c   3.67365700
_cell_angle_alpha   90.00000000
_cell_angle_beta   90.00000000
_cell_angle_gamma   119.97781162
_symmetry_Int_Tables_number   1
_chemical_formula_structural   Er3Lu2Co19(Si2P)4
_chemical_formula_sum   'Er3 Lu2 Co19 Si8 P4'
_cell_volume   463.50100348
_cell_formula_units_Z   1
loop_
 _symmetry_equiv_pos_site_id
 _symmetry_equiv_pos_as_xyz
  1  'x, y, z'
loop_
 _atom_site_type_symbol
 _atom_site_label
 _atom_site_symmetry_multiplicity
 _atom_site_fract_x
 _atom_site_fract_y
 _atom_site_fract_z
 _atom_site_occupancy
  Er  Er0  1  0.332923  0.666282  0.000000  1
  Er  Er1  1  0.667123  0.331919  0.000000  1
  Er  Er2  1  0.185654  0.999992  0.500000  1
  Lu  Lu3  1  0.001140  0.185229  0.500000  1
  Lu  Lu4  1  0.814230  0.815371  0.500000  1
  Co  Co5  1  0.629058  0.825700  0.000000  1
  Co  Co6  1  0.175496  0.802903  0.000000  1
  Co  Co7  1  0.195578  0.371072  0.000000  1
  Co  Co8  1  0.374100  0.196528  0.000000  1
  Co  Co9  1  0.823654  0.627811  0.000000  1
  Co  Co10  1  0.798888  0.175603  0.000000  1
  Co  Co11  1  0.998993  0.556912  0.000000  1
  Co  Co12  1  0.441585  0.441981  0.000000  1
  Co  Co13  1  0.556190  0.997192  0.000000  1
  Co  Co14  1  0.521498  0.645736  0.500000  1
  Co  Co15  1  0.354793  0.875557  0.500000  1
  Co  Co16  1  0.122909  0.477627  0.500000  1
  Co  Co17  1  0.486421  0.124690  0.500000  1
  Co  Co18  1  0.644780  0.520982  0.500000  1
  Co  Co19  1  0.874132  0.352889  0.500000  1
  Co  Co20  1  0.999192  0.723203  0.500000  1
  Co  Co21  1  0.277080  0.276318  0.500000  1
  Co  Co22  1  0.722558  0.004654  0.500000  1
  Co  Co23  1  0.998639  0.000130  0.000000  1
  Si  Si24  1  0.999485  0.368228  0.000000  1
  Si  Si25  1  0.630902  0.631182  0.000000  1
  Si  Si26  1  0.369897  0.000218  0.000000  1
  Si  Si27  1  0.521993  0.840220  0.500000  1
  Si  Si28  1  0.158690  0.680714  0.500000  1
  Si  Si29  1  0.318364  0.477753  0.500000  1
  Si  Si30  1  0.478811  0.317937  0.500000  1
  Si  Si31  1  0.839839  0.521742  0.500000  1
  P  P32  1  0.686000  0.164970  0.500000  1
  P  P33  1  0.998914  0.819556  0.000000  1
  P  P34  1  0.180525  0.179847  0.000000  1
  P  P35  1  0.819964  0.001352  0.000000  1
