# generated using pymatgen
data_Hf3Al3FeNiPt
_symmetry_space_group_name_H-M   'P 1'
_cell_length_a   7.06611100
_cell_length_b   7.06611107
_cell_length_c   3.36636600
_cell_angle_alpha   90.00000000
_cell_angle_beta   90.00000000
_cell_angle_gamma   119.99999500
_symmetry_Int_Tables_number   1
_chemical_formula_structural   Hf3Al3FeNiPt
_chemical_formula_sum   'Hf3 Al3 Fe1 Ni1 Pt1'
_cell_volume   145.56363775
_cell_formula_units_Z   1
loop_
 _symmetry_equiv_pos_site_id
 _symmetry_equiv_pos_as_xyz
  1  'x, y, z'
loop_
 _atom_site_type_symbol
 _atom_site_label
 _atom_site_symmetry_multiplicity
 _atom_site_fract_x
 _atom_site_fract_y
 _atom_site_fract_z
 _atom_site_occupancy
  Hf  Hf0  1  0.414485  0.393579  0.500000  1
  Hf  Hf1  1  0.606421  0.020907  0.500000  1
  Hf  Hf2  1  0.979093  0.585515  0.500000  1
  Al  Al3  1  0.746440  0.748036  0.000000  1
  Al  Al4  1  0.251964  0.998403  0.000000  1
  Al  Al5  1  0.001597  0.253560  0.000000  1
  Fe  Fe6  1  0.666667  0.333333  0.000000  1
  Ni  Ni7  1  0.000000  0.000000  0.500000  1
  Pt  Pt8  1  0.333333  0.666667  0.000000  1
