# generated using pymatgen
data_Hf4ZnIn2CoPd2
_symmetry_space_group_name_H-M   'P 1'
_cell_length_a   7.43278012
_cell_length_b   7.43278058
_cell_length_c   3.37840200
_cell_angle_alpha   90.00000000
_cell_angle_beta   90.00000000
_cell_angle_gamma   89.45174634
_symmetry_Int_Tables_number   1
_chemical_formula_structural   Hf4ZnIn2CoPd2
_chemical_formula_sum   'Hf4 Zn1 In2 Co1 Pd2'
_cell_volume   186.63540816
_cell_formula_units_Z   1
loop_
 _symmetry_equiv_pos_site_id
 _symmetry_equiv_pos_as_xyz
  1  'x, y, z'
loop_
 _atom_site_type_symbol
 _atom_site_label
 _atom_site_symmetry_multiplicity
 _atom_site_fract_x
 _atom_site_fract_y
 _atom_site_fract_z
 _atom_site_occupancy
  Hf  Hf0  1  0.158412  0.341588  0.000000  1
  Hf  Hf1  1  0.814561  0.685439  0.000000  1
  Hf  Hf2  1  0.679044  0.140154  0.000000  1
  Hf  Hf3  1  0.359846  0.820956  0.000000  1
  Zn  Zn4  1  0.372757  0.127243  0.500000  1
  In  In5  1  0.006644  0.000800  0.500000  1
  In  In6  1  0.499200  0.493356  0.500000  1
  Co  Co7  1  0.618995  0.881005  0.500000  1
  Pd  Pd8  1  0.864054  0.373513  0.500000  1
  Pd  Pd9  1  0.126487  0.635946  0.500000  1
