# generated using pymatgen
data_Y2HoEr(ReB6)2
_symmetry_space_group_name_H-M   'P 1'
_cell_length_a   3.67466300
_cell_length_b   9.16249901
_cell_length_c   11.55144702
_cell_angle_alpha   90.00621288
_cell_angle_beta   90.00000000
_cell_angle_gamma   90.00000000
_symmetry_Int_Tables_number   1
_chemical_formula_structural   Y2HoEr(ReB6)2
_chemical_formula_sum   'Y4 Ho2 Er2 Re4 B24'
_cell_volume   388.92677756
_cell_formula_units_Z   2
loop_
 _symmetry_equiv_pos_site_id
 _symmetry_equiv_pos_as_xyz
  1  'x, y, z'
loop_
 _atom_site_type_symbol
 _atom_site_label
 _atom_site_symmetry_multiplicity
 _atom_site_fract_x
 _atom_site_fract_y
 _atom_site_fract_z
 _atom_site_occupancy
  Y  Y0  1  0.000000  0.323465  0.413868  1
  Y  Y1  1  0.000000  0.676535  0.586132  1
  Y  Y2  1  0.000000  0.823339  0.086064  1
  Y  Y3  1  0.000000  0.176661  0.913936  1
  Ho  Ho4  1  0.000000  0.943281  0.370017  1
  Ho  Ho5  1  0.000000  0.056719  0.629983  1
  Er  Er6  1  0.000000  0.443357  0.129862  1
  Er  Er7  1  0.000000  0.556643  0.870138  1
  Re  Re8  1  0.000000  0.638778  0.320386  1
  Re  Re9  1  0.000000  0.361222  0.679614  1
  Re  Re10  1  0.000000  0.139246  0.179355  1
  Re  Re11  1  0.000000  0.860754  0.820645  1
  B  B12  1  0.500000  0.553467  0.432656  1
  B  B13  1  0.500000  0.446533  0.567344  1
  B  B14  1  0.500000  0.053528  0.067296  1
  B  B15  1  0.500000  0.946472  0.932704  1
  B  B16  1  0.500000  0.749411  0.418421  1
  B  B17  1  0.500000  0.250589  0.581579  1
  B  B18  1  0.500000  0.249822  0.081540  1
  B  B19  1  0.500000  0.750178  0.918460  1
  B  B20  1  0.500000  0.792185  0.265654  1
  B  B21  1  0.500000  0.207815  0.734346  1
  B  B22  1  0.500000  0.292588  0.234213  1
  B  B23  1  0.500000  0.707412  0.765787  1
  B  B24  1  0.500000  0.630573  0.185524  1
  B  B25  1  0.500000  0.369427  0.814476  1
  B  B26  1  0.500000  0.130926  0.314236  1
  B  B27  1  0.500000  0.869074  0.685764  1
  B  B28  1  0.500000  0.982550  0.212119  1
  B  B29  1  0.500000  0.017450  0.787881  1
  B  B30  1  0.500000  0.482306  0.287618  1
  B  B31  1  0.500000  0.517694  0.712382  1
  B  B32  1  0.500000  0.599245  0.027744  1
  B  B33  1  0.500000  0.400755  0.972256  1
  B  B34  1  0.500000  0.099719  0.472137  1
  B  B35  1  0.500000  0.900281  0.527863  1
