# generated using pymatgen
data_DySn6IrRu3
_symmetry_space_group_name_H-M   'P 1'
_cell_length_a   6.96593624
_cell_length_b   6.96647780
_cell_length_c   6.96750701
_cell_angle_alpha   120.38354857
_cell_angle_beta   120.38100218
_cell_angle_gamma   89.32832553
_symmetry_Int_Tables_number   1
_chemical_formula_structural   DySn6IrRu3
_chemical_formula_sum   'Dy1 Sn6 Ir1 Ru3'
_cell_volume   237.71013531
_cell_formula_units_Z   1
loop_
 _symmetry_equiv_pos_site_id
 _symmetry_equiv_pos_as_xyz
  1  'x, y, z'
loop_
 _atom_site_type_symbol
 _atom_site_label
 _atom_site_symmetry_multiplicity
 _atom_site_fract_x
 _atom_site_fract_y
 _atom_site_fract_z
 _atom_site_occupancy
  Dy  Dy0  1  0.000134  0.998629  0.000000  1
  Sn  Sn1  1  0.876670  0.532408  0.000000  1
  Sn  Sn2  1  0.536149  0.881101  0.000000  1
  Sn  Sn3  1  0.120255  0.115014  0.649158  1
  Sn  Sn4  1  0.000768  0.499728  0.495285  1
  Sn  Sn5  1  0.471097  0.465856  0.350842  1
  Sn  Sn6  1  0.505483  0.004443  0.504715  1
  Ir  Ir7  1  0.243476  0.600187  0.000000  1
  Ru  Ru8  1  0.401595  0.403855  0.653078  1
  Ru  Ru9  1  0.595856  0.248000  0.000000  1
  Ru  Ru10  1  0.748517  0.750777  0.346922  1
