# generated using pymatgen
data_Y4GeAsPd28
_symmetry_space_group_name_H-M   'P 1'
_cell_length_a   8.98396100
_cell_length_b   8.98396100
_cell_length_c   7.13206100
_cell_angle_alpha   90.00000000
_cell_angle_beta   90.00000000
_cell_angle_gamma   90.00000000
_symmetry_Int_Tables_number   1
_chemical_formula_structural   Y4GeAsPd28
_chemical_formula_sum   'Y4 Ge1 As1 Pd28'
_cell_volume   575.63973544
_cell_formula_units_Z   1
loop_
 _symmetry_equiv_pos_site_id
 _symmetry_equiv_pos_as_xyz
  1  'x, y, z'
loop_
 _atom_site_type_symbol
 _atom_site_label
 _atom_site_symmetry_multiplicity
 _atom_site_fract_x
 _atom_site_fract_y
 _atom_site_fract_z
 _atom_site_occupancy
  Y  Y0  1  0.500000  0.000000  0.935741  1
  Y  Y1  1  0.000000  0.500000  0.064891  1
  Y  Y2  1  0.000000  0.000000  0.500322  1
  Y  Y3  1  0.500000  0.500000  0.500322  1
  Ge  Ge4  1  0.000000  0.500000  0.548852  1
  As  As5  1  0.500000  0.000000  0.450433  1
  Pd  Pd6  1  0.331023  0.831023  0.622435  1
  Pd  Pd7  1  0.331023  0.168977  0.622435  1
  Pd  Pd8  1  0.668977  0.831023  0.622435  1
  Pd  Pd9  1  0.668977  0.168977  0.622435  1
  Pd  Pd10  1  0.169495  0.669495  0.377489  1
  Pd  Pd11  1  0.169495  0.330505  0.377489  1
  Pd  Pd12  1  0.830505  0.669495  0.377489  1
  Pd  Pd13  1  0.830505  0.330505  0.377489  1
  Pd  Pd14  1  0.500000  0.766512  0.253671  1
  Pd  Pd15  1  0.500000  0.233488  0.253671  1
  Pd  Pd16  1  0.266512  0.000000  0.253671  1
  Pd  Pd17  1  0.733488  0.000000  0.253671  1
  Pd  Pd18  1  0.000000  0.733580  0.746255  1
  Pd  Pd19  1  0.000000  0.266420  0.746255  1
  Pd  Pd20  1  0.233580  0.500000  0.746255  1
  Pd  Pd21  1  0.766420  0.500000  0.746255  1
  Pd  Pd22  1  0.500000  0.348722  0.855483  1
  Pd  Pd23  1  0.500000  0.651278  0.855483  1
  Pd  Pd24  1  0.848722  0.000000  0.855483  1
  Pd  Pd25  1  0.151278  0.000000  0.855483  1
  Pd  Pd26  1  0.000000  0.150825  0.144887  1
  Pd  Pd27  1  0.000000  0.849175  0.144887  1
  Pd  Pd28  1  0.650825  0.500000  0.144887  1
  Pd  Pd29  1  0.349175  0.500000  0.144887  1
  Pd  Pd30  1  0.249253  0.749253  0.999640  1
  Pd  Pd31  1  0.249253  0.250747  0.999640  1
  Pd  Pd32  1  0.750747  0.749253  0.999640  1
  Pd  Pd33  1  0.750747  0.250747  0.999640  1
