# generated using pymatgen
data_Sr4Mn(MoO4)3
_symmetry_space_group_name_H-M   'P 1'
_cell_length_a   5.76713400
_cell_length_b   5.71367808
_cell_length_c   8.15462592
_cell_angle_alpha   90.06879161
_cell_angle_beta   90.16779003
_cell_angle_gamma   90.46373435
_symmetry_Int_Tables_number   1
_chemical_formula_structural   Sr4Mn(MoO4)3
_chemical_formula_sum   'Sr4 Mn1 Mo3 O12'
_cell_volume   268.69738585
_cell_formula_units_Z   1
loop_
 _symmetry_equiv_pos_site_id
 _symmetry_equiv_pos_as_xyz
  1  'x, y, z'
loop_
 _atom_site_type_symbol
 _atom_site_label
 _atom_site_symmetry_multiplicity
 _atom_site_fract_x
 _atom_site_fract_y
 _atom_site_fract_z
 _atom_site_occupancy
  Sr  Sr0  1  0.526284  0.496189  0.759278  1
  Sr  Sr1  1  0.029723  0.012540  0.759143  1
  Sr  Sr2  1  0.473716  0.503811  0.240722  1
  Sr  Sr3  1  0.970277  0.987460  0.240857  1
  Mn  Mn4  1  0.500000  0.000000  0.000000  1
  Mo  Mo5  1  0.000000  0.500000  0.500000  1
  Mo  Mo6  1  0.500000  0.000000  0.500000  1
  Mo  Mo7  1  0.000000  0.500000  0.000000  1
  O  O8  1  0.726915  0.713915  0.040074  1
  O  O9  1  0.223717  0.774405  0.458976  1
  O  O10  1  0.276261  0.277278  0.537544  1
  O  O11  1  0.789598  0.237725  0.967119  1
  O  O12  1  0.273085  0.286085  0.959926  1
  O  O13  1  0.776283  0.225595  0.541024  1
  O  O14  1  0.723739  0.722722  0.462456  1
  O  O15  1  0.210402  0.762275  0.032881  1
  O  O16  1  0.485222  0.934742  0.729422  1
  O  O17  1  0.977222  0.578744  0.753296  1
  O  O18  1  0.514778  0.065258  0.270578  1
  O  O19  1  0.022778  0.421256  0.246704  1
