# generated using pymatgen
data_Cs2LaF5
_symmetry_space_group_name_H-M   'P 1'
_cell_length_a   7.35058400
_cell_length_b   8.02720500
_cell_length_c   12.27011400
_cell_angle_alpha   90.00000000
_cell_angle_beta   90.00000000
_cell_angle_gamma   90.00000000
_symmetry_Int_Tables_number   1
_chemical_formula_structural   Cs2LaF5
_chemical_formula_sum   'Cs8 La4 F20'
_cell_volume   723.99371623
_cell_formula_units_Z   4
loop_
 _symmetry_equiv_pos_site_id
 _symmetry_equiv_pos_as_xyz
  1  'x, y, z'
loop_
 _atom_site_type_symbol
 _atom_site_label
 _atom_site_symmetry_multiplicity
 _atom_site_fract_x
 _atom_site_fract_y
 _atom_site_fract_z
 _atom_site_occupancy
  Cs  Cs0  1  0.532511  0.022214  0.170545  1
  Cs  Cs1  1  0.467489  0.522214  0.829455  1
  Cs  Cs2  1  0.967489  0.022214  0.670545  1
  Cs  Cs3  1  0.032511  0.522214  0.329455  1
  Cs  Cs4  1  0.030618  0.017595  0.329212  1
  Cs  Cs5  1  0.969382  0.517595  0.670788  1
  Cs  Cs6  1  0.469382  0.017595  0.829212  1
  Cs  Cs7  1  0.530618  0.517595  0.170788  1
  La  La8  1  0.443375  0.268411  0.500566  1
  La  La9  1  0.556625  0.768411  0.499434  1
  La  La10  1  0.056625  0.268411  0.000566  1
  La  La11  1  0.943375  0.768411  0.999434  1
  F  F12  1  0.140174  0.986729  0.070976  1
  F  F13  1  0.859826  0.486729  0.929024  1
  F  F14  1  0.359826  0.986729  0.570976  1
  F  F15  1  0.640174  0.486729  0.429024  1
  F  F16  1  0.374651  0.269279  0.013756  1
  F  F17  1  0.625349  0.769279  0.986244  1
  F  F18  1  0.125349  0.269279  0.513756  1
  F  F19  1  0.874651  0.769279  0.486244  1
  F  F20  1  0.138522  0.549846  0.072350  1
  F  F21  1  0.861478  0.049846  0.927650  1
  F  F22  1  0.361478  0.549846  0.572350  1
  F  F23  1  0.638522  0.049846  0.427650  1
  F  F24  1  0.347555  0.268386  0.317398  1
  F  F25  1  0.652445  0.768386  0.682602  1
  F  F26  1  0.152445  0.268386  0.817398  1
  F  F27  1  0.847555  0.768386  0.182602  1
  F  F28  1  0.377352  0.764540  0.341372  1
  F  F29  1  0.622648  0.264540  0.658628  1
  F  F30  1  0.122648  0.764540  0.841372  1
  F  F31  1  0.877352  0.264540  0.158628  1
