# generated using pymatgen
data_Tb4VRe(B8W)2
_symmetry_space_group_name_H-M   'P 1'
_cell_length_a   3.60351000
_cell_length_b   6.02076851
_cell_length_c   11.63814343
_cell_angle_alpha   90.07005703
_cell_angle_beta   90.00000000
_cell_angle_gamma   90.00000000
_symmetry_Int_Tables_number   1
_chemical_formula_structural   Tb4VRe(B8W)2
_chemical_formula_sum   'Tb4 V1 Re1 B16 W2'
_cell_volume   252.49980182
_cell_formula_units_Z   1
loop_
 _symmetry_equiv_pos_site_id
 _symmetry_equiv_pos_as_xyz
  1  'x, y, z'
loop_
 _atom_site_type_symbol
 _atom_site_label
 _atom_site_symmetry_multiplicity
 _atom_site_fract_x
 _atom_site_fract_y
 _atom_site_fract_z
 _atom_site_occupancy
  Tb  Tb0  1  0.000000  0.125770  0.148047  1
  Tb  Tb1  1  0.000000  0.875071  0.851717  1
  Tb  Tb2  1  0.000000  0.626182  0.348786  1
  Tb  Tb3  1  0.000000  0.372956  0.652665  1
  V  V4  1  0.000000  0.371807  0.918323  1
  Re  Re5  1  0.000000  0.627004  0.082496  1
  B  B6  1  0.500000  0.476999  0.190940  1
  B  B7  1  0.500000  0.522835  0.808907  1
  B  B8  1  0.500000  0.974392  0.305731  1
  B  B9  1  0.500000  0.025617  0.694138  1
  B  B10  1  0.500000  0.287117  0.312153  1
  B  B11  1  0.500000  0.713108  0.687697  1
  B  B12  1  0.500000  0.783158  0.183778  1
  B  B13  1  0.500000  0.216935  0.816093  1
  B  B14  1  0.500000  0.366723  0.467794  1
  B  B15  1  0.500000  0.633490  0.532361  1
  B  B16  1  0.500000  0.863758  0.031795  1
  B  B17  1  0.500000  0.136335  0.968000  1
  B  B18  1  0.500000  0.387102  0.046675  1
  B  B19  1  0.500000  0.613257  0.953049  1
  B  B20  1  0.500000  0.886251  0.452623  1
  B  B21  1  0.500000  0.114523  0.547224  1
  W  W22  1  0.000000  0.129888  0.414257  1
  W  W23  1  0.000000  0.869722  0.584750  1
