# generated using pymatgen
data_Hf4MgP12Ru19
_symmetry_space_group_name_H-M   'P 1'
_cell_length_a   12.42256728
_cell_length_b   12.34749345
_cell_length_c   3.91473700
_cell_angle_alpha   90.00000000
_cell_angle_beta   90.00000000
_cell_angle_gamma   119.80029671
_symmetry_Int_Tables_number   1
_chemical_formula_structural   Hf4MgP12Ru19
_chemical_formula_sum   'Hf4 Mg1 P12 Ru19'
_cell_volume   521.06730149
_cell_formula_units_Z   1
loop_
 _symmetry_equiv_pos_site_id
 _symmetry_equiv_pos_as_xyz
  1  'x, y, z'
loop_
 _atom_site_type_symbol
 _atom_site_label
 _atom_site_symmetry_multiplicity
 _atom_site_fract_x
 _atom_site_fract_y
 _atom_site_fract_z
 _atom_site_occupancy
  Hf  Hf0  1  0.810019  0.810554  0.500000  1
  Hf  Hf1  1  0.189981  0.000535  0.500000  1
  Hf  Hf2  1  0.672957  0.336111  0.000000  1
  Hf  Hf3  1  0.327043  0.663155  0.000000  1
  Mg  Mg4  1  0.000000  0.191331  0.500000  1
  P  P5  1  0.000000  0.831763  0.000000  1
  P  P6  1  0.193291  0.175658  0.000000  1
  P  P7  1  0.806709  0.982367  0.000000  1
  P  P8  1  0.700758  0.172475  0.500000  1
  P  P9  1  0.829359  0.524356  0.500000  1
  P  P10  1  0.485629  0.309378  0.500000  1
  P  P11  1  0.170641  0.694996  0.500000  1
  P  P12  1  0.514371  0.823748  0.500000  1
  P  P13  1  0.299242  0.471717  0.500000  1
  P  P14  1  0.000000  0.377304  0.000000  1
  P  P15  1  0.629162  0.628293  0.000000  1
  P  P16  1  0.370838  0.999131  0.000000  1
  Ru  Ru17  1  0.000000  0.560476  0.000000  1
  Ru  Ru18  1  0.443971  0.444727  0.000000  1
  Ru  Ru19  1  0.556029  0.000756  0.000000  1
  Ru  Ru20  1  0.000000  0.726700  0.500000  1
  Ru  Ru21  1  0.285625  0.277486  0.500000  1
  Ru  Ru22  1  0.714375  0.991862  0.500000  1
  Ru  Ru23  1  0.822411  0.180887  0.000000  1
  Ru  Ru24  1  0.817786  0.633529  0.000000  1
  Ru  Ru25  1  0.383324  0.191017  0.000000  1
  Ru  Ru26  1  0.182214  0.815744  0.000000  1
  Ru  Ru27  1  0.616676  0.807692  0.000000  1
  Ru  Ru28  1  0.177589  0.358476  0.000000  1
  Ru  Ru29  1  0.872224  0.366744  0.500000  1
  Ru  Ru30  1  0.636940  0.509233  0.500000  1
  Ru  Ru31  1  0.503854  0.132800  0.500000  1
  Ru  Ru32  1  0.363060  0.872293  0.500000  1
  Ru  Ru33  1  0.496146  0.628947  0.500000  1
  Ru  Ru34  1  0.127776  0.494518  0.500000  1
  Ru  Ru35  1  0.000000  0.013242  0.000000  1
