# generated using pymatgen
data_Er4Tm8Tc3Ir
_symmetry_space_group_name_H-M   'P 1'
_cell_length_a   6.21618100
_cell_length_b   7.33370628
_cell_length_c   8.99225400
_cell_angle_alpha   90.00000000
_cell_angle_beta   90.00000000
_cell_angle_gamma   89.98387923
_symmetry_Int_Tables_number   1
_chemical_formula_structural   Er4Tm8Tc3Ir
_chemical_formula_sum   'Er4 Tm8 Tc3 Ir1'
_cell_volume   409.93567283
_cell_formula_units_Z   1
loop_
 _symmetry_equiv_pos_site_id
 _symmetry_equiv_pos_as_xyz
  1  'x, y, z'
loop_
 _atom_site_type_symbol
 _atom_site_label
 _atom_site_symmetry_multiplicity
 _atom_site_fract_x
 _atom_site_fract_y
 _atom_site_fract_z
 _atom_site_occupancy
  Er  Er0  1  0.875467  0.540036  0.250000  1
  Er  Er1  1  0.623853  0.038053  0.250000  1
  Er  Er2  1  0.130084  0.458610  0.750000  1
  Er  Er3  1  0.372798  0.960484  0.750000  1
  Tm  Tm4  1  0.334516  0.676028  0.063796  1
  Tm  Tm5  1  0.161708  0.175393  0.437037  1
  Tm  Tm6  1  0.663374  0.322893  0.561323  1
  Tm  Tm7  1  0.836729  0.825546  0.938432  1
  Tm  Tm8  1  0.663374  0.322893  0.938677  1
  Tm  Tm9  1  0.836729  0.825546  0.561568  1
  Tm  Tm10  1  0.334516  0.676028  0.436204  1
  Tm  Tm11  1  0.161708  0.175393  0.062963  1
  Tc  Tc12  1  0.039616  0.883596  0.250000  1
  Tc  Tc13  1  0.462596  0.385929  0.250000  1
  Tc  Tc14  1  0.960256  0.116795  0.750000  1
  Ir  Ir15  1  0.542677  0.616777  0.750000  1
