# generated using pymatgen
data_Ce2B6Ir4Rh5
_symmetry_space_group_name_H-M   'P 1'
_cell_length_a   5.65375011
_cell_length_b   5.65428563
_cell_length_c   8.62468510
_cell_angle_alpha   90.00128679
_cell_angle_beta   90.00257383
_cell_angle_gamma   60.00312125
_symmetry_Int_Tables_number   1
_chemical_formula_structural   Ce2B6Ir4Rh5
_chemical_formula_sum   'Ce2 B6 Ir4 Rh5'
_cell_volume   238.78216723
_cell_formula_units_Z   1
loop_
 _symmetry_equiv_pos_site_id
 _symmetry_equiv_pos_as_xyz
  1  'x, y, z'
loop_
 _atom_site_type_symbol
 _atom_site_label
 _atom_site_symmetry_multiplicity
 _atom_site_fract_x
 _atom_site_fract_y
 _atom_site_fract_z
 _atom_site_occupancy
  Ce  Ce0  1  0.999750  0.000000  0.299231  1
  Ce  Ce1  1  0.000140  0.000000  0.700609  1
  B  B2  1  0.666347  0.667317  0.999773  1
  B  B3  1  0.333664  0.332683  0.999773  1
  B  B4  1  0.666600  0.666795  0.332333  1
  B  B5  1  0.333395  0.333205  0.332333  1
  B  B6  1  0.333134  0.333870  0.668095  1
  B  B7  1  0.667004  0.666130  0.668095  1
  Ir  Ir8  1  0.499826  0.000000  0.162620  1
  Ir  Ir9  1  0.500003  0.000000  0.500888  1
  Ir  Ir10  1  0.000020  0.499993  0.500233  1
  Ir  Ir11  1  0.500012  0.500007  0.500233  1
  Rh  Rh12  1  0.999891  0.499963  0.162369  1
  Rh  Rh13  1  0.499855  0.500037  0.162369  1
  Rh  Rh14  1  0.500080  0.000000  0.836935  1
  Rh  Rh15  1  0.000085  0.500008  0.837055  1
  Rh  Rh16  1  0.500093  0.499992  0.837055  1
