# generated using pymatgen
data_CsTb10(C2Br9)2
_symmetry_space_group_name_H-M   'P 1'
_cell_length_a   10.76467682
_cell_length_b   10.84641814
_cell_length_c   10.95410319
_cell_angle_alpha   113.36809983
_cell_angle_beta   87.48723388
_cell_angle_gamma   118.95615302
_symmetry_Int_Tables_number   1
_chemical_formula_structural   CsTb10(C2Br9)2
_chemical_formula_sum   'Cs1 Tb10 C4 Br18'
_cell_volume   1009.66892282
_cell_formula_units_Z   1
loop_
 _symmetry_equiv_pos_site_id
 _symmetry_equiv_pos_as_xyz
  1  'x, y, z'
loop_
 _atom_site_type_symbol
 _atom_site_label
 _atom_site_symmetry_multiplicity
 _atom_site_fract_x
 _atom_site_fract_y
 _atom_site_fract_z
 _atom_site_occupancy
  Cs  Cs0  1  0.500000  0.000000  0.500000  1
  Tb  Tb1  1  0.662395  0.717543  0.702610  1
  Tb  Tb2  1  0.281967  0.363525  0.011954  1
  Tb  Tb3  1  0.092776  0.406375  0.300618  1
  Tb  Tb4  1  0.960109  0.036476  0.332527  1
  Tb  Tb5  1  0.907224  0.593625  0.699382  1
  Tb  Tb6  1  0.112067  0.941765  0.001053  1
  Tb  Tb7  1  0.039891  0.963524  0.667473  1
  Tb  Tb8  1  0.337605  0.282457  0.297390  1
  Tb  Tb9  1  0.718033  0.636475  0.988046  1
  Tb  Tb10  1  0.887933  0.058235  0.998947  1
  C  C11  1  0.156559  0.227164  0.123651  1
  C  C12  1  0.843441  0.772836  0.876349  1
  C  C13  1  0.921938  0.851554  0.796454  1
  C  C14  1  0.078062  0.148446  0.203546  1
  Br  Br15  1  0.452116  0.531289  0.833436  1
  Br  Br16  1  0.383317  0.039259  0.159416  1
  Br  Br17  1  0.777866  0.857269  0.502460  1
  Br  Br18  1  0.837984  0.310886  0.154004  1
  Br  Br19  1  0.547884  0.468711  0.166564  1
  Br  Br20  1  0.222134  0.142731  0.497540  1
  Br  Br21  1  0.314285  0.098708  0.829490  1
  Br  Br22  1  0.685715  0.901292  0.170510  1
  Br  Br23  1  0.974733  0.761102  0.172145  1
  Br  Br24  1  0.932924  0.301534  0.500584  1
  Br  Br25  1  0.025267  0.238898  0.827855  1
  Br  Br26  1  0.067076  0.698466  0.499416  1
  Br  Br27  1  0.260260  0.621872  0.186345  1
  Br  Br28  1  0.739740  0.378128  0.813655  1
  Br  Br29  1  0.639666  0.434615  0.500691  1
  Br  Br30  1  0.162016  0.689114  0.845996  1
  Br  Br31  1  0.616683  0.960741  0.840584  1
  Br  Br32  1  0.360334  0.565385  0.499309  1
