# generated using pymatgen
data_Ho10Tl7In(PtRh)2
_symmetry_space_group_name_H-M   'P 1'
_cell_length_a   3.61468300
_cell_length_b   8.18413297
_cell_length_c   18.34181955
_cell_angle_alpha   90.07935687
_cell_angle_beta   90.00000000
_cell_angle_gamma   90.00000000
_symmetry_Int_Tables_number   1
_chemical_formula_structural   Ho10Tl7In(PtRh)2
_chemical_formula_sum   'Ho10 Tl7 In1 Pt2 Rh2'
_cell_volume   542.60637716
_cell_formula_units_Z   1
loop_
 _symmetry_equiv_pos_site_id
 _symmetry_equiv_pos_as_xyz
  1  'x, y, z'
loop_
 _atom_site_type_symbol
 _atom_site_label
 _atom_site_symmetry_multiplicity
 _atom_site_fract_x
 _atom_site_fract_y
 _atom_site_fract_z
 _atom_site_occupancy
  Ho  Ho0  1  0.000000  0.113101  0.411091  1
  Ho  Ho1  1  0.000000  0.886208  0.588268  1
  Ho  Ho2  1  0.000000  0.385318  0.911837  1
  Ho  Ho3  1  0.000000  0.615015  0.088236  1
  Ho  Ho4  1  0.000000  0.239611  0.222021  1
  Ho  Ho5  1  0.000000  0.761163  0.778171  1
  Ho  Ho6  1  0.000000  0.249829  0.720241  1
  Ho  Ho7  1  0.000000  0.749614  0.279787  1
  Ho  Ho8  1  0.000000  0.000041  0.999883  1
  Ho  Ho9  1  0.000000  0.501296  0.499850  1
  Tl  Tl10  1  0.500000  0.422590  0.353206  1
  Tl  Tl11  1  0.500000  0.580268  0.647134  1
  Tl  Tl12  1  0.500000  0.074505  0.850966  1
  Tl  Tl13  1  0.500000  0.926156  0.149158  1
  Tl  Tl14  1  0.500000  0.291851  0.064243  1
  Tl  Tl15  1  0.500000  0.708273  0.935749  1
  Tl  Tl16  1  0.500000  0.206143  0.565861  1
  In  In17  1  0.500000  0.794111  0.432881  1
  Pt  Pt18  1  0.500000  0.475370  0.802768  1
  Pt  Pt19  1  0.500000  0.524149  0.197186  1
  Rh  Rh20  1  0.500000  0.018713  0.306067  1
  Rh  Rh21  1  0.500000  0.976674  0.695396  1
