# generated using pymatgen
data_Ca3Eu4Mn(SiO4)4
_symmetry_space_group_name_H-M   'P 1'
_cell_length_a   5.11285989
_cell_length_b   6.95092540
_cell_length_c   11.82257752
_cell_angle_alpha   90.61628636
_cell_angle_beta   90.49315861
_cell_angle_gamma   90.47764593
_symmetry_Int_Tables_number   1
_chemical_formula_structural   Ca3Eu4Mn(SiO4)4
_chemical_formula_sum   'Ca3 Eu4 Mn1 Si4 O16'
_cell_volume   420.10905941
_cell_formula_units_Z   1
loop_
 _symmetry_equiv_pos_site_id
 _symmetry_equiv_pos_as_xyz
  1  'x, y, z'
loop_
 _atom_site_type_symbol
 _atom_site_label
 _atom_site_symmetry_multiplicity
 _atom_site_fract_x
 _atom_site_fract_y
 _atom_site_fract_z
 _atom_site_occupancy
  Ca  Ca0  1  0.500000  0.500000  0.500000  1
  Ca  Ca1  1  0.000000  0.500000  0.000000  1
  Ca  Ca2  1  0.500000  0.000000  0.500000  1
  Eu  Eu3  1  0.022565  0.753363  0.720702  1
  Eu  Eu4  1  0.977435  0.246637  0.279298  1
  Eu  Eu5  1  0.521888  0.250401  0.783505  1
  Eu  Eu6  1  0.478112  0.749599  0.216495  1
  Mn  Mn7  1  0.000000  0.000000  0.000000  1
  Si  Si8  1  0.582841  0.759894  0.914249  1
  Si  Si9  1  0.417159  0.240106  0.085751  1
  Si  Si10  1  0.076997  0.250999  0.590530  1
  Si  Si11  1  0.923003  0.749001  0.409470  1
  O  O12  1  0.699939  0.566221  0.848681  1
  O  O13  1  0.300061  0.433779  0.151319  1
  O  O14  1  0.206410  0.442891  0.655637  1
  O  O15  1  0.283090  0.051806  0.149774  1
  O  O16  1  0.793590  0.557109  0.344363  1
  O  O17  1  0.716910  0.948194  0.850226  1
  O  O18  1  0.794935  0.938541  0.345213  1
  O  O19  1  0.205065  0.061459  0.654787  1
  O  O20  1  0.791160  0.751129  0.538518  1
  O  O21  1  0.208840  0.248871  0.461482  1
  O  O22  1  0.269480  0.237799  0.958422  1
  O  O23  1  0.730520  0.762201  0.041578  1
  O  O24  1  0.261726  0.760123  0.921295  1
  O  O25  1  0.738274  0.239877  0.078705  1
  O  O26  1  0.756165  0.250853  0.586096  1
  O  O27  1  0.243835  0.749147  0.413904  1
