# generated using pymatgen
data_Nd4AlSi3
_symmetry_space_group_name_H-M   'P 1'
_cell_length_a   4.01552700
_cell_length_b   4.47955700
_cell_length_c   11.14963400
_cell_angle_alpha   90.00000000
_cell_angle_beta   90.00000000
_cell_angle_gamma   90.00000000
_symmetry_Int_Tables_number   1
_chemical_formula_structural   Nd4AlSi3
_chemical_formula_sum   'Nd4 Al1 Si3'
_cell_volume   200.55718668
_cell_formula_units_Z   1
loop_
 _symmetry_equiv_pos_site_id
 _symmetry_equiv_pos_as_xyz
  1  'x, y, z'
loop_
 _atom_site_type_symbol
 _atom_site_label
 _atom_site_symmetry_multiplicity
 _atom_site_fract_x
 _atom_site_fract_y
 _atom_site_fract_z
 _atom_site_occupancy
  Nd  Nd0  1  0.000000  0.000000  0.363931  1
  Nd  Nd1  1  0.000000  0.500000  0.855012  1
  Nd  Nd2  1  0.500000  0.500000  0.144917  1
  Nd  Nd3  1  0.500000  0.000000  0.639091  1
  Al  Al4  1  0.000000  0.000000  0.067182  1
  Si  Si5  1  0.000000  0.500000  0.571710  1
  Si  Si6  1  0.500000  0.500000  0.431939  1
  Si  Si7  1  0.500000  0.000000  0.926217  1
