# generated using pymatgen
data_Sc9TaCo8Si19Ge
_symmetry_space_group_name_H-M   'P 1'
_cell_length_a   11.99760268
_cell_length_b   11.99649151
_cell_length_c   3.92581000
_cell_angle_alpha   90.00000000
_cell_angle_beta   90.00000000
_cell_angle_gamma   90.25413110
_symmetry_Int_Tables_number   1
_chemical_formula_structural   Sc9TaCo8Si19Ge
_chemical_formula_sum   'Sc9 Ta1 Co8 Si19 Ge1'
_cell_volume   565.03289389
_cell_formula_units_Z   1
loop_
 _symmetry_equiv_pos_site_id
 _symmetry_equiv_pos_as_xyz
  1  'x, y, z'
loop_
 _atom_site_type_symbol
 _atom_site_label
 _atom_site_symmetry_multiplicity
 _atom_site_fract_x
 _atom_site_fract_y
 _atom_site_fract_z
 _atom_site_occupancy
  Sc  Sc0  1  0.000683  0.997205  0.000000  1
  Sc  Sc1  1  0.497977  0.500484  0.000000  1
  Sc  Sc2  1  0.177049  0.322072  0.500000  1
  Sc  Sc3  1  0.822070  0.676875  0.500000  1
  Sc  Sc4  1  0.324612  0.824440  0.500000  1
  Sc  Sc5  1  0.879559  0.381707  0.500000  1
  Sc  Sc6  1  0.391962  0.113040  0.500000  1
  Sc  Sc7  1  0.613209  0.891800  0.500000  1
  Sc  Sc8  1  0.110777  0.612713  0.500000  1
  Ta  Ta9  1  0.676793  0.176667  0.500000  1
  Co  Co10  1  0.523372  0.252820  0.000000  1
  Co  Co11  1  0.256729  0.474552  0.000000  1
  Co  Co12  1  0.743027  0.520731  0.000000  1
  Co  Co13  1  0.475702  0.746739  0.000000  1
  Co  Co14  1  0.974214  0.753782  0.000000  1
  Co  Co15  1  0.020427  0.240347  0.000000  1
  Co  Co16  1  0.752745  0.022792  0.000000  1
  Co  Co17  1  0.246724  0.975200  0.000000  1
  Si  Si18  1  0.570355  0.070257  0.000000  1
  Si  Si19  1  0.927002  0.569138  0.000000  1
  Si  Si20  1  0.433013  0.932900  0.000000  1
  Si  Si21  1  0.198627  0.155686  0.000000  1
  Si  Si22  1  0.156749  0.801745  0.000000  1
  Si  Si23  1  0.839389  0.194273  0.000000  1
  Si  Si24  1  0.801779  0.844155  0.000000  1
  Si  Si25  1  0.302096  0.657067  0.000000  1
  Si  Si26  1  0.694600  0.339623  0.000000  1
  Si  Si27  1  0.656020  0.698319  0.000000  1
  Si  Si28  1  0.344676  0.301525  0.000000  1
  Si  Si29  1  0.007872  0.157812  0.500000  1
  Si  Si30  1  0.166180  0.003024  0.500000  1
  Si  Si31  1  0.835791  0.015476  0.500000  1
  Si  Si32  1  0.000963  0.832851  0.500000  1
  Si  Si33  1  0.503392  0.666145  0.500000  1
  Si  Si34  1  0.516105  0.335859  0.500000  1
  Si  Si35  1  0.658780  0.507839  0.500000  1
  Si  Si36  1  0.333730  0.501470  0.500000  1
  Ge  Ge37  1  0.065248  0.430867  0.000000  1
