# generated using pymatgen
data_Dy4TmPt9
_symmetry_space_group_name_H-M   'P 1'
_cell_length_a   9.76520500
_cell_length_b   9.76520500
_cell_length_c   5.77529100
_cell_angle_alpha   90.00000000
_cell_angle_beta   90.00000000
_cell_angle_gamma   90.00000000
_symmetry_Int_Tables_number   1
_chemical_formula_structural   Dy4TmPt9
_chemical_formula_sum   'Dy8 Tm2 Pt18'
_cell_volume   550.72729523
_cell_formula_units_Z   2
loop_
 _symmetry_equiv_pos_site_id
 _symmetry_equiv_pos_as_xyz
  1  'x, y, z'
loop_
 _atom_site_type_symbol
 _atom_site_label
 _atom_site_symmetry_multiplicity
 _atom_site_fract_x
 _atom_site_fract_y
 _atom_site_fract_z
 _atom_site_occupancy
  Dy  Dy0  1  0.452424  0.808808  0.000000  1
  Dy  Dy1  1  0.547576  0.191192  0.000000  1
  Dy  Dy2  1  0.191192  0.547576  0.000000  1
  Dy  Dy3  1  0.808808  0.452424  0.000000  1
  Dy  Dy4  1  0.308808  0.047576  0.500000  1
  Dy  Dy5  1  0.691192  0.952424  0.500000  1
  Dy  Dy6  1  0.952424  0.691192  0.500000  1
  Dy  Dy7  1  0.047576  0.308808  0.500000  1
  Tm  Tm8  1  0.500000  0.500000  0.500000  1
  Tm  Tm9  1  0.000000  0.000000  0.000000  1
  Pt  Pt10  1  0.191420  0.808580  0.250788  1
  Pt  Pt11  1  0.808580  0.191420  0.749212  1
  Pt  Pt12  1  0.808580  0.191420  0.250788  1
  Pt  Pt13  1  0.191420  0.808580  0.749212  1
  Pt  Pt14  1  0.440950  0.780712  0.500000  1
  Pt  Pt15  1  0.559050  0.219288  0.500000  1
  Pt  Pt16  1  0.219288  0.559050  0.500000  1
  Pt  Pt17  1  0.780712  0.440950  0.500000  1
  Pt  Pt18  1  0.308580  0.308580  0.249212  1
  Pt  Pt19  1  0.691420  0.691420  0.750788  1
  Pt  Pt20  1  0.691420  0.691420  0.249212  1
  Pt  Pt21  1  0.308580  0.308580  0.750788  1
  Pt  Pt22  1  0.280712  0.059050  0.000000  1
  Pt  Pt23  1  0.719288  0.940950  0.000000  1
  Pt  Pt24  1  0.940950  0.719288  0.000000  1
  Pt  Pt25  1  0.059050  0.280712  0.000000  1
  Pt  Pt26  1  0.000000  0.000000  0.500000  1
  Pt  Pt27  1  0.500000  0.500000  0.000000  1
