# generated using pymatgen
data_Ba2NaGaAs3
_symmetry_space_group_name_H-M   'P 1'
_cell_length_a   8.68513423
_cell_length_b   8.68513383
_cell_length_c   12.50657721
_cell_angle_alpha   76.55904441
_cell_angle_beta   76.55904200
_cell_angle_gamma   67.18614567
_symmetry_Int_Tables_number   1
_chemical_formula_structural   Ba2NaGaAs3
_chemical_formula_sum   'Ba8 Na4 Ga4 As12'
_cell_volume   835.04616402
_cell_formula_units_Z   4
loop_
 _symmetry_equiv_pos_site_id
 _symmetry_equiv_pos_as_xyz
  1  'x, y, z'
loop_
 _atom_site_type_symbol
 _atom_site_label
 _atom_site_symmetry_multiplicity
 _atom_site_fract_x
 _atom_site_fract_y
 _atom_site_fract_z
 _atom_site_occupancy
  Ba  Ba0  1  0.744024  0.195354  0.685853  1
  Ba  Ba1  1  0.255976  0.804646  0.314147  1
  Ba  Ba2  1  0.195354  0.744024  0.685853  1
  Ba  Ba3  1  0.500000  0.000000  0.500000  1
  Ba  Ba4  1  0.804646  0.255976  0.314147  1
  Ba  Ba5  1  0.000000  0.500000  0.000000  1
  Ba  Ba6  1  0.500000  0.000000  0.000000  1
  Ba  Ba7  1  0.000000  0.500000  0.500000  1
  Na  Na8  1  0.295660  0.704340  0.000000  1
  Na  Na9  1  0.358457  0.358457  0.228613  1
  Na  Na10  1  0.641543  0.641543  0.771387  1
  Na  Na11  1  0.704340  0.295660  0.000000  1
  Ga  Ga12  1  0.696386  0.696386  0.263421  1
  Ga  Ga13  1  0.091323  0.091323  0.883646  1
  Ga  Ga14  1  0.908677  0.908677  0.116354  1
  Ga  Ga15  1  0.303614  0.303614  0.736579  1
  As  As16  1  0.019655  0.614817  0.228471  1
  As  As17  1  0.586726  0.586726  0.134321  1
  As  As18  1  0.980345  0.385183  0.771529  1
  As  As19  1  0.089211  0.089211  0.486983  1
  As  As20  1  0.589213  0.589213  0.485220  1
  As  As21  1  0.913552  0.913552  0.908069  1
  As  As22  1  0.086448  0.086448  0.091931  1
  As  As23  1  0.413274  0.413274  0.865679  1
  As  As24  1  0.614817  0.019655  0.228471  1
  As  As25  1  0.910789  0.910789  0.513017  1
  As  As26  1  0.385183  0.980345  0.771529  1
  As  As27  1  0.410787  0.410787  0.514780  1
