# generated using pymatgen
data_HfSc(SiW)2
_symmetry_space_group_name_H-M   'P 1'
_cell_length_a   3.51144600
_cell_length_b   6.97830600
_cell_length_c   8.21658000
_cell_angle_alpha   90.00000000
_cell_angle_beta   90.00000000
_cell_angle_gamma   90.00000000
_symmetry_Int_Tables_number   1
_chemical_formula_structural   HfSc(SiW)2
_chemical_formula_sum   'Hf2 Sc2 Si4 W4'
_cell_volume   201.33862186
_cell_formula_units_Z   2
loop_
 _symmetry_equiv_pos_site_id
 _symmetry_equiv_pos_as_xyz
  1  'x, y, z'
loop_
 _atom_site_type_symbol
 _atom_site_label
 _atom_site_symmetry_multiplicity
 _atom_site_fract_x
 _atom_site_fract_y
 _atom_site_fract_z
 _atom_site_occupancy
  Hf  Hf0  1  0.750000  0.457584  0.832925  1
  Hf  Hf1  1  0.750000  0.957584  0.667075  1
  Sc  Sc2  1  0.250000  0.541501  0.165314  1
  Sc  Sc3  1  0.250000  0.041501  0.334686  1
  Si  Si4  1  0.250000  0.756942  0.862430  1
  Si  Si5  1  0.250000  0.256942  0.637570  1
  Si  Si6  1  0.750000  0.241110  0.140964  1
  Si  Si7  1  0.750000  0.741110  0.359036  1
  W  W8  1  0.250000  0.632675  0.561684  1
  W  W9  1  0.250000  0.132675  0.938316  1
  W  W10  1  0.750000  0.370188  0.441020  1
  W  W11  1  0.750000  0.870188  0.058980  1
