# generated using pymatgen
data_Yb5Y3Cu3Si12Ge
_symmetry_space_group_name_H-M   'P 1'
_cell_length_a   8.06506329
_cell_length_b   8.06506267
_cell_length_c   8.28708079
_cell_angle_alpha   89.89866973
_cell_angle_beta   90.10132697
_cell_angle_gamma   120.29733976
_symmetry_Int_Tables_number   1
_chemical_formula_structural   Yb5Y3Cu3Si12Ge
_chemical_formula_sum   'Yb5 Y3 Cu3 Si12 Ge1'
_cell_volume   465.41222267
_cell_formula_units_Z   1
loop_
 _symmetry_equiv_pos_site_id
 _symmetry_equiv_pos_as_xyz
  1  'x, y, z'
loop_
 _atom_site_type_symbol
 _atom_site_label
 _atom_site_symmetry_multiplicity
 _atom_site_fract_x
 _atom_site_fract_y
 _atom_site_fract_z
 _atom_site_occupancy
  Yb  Yb0  1  0.499950  0.999397  0.247742  1
  Yb  Yb1  1  0.499420  0.999071  0.752407  1
  Yb  Yb2  1  0.000603  0.500050  0.247742  1
  Yb  Yb3  1  0.000929  0.500580  0.752407  1
  Yb  Yb4  1  0.499629  0.500371  0.248435  1
  Y  Y5  1  0.497956  0.502044  0.750881  1
  Y  Y6  1  0.999873  0.000127  0.246891  1
  Y  Y7  1  0.000168  0.999832  0.754492  1
  Cu  Cu8  1  0.332374  0.667626  0.000424  1
  Cu  Cu9  1  0.667565  0.332435  0.997338  1
  Cu  Cu10  1  0.667773  0.332227  0.502952  1
  Si  Si11  1  0.169462  0.337311  0.999989  1
  Si  Si12  1  0.830601  0.663211  0.999004  1
  Si  Si13  1  0.662689  0.830538  0.999989  1
  Si  Si14  1  0.827357  0.656258  0.501254  1
  Si  Si15  1  0.336789  0.169399  0.999004  1
  Si  Si16  1  0.160819  0.319467  0.501288  1
  Si  Si17  1  0.167476  0.832524  0.998493  1
  Si  Si18  1  0.343742  0.172643  0.501254  1
  Si  Si19  1  0.832641  0.167359  0.998985  1
  Si  Si20  1  0.680533  0.839181  0.501288  1
  Si  Si21  1  0.829714  0.170286  0.500170  1
  Si  Si22  1  0.158738  0.841262  0.499562  1
  Ge  Ge23  1  0.333204  0.666796  0.498003  1
