# generated using pymatgen
data_SrDyTmGa8Ag3
_symmetry_space_group_name_H-M   'P 1'
_cell_length_a   4.38366875
_cell_length_b   8.47947765
_cell_length_c   8.47947810
_cell_angle_alpha   68.96229406
_cell_angle_beta   75.01970498
_cell_angle_gamma   75.01969859
_symmetry_Int_Tables_number   1
_chemical_formula_structural   SrDyTmGa8Ag3
_chemical_formula_sum   'Sr1 Dy1 Tm1 Ga8 Ag3'
_cell_volume   279.34524882
_cell_formula_units_Z   1
loop_
 _symmetry_equiv_pos_site_id
 _symmetry_equiv_pos_as_xyz
  1  'x, y, z'
loop_
 _atom_site_type_symbol
 _atom_site_label
 _atom_site_symmetry_multiplicity
 _atom_site_fract_x
 _atom_site_fract_y
 _atom_site_fract_z
 _atom_site_occupancy
  Sr  Sr0  1  0.500109  0.499891  0.499891  1
  Dy  Dy1  1  0.200340  0.799660  0.799660  1
  Tm  Tm2  1  0.799864  0.200136  0.200136  1
  Ga  Ga3  1  0.353686  0.362187  0.930441  1
  Ga  Ga4  1  0.646254  0.637423  0.070068  1
  Ga  Ga5  1  0.353686  0.930441  0.362187  1
  Ga  Ga6  1  0.646254  0.070068  0.637423  1
  Ga  Ga7  1  0.163200  0.469855  0.203746  1
  Ga  Ga8  1  0.837032  0.529677  0.796260  1
  Ga  Ga9  1  0.163200  0.203746  0.469855  1
  Ga  Ga10  1  0.837032  0.796260  0.529677  1
  Ag  Ag11  1  0.499792  0.000208  0.000208  1
  Ag  Ag12  1  0.999775  0.809610  0.190839  1
  Ag  Ag13  1  0.999775  0.190839  0.809610  1
