# generated using pymatgen
data_TmNi3BIr
_symmetry_space_group_name_H-M   'P 1'
_cell_length_a   5.04410204
_cell_length_b   5.16867178
_cell_length_c   7.05296200
_cell_angle_alpha   90.00000000
_cell_angle_beta   90.00000000
_cell_angle_gamma   120.82037392
_symmetry_Int_Tables_number   1
_chemical_formula_structural   TmNi3BIr
_chemical_formula_sum   'Tm2 Ni6 B2 Ir2'
_cell_volume   157.91200688
_cell_formula_units_Z   2
loop_
 _symmetry_equiv_pos_site_id
 _symmetry_equiv_pos_as_xyz
  1  'x, y, z'
loop_
 _atom_site_type_symbol
 _atom_site_label
 _atom_site_symmetry_multiplicity
 _atom_site_fract_x
 _atom_site_fract_y
 _atom_site_fract_z
 _atom_site_occupancy
  Tm  Tm0  1  0.000000  0.000000  0.500000  1
  Tm  Tm1  1  0.000000  0.000000  0.000000  1
  Ni  Ni2  1  0.000000  0.500000  0.298626  1
  Ni  Ni3  1  0.500000  0.500000  0.711927  1
  Ni  Ni4  1  0.000000  0.500000  0.701374  1
  Ni  Ni5  1  0.695256  0.347628  0.000000  1
  Ni  Ni6  1  0.304744  0.652372  0.000000  1
  Ni  Ni7  1  0.500000  0.000000  0.288073  1
  B  B8  1  0.659501  0.329750  0.500000  1
  B  B9  1  0.340499  0.670250  0.500000  1
  Ir  Ir10  1  0.500000  0.500000  0.282646  1
  Ir  Ir11  1  0.500000  0.000000  0.717354  1
