# generated using pymatgen
data_Ce2Mg6Cd10Ru4Pb
_symmetry_space_group_name_H-M   'P 1'
_cell_length_a   8.64447129
_cell_length_b   8.64421980
_cell_length_c   8.64421825
_cell_angle_alpha   107.22983679
_cell_angle_beta   110.89558698
_cell_angle_gamma   110.31051959
_symmetry_Int_Tables_number   1
_chemical_formula_structural   Ce2Mg6Cd10Ru4Pb
_chemical_formula_sum   'Ce2 Mg6 Cd10 Ru4 Pb1'
_cell_volume   496.66878303
_cell_formula_units_Z   1
loop_
 _symmetry_equiv_pos_site_id
 _symmetry_equiv_pos_as_xyz
  1  'x, y, z'
loop_
 _atom_site_type_symbol
 _atom_site_label
 _atom_site_symmetry_multiplicity
 _atom_site_fract_x
 _atom_site_fract_y
 _atom_site_fract_z
 _atom_site_occupancy
  Ce  Ce0  1  0.000000  0.344075  0.344075  1
  Ce  Ce1  1  0.000000  0.645679  0.645679  1
  Mg  Mg2  1  0.242070  0.760904  0.105895  1
  Mg  Mg3  1  0.757930  0.863824  0.518833  1
  Mg  Mg4  1  0.753598  0.513190  0.861085  1
  Mg  Mg5  1  0.246402  0.107488  0.759593  1
  Mg  Mg6  1  0.346299  0.483412  0.239781  1
  Mg  Mg7  1  0.653701  0.893483  0.137114  1
  Cd  Cd8  1  0.337808  0.501150  0.841964  1
  Cd  Cd9  1  0.662192  0.504155  0.163343  1
  Cd  Cd10  1  0.661476  0.160159  0.498810  1
  Cd  Cd11  1  0.338524  0.837334  0.498683  1
  Cd  Cd12  1  0.451988  0.153358  0.151068  1
  Cd  Cd13  1  0.548012  0.699079  0.701369  1
  Cd  Cd14  1  0.999220  0.850690  0.299913  1
  Cd  Cd15  1  0.000780  0.300692  0.851469  1
  Cd  Cd16  1  0.349432  0.240011  0.490854  1
  Cd  Cd17  1  0.650568  0.141423  0.890580  1
  Ru  Ru18  1  0.667835  0.502122  0.498476  1
  Ru  Ru19  1  0.332165  0.830642  0.834288  1
  Ru  Ru20  1  0.002455  0.504537  0.170665  1
  Ru  Ru21  1  0.997545  0.168209  0.502082  1
  Pb  Pb22  1  0.000000  0.994383  0.994383  1
