# generated using pymatgen
data_Pr8Nd11TmSn16
_symmetry_space_group_name_H-M   'P 1'
_cell_length_a   8.31896502
_cell_length_b   8.47302803
_cell_length_c   16.02962500
_cell_angle_alpha   90.00000000
_cell_angle_beta   90.00000000
_cell_angle_gamma   89.99159003
_symmetry_Int_Tables_number   1
_chemical_formula_structural   Pr8Nd11TmSn16
_chemical_formula_sum   'Pr8 Nd11 Tm1 Sn16'
_cell_volume   1129.87734020
_cell_formula_units_Z   1
loop_
 _symmetry_equiv_pos_site_id
 _symmetry_equiv_pos_as_xyz
  1  'x, y, z'
loop_
 _atom_site_type_symbol
 _atom_site_label
 _atom_site_symmetry_multiplicity
 _atom_site_fract_x
 _atom_site_fract_y
 _atom_site_fract_z
 _atom_site_occupancy
  Pr  Pr0  1  0.517764  0.319561  0.900416  1
  Pr  Pr1  1  0.018843  0.182255  0.599487  1
  Pr  Pr2  1  0.481762  0.681297  0.401087  1
  Pr  Pr3  1  0.981399  0.819108  0.099337  1
  Pr  Pr4  1  0.481762  0.681297  0.098913  1
  Pr  Pr5  1  0.981399  0.819108  0.400663  1
  Pr  Pr6  1  0.517764  0.319561  0.599584  1
  Pr  Pr7  1  0.018843  0.182255  0.900513  1
  Nd  Nd8  1  0.367438  0.835497  0.879096  1
  Nd  Nd9  1  0.869570  0.663125  0.620485  1
  Nd  Nd10  1  0.631667  0.164370  0.379506  1
  Nd  Nd11  1  0.131515  0.336129  0.119190  1
  Nd  Nd12  1  0.631667  0.164370  0.120494  1
  Nd  Nd13  1  0.131515  0.336129  0.380810  1
  Nd  Nd14  1  0.367438  0.835497  0.620904  1
  Nd  Nd15  1  0.869570  0.663125  0.879515  1
  Nd  Nd16  1  0.698023  0.998543  0.750000  1
  Nd  Nd17  1  0.802355  0.497753  0.250000  1
  Nd  Nd18  1  0.302961  0.002496  0.250000  1
  Tm  Tm19  1  0.200283  0.502342  0.750000  1
  Sn  Sn20  1  0.291393  0.035095  0.041849  1
  Sn  Sn21  1  0.790825  0.464320  0.457950  1
  Sn  Sn22  1  0.708582  0.964460  0.542451  1
  Sn  Sn23  1  0.208449  0.533116  0.954629  1
  Sn  Sn24  1  0.708582  0.964460  0.957549  1
  Sn  Sn25  1  0.208449  0.533116  0.545371  1
  Sn  Sn26  1  0.291393  0.035095  0.458151  1
  Sn  Sn27  1  0.790825  0.464320  0.042050  1
  Sn  Sn28  1  0.563565  0.615169  0.750000  1
  Sn  Sn29  1  0.068922  0.881134  0.750000  1
  Sn  Sn30  1  0.431456  0.383743  0.250000  1
  Sn  Sn31  1  0.932521  0.116378  0.250000  1
  Sn  Sn32  1  0.321177  0.146789  0.750000  1
  Sn  Sn33  1  0.824656  0.360132  0.750000  1
  Sn  Sn34  1  0.677581  0.857364  0.250000  1
  Sn  Sn35  1  0.178081  0.641489  0.250000  1
