# generated using pymatgen
data_NdTh(Ni2B)12
_symmetry_space_group_name_H-M   'P 1'
_cell_length_a   6.04096867
_cell_length_b   6.04096886
_cell_length_c   11.01982738
_cell_angle_alpha   90.03507218
_cell_angle_beta   89.96492865
_cell_angle_gamma   75.30337260
_symmetry_Int_Tables_number   1
_chemical_formula_structural   NdTh(Ni2B)12
_chemical_formula_sum   'Nd1 Th1 Ni24 B12'
_cell_volume   388.99244727
_cell_formula_units_Z   1
loop_
 _symmetry_equiv_pos_site_id
 _symmetry_equiv_pos_as_xyz
  1  'x, y, z'
loop_
 _atom_site_type_symbol
 _atom_site_label
 _atom_site_symmetry_multiplicity
 _atom_site_fract_x
 _atom_site_fract_y
 _atom_site_fract_z
 _atom_site_occupancy
  Nd  Nd0  1  0.833888  0.166112  0.998116  1
  Th  Th1  1  0.166900  0.833100  0.497069  1
  Ni  Ni2  1  0.272873  0.341864  0.067519  1
  Ni  Ni3  1  0.658135  0.727127  0.067519  1
  Ni  Ni4  1  0.222021  0.777980  0.098575  1
  Ni  Ni5  1  0.541530  0.195506  0.234641  1
  Ni  Ni6  1  0.804495  0.458471  0.234641  1
  Ni  Ni7  1  0.146669  0.119594  0.255999  1
  Ni  Ni8  1  0.880405  0.853331  0.255999  1
  Ni  Ni9  1  0.211498  0.526610  0.275855  1
  Ni  Ni10  1  0.473391  0.788503  0.275855  1
  Ni  Ni11  1  0.565379  0.434622  0.418363  1
  Ni  Ni12  1  0.629153  0.005591  0.437492  1
  Ni  Ni13  1  0.994410  0.370848  0.437492  1
  Ni  Ni14  1  0.341488  0.272083  0.567527  1
  Ni  Ni15  1  0.727917  0.658511  0.567527  1
  Ni  Ni16  1  0.780338  0.219663  0.598478  1
  Ni  Ni17  1  0.194953  0.542375  0.734221  1
  Ni  Ni18  1  0.457626  0.805048  0.734221  1
  Ni  Ni19  1  0.119613  0.145994  0.755386  1
  Ni  Ni20  1  0.854006  0.880386  0.755386  1
  Ni  Ni21  1  0.525548  0.211549  0.774742  1
  Ni  Ni22  1  0.788452  0.474453  0.774742  1
  Ni  Ni23  1  0.432644  0.567357  0.917400  1
  Ni  Ni24  1  0.005477  0.628849  0.937170  1
  Ni  Ni25  1  0.371152  0.994524  0.937170  1
  B  B26  1  0.399787  0.012452  0.122519  1
  B  B27  1  0.987549  0.600213  0.122519  1
  B  B28  1  0.487738  0.512262  0.156833  1
  B  B29  1  0.836321  0.163679  0.334894  1
  B  B30  1  0.324475  0.246416  0.385475  1
  B  B31  1  0.753584  0.675524  0.385475  1
  B  B32  1  0.012389  0.400585  0.622449  1
  B  B33  1  0.599415  0.987612  0.622449  1
  B  B34  1  0.511970  0.488030  0.657223  1
  B  B35  1  0.163952  0.836048  0.835793  1
  B  B36  1  0.247133  0.324270  0.885634  1
  B  B37  1  0.675729  0.752867  0.885634  1
