# generated using pymatgen
data_Tb20Fe3CoSb8
_symmetry_space_group_name_H-M   'P 1'
_cell_length_a   7.92848023
_cell_length_b   8.81958600
_cell_length_c   12.25308324
_cell_angle_alpha   90.00000000
_cell_angle_beta   90.17480179
_cell_angle_gamma   90.00000000
_symmetry_Int_Tables_number   1
_chemical_formula_structural   Tb20Fe3CoSb8
_chemical_formula_sum   'Tb20 Fe3 Co1 Sb8'
_cell_volume   856.80404859
_cell_formula_units_Z   1
loop_
 _symmetry_equiv_pos_site_id
 _symmetry_equiv_pos_as_xyz
  1  'x, y, z'
loop_
 _atom_site_type_symbol
 _atom_site_label
 _atom_site_symmetry_multiplicity
 _atom_site_fract_x
 _atom_site_fract_y
 _atom_site_fract_z
 _atom_site_occupancy
  Tb  Tb0  1  0.155487  0.750000  0.203571  1
  Tb  Tb1  1  0.654476  0.250000  0.295941  1
  Tb  Tb2  1  0.845200  0.250000  0.797024  1
  Tb  Tb3  1  0.345923  0.750000  0.703431  1
  Tb  Tb4  1  0.453406  0.750000  0.996897  1
  Tb  Tb5  1  0.951004  0.250000  0.503261  1
  Tb  Tb6  1  0.547273  0.250000  0.003155  1
  Tb  Tb7  1  0.048782  0.750000  0.496915  1
  Tb  Tb8  1  0.622613  0.750000  0.305909  1
  Tb  Tb9  1  0.121923  0.250000  0.193652  1
  Tb  Tb10  1  0.378016  0.250000  0.694028  1
  Tb  Tb11  1  0.877080  0.750000  0.806138  1
  Tb  Tb12  1  0.822130  0.965229  0.064192  1
  Tb  Tb13  1  0.323031  0.034610  0.436241  1
  Tb  Tb14  1  0.178919  0.462893  0.935474  1
  Tb  Tb15  1  0.677028  0.535019  0.563610  1
  Tb  Tb16  1  0.178919  0.037107  0.935474  1
  Tb  Tb17  1  0.677028  0.964981  0.563610  1
  Tb  Tb18  1  0.822130  0.534771  0.064192  1
  Tb  Tb19  1  0.323031  0.465390  0.436241  1
  Fe  Fe20  1  0.426149  0.750000  0.487954  1
  Fe  Fe21  1  0.928641  0.250000  0.011251  1
  Fe  Fe22  1  0.573576  0.250000  0.511844  1
  Co  Co23  1  0.068799  0.750000  0.989370  1
  Sb  Sb24  1  0.928036  0.992379  0.327525  1
  Sb  Sb25  1  0.427369  0.007549  0.172664  1
  Sb  Sb26  1  0.072126  0.492505  0.672711  1
  Sb  Sb27  1  0.572187  0.507665  0.827413  1
  Sb  Sb28  1  0.072126  0.007495  0.672711  1
  Sb  Sb29  1  0.572187  0.992335  0.827413  1
  Sb  Sb30  1  0.928036  0.507621  0.327525  1
  Sb  Sb31  1  0.427369  0.492451  0.172664  1
