# generated using pymatgen
data_TlZnCuF5
_symmetry_space_group_name_H-M   'P 1'
_cell_length_a   7.15100443
_cell_length_b   7.15100343
_cell_length_c   7.15100300
_cell_angle_alpha   127.48827505
_cell_angle_beta   117.75406967
_cell_angle_gamma   85.74035339
_symmetry_Int_Tables_number   1
_chemical_formula_structural   TlZnCuF5
_chemical_formula_sum   'Tl2 Zn2 Cu2 F10'
_cell_volume   245.12449764
_cell_formula_units_Z   2
loop_
 _symmetry_equiv_pos_site_id
 _symmetry_equiv_pos_as_xyz
  1  'x, y, z'
loop_
 _atom_site_type_symbol
 _atom_site_label
 _atom_site_symmetry_multiplicity
 _atom_site_fract_x
 _atom_site_fract_y
 _atom_site_fract_z
 _atom_site_occupancy
  Tl  Tl0  1  0.869220  0.619220  0.250000  1
  Tl  Tl1  1  0.130780  0.380780  0.750000  1
  Zn  Zn2  1  0.000000  0.000000  0.000000  1
  Zn  Zn3  1  0.500000  0.000000  0.500000  1
  Cu  Cu4  1  0.500000  0.000000  0.000000  1
  Cu  Cu5  1  0.500000  0.500000  0.500000  1
  F  F6  1  0.445590  0.633101  0.324890  1
  F  F7  1  0.554410  0.879301  0.187510  1
  F  F8  1  0.191789  0.366899  0.312490  1
  F  F9  1  0.808211  0.120699  0.175110  1
  F  F10  1  0.554410  0.366899  0.675110  1
  F  F11  1  0.445590  0.120699  0.812490  1
  F  F12  1  0.830949  0.080949  0.750000  1
  F  F13  1  0.169051  0.919051  0.250000  1
  F  F14  1  0.191789  0.879301  0.824890  1
  F  F15  1  0.808211  0.633101  0.687510  1
