# generated using pymatgen
data_HoLu7(ZrGa5)4
_symmetry_space_group_name_H-M   'P 1'
_cell_length_a   5.86432046
_cell_length_b   9.38002004
_cell_length_c   11.35070590
_cell_angle_alpha   89.99249145
_cell_angle_beta   89.95504984
_cell_angle_gamma   89.99256956
_symmetry_Int_Tables_number   1
_chemical_formula_structural   HoLu7(ZrGa5)4
_chemical_formula_sum   'Ho1 Lu7 Zr4 Ga20'
_cell_volume   624.37311023
_cell_formula_units_Z   1
loop_
 _symmetry_equiv_pos_site_id
 _symmetry_equiv_pos_as_xyz
  1  'x, y, z'
loop_
 _atom_site_type_symbol
 _atom_site_label
 _atom_site_symmetry_multiplicity
 _atom_site_fract_x
 _atom_site_fract_y
 _atom_site_fract_z
 _atom_site_occupancy
  Ho  Ho0  1  0.885672  0.500754  0.352641  1
  Lu  Lu1  1  0.614019  0.999150  0.852695  1
  Lu  Lu2  1  0.114093  0.000761  0.647377  1
  Lu  Lu3  1  0.385891  0.499171  0.147037  1
  Lu  Lu4  1  0.114220  0.499208  0.647656  1
  Lu  Lu5  1  0.385990  0.000826  0.147301  1
  Lu  Lu6  1  0.885915  0.999285  0.352686  1
  Lu  Lu7  1  0.613954  0.500780  0.852669  1
  Zr  Zr8  1  0.858114  0.750049  0.072683  1
  Zr  Zr9  1  0.641748  0.750219  0.572978  1
  Zr  Zr10  1  0.141910  0.249952  0.927100  1
  Zr  Zr11  1  0.358639  0.249878  0.427314  1
  Ga  Ga12  1  0.874918  0.053204  0.090301  1
  Ga  Ga13  1  0.624850  0.446710  0.590487  1
  Ga  Ga14  1  0.124977  0.553229  0.909730  1
  Ga  Ga15  1  0.375008  0.946885  0.409687  1
  Ga  Ga16  1  0.125004  0.946780  0.909692  1
  Ga  Ga17  1  0.375393  0.553425  0.409954  1
  Ga  Ga18  1  0.874965  0.446670  0.089827  1
  Ga  Ga19  1  0.625049  0.053185  0.590275  1
  Ga  Ga20  1  0.153059  0.750454  0.257936  1
  Ga  Ga21  1  0.347232  0.750015  0.758101  1
  Ga  Ga22  1  0.847297  0.249996  0.741948  1
  Ga  Ga23  1  0.652278  0.249512  0.241579  1
  Ga  Ga24  1  0.395386  0.749964  0.999758  1
  Ga  Ga25  1  0.104853  0.750170  0.499882  1
  Ga  Ga26  1  0.604566  0.249928  0.000185  1
  Ga  Ga27  1  0.895534  0.249285  0.500799  1
  Ga  Ga28  1  0.614185  0.750673  0.294401  1
  Ga  Ga29  1  0.885148  0.750006  0.794527  1
  Ga  Ga30  1  0.385111  0.250038  0.705428  1
  Ga  Ga31  1  0.115021  0.249837  0.205365  1
