# generated using pymatgen
data_Eu(ZrSe2)3
_symmetry_space_group_name_H-M   'P 1'
_cell_length_a   6.57229234
_cell_length_b   6.57229066
_cell_length_c   7.45426436
_cell_angle_alpha   98.48469515
_cell_angle_beta   98.48469493
_cell_angle_gamma   119.97220762
_symmetry_Int_Tables_number   1
_chemical_formula_structural   Eu(ZrSe2)3
_chemical_formula_sum   'Eu1 Zr3 Se6'
_cell_volume   266.51690020
_cell_formula_units_Z   1
loop_
 _symmetry_equiv_pos_site_id
 _symmetry_equiv_pos_as_xyz
  1  'x, y, z'
loop_
 _atom_site_type_symbol
 _atom_site_label
 _atom_site_symmetry_multiplicity
 _atom_site_fract_x
 _atom_site_fract_y
 _atom_site_fract_z
 _atom_site_occupancy
  Eu  Eu0  1  0.000000  0.000000  0.500000  1
  Zr  Zr1  1  0.834714  0.165287  0.000000  1
  Zr  Zr2  1  0.500001  0.500001  0.000000  1
  Zr  Zr3  1  0.165287  0.834714  0.000000  1
  Se  Se4  1  0.251741  0.251741  0.230427  1
  Se  Se5  1  0.910441  0.568827  0.229975  1
  Se  Se6  1  0.568827  0.910441  0.229975  1
  Se  Se7  1  0.431172  0.089559  0.770024  1
  Se  Se8  1  0.089559  0.431172  0.770024  1
  Se  Se9  1  0.748260  0.748260  0.769572  1
