# generated using pymatgen
data_Li6Sc12Os5Rh
_symmetry_space_group_name_H-M   'P 1'
_cell_length_a   4.61108000
_cell_length_b   6.53940100
_cell_length_c   13.90934501
_cell_angle_alpha   89.99942252
_cell_angle_beta   90.00439901
_cell_angle_gamma   89.99994887
_symmetry_Int_Tables_number   1
_chemical_formula_structural   Li6Sc12Os5Rh
_chemical_formula_sum   'Li6 Sc12 Os5 Rh1'
_cell_volume   419.41823188
_cell_formula_units_Z   1
loop_
 _symmetry_equiv_pos_site_id
 _symmetry_equiv_pos_as_xyz
  1  'x, y, z'
loop_
 _atom_site_type_symbol
 _atom_site_label
 _atom_site_symmetry_multiplicity
 _atom_site_fract_x
 _atom_site_fract_y
 _atom_site_fract_z
 _atom_site_occupancy
  Li  Li0  1  0.000000  0.000000  0.000000  1
  Li  Li1  1  0.499459  0.499999  0.167129  1
  Li  Li2  1  0.999518  0.000001  0.333579  1
  Li  Li3  1  0.500000  0.500000  0.500000  1
  Li  Li4  1  0.000482  0.999999  0.666421  1
  Li  Li5  1  0.500541  0.500001  0.832870  1
  Sc  Sc6  1  0.500001  0.243784  0.000003  1
  Sc  Sc7  1  0.499999  0.756217  0.999997  1
  Sc  Sc8  1  0.999487  0.247425  0.168292  1
  Sc  Sc9  1  0.999485  0.752579  0.168293  1
  Sc  Sc10  1  0.499522  0.249151  0.333448  1
  Sc  Sc11  1  0.499528  0.750849  0.333449  1
  Sc  Sc12  1  0.000000  0.250048  0.500001  1
  Sc  Sc13  1  0.000000  0.749951  0.499999  1
  Sc  Sc14  1  0.500472  0.249152  0.666550  1
  Sc  Sc15  1  0.500478  0.750850  0.666551  1
  Sc  Sc16  1  0.000513  0.247420  0.831707  1
  Sc  Sc17  1  0.000511  0.752574  0.831708  1
  Os  Os18  1  0.499503  0.999997  0.164884  1
  Os  Os19  1  0.999507  0.500000  0.332538  1
  Os  Os20  1  0.500000  0.000000  0.500000  1
  Os  Os21  1  0.000494  0.500000  0.667462  1
  Os  Os22  1  0.500497  0.000003  0.835116  1
  Rh  Rh23  1  0.000000  0.500000  0.000000  1
