# generated using pymatgen
data_CeDy9(LuCo2)2
_symmetry_space_group_name_H-M   'P 1'
_cell_length_a   6.18974784
_cell_length_b   6.86219563
_cell_length_c   9.45442800
_cell_angle_alpha   90.00000000
_cell_angle_beta   90.00000000
_cell_angle_gamma   92.06190610
_symmetry_Int_Tables_number   1
_chemical_formula_structural   CeDy9(LuCo2)2
_chemical_formula_sum   'Ce1 Dy9 Lu2 Co4'
_cell_volume   401.31928511
_cell_formula_units_Z   1
loop_
 _symmetry_equiv_pos_site_id
 _symmetry_equiv_pos_as_xyz
  1  'x, y, z'
loop_
 _atom_site_type_symbol
 _atom_site_label
 _atom_site_symmetry_multiplicity
 _atom_site_fract_x
 _atom_site_fract_y
 _atom_site_fract_z
 _atom_site_occupancy
  Ce  Ce0  1  0.849649  0.558781  0.250000  1
  Dy  Dy1  1  0.679437  0.324994  0.931556  1
  Dy  Dy2  1  0.636609  0.044348  0.250000  1
  Dy  Dy3  1  0.172014  0.175934  0.432257  1
  Dy  Dy4  1  0.823884  0.826580  0.569849  1
  Dy  Dy5  1  0.172014  0.175934  0.067743  1
  Dy  Dy6  1  0.823884  0.826580  0.930151  1
  Dy  Dy7  1  0.679437  0.324994  0.568444  1
  Dy  Dy8  1  0.325521  0.674979  0.063154  1
  Dy  Dy9  1  0.325521  0.674979  0.436846  1
  Lu  Lu10  1  0.147463  0.454384  0.750000  1
  Lu  Lu11  1  0.356174  0.957336  0.750000  1
  Co  Co12  1  0.541887  0.612141  0.750000  1
  Co  Co13  1  0.955067  0.112385  0.750000  1
  Co  Co14  1  0.030203  0.856904  0.250000  1
  Co  Co15  1  0.481236  0.398752  0.250000  1
