# generated using pymatgen
data_Yb3Er4Th(B6Os)4
_symmetry_space_group_name_H-M   'P 1'
_cell_length_a   3.64455500
_cell_length_b   9.14844272
_cell_length_c   11.54710900
_cell_angle_alpha   89.83546087
_cell_angle_beta   90.00000000
_cell_angle_gamma   90.00000000
_symmetry_Int_Tables_number   1
_chemical_formula_structural   Yb3Er4Th(B6Os)4
_chemical_formula_sum   'Yb3 Er4 Th1 B24 Os4'
_cell_volume   385.00215155
_cell_formula_units_Z   1
loop_
 _symmetry_equiv_pos_site_id
 _symmetry_equiv_pos_as_xyz
  1  'x, y, z'
loop_
 _atom_site_type_symbol
 _atom_site_label
 _atom_site_symmetry_multiplicity
 _atom_site_fract_x
 _atom_site_fract_y
 _atom_site_fract_z
 _atom_site_occupancy
  Yb  Yb0  1  0.000000  0.325324  0.413986  1
  Yb  Yb1  1  0.000000  0.675612  0.583856  1
  Yb  Yb2  1  0.000000  0.821339  0.087934  1
  Er  Er3  1  0.000000  0.941102  0.369680  1
  Er  Er4  1  0.000000  0.056429  0.627207  1
  Er  Er5  1  0.000000  0.445733  0.132166  1
  Er  Er6  1  0.000000  0.558929  0.870005  1
  Th  Th7  1  0.000000  0.176338  0.914963  1
  B  B8  1  0.500000  0.554105  0.433062  1
  B  B9  1  0.500000  0.445969  0.567116  1
  B  B10  1  0.500000  0.053187  0.070281  1
  B  B11  1  0.500000  0.942704  0.931917  1
  B  B12  1  0.500000  0.747936  0.417944  1
  B  B13  1  0.500000  0.252058  0.580654  1
  B  B14  1  0.500000  0.249353  0.084883  1
  B  B15  1  0.500000  0.750641  0.917821  1
  B  B16  1  0.500000  0.790916  0.265502  1
  B  B17  1  0.500000  0.209921  0.732205  1
  B  B18  1  0.500000  0.291479  0.236567  1
  B  B19  1  0.500000  0.709114  0.764612  1
  B  B20  1  0.500000  0.631711  0.186481  1
  B  B21  1  0.500000  0.370504  0.813149  1
  B  B22  1  0.500000  0.130825  0.314574  1
  B  B23  1  0.500000  0.867931  0.683934  1
  B  B24  1  0.500000  0.982997  0.213192  1
  B  B25  1  0.500000  0.013367  0.786074  1
  B  B26  1  0.500000  0.484271  0.289202  1
  B  B27  1  0.500000  0.516934  0.711010  1
  B  B28  1  0.500000  0.602133  0.028231  1
  B  B29  1  0.500000  0.402405  0.973369  1
  B  B30  1  0.500000  0.099246  0.471690  1
  B  B31  1  0.500000  0.899999  0.526558  1
  Os  Os32  1  0.000000  0.639092  0.320305  1
  Os  Os33  1  0.000000  0.359884  0.680942  1
  Os  Os34  1  0.000000  0.139063  0.179397  1
  Os  Os35  1  0.000000  0.861447  0.819530  1
