# generated using pymatgen
data_Sm8ReOsI8
_symmetry_space_group_name_H-M   'P 1'
_cell_length_a   11.07534549
_cell_length_b   11.07534591
_cell_length_c   6.34482329
_cell_angle_alpha   90.43755279
_cell_angle_beta   90.43756026
_cell_angle_gamma   89.68406405
_symmetry_Int_Tables_number   1
_chemical_formula_structural   Sm8ReOsI8
_chemical_formula_sum   'Sm8 Re1 Os1 I8'
_cell_volume   778.21987921
_cell_formula_units_Z   1
loop_
 _symmetry_equiv_pos_site_id
 _symmetry_equiv_pos_as_xyz
  1  'x, y, z'
loop_
 _atom_site_type_symbol
 _atom_site_label
 _atom_site_symmetry_multiplicity
 _atom_site_fract_x
 _atom_site_fract_y
 _atom_site_fract_z
 _atom_site_occupancy
  Sm  Sm0  1  0.791351  0.084560  0.998390  1
  Sm  Sm1  1  0.084578  0.791339  0.497552  1
  Sm  Sm2  1  0.083612  0.208562  0.005315  1
  Sm  Sm3  1  0.208507  0.083598  0.504411  1
  Sm  Sm4  1  0.916402  0.791493  0.995589  1
  Sm  Sm5  1  0.915440  0.208649  0.501610  1
  Sm  Sm6  1  0.208661  0.915422  0.002448  1
  Sm  Sm7  1  0.791438  0.916388  0.494685  1
  Re  Re8  1  0.000007  0.999993  0.250000  1
  Os  Os9  1  0.000001  0.999999  0.750000  1
  I  I10  1  0.631692  0.159274  0.500110  1
  I  I11  1  0.843003  0.632500  0.501188  1
  I  I12  1  0.367500  0.156997  0.998812  1
  I  I13  1  0.157014  0.367514  0.498374  1
  I  I14  1  0.632486  0.842986  0.001626  1
  I  I15  1  0.368336  0.840754  0.499436  1
  I  I16  1  0.159246  0.631664  0.000564  1
  I  I17  1  0.840726  0.368308  0.999890  1
