# generated using pymatgen
data_ErTm11(Zn3C)4
_symmetry_space_group_name_H-M   'P 1'
_cell_length_a   9.03316788
_cell_length_b   9.03319084
_cell_length_c   9.03213600
_cell_angle_alpha   60.00392656
_cell_angle_beta   60.00384703
_cell_angle_gamma   60.03931920
_symmetry_Int_Tables_number   1
_chemical_formula_structural   ErTm11(Zn3C)4
_chemical_formula_sum   'Er1 Tm11 Zn12 C4'
_cell_volume   521.32812010
_cell_formula_units_Z   1
loop_
 _symmetry_equiv_pos_site_id
 _symmetry_equiv_pos_as_xyz
  1  'x, y, z'
loop_
 _atom_site_type_symbol
 _atom_site_label
 _atom_site_symmetry_multiplicity
 _atom_site_fract_x
 _atom_site_fract_y
 _atom_site_fract_z
 _atom_site_occupancy
  Er  Er0  1  0.446757  0.446711  0.053274  1
  Tm  Tm1  1  0.053200  0.446682  0.053428  1
  Tm  Tm2  1  0.446684  0.053196  0.053430  1
  Tm  Tm3  1  0.053403  0.053409  0.446592  1
  Tm  Tm4  1  0.446681  0.053199  0.446686  1
  Tm  Tm5  1  0.053205  0.446682  0.446691  1
  Tm  Tm6  1  0.803238  0.803243  0.196756  1
  Tm  Tm7  1  0.196401  0.803665  0.196630  1
  Tm  Tm8  1  0.803666  0.196407  0.196626  1
  Tm  Tm9  1  0.196581  0.196587  0.803417  1
  Tm  Tm10  1  0.803663  0.196401  0.803305  1
  Tm  Tm11  1  0.196400  0.803665  0.803303  1
  Zn  Zn12  1  0.827043  0.827048  0.518787  1
  Zn  Zn13  1  0.827314  0.518881  0.826907  1
  Zn  Zn14  1  0.518881  0.827314  0.826903  1
  Zn  Zn15  1  0.827046  0.827045  0.827126  1
  Zn  Zn16  1  0.422946  0.422945  0.730913  1
  Zn  Zn17  1  0.422904  0.731172  0.422957  1
  Zn  Zn18  1  0.731168  0.422905  0.422962  1
  Zn  Zn19  1  0.422947  0.422948  0.423190  1
  Zn  Zn20  1  0.625164  0.625173  0.125037  1
  Zn  Zn21  1  0.625059  0.124962  0.624987  1
  Zn  Zn22  1  0.124955  0.625060  0.624992  1
  Zn  Zn23  1  0.625165  0.625174  0.624623  1
  C  C24  1  0.124995  0.124992  0.625023  1
  C  C25  1  0.123983  0.625554  0.125232  1
  C  C26  1  0.625553  0.123983  0.125237  1
  C  C27  1  0.124998  0.124998  0.124985  1
