# generated using pymatgen
data_HoTa5Fe2(BRu2)4
_symmetry_space_group_name_H-M   'P 1'
_cell_length_a   9.34330062
_cell_length_b   9.34330033
_cell_length_c   3.06147100
_cell_angle_alpha   90.00000000
_cell_angle_beta   90.00000000
_cell_angle_gamma   90.28370495
_symmetry_Int_Tables_number   1
_chemical_formula_structural   HoTa5Fe2(BRu2)4
_chemical_formula_sum   'Ho1 Ta5 Fe2 B4 Ru8'
_cell_volume   267.25476508
_cell_formula_units_Z   1
loop_
 _symmetry_equiv_pos_site_id
 _symmetry_equiv_pos_as_xyz
  1  'x, y, z'
loop_
 _atom_site_type_symbol
 _atom_site_label
 _atom_site_symmetry_multiplicity
 _atom_site_fract_x
 _atom_site_fract_y
 _atom_site_fract_z
 _atom_site_occupancy
  Ho  Ho0  1  0.825143  0.674857  0.000000  1
  Ta  Ta1  1  0.171514  0.328486  0.000000  1
  Ta  Ta2  1  0.326793  0.829676  0.000000  1
  Ta  Ta3  1  0.670324  0.173207  0.000000  1
  Ta  Ta4  1  0.501912  0.500105  0.000000  1
  Ta  Ta5  1  0.999895  0.998088  0.000000  1
  Fe  Fe6  1  0.495839  0.004161  0.500000  1
  Fe  Fe7  1  0.010483  0.489517  0.500000  1
  B  B8  1  0.609166  0.890834  0.000000  1
  B  B9  1  0.386875  0.113125  0.000000  1
  B  B10  1  0.116490  0.609303  0.000000  1
  B  B11  1  0.890697  0.383510  0.000000  1
  Ru  Ru12  1  0.555123  0.729025  0.500000  1
  Ru  Ru13  1  0.429873  0.278884  0.500000  1
  Ru  Ru14  1  0.079091  0.777618  0.500000  1
  Ru  Ru15  1  0.935418  0.219109  0.500000  1
  Ru  Ru16  1  0.280891  0.564582  0.500000  1
  Ru  Ru17  1  0.722382  0.420909  0.500000  1
  Ru  Ru18  1  0.221116  0.070127  0.500000  1
  Ru  Ru19  1  0.770975  0.944877  0.500000  1
