# generated using pymatgen
data_Li2TcSn8Pd
_symmetry_space_group_name_H-M   'P 1'
_cell_length_a   7.48004751
_cell_length_b   7.48004603
_cell_length_c   7.48004639
_cell_angle_alpha   126.53379473
_cell_angle_beta   126.53378010
_cell_angle_gamma   79.01257904
_symmetry_Int_Tables_number   1
_chemical_formula_structural   Li2TcSn8Pd
_chemical_formula_sum   'Li2 Tc1 Sn8 Pd1'
_cell_volume   261.36437468
_cell_formula_units_Z   1
loop_
 _symmetry_equiv_pos_site_id
 _symmetry_equiv_pos_as_xyz
  1  'x, y, z'
loop_
 _atom_site_type_symbol
 _atom_site_label
 _atom_site_symmetry_multiplicity
 _atom_site_fract_x
 _atom_site_fract_y
 _atom_site_fract_z
 _atom_site_occupancy
  Li  Li0  1  0.496630  0.496630  0.000000  1
  Li  Li1  1  0.003370  0.003370  0.000000  1
  Tc  Tc2  1  0.750000  0.750000  0.000000  1
  Sn  Sn3  1  0.200356  0.021442  0.488991  1
  Sn  Sn4  1  0.021442  0.532451  0.821087  1
  Sn  Sn5  1  0.711365  0.200356  0.178913  1
  Sn  Sn6  1  0.299644  0.788635  0.821087  1
  Sn  Sn7  1  0.967549  0.478558  0.178913  1
  Sn  Sn8  1  0.788635  0.967549  0.488991  1
  Sn  Sn9  1  0.478558  0.299644  0.511009  1
  Sn  Sn10  1  0.532451  0.711365  0.511009  1
  Pd  Pd11  1  0.250000  0.250000  0.000000  1
