# generated using pymatgen
data_Hf3ZnPt2N
_symmetry_space_group_name_H-M   'P 1'
_cell_length_a   8.54335427
_cell_length_b   8.54331709
_cell_length_c   8.54339700
_cell_angle_alpha   59.99974839
_cell_angle_beta   59.99929138
_cell_angle_gamma   60.00122581
_symmetry_Int_Tables_number   1
_chemical_formula_structural   Hf3ZnPt2N
_chemical_formula_sum   'Hf12 Zn4 Pt8 N4'
_cell_volume   440.93178128
_cell_formula_units_Z   4
loop_
 _symmetry_equiv_pos_site_id
 _symmetry_equiv_pos_as_xyz
  1  'x, y, z'
loop_
 _atom_site_type_symbol
 _atom_site_label
 _atom_site_symmetry_multiplicity
 _atom_site_fract_x
 _atom_site_fract_y
 _atom_site_fract_z
 _atom_site_occupancy
  Hf  Hf0  1  0.809906  0.190092  0.190098  1
  Hf  Hf1  1  0.190094  0.809904  0.190098  1
  Hf  Hf2  1  0.809911  0.809910  0.190090  1
  Hf  Hf3  1  0.190095  0.809904  0.809906  1
  Hf  Hf4  1  0.809902  0.190096  0.809902  1
  Hf  Hf5  1  0.190094  0.190092  0.809908  1
  Hf  Hf6  1  0.440094  0.059908  0.059902  1
  Hf  Hf7  1  0.059906  0.440096  0.059902  1
  Hf  Hf8  1  0.440089  0.440090  0.059910  1
  Hf  Hf9  1  0.059905  0.440096  0.440094  1
  Hf  Hf10  1  0.440098  0.059904  0.440098  1
  Hf  Hf11  1  0.059906  0.059908  0.440092  1
  Zn  Zn12  1  0.625000  0.625000  0.125000  1
  Zn  Zn13  1  0.625000  0.625000  0.625000  1
  Zn  Zn14  1  0.125000  0.625000  0.625000  1
  Zn  Zn15  1  0.625000  0.125000  0.625000  1
  Pt  Pt16  1  0.410309  0.410308  0.769060  1
  Pt  Pt17  1  0.410308  0.410301  0.410325  1
  Pt  Pt18  1  0.769068  0.410302  0.410315  1
  Pt  Pt19  1  0.410304  0.769071  0.410316  1
  Pt  Pt20  1  0.839691  0.839692  0.480940  1
  Pt  Pt21  1  0.839692  0.839699  0.839675  1
  Pt  Pt22  1  0.480932  0.839698  0.839685  1
  Pt  Pt23  1  0.839696  0.480929  0.839684  1
  N  N24  1  0.125000  0.125000  0.625000  1
  N  N25  1  0.125000  0.125000  0.125000  1
  N  N26  1  0.625000  0.125000  0.125000  1
  N  N27  1  0.125000  0.625000  0.125000  1
