# generated using pymatgen
data_YHoAl3Cu7
_symmetry_space_group_name_H-M   'P 1'
_cell_length_a   4.17382200
_cell_length_b   5.09019297
_cell_length_c   8.83880106
_cell_angle_alpha   90.67857936
_cell_angle_beta   90.00000000
_cell_angle_gamma   90.00000000
_symmetry_Int_Tables_number   1
_chemical_formula_structural   YHoAl3Cu7
_chemical_formula_sum   'Y1 Ho1 Al3 Cu7'
_cell_volume   187.77210290
_cell_formula_units_Z   1
loop_
 _symmetry_equiv_pos_site_id
 _symmetry_equiv_pos_as_xyz
  1  'x, y, z'
loop_
 _atom_site_type_symbol
 _atom_site_label
 _atom_site_symmetry_multiplicity
 _atom_site_fract_x
 _atom_site_fract_y
 _atom_site_fract_z
 _atom_site_occupancy
  Y  Y0  1  0.000000  0.001334  0.999704  1
  Ho  Ho1  1  0.000000  0.498999  0.500546  1
  Al  Al2  1  0.500000  0.514289  0.994935  1
  Al  Al3  1  0.500000  0.984652  0.504967  1
  Al  Al4  1  0.500000  0.250020  0.250386  1
  Cu  Cu5  1  0.000000  0.999650  0.336497  1
  Cu  Cu6  1  0.000000  0.499554  0.831285  1
  Cu  Cu7  1  0.000000  0.500508  0.166753  1
  Cu  Cu8  1  0.000000  0.001077  0.665114  1
  Cu  Cu9  1  0.500000  0.750045  0.750086  1
  Cu  Cu10  1  0.500000  0.749850  0.249830  1
  Cu  Cu11  1  0.500000  0.249819  0.749897  1
