# generated using pymatgen
data_Lu12AlCo4Pt
_symmetry_space_group_name_H-M   'P 1'
_cell_length_a   8.10530620
_cell_length_b   8.10530661
_cell_length_c   8.10530683
_cell_angle_alpha   106.41487037
_cell_angle_beta   111.00362837
_cell_angle_gamma   111.03772374
_symmetry_Int_Tables_number   1
_chemical_formula_structural   Lu12AlCo4Pt
_chemical_formula_sum   'Lu12 Al1 Co4 Pt1'
_cell_volume   409.03913390
_cell_formula_units_Z   1
loop_
 _symmetry_equiv_pos_site_id
 _symmetry_equiv_pos_as_xyz
  1  'x, y, z'
loop_
 _atom_site_type_symbol
 _atom_site_label
 _atom_site_symmetry_multiplicity
 _atom_site_fract_x
 _atom_site_fract_y
 _atom_site_fract_z
 _atom_site_occupancy
  Lu  Lu0  1  0.698222  0.278612  0.976835  1
  Lu  Lu1  1  0.301778  0.721388  0.023165  1
  Lu  Lu2  1  0.698222  0.721388  0.419610  1
  Lu  Lu3  1  0.301778  0.278612  0.580390  1
  Lu  Lu4  1  0.802414  0.119104  0.316690  1
  Lu  Lu5  1  0.802414  0.485724  0.683310  1
  Lu  Lu6  1  0.197586  0.880896  0.683310  1
  Lu  Lu7  1  0.197586  0.514276  0.316690  1
  Lu  Lu8  1  0.601965  0.788674  0.813291  1
  Lu  Lu9  1  0.975382  0.788674  0.186709  1
  Lu  Lu10  1  0.024618  0.211326  0.813291  1
  Lu  Lu11  1  0.398035  0.211326  0.186709  1
  Al  Al12  1  0.500000  0.000000  0.500000  1
  Co  Co13  1  0.875620  0.500000  0.375620  1
  Co  Co14  1  0.124380  0.500000  0.624380  1
  Co  Co15  1  0.000000  0.113826  0.113826  1
  Co  Co16  1  0.000000  0.886174  0.886174  1
  Pt  Pt17  1  0.500000  0.500000  0.000000  1
