# generated using pymatgen
data_Sm6Zn4Pd10Pt3
_symmetry_space_group_name_H-M   'P 1'
_cell_length_a   8.34568264
_cell_length_b   8.35731293
_cell_length_c   8.33413112
_cell_angle_alpha   109.43482678
_cell_angle_beta   109.43330821
_cell_angle_gamma   109.54580252
_symmetry_Int_Tables_number   1
_chemical_formula_structural   Sm6Zn4Pd10Pt3
_chemical_formula_sum   'Sm6 Zn4 Pd10 Pt3'
_cell_volume   447.47118884
_cell_formula_units_Z   1
loop_
 _symmetry_equiv_pos_site_id
 _symmetry_equiv_pos_as_xyz
  1  'x, y, z'
loop_
 _atom_site_type_symbol
 _atom_site_label
 _atom_site_symmetry_multiplicity
 _atom_site_fract_x
 _atom_site_fract_y
 _atom_site_fract_z
 _atom_site_occupancy
  Sm  Sm0  1  0.699125  0.700196  0.000372  1
  Sm  Sm1  1  0.300875  0.001071  0.301247  1
  Sm  Sm2  1  0.000000  0.298650  0.300857  1
  Sm  Sm3  1  0.300372  0.300371  0.999327  1
  Sm  Sm4  1  0.699628  0.999999  0.698955  1
  Sm  Sm5  1  0.000000  0.699851  0.699872  1
  Zn  Zn6  1  0.000000  0.999920  0.499808  1
  Zn  Zn7  1  0.000001  0.500051  0.000159  1
  Zn  Zn8  1  0.500108  0.000041  0.000015  1
  Zn  Zn9  1  0.499892  0.499934  0.499907  1
  Pd  Pd10  1  0.000000  0.667457  0.331917  1
  Pd  Pd11  1  0.668370  0.332083  0.000145  1
  Pd  Pd12  1  0.331630  0.663714  0.331775  1
  Pd  Pd13  1  0.999999  0.332878  0.668564  1
  Pd  Pd14  1  0.331405  0.667722  0.999822  1
  Pd  Pd15  1  0.332009  0.999715  0.668393  1
  Pd  Pd16  1  0.664408  0.332562  0.332243  1
  Pd  Pd17  1  0.667991  0.667706  0.336382  1
  Pd  Pd18  1  0.668596  0.336317  0.668416  1
  Pd  Pd19  1  0.335592  0.668153  0.667834  1
  Pt  Pt20  1  0.331781  0.331813  0.663225  1
  Pt  Pt21  1  0.668219  0.000032  0.331445  1
  Pt  Pt22  1  0.000000  0.999766  0.999317  1
