# generated using pymatgen
data_Dy5Mn3Co13(TcP4)3
_symmetry_space_group_name_H-M   'P 1'
_cell_length_a   12.09135069
_cell_length_b   12.11684879
_cell_length_c   3.71190800
_cell_angle_alpha   90.00000000
_cell_angle_beta   90.00000000
_cell_angle_gamma   120.23066211
_symmetry_Int_Tables_number   1
_chemical_formula_structural   Dy5Mn3Co13(TcP4)3
_chemical_formula_sum   'Dy5 Mn3 Co13 Tc3 P12'
_cell_volume   469.87053156
_cell_formula_units_Z   1
loop_
 _symmetry_equiv_pos_site_id
 _symmetry_equiv_pos_as_xyz
  1  'x, y, z'
loop_
 _atom_site_type_symbol
 _atom_site_label
 _atom_site_symmetry_multiplicity
 _atom_site_fract_x
 _atom_site_fract_y
 _atom_site_fract_z
 _atom_site_occupancy
  Dy  Dy0  1  0.665323  0.336037  0.000000  1
  Dy  Dy1  1  0.333066  0.666716  0.000000  1
  Dy  Dy2  1  0.183521  0.184373  0.500000  1
  Dy  Dy3  1  0.816379  0.996768  0.500000  1
  Dy  Dy4  1  0.999918  0.814080  0.500000  1
  Mn  Mn5  1  0.820119  0.199439  0.000000  1
  Mn  Mn6  1  0.799555  0.622786  0.000000  1
  Mn  Mn7  1  0.646893  0.123350  0.500000  1
  Co  Co8  1  0.374233  0.177649  0.000000  1
  Co  Co9  1  0.198997  0.822333  0.000000  1
  Co  Co10  1  0.622673  0.801430  0.000000  1
  Co  Co11  1  0.179147  0.375471  0.000000  1
  Co  Co12  1  0.877682  0.519161  0.500000  1
  Co  Co13  1  0.481383  0.357108  0.500000  1
  Co  Co14  1  0.128489  0.645081  0.500000  1
  Co  Co15  1  0.515354  0.871108  0.500000  1
  Co  Co16  1  0.355023  0.481456  0.500000  1
  Co  Co17  1  0.715312  0.718665  0.500000  1
  Co  Co18  1  0.281275  0.999699  0.500000  1
  Co  Co19  1  0.002013  0.283793  0.500000  1
  Co  Co20  1  0.000511  0.000519  0.000000  1
  Tc  Tc21  1  0.551194  0.555221  0.000000  1
  Tc  Tc22  1  0.447847  0.001289  0.000000  1
  Tc  Tc23  1  0.004195  0.448663  0.000000  1
  P  P24  1  0.362828  0.362691  0.000000  1
  P  P25  1  0.637396  0.994638  0.000000  1
  P  P26  1  0.998184  0.637087  0.000000  1
  P  P27  1  0.839012  0.320043  0.500000  1
  P  P28  1  0.689312  0.523648  0.500000  1
  P  P29  1  0.477834  0.165753  0.500000  1
  P  P30  1  0.314237  0.835369  0.500000  1
  P  P31  1  0.519756  0.684046  0.500000  1
  P  P32  1  0.165014  0.479527  0.500000  1
  P  P33  1  0.820473  0.817500  0.000000  1
  P  P34  1  0.178341  0.998738  0.000000  1
  P  P35  1  0.997509  0.178762  0.000000  1
