# generated using pymatgen
data_CaI16
_symmetry_space_group_name_H-M   'P 1'
_cell_length_a   13.98169546
_cell_length_b   12.08505238
_cell_length_c   10.52306000
_cell_angle_alpha   92.27829802
_cell_angle_beta   123.06593892
_cell_angle_gamma   124.82713007
_symmetry_Int_Tables_number   1
_chemical_formula_structural   CaI16
_chemical_formula_sum   'Ca1 I16'
_cell_volume   1051.63008416
_cell_formula_units_Z   1
loop_
 _symmetry_equiv_pos_site_id
 _symmetry_equiv_pos_as_xyz
  1  'x, y, z'
loop_
 _atom_site_type_symbol
 _atom_site_label
 _atom_site_symmetry_multiplicity
 _atom_site_fract_x
 _atom_site_fract_y
 _atom_site_fract_z
 _atom_site_occupancy
  Ca  Ca0  1  0.000000  0.000000  0.000000  1
  I  I1  1  0.004180  0.988423  0.710550  1
  I  I2  1  0.995820  0.011577  0.289450  1
  I  I3  1  0.957349  0.230497  0.005964  1
  I  I4  1  0.618344  0.768481  0.761116  1
  I  I5  1  0.381656  0.231519  0.238884  1
  I  I6  1  0.042651  0.769503  0.994036  1
  I  I7  1  0.517378  0.534520  0.296094  1
  I  I8  1  0.482622  0.465480  0.703906  1
  I  I9  1  0.700931  0.884399  0.392091  1
  I  I10  1  0.027083  0.387245  0.831131  1
  I  I11  1  0.972917  0.612755  0.168869  1
  I  I12  1  0.458538  0.861794  0.101657  1
  I  I13  1  0.541462  0.138206  0.898343  1
  I  I14  1  0.856008  0.401840  0.310661  1
  I  I15  1  0.143992  0.598160  0.689339  1
  I  I16  1  0.299069  0.115601  0.607909  1
