# generated using pymatgen
data_LuCo3CuC
_symmetry_space_group_name_H-M   'P 1'
_cell_length_a   4.97815800
_cell_length_b   4.97815911
_cell_length_c   6.68080600
_cell_angle_alpha   90.00000000
_cell_angle_beta   90.00000000
_cell_angle_gamma   120.00000589
_symmetry_Int_Tables_number   1
_chemical_formula_structural   LuCo3CuC
_chemical_formula_sum   'Lu2 Co6 Cu2 C2'
_cell_volume   143.38275360
_cell_formula_units_Z   2
loop_
 _symmetry_equiv_pos_site_id
 _symmetry_equiv_pos_as_xyz
  1  'x, y, z'
loop_
 _atom_site_type_symbol
 _atom_site_label
 _atom_site_symmetry_multiplicity
 _atom_site_fract_x
 _atom_site_fract_y
 _atom_site_fract_z
 _atom_site_occupancy
  Lu  Lu0  1  0.000000  0.000000  0.000000  1
  Lu  Lu1  1  0.000000  0.000000  0.500000  1
  Co  Co2  1  0.500000  0.500000  0.694680  1
  Co  Co3  1  0.500000  0.000000  0.694680  1
  Co  Co4  1  0.000000  0.500000  0.694680  1
  Co  Co5  1  0.500000  0.500000  0.305320  1
  Co  Co6  1  0.500000  0.000000  0.305320  1
  Co  Co7  1  0.000000  0.500000  0.305320  1
  Cu  Cu8  1  0.666667  0.333333  0.000000  1
  Cu  Cu9  1  0.333333  0.666667  0.000000  1
  C  C10  1  0.666667  0.333333  0.500000  1
  C  C11  1  0.333333  0.666667  0.500000  1
