# generated using pymatgen
data_K6AlTe4Cl
_symmetry_space_group_name_H-M   'P 1'
_cell_length_a   11.30328800
_cell_length_b   11.30328752
_cell_length_c   8.14481400
_cell_angle_alpha   90.00000000
_cell_angle_beta   90.00000000
_cell_angle_gamma   120.00000140
_symmetry_Int_Tables_number   1
_chemical_formula_structural   K6AlTe4Cl
_chemical_formula_sum   'K12 Al2 Te8 Cl2'
_cell_volume   901.20037668
_cell_formula_units_Z   2
loop_
 _symmetry_equiv_pos_site_id
 _symmetry_equiv_pos_as_xyz
  1  'x, y, z'
loop_
 _atom_site_type_symbol
 _atom_site_label
 _atom_site_symmetry_multiplicity
 _atom_site_fract_x
 _atom_site_fract_y
 _atom_site_fract_z
 _atom_site_occupancy
  K  K0  1  0.125351  0.874649  0.517868  1
  K  K1  1  0.749296  0.874649  0.517868  1
  K  K2  1  0.957793  0.478896  0.318420  1
  K  K3  1  0.521104  0.478896  0.318420  1
  K  K4  1  0.874649  0.749296  0.017868  1
  K  K5  1  0.250704  0.125351  0.017868  1
  K  K6  1  0.521104  0.042207  0.318420  1
  K  K7  1  0.125351  0.250704  0.517868  1
  K  K8  1  0.874649  0.125351  0.017868  1
  K  K9  1  0.042207  0.521104  0.818420  1
  K  K10  1  0.478896  0.957793  0.818420  1
  K  K11  1  0.478896  0.521104  0.818420  1
  Al  Al12  1  0.666667  0.333333  0.707995  1
  Al  Al13  1  0.333333  0.666667  0.207995  1
  Te  Te14  1  0.409541  0.204771  0.604207  1
  Te  Te15  1  0.590459  0.795229  0.104207  1
  Te  Te16  1  0.666667  0.333333  0.035156  1
  Te  Te17  1  0.795229  0.590459  0.604207  1
  Te  Te18  1  0.204771  0.409541  0.104207  1
  Te  Te19  1  0.333333  0.666667  0.535156  1
  Te  Te20  1  0.204771  0.795229  0.104207  1
  Te  Te21  1  0.795229  0.204771  0.604207  1
  Cl  Cl22  1  0.000000  0.000000  0.275965  1
  Cl  Cl23  1  0.000000  0.000000  0.775965  1
