# generated using pymatgen
data_Tb3PrAgIr
_symmetry_space_group_name_H-M   'P 1'
_cell_length_a   9.66762042
_cell_length_b   9.67062123
_cell_length_c   9.67062147
_cell_angle_alpha   59.97946684
_cell_angle_beta   60.01026413
_cell_angle_gamma   60.01027127
_symmetry_Int_Tables_number   1
_chemical_formula_structural   Tb3PrAgIr
_chemical_formula_sum   'Tb12 Pr4 Ag4 Ir4'
_cell_volume   639.31261466
_cell_formula_units_Z   4
loop_
 _symmetry_equiv_pos_site_id
 _symmetry_equiv_pos_as_xyz
  1  'x, y, z'
loop_
 _atom_site_type_symbol
 _atom_site_label
 _atom_site_symmetry_multiplicity
 _atom_site_fract_x
 _atom_site_fract_y
 _atom_site_fract_z
 _atom_site_occupancy
  Tb  Tb0  1  0.352373  0.350170  0.350170  1
  Tb  Tb1  1  0.350170  0.352373  0.947286  1
  Tb  Tb2  1  0.350170  0.947286  0.352373  1
  Tb  Tb3  1  0.947286  0.350170  0.350170  1
  Tb  Tb4  1  0.813560  0.186440  0.186440  1
  Tb  Tb5  1  0.186440  0.813560  0.813560  1
  Tb  Tb6  1  0.187817  0.812183  0.187817  1
  Tb  Tb7  1  0.812183  0.187817  0.812183  1
  Tb  Tb8  1  0.187817  0.187817  0.812183  1
  Tb  Tb9  1  0.812183  0.812183  0.187817  1
  Tb  Tb10  1  0.944367  0.555633  0.555633  1
  Tb  Tb11  1  0.555633  0.944367  0.944367  1
  Pr  Pr12  1  0.562892  0.937108  0.562892  1
  Pr  Pr13  1  0.937108  0.562892  0.937108  1
  Pr  Pr14  1  0.562892  0.562892  0.937108  1
  Pr  Pr15  1  0.937108  0.937108  0.562892  1
  Ag  Ag16  1  0.584217  0.578226  0.578226  1
  Ag  Ag17  1  0.578226  0.584217  0.259331  1
  Ag  Ag18  1  0.578226  0.259331  0.584217  1
  Ag  Ag19  1  0.259331  0.578226  0.578226  1
  Ir  Ir20  1  0.146380  0.140353  0.140353  1
  Ir  Ir21  1  0.140353  0.146380  0.572913  1
  Ir  Ir22  1  0.140353  0.572913  0.146380  1
  Ir  Ir23  1  0.572913  0.140353  0.140353  1
