# generated using pymatgen
data_Sr7CeAs6
_symmetry_space_group_name_H-M   'P 1'
_cell_length_a   8.06352135
_cell_length_b   8.19006783
_cell_length_c   8.19006797
_cell_angle_alpha   109.78210211
_cell_angle_beta   109.15851904
_cell_angle_gamma   109.15852245
_symmetry_Int_Tables_number   1
_chemical_formula_structural   Sr7CeAs6
_chemical_formula_sum   'Sr7 Ce1 As6'
_cell_volume   417.96442878
_cell_formula_units_Z   1
loop_
 _symmetry_equiv_pos_site_id
 _symmetry_equiv_pos_as_xyz
  1  'x, y, z'
loop_
 _atom_site_type_symbol
 _atom_site_label
 _atom_site_symmetry_multiplicity
 _atom_site_fract_x
 _atom_site_fract_y
 _atom_site_fract_z
 _atom_site_occupancy
  Sr  Sr0  1  0.135980  0.136451  0.134601  1
  Sr  Sr1  1  0.499530  0.998151  0.363550  1
  Sr  Sr2  1  0.364646  0.500001  0.000000  1
  Sr  Sr3  1  0.001378  0.365400  0.501850  1
  Sr  Sr4  1  0.629052  0.631664  0.625191  1
  Sr  Sr5  1  0.497387  0.993527  0.868336  1
  Sr  Sr6  1  0.003862  0.874809  0.506472  1
  Ce  Ce7  1  0.862477  0.499999  0.000000  1
  As  As8  1  0.229384  0.619038  0.355934  1
  As  As9  1  0.757079  0.859887  0.118835  1
  As  As10  1  0.397190  0.258949  0.640112  1
  As  As11  1  0.638241  0.381163  0.241051  1
  As  As12  1  0.110344  0.736897  0.880961  1
  As  As13  1  0.873449  0.144064  0.763105  1
