# generated using pymatgen
data_Ta7Nb3Ga4(GeB)2
_symmetry_space_group_name_H-M   'P 1'
_cell_length_a   7.78820614
_cell_length_b   7.78812478
_cell_length_c   5.34272401
_cell_angle_alpha   89.99843711
_cell_angle_beta   89.99611638
_cell_angle_gamma   120.02556577
_symmetry_Int_Tables_number   1
_chemical_formula_structural   Ta7Nb3Ga4(GeB)2
_chemical_formula_sum   'Ta7 Nb3 Ga4 Ge2 B2'
_cell_volume   280.57680757
_cell_formula_units_Z   1
loop_
 _symmetry_equiv_pos_site_id
 _symmetry_equiv_pos_as_xyz
  1  'x, y, z'
loop_
 _atom_site_type_symbol
 _atom_site_label
 _atom_site_symmetry_multiplicity
 _atom_site_fract_x
 _atom_site_fract_y
 _atom_site_fract_z
 _atom_site_occupancy
  Ta  Ta0  1  0.666706  0.332749  0.001645  1
  Ta  Ta1  1  0.756977  0.756584  0.249622  1
  Ta  Ta2  1  0.243053  0.999798  0.249645  1
  Ta  Ta3  1  0.999019  0.242697  0.249576  1
  Ta  Ta4  1  0.241961  0.241507  0.750205  1
  Ta  Ta5  1  0.759092  0.001469  0.750128  1
  Ta  Ta6  1  0.000813  0.758744  0.750189  1
  Nb  Nb7  1  0.666556  0.332441  0.498953  1
  Nb  Nb8  1  0.332419  0.666638  0.498693  1
  Nb  Nb9  1  0.332621  0.666612  0.001318  1
  Ga  Ga10  1  0.401184  0.401326  0.249939  1
  Ga  Ga11  1  0.599475  0.999014  0.249866  1
  Ga  Ga12  1  0.999297  0.599626  0.249966  1
  Ga  Ga13  1  0.598429  0.598504  0.750038  1
  Ge  Ge14  1  0.403133  0.000028  0.750181  1
  Ge  Ge15  1  0.000130  0.403112  0.750121  1
  B  B16  1  0.999575  0.999564  0.499099  1
  B  B17  1  0.999561  0.999586  0.000816  1
