# generated using pymatgen
data_Sr4LiLu(MoO6)2
_symmetry_space_group_name_H-M   'P 1'
_cell_length_a   5.75901990
_cell_length_b   5.76587859
_cell_length_c   10.00647000
_cell_angle_alpha   89.93590606
_cell_angle_beta   73.27132930
_cell_angle_gamma   59.99565494
_symmetry_Int_Tables_number   1
_chemical_formula_structural   Sr4LiLu(MoO6)2
_chemical_formula_sum   'Sr4 Li1 Lu1 Mo2 O12'
_cell_volume   271.44957551
_cell_formula_units_Z   1
loop_
 _symmetry_equiv_pos_site_id
 _symmetry_equiv_pos_as_xyz
  1  'x, y, z'
loop_
 _atom_site_type_symbol
 _atom_site_label
 _atom_site_symmetry_multiplicity
 _atom_site_fract_x
 _atom_site_fract_y
 _atom_site_fract_z
 _atom_site_occupancy
  Sr  Sr0  1  0.243820  0.377995  0.131568  1
  Sr  Sr1  1  0.257964  0.871540  0.613564  1
  Sr  Sr2  1  0.741995  0.628496  0.886529  1
  Sr  Sr3  1  0.756305  0.121939  0.368394  1
  Li  Li4  1  0.500146  0.750001  0.250002  1
  Lu  Lu5  1  0.500086  0.250029  0.749884  1
  Mo  Mo6  1  0.008787  0.492398  0.490861  1
  Mo  Mo7  1  0.991261  0.007576  0.009139  1
  O  O8  1  0.765378  0.363863  0.117640  1
  O  O9  1  0.761454  0.853351  0.618660  1
  O  O10  1  0.238450  0.646761  0.881258  1
  O  O11  1  0.234597  0.136109  0.382433  1
  O  O12  1  0.285907  0.582860  0.404651  1
  O  O13  1  0.288094  0.097720  0.909634  1
  O  O14  1  0.711851  0.402318  0.590368  1
  O  O15  1  0.714084  0.917068  0.095399  1
  O  O16  1  0.810800  0.642506  0.360248  1
  O  O17  1  0.818044  0.142989  0.855722  1
  O  O18  1  0.181629  0.357139  0.644306  1
  O  O19  1  0.189345  0.857346  0.139740  1
