# generated using pymatgen
data_La2Mn2S5
_symmetry_space_group_name_H-M   'P 1'
_cell_length_a   8.51545400
_cell_length_b   8.51545440
_cell_length_c   11.30803200
_cell_angle_alpha   90.00000000
_cell_angle_beta   90.00000000
_cell_angle_gamma   153.07159123
_symmetry_Int_Tables_number   1
_chemical_formula_structural   La2Mn2S5
_chemical_formula_sum   'La4 Mn4 S10'
_cell_volume   371.34943396
_cell_formula_units_Z   2
loop_
 _symmetry_equiv_pos_site_id
 _symmetry_equiv_pos_as_xyz
  1  'x, y, z'
loop_
 _atom_site_type_symbol
 _atom_site_label
 _atom_site_symmetry_multiplicity
 _atom_site_fract_x
 _atom_site_fract_y
 _atom_site_fract_z
 _atom_site_occupancy
  La  La0  1  0.372402  0.627598  0.066806  1
  La  La1  1  0.627598  0.372402  0.566806  1
  La  La2  1  0.386732  0.613268  0.447165  1
  La  La3  1  0.613268  0.386732  0.947165  1
  Mn  Mn4  1  0.087629  0.912371  0.274555  1
  Mn  Mn5  1  0.912371  0.087629  0.774555  1
  Mn  Mn6  1  0.709037  0.290963  0.259276  1
  Mn  Mn7  1  0.290963  0.709037  0.759276  1
  S  S8  1  0.532146  0.467854  0.205086  1
  S  S9  1  0.467854  0.532146  0.705086  1
  S  S10  1  0.016379  0.983621  0.459492  1
  S  S11  1  0.983621  0.016379  0.959492  1
  S  S12  1  0.854272  0.145728  0.255373  1
  S  S13  1  0.145728  0.854272  0.755373  1
  S  S14  1  0.187979  0.812021  0.112980  1
  S  S15  1  0.812021  0.187979  0.612980  1
  S  S16  1  0.793750  0.206250  0.909267  1
  S  S17  1  0.206250  0.793750  0.409267  1
