# generated using pymatgen
data_Yb2Sm3Bi3C
_symmetry_space_group_name_H-M   'P 1'
_cell_length_a   9.29547900
_cell_length_b   9.29547792
_cell_length_c   6.69352500
_cell_angle_alpha   90.00000000
_cell_angle_beta   90.00000000
_cell_angle_gamma   120.00000027
_symmetry_Int_Tables_number   1
_chemical_formula_structural   Yb2Sm3Bi3C
_chemical_formula_sum   'Yb4 Sm6 Bi6 C2'
_cell_volume   500.87461098
_cell_formula_units_Z   2
loop_
 _symmetry_equiv_pos_site_id
 _symmetry_equiv_pos_as_xyz
  1  'x, y, z'
loop_
 _atom_site_type_symbol
 _atom_site_label
 _atom_site_symmetry_multiplicity
 _atom_site_fract_x
 _atom_site_fract_y
 _atom_site_fract_z
 _atom_site_occupancy
  Yb  Yb0  1  0.666667  0.333333  0.000000  1
  Yb  Yb1  1  0.333333  0.666667  0.000000  1
  Yb  Yb2  1  0.333333  0.666667  0.500000  1
  Yb  Yb3  1  0.666667  0.333333  0.500000  1
  Sm  Sm4  1  0.789426  0.789426  0.750000  1
  Sm  Sm5  1  0.210574  0.000000  0.750000  1
  Sm  Sm6  1  0.000000  0.210574  0.750000  1
  Sm  Sm7  1  0.210574  0.210574  0.250000  1
  Sm  Sm8  1  0.789426  0.000000  0.250000  1
  Sm  Sm9  1  0.000000  0.789426  0.250000  1
  Bi  Bi10  1  0.402202  0.402202  0.750000  1
  Bi  Bi11  1  0.597798  0.000000  0.750000  1
  Bi  Bi12  1  0.000000  0.597798  0.750000  1
  Bi  Bi13  1  0.597798  0.597798  0.250000  1
  Bi  Bi14  1  0.402202  0.000000  0.250000  1
  Bi  Bi15  1  0.000000  0.402202  0.250000  1
  C  C16  1  0.000000  0.000000  0.000000  1
  C  C17  1  0.000000  0.000000  0.500000  1
