# generated using pymatgen
data_Sr4ZnSnPd4
_symmetry_space_group_name_H-M   'P 1'
_cell_length_a   5.98386667
_cell_length_b   5.98386772
_cell_length_c   8.34766900
_cell_angle_alpha   79.08962595
_cell_angle_beta   79.08962400
_cell_angle_gamma   60.91869269
_symmetry_Int_Tables_number   1
_chemical_formula_structural   Sr4ZnSnPd4
_chemical_formula_sum   'Sr4 Zn1 Sn1 Pd4'
_cell_volume   254.84480799
_cell_formula_units_Z   1
loop_
 _symmetry_equiv_pos_site_id
 _symmetry_equiv_pos_as_xyz
  1  'x, y, z'
loop_
 _atom_site_type_symbol
 _atom_site_label
 _atom_site_symmetry_multiplicity
 _atom_site_fract_x
 _atom_site_fract_y
 _atom_site_fract_z
 _atom_site_occupancy
  Sr  Sr0  1  0.784828  0.515670  0.348607  1
  Sr  Sr1  1  0.484330  0.215172  0.151393  1
  Sr  Sr2  1  0.211717  0.489653  0.647254  1
  Sr  Sr3  1  0.510347  0.788283  0.852746  1
  Zn  Zn4  1  0.881603  0.118397  0.750000  1
  Sn  Sn5  1  0.135634  0.864366  0.250000  1
  Pd  Pd6  1  0.998198  0.737252  0.992637  1
  Pd  Pd7  1  0.262748  0.001802  0.507363  1
  Pd  Pd8  1  0.992404  0.261810  0.988680  1
  Pd  Pd9  1  0.738190  0.007596  0.511320  1
