# generated using pymatgen
data_YHf2Zr(Al3Co)6
_symmetry_space_group_name_H-M   'P 1'
_cell_length_a   7.28898003
_cell_length_b   7.27922828
_cell_length_c   9.06784900
_cell_angle_alpha   90.00000000
_cell_angle_beta   90.00000000
_cell_angle_gamma   119.42212454
_symmetry_Int_Tables_number   1
_chemical_formula_structural   YHf2Zr(Al3Co)6
_chemical_formula_sum   'Y1 Hf2 Zr1 Al18 Co6'
_cell_volume   419.07002008
_cell_formula_units_Z   1
loop_
 _symmetry_equiv_pos_site_id
 _symmetry_equiv_pos_as_xyz
  1  'x, y, z'
loop_
 _atom_site_type_symbol
 _atom_site_label
 _atom_site_symmetry_multiplicity
 _atom_site_fract_x
 _atom_site_fract_y
 _atom_site_fract_z
 _atom_site_occupancy
  Y  Y0  1  0.327900  0.007844  0.750000  1
  Hf  Hf1  1  0.992455  0.672546  0.250000  1
  Hf  Hf2  1  0.673566  0.993025  0.250000  1
  Zr  Zr3  1  0.006247  0.328008  0.750000  1
  Al  Al4  1  0.117415  0.118263  0.250000  1
  Al  Al5  1  0.875387  0.879577  0.750000  1
  Al  Al6  1  0.329967  0.332341  0.543551  1
  Al  Al7  1  0.670213  0.670124  0.050748  1
  Al  Al8  1  0.329967  0.332341  0.956449  1
  Al  Al9  1  0.670213  0.670124  0.449252  1
  Al  Al10  1  0.338654  0.560640  0.250000  1
  Al  Al11  1  0.666783  0.445910  0.750000  1
  Al  Al12  1  0.562037  0.339772  0.250000  1
  Al  Al13  1  0.439676  0.654972  0.750000  1
  Al  Al14  1  0.994174  0.334970  0.074968  1
  Al  Al15  1  0.002867  0.662527  0.570168  1
  Al  Al16  1  0.335472  0.994526  0.422305  1
  Al  Al17  1  0.667559  0.005138  0.929799  1
  Al  Al18  1  0.002867  0.662527  0.929832  1
  Al  Al19  1  0.994174  0.334970  0.425032  1
  Al  Al20  1  0.667559  0.005138  0.570201  1
  Al  Al21  1  0.335472  0.994526  0.077695  1
  Co  Co22  1  0.997915  0.998443  0.002544  1
  Co  Co23  1  0.997915  0.998443  0.497456  1
  Co  Co24  1  0.673180  0.329175  0.002177  1
  Co  Co25  1  0.328594  0.672478  0.497444  1
  Co  Co26  1  0.328594  0.672478  0.002556  1
  Co  Co27  1  0.673180  0.329175  0.497823  1
