# generated using pymatgen
data_Tb2Dy2Er4Sc12Ga7Si9
_symmetry_space_group_name_H-M   'P 1'
_cell_length_a   7.15904987
_cell_length_b   7.40518465
_cell_length_c   14.24448271
_cell_angle_alpha   90.02867682
_cell_angle_beta   89.94229926
_cell_angle_gamma   90.09228559
_symmetry_Int_Tables_number   1
_chemical_formula_structural   Tb2Dy2Er4Sc12Ga7Si9
_chemical_formula_sum   'Tb2 Dy2 Er4 Sc12 Ga7 Si9'
_cell_volume   755.15677691
_cell_formula_units_Z   1
loop_
 _symmetry_equiv_pos_site_id
 _symmetry_equiv_pos_as_xyz
  1  'x, y, z'
loop_
 _atom_site_type_symbol
 _atom_site_label
 _atom_site_symmetry_multiplicity
 _atom_site_fract_x
 _atom_site_fract_y
 _atom_site_fract_z
 _atom_site_occupancy
  Tb  Tb0  1  0.012516  0.173858  0.098799  1
  Tb  Tb1  1  0.989767  0.823682  0.901654  1
  Dy  Dy2  1  0.488571  0.676580  0.901787  1
  Dy  Dy3  1  0.989373  0.823530  0.599652  1
  Er  Er4  1  0.510089  0.322469  0.099310  1
  Er  Er5  1  0.010288  0.176415  0.399922  1
  Er  Er6  1  0.510518  0.323022  0.400209  1
  Er  Er7  1  0.489773  0.676456  0.599473  1
  Sc  Sc8  1  0.164367  0.502334  0.749751  1
  Sc  Sc9  1  0.836370  0.498606  0.250030  1
  Sc  Sc10  1  0.336017  0.002048  0.249184  1
  Sc  Sc11  1  0.663269  0.998325  0.749577  1
  Sc  Sc12  1  0.330517  0.173512  0.625740  1
  Sc  Sc13  1  0.669097  0.826828  0.373851  1
  Sc  Sc14  1  0.169341  0.673590  0.373783  1
  Sc  Sc15  1  0.667738  0.825135  0.126559  1
  Sc  Sc16  1  0.830262  0.326598  0.625908  1
  Sc  Sc17  1  0.330064  0.174342  0.874822  1
  Sc  Sc18  1  0.829016  0.326889  0.874263  1
  Sc  Sc19  1  0.172347  0.675416  0.125407  1
  Ga  Ga20  1  0.161881  0.462535  0.539066  1
  Ga  Ga21  1  0.838228  0.536056  0.459743  1
  Ga  Ga22  1  0.338615  0.963220  0.459820  1
  Ga  Ga23  1  0.838732  0.538147  0.040743  1
  Ga  Ga24  1  0.660779  0.037347  0.538919  1
  Ga  Ga25  1  0.160389  0.461768  0.961071  1
  Ga  Ga26  1  0.658973  0.038616  0.961319  1
  Si  Si27  1  0.032213  0.113842  0.750595  1
  Si  Si28  1  0.967524  0.885480  0.249899  1
  Si  Si29  1  0.467305  0.612647  0.249626  1
  Si  Si30  1  0.532327  0.386464  0.750095  1
  Si  Si31  1  0.285213  0.874001  0.750194  1
  Si  Si32  1  0.715184  0.126576  0.249593  1
  Si  Si33  1  0.215628  0.373287  0.249924  1
  Si  Si34  1  0.783899  0.626282  0.750123  1
  Si  Si35  1  0.343809  0.964094  0.039584  1
