# generated using pymatgen
data_Dy4Fe3AuO14
_symmetry_space_group_name_H-M   'P 1'
_cell_length_a   7.20166092
_cell_length_b   7.25733151
_cell_length_c   7.20166100
_cell_angle_alpha   60.25342511
_cell_angle_beta   59.99999506
_cell_angle_gamma   60.25342149
_symmetry_Int_Tables_number   1
_chemical_formula_structural   Dy4Fe3AuO14
_chemical_formula_sum   'Dy4 Fe3 Au1 O14'
_cell_volume   267.16543842
_cell_formula_units_Z   1
loop_
 _symmetry_equiv_pos_site_id
 _symmetry_equiv_pos_as_xyz
  1  'x, y, z'
loop_
 _atom_site_type_symbol
 _atom_site_label
 _atom_site_symmetry_multiplicity
 _atom_site_fract_x
 _atom_site_fract_y
 _atom_site_fract_z
 _atom_site_occupancy
  Dy  Dy0  1  0.500000  0.000000  0.500000  1
  Dy  Dy1  1  0.000000  0.500000  0.500001  1
  Dy  Dy2  1  0.500000  0.500000  0.000000  1
  Dy  Dy3  1  0.500000  0.500000  0.500000  1
  Fe  Fe4  1  0.500000  0.000000  0.000000  1
  Fe  Fe5  1  0.000000  0.000000  0.500000  1
  Fe  Fe6  1  0.000000  0.000000  0.000000  1
  Au  Au7  1  0.000000  0.500000  0.000001  1
  O  O8  1  0.332115  0.918586  0.917182  1
  O  O9  1  0.090358  0.661767  0.657517  1
  O  O10  1  0.909641  0.338234  0.909642  1
  O  O11  1  0.917181  0.918586  0.332116  1
  O  O12  1  0.342482  0.338234  0.909642  1
  O  O13  1  0.332115  0.918586  0.332116  1
  O  O14  1  0.090358  0.661767  0.090358  1
  O  O15  1  0.667884  0.081415  0.667884  1
  O  O16  1  0.375997  0.372011  0.375997  1
  O  O17  1  0.624002  0.627990  0.624003  1
  O  O18  1  0.909641  0.338234  0.342483  1
  O  O19  1  0.667884  0.081415  0.082818  1
  O  O20  1  0.082818  0.081415  0.667884  1
  O  O21  1  0.657517  0.661767  0.090358  1
