# generated using pymatgen
data_Ta10CuSi4Ge
_symmetry_space_group_name_H-M   'P 1'
_cell_length_a   7.58533171
_cell_length_b   7.58349013
_cell_length_c   7.58106065
_cell_angle_alpha   128.63075045
_cell_angle_beta   128.63744319
_cell_angle_gamma   75.63273186
_symmetry_Int_Tables_number   1
_chemical_formula_structural   Ta10CuSi4Ge
_chemical_formula_sum   'Ta10 Cu1 Si4 Ge1'
_cell_volume   258.82677262
_cell_formula_units_Z   1
loop_
 _symmetry_equiv_pos_site_id
 _symmetry_equiv_pos_as_xyz
  1  'x, y, z'
loop_
 _atom_site_type_symbol
 _atom_site_label
 _atom_site_symmetry_multiplicity
 _atom_site_fract_x
 _atom_site_fract_y
 _atom_site_fract_z
 _atom_site_occupancy
  Ta  Ta0  1  0.010781  0.179710  0.492319  1
  Ta  Ta1  1  0.519444  0.013630  0.829950  1
  Ta  Ta2  1  0.182399  0.688878  0.171442  1
  Ta  Ta3  1  0.489043  0.982564  0.171442  1
  Ta  Ta4  1  0.686743  0.517159  0.505537  1
  Ta  Ta5  1  0.981537  0.812609  0.492319  1
  Ta  Ta6  1  0.318795  0.488379  0.505537  1
  Ta  Ta7  1  0.810506  0.316319  0.829950  1
  Ta  Ta8  1  0.500723  0.499863  0.999506  1
  Ta  Ta9  1  0.998783  0.999643  0.999506  1
  Cu  Cu10  1  0.128359  0.628358  0.756717  1
  Si  Si11  1  0.630129  0.867709  0.498140  1
  Si  Si12  1  0.368009  0.130432  0.498140  1
  Si  Si13  1  0.876148  0.376148  0.252297  1
  Si  Si14  1  0.749182  0.749182  0.998364  1
  Ge  Ge15  1  0.249418  0.249417  0.998835  1
