# generated using pymatgen
data_Tb7YGa3Co
_symmetry_space_group_name_H-M   'P 1'
_cell_length_a   10.08017100
_cell_length_b   10.08017198
_cell_length_c   6.95970200
_cell_angle_alpha   90.00000000
_cell_angle_beta   90.00000000
_cell_angle_gamma   120.00000008
_symmetry_Int_Tables_number   1
_chemical_formula_structural   Tb7YGa3Co
_chemical_formula_sum   'Tb14 Y2 Ga6 Co2'
_cell_volume   612.43093131
_cell_formula_units_Z   2
loop_
 _symmetry_equiv_pos_site_id
 _symmetry_equiv_pos_as_xyz
  1  'x, y, z'
loop_
 _atom_site_type_symbol
 _atom_site_label
 _atom_site_symmetry_multiplicity
 _atom_site_fract_x
 _atom_site_fract_y
 _atom_site_fract_z
 _atom_site_occupancy
  Tb  Tb0  1  0.172884  0.827116  0.990958  1
  Tb  Tb1  1  0.827116  0.172884  0.490958  1
  Tb  Tb2  1  0.172884  0.345768  0.990958  1
  Tb  Tb3  1  0.654232  0.827116  0.990958  1
  Tb  Tb4  1  0.345768  0.172884  0.490958  1
  Tb  Tb5  1  0.827116  0.654232  0.490958  1
  Tb  Tb6  1  0.333333  0.666667  0.672250  1
  Tb  Tb7  1  0.666667  0.333333  0.172250  1
  Tb  Tb8  1  0.463546  0.536454  0.292784  1
  Tb  Tb9  1  0.536454  0.463546  0.792784  1
  Tb  Tb10  1  0.463546  0.927092  0.292784  1
  Tb  Tb11  1  0.072908  0.536454  0.292784  1
  Tb  Tb12  1  0.927092  0.463546  0.792784  1
  Tb  Tb13  1  0.536454  0.072908  0.792784  1
  Y  Y14  1  0.000000  0.000000  0.269718  1
  Y  Y15  1  0.000000  0.000000  0.769718  1
  Ga  Ga16  1  0.163424  0.836576  0.540826  1
  Ga  Ga17  1  0.836576  0.163424  0.040826  1
  Ga  Ga18  1  0.163424  0.326848  0.540826  1
  Ga  Ga19  1  0.673152  0.836576  0.540826  1
  Ga  Ga20  1  0.326848  0.163424  0.040826  1
  Ga  Ga21  1  0.836576  0.673152  0.040826  1
  Co  Co22  1  0.333333  0.666667  0.057391  1
  Co  Co23  1  0.666667  0.333333  0.557391  1
