# generated using pymatgen
data_HfTi(As2O7)2
_symmetry_space_group_name_H-M   'P 1'
_cell_length_a   5.40666995
_cell_length_b   5.47796102
_cell_length_c   9.74595620
_cell_angle_alpha   80.87709694
_cell_angle_beta   81.36069956
_cell_angle_gamma   98.48805693
_symmetry_Int_Tables_number   1
_chemical_formula_structural   HfTi(As2O7)2
_chemical_formula_sum   'Hf1 Ti1 As4 O14'
_cell_volume   277.38747271
_cell_formula_units_Z   1
loop_
 _symmetry_equiv_pos_site_id
 _symmetry_equiv_pos_as_xyz
  1  'x, y, z'
loop_
 _atom_site_type_symbol
 _atom_site_label
 _atom_site_symmetry_multiplicity
 _atom_site_fract_x
 _atom_site_fract_y
 _atom_site_fract_z
 _atom_site_occupancy
  Hf  Hf0  1  0.000000  0.000000  0.000000  1
  Ti  Ti1  1  0.000000  0.000000  0.500000  1
  As  As2  1  0.175648  0.439508  0.204839  1
  As  As3  1  0.445400  0.169691  0.693262  1
  As  As4  1  0.554600  0.830309  0.306738  1
  As  As5  1  0.824352  0.560492  0.795161  1
  O  O6  1  0.078034  0.703896  0.134139  1
  O  O7  1  0.765941  0.744627  0.916064  1
  O  O8  1  0.301811  0.974215  0.847007  1
  O  O9  1  0.024367  0.713753  0.643717  1
  O  O10  1  0.472533  0.532465  0.256843  1
  O  O11  1  0.718727  0.081586  0.624278  1
  O  O12  1  0.750134  0.775393  0.424572  1
  O  O13  1  0.249866  0.224607  0.575428  1
  O  O14  1  0.234059  0.255373  0.083936  1
  O  O15  1  0.698189  0.025785  0.152993  1
  O  O16  1  0.921966  0.296104  0.865861  1
  O  O17  1  0.975633  0.286247  0.356283  1
  O  O18  1  0.281273  0.918414  0.375722  1
  O  O19  1  0.527467  0.467535  0.743157  1
