# generated using pymatgen
data_Tm6Al24Pd5Ru3
_symmetry_space_group_name_H-M   'P 1'
_cell_length_a   8.77801392
_cell_length_b   8.78477594
_cell_length_c   9.50215700
_cell_angle_alpha   90.00000000
_cell_angle_beta   89.87794795
_cell_angle_gamma   120.02549664
_symmetry_Int_Tables_number   1
_chemical_formula_structural   Tm6Al24Pd5Ru3
_chemical_formula_sum   'Tm6 Al24 Pd5 Ru3'
_cell_volume   634.40534947
_cell_formula_units_Z   1
loop_
 _symmetry_equiv_pos_site_id
 _symmetry_equiv_pos_as_xyz
  1  'x, y, z'
loop_
 _atom_site_type_symbol
 _atom_site_label
 _atom_site_symmetry_multiplicity
 _atom_site_fract_x
 _atom_site_fract_y
 _atom_site_fract_z
 _atom_site_occupancy
  Tm  Tm0  1  0.808828  0.194421  0.749621  1
  Tm  Tm1  1  0.191172  0.805579  0.250379  1
  Tm  Tm2  1  0.384028  0.192015  0.747850  1
  Tm  Tm3  1  0.615972  0.807985  0.252150  1
  Tm  Tm4  1  0.808828  0.614407  0.749621  1
  Tm  Tm5  1  0.191172  0.385593  0.250379  1
  Al  Al6  1  0.666207  0.333104  0.968935  1
  Al  Al7  1  0.333793  0.666896  0.031065  1
  Al  Al8  1  0.328612  0.664307  0.470049  1
  Al  Al9  1  0.671388  0.335693  0.529951  1
  Al  Al10  1  0.842701  0.167498  0.422060  1
  Al  Al11  1  0.157299  0.832502  0.577940  1
  Al  Al12  1  0.323021  0.161510  0.421238  1
  Al  Al13  1  0.161731  0.838606  0.919008  1
  Al  Al14  1  0.676979  0.838490  0.578762  1
  Al  Al15  1  0.838269  0.161394  0.080992  1
  Al  Al16  1  0.842701  0.675202  0.422060  1
  Al  Al17  1  0.677675  0.838838  0.919596  1
  Al  Al18  1  0.157299  0.324798  0.577940  1
  Al  Al19  1  0.322325  0.161162  0.080404  1
  Al  Al20  1  0.161731  0.323125  0.919008  1
  Al  Al21  1  0.838269  0.676875  0.080992  1
  Al  Al22  1  0.437861  0.562952  0.749845  1
  Al  Al23  1  0.562139  0.437048  0.250155  1
  Al  Al24  1  0.123977  0.561989  0.746690  1
  Al  Al25  1  0.876023  0.438011  0.253310  1
  Al  Al26  1  0.437861  0.874910  0.749845  1
  Al  Al27  1  0.562139  0.125090  0.250155  1
  Al  Al28  1  0.000034  0.000017  0.749684  1
  Al  Al29  1  0.999966  0.999983  0.250316  1
  Pd  Pd30  1  0.500000  0.500000  0.000000  1
  Pd  Pd31  1  0.000000  0.500000  0.000000  1
  Pd  Pd32  1  0.500000  0.500000  0.500000  1
  Pd  Pd33  1  0.500000  0.000000  0.000000  1
  Pd  Pd34  1  0.500000  0.000000  0.500000  1
  Ru  Ru35  1  0.000000  0.500000  0.500000  1
  Ru  Ru36  1  0.000000  0.000000  0.000000  1
  Ru  Ru37  1  0.000000  0.000000  0.500000  1
