# generated using pymatgen
data_Li8Dy7YSn5Sb3
_symmetry_space_group_name_H-M   'P 1'
_cell_length_a   9.39713800
_cell_length_b   9.39609463
_cell_length_c   7.22734500
_cell_angle_alpha   90.00241566
_cell_angle_beta   90.00000000
_cell_angle_gamma   120.00366631
_symmetry_Int_Tables_number   1
_chemical_formula_structural   Li8Dy7YSn5Sb3
_chemical_formula_sum   'Li8 Dy7 Y1 Sn5 Sb3'
_cell_volume   552.63241915
_cell_formula_units_Z   1
loop_
 _symmetry_equiv_pos_site_id
 _symmetry_equiv_pos_as_xyz
  1  'x, y, z'
loop_
 _atom_site_type_symbol
 _atom_site_label
 _atom_site_symmetry_multiplicity
 _atom_site_fract_x
 _atom_site_fract_y
 _atom_site_fract_z
 _atom_site_occupancy
  Li  Li0  1  0.166812  0.333623  0.283113  1
  Li  Li1  1  0.166771  0.833125  0.283042  1
  Li  Li2  1  0.666353  0.833125  0.283042  1
  Li  Li3  1  0.833083  0.666165  0.785352  1
  Li  Li4  1  0.833084  0.166987  0.785519  1
  Li  Li5  1  0.333904  0.166987  0.785519  1
  Li  Li6  1  0.333378  0.666757  0.678533  1
  Li  Li7  1  0.666621  0.333241  0.182731  1
  Dy  Dy8  1  0.511643  0.488292  0.490447  1
  Dy  Dy9  1  0.976651  0.488292  0.490447  1
  Dy  Dy10  1  0.490369  0.980739  0.995830  1
  Dy  Dy11  1  0.490610  0.509609  0.995745  1
  Dy  Dy12  1  0.018999  0.509609  0.995745  1
  Dy  Dy13  1  0.999951  0.999902  0.497312  1
  Dy  Dy14  1  0.000033  0.000065  0.004168  1
  Y  Y15  1  0.511699  0.023396  0.490705  1
  Sn  Sn16  1  0.833437  0.666875  0.232680  1
  Sn  Sn17  1  0.833703  0.166711  0.232310  1
  Sn  Sn18  1  0.333008  0.166711  0.232310  1
  Sn  Sn19  1  0.333252  0.666505  0.257542  1
  Sn  Sn20  1  0.666798  0.333596  0.758139  1
  Sb  Sb21  1  0.166644  0.333289  0.733759  1
  Sb  Sb22  1  0.166452  0.833199  0.734003  1
  Sb  Sb23  1  0.666747  0.833199  0.734003  1
