# generated using pymatgen
data_Y2ErLu(B6Rh)2
_symmetry_space_group_name_H-M   'P 1'
_cell_length_a   3.64046700
_cell_length_b   9.13929973
_cell_length_c   11.48717592
_cell_angle_alpha   90.04589032
_cell_angle_beta   90.00000000
_cell_angle_gamma   90.00000000
_symmetry_Int_Tables_number   1
_chemical_formula_structural   Y2ErLu(B6Rh)2
_chemical_formula_sum   'Y4 Er2 Lu2 B24 Rh4'
_cell_volume   382.19337282
_cell_formula_units_Z   2
loop_
 _symmetry_equiv_pos_site_id
 _symmetry_equiv_pos_as_xyz
  1  'x, y, z'
loop_
 _atom_site_type_symbol
 _atom_site_label
 _atom_site_symmetry_multiplicity
 _atom_site_fract_x
 _atom_site_fract_y
 _atom_site_fract_z
 _atom_site_occupancy
  Y  Y0  1  0.500000  0.322252  0.413692  1
  Y  Y1  1  0.500000  0.677748  0.586308  1
  Y  Y2  1  0.500000  0.178784  0.914025  1
  Y  Y3  1  0.500000  0.821216  0.085975  1
  Er  Er4  1  0.500000  0.055857  0.627147  1
  Er  Er5  1  0.500000  0.944143  0.372853  1
  Lu  Lu6  1  0.500000  0.444370  0.126596  1
  Lu  Lu7  1  0.500000  0.555630  0.873404  1
  B  B8  1  0.000000  0.108354  0.470810  1
  B  B9  1  0.000000  0.891646  0.529190  1
  B  B10  1  0.000000  0.394526  0.971548  1
  B  B11  1  0.000000  0.605474  0.028452  1
  B  B12  1  0.000000  0.132972  0.316136  1
  B  B13  1  0.000000  0.867028  0.683864  1
  B  B14  1  0.000000  0.368338  0.817051  1
  B  B15  1  0.000000  0.631662  0.182949  1
  B  B16  1  0.000000  0.054663  0.065660  1
  B  B17  1  0.000000  0.945337  0.934340  1
  B  B18  1  0.000000  0.445752  0.565833  1
  B  B19  1  0.000000  0.554248  0.434167  1
  B  B20  1  0.000000  0.482688  0.285575  1
  B  B21  1  0.000000  0.517312  0.714425  1
  B  B22  1  0.000000  0.016688  0.786695  1
  B  B23  1  0.000000  0.983312  0.213305  1
  B  B24  1  0.000000  0.251377  0.079991  1
  B  B25  1  0.000000  0.748623  0.920009  1
  B  B26  1  0.000000  0.250338  0.580228  1
  B  B27  1  0.000000  0.749662  0.419772  1
  B  B28  1  0.000000  0.295043  0.235316  1
  B  B29  1  0.000000  0.704957  0.764684  1
  B  B30  1  0.000000  0.206369  0.736279  1
  B  B31  1  0.000000  0.793631  0.263721  1
  Rh  Rh32  1  0.500000  0.141382  0.179321  1
  Rh  Rh33  1  0.500000  0.858618  0.820679  1
  Rh  Rh34  1  0.500000  0.361160  0.680369  1
  Rh  Rh35  1  0.500000  0.638840  0.319631  1
