# generated using pymatgen
data_Hf10AlSiSb4
_symmetry_space_group_name_H-M   'P 1'
_cell_length_a   5.47159192
_cell_length_b   8.24840841
_cell_length_c   8.24840835
_cell_angle_alpha   83.68418362
_cell_angle_beta   70.62949485
_cell_angle_gamma   70.62949320
_symmetry_Int_Tables_number   1
_chemical_formula_structural   Hf10AlSiSb4
_chemical_formula_sum   'Hf10 Al1 Si1 Sb4'
_cell_volume   331.31399826
_cell_formula_units_Z   1
loop_
 _symmetry_equiv_pos_site_id
 _symmetry_equiv_pos_as_xyz
  1  'x, y, z'
loop_
 _atom_site_type_symbol
 _atom_site_label
 _atom_site_symmetry_multiplicity
 _atom_site_fract_x
 _atom_site_fract_y
 _atom_site_fract_z
 _atom_site_occupancy
  Hf  Hf0  1  0.077066  0.136065  0.713723  1
  Hf  Hf1  1  0.926856  0.863935  0.286277  1
  Hf  Hf2  1  0.790789  0.286277  0.136065  1
  Hf  Hf3  1  0.422934  0.286277  0.863935  1
  Hf  Hf4  1  0.213132  0.713723  0.863935  1
  Hf  Hf5  1  0.573144  0.713723  0.136065  1
  Hf  Hf6  1  0.709211  0.863935  0.713723  1
  Hf  Hf7  1  0.286868  0.136065  0.286277  1
  Hf  Hf8  1  0.250000  0.500000  0.500000  1
  Hf  Hf9  1  0.750000  0.500000  0.500000  1
  Al  Al10  1  0.750000  0.000000  0.000000  1
  Si  Si11  1  0.250000  0.000000  0.000000  1
  Sb  Sb12  1  0.164057  0.500000  0.171884  1
  Sb  Sb13  1  0.835943  0.500000  0.828116  1
  Sb  Sb14  1  0.335943  0.828116  0.500000  1
  Sb  Sb15  1  0.664057  0.171884  0.500000  1
