# generated using pymatgen
data_PrNd3(GaRh)4
_symmetry_space_group_name_H-M   'P 1'
_cell_length_a   4.38154100
_cell_length_b   7.06897465
_cell_length_c   7.94511952
_cell_angle_alpha   90.00304816
_cell_angle_beta   90.00000000
_cell_angle_gamma   90.00000000
_symmetry_Int_Tables_number   1
_chemical_formula_structural   PrNd3(GaRh)4
_chemical_formula_sum   'Pr1 Nd3 Ga4 Rh4'
_cell_volume   246.08420444
_cell_formula_units_Z   1
loop_
 _symmetry_equiv_pos_site_id
 _symmetry_equiv_pos_as_xyz
  1  'x, y, z'
loop_
 _atom_site_type_symbol
 _atom_site_label
 _atom_site_symmetry_multiplicity
 _atom_site_fract_x
 _atom_site_fract_y
 _atom_site_fract_z
 _atom_site_occupancy
  Pr  Pr0  1  0.250000  0.029724  0.311934  1
  Nd  Nd1  1  0.250000  0.530193  0.188181  1
  Nd  Nd2  1  0.750000  0.469717  0.811478  1
  Nd  Nd3  1  0.750000  0.969598  0.689026  1
  Ga  Ga4  1  0.250000  0.648217  0.569568  1
  Ga  Ga5  1  0.750000  0.352011  0.431311  1
  Ga  Ga6  1  0.750000  0.850627  0.068535  1
  Ga  Ga7  1  0.250000  0.148938  0.930269  1
  Rh  Rh8  1  0.250000  0.772421  0.890617  1
  Rh  Rh9  1  0.750000  0.228763  0.107944  1
  Rh  Rh10  1  0.750000  0.726788  0.391163  1
  Rh  Rh11  1  0.250000  0.273004  0.609975  1
