# generated using pymatgen
data_HoAl4Si2Pd
_symmetry_space_group_name_H-M   'P 1'
_cell_length_a   4.09179000
_cell_length_b   4.09178919
_cell_length_c   31.07291100
_cell_angle_alpha   90.00000000
_cell_angle_beta   90.00019604
_cell_angle_gamma   120.00003886
_symmetry_Int_Tables_number   1
_chemical_formula_structural   HoAl4Si2Pd
_chemical_formula_sum   'Ho3 Al12 Si6 Pd3'
_cell_volume   450.54584644
_cell_formula_units_Z   3
loop_
 _symmetry_equiv_pos_site_id
 _symmetry_equiv_pos_as_xyz
  1  'x, y, z'
loop_
 _atom_site_type_symbol
 _atom_site_label
 _atom_site_symmetry_multiplicity
 _atom_site_fract_x
 _atom_site_fract_y
 _atom_site_fract_z
 _atom_site_occupancy
  Ho  Ho0  1  0.333351  0.666676  0.166661  1
  Ho  Ho1  1  0.999995  0.999997  0.499971  1
  Ho  Ho2  1  0.666668  0.333334  0.833368  1
  Al  Al3  1  0.666672  0.333336  0.028219  1
  Al  Al4  1  0.000006  0.000004  0.083089  1
  Al  Al5  1  0.666667  0.333333  0.250240  1
  Al  Al6  1  0.999999  0.999999  0.305146  1
  Al  Al7  1  0.333334  0.666666  0.361515  1
  Al  Al8  1  0.666661  0.333330  0.416437  1
  Al  Al9  1  0.333332  0.666667  0.583534  1
  Al  Al10  1  0.666651  0.333325  0.638350  1
  Al  Al11  1  0.999992  0.999996  0.695114  1
  Al  Al12  1  0.333333  0.666666  0.749885  1
  Al  Al13  1  0.000000  0.999999  0.916847  1
  Al  Al14  1  0.333332  0.666666  0.971671  1
  Si  Si15  1  0.666668  0.333333  0.111568  1
  Si  Si16  1  0.000002  0.000001  0.221786  1
  Si  Si17  1  0.333327  0.666664  0.444848  1
  Si  Si18  1  0.666666  0.333332  0.555075  1
  Si  Si19  1  0.000000  0.999999  0.778270  1
  Si  Si20  1  0.333335  0.666667  0.888494  1
  Pd  Pd21  1  0.000007  0.000002  0.999822  1
  Pd  Pd22  1  0.666669  0.333334  0.333427  1
  Pd  Pd23  1  0.333336  0.666668  0.666694  1
