# generated using pymatgen
data_Sn4BiSb7Pt6
_symmetry_space_group_name_H-M   'P 1'
_cell_length_a   4.00548100
_cell_length_b   8.51253851
_cell_length_c   13.01699031
_cell_angle_alpha   97.19601828
_cell_angle_beta   90.00000000
_cell_angle_gamma   90.00000000
_symmetry_Int_Tables_number   1
_chemical_formula_structural   Sn4BiSb7Pt6
_chemical_formula_sum   'Sn4 Bi1 Sb7 Pt6'
_cell_volume   440.34193240
_cell_formula_units_Z   1
loop_
 _symmetry_equiv_pos_site_id
 _symmetry_equiv_pos_as_xyz
  1  'x, y, z'
loop_
 _atom_site_type_symbol
 _atom_site_label
 _atom_site_symmetry_multiplicity
 _atom_site_fract_x
 _atom_site_fract_y
 _atom_site_fract_z
 _atom_site_occupancy
  Sn  Sn0  1  0.500000  0.328258  0.811675  1
  Sn  Sn1  1  0.500000  0.992373  0.139655  1
  Sn  Sn2  1  0.500000  0.674771  0.477596  1
  Sn  Sn3  1  0.500000  0.670693  0.191116  1
  Bi  Bi4  1  0.500000  0.344219  0.521916  1
  Sb  Sb5  1  0.500000  0.005887  0.856764  1
  Sb  Sb6  1  0.000000  0.313532  0.053152  1
  Sb  Sb7  1  0.000000  0.979442  0.383809  1
  Sb  Sb8  1  0.000000  0.645993  0.722704  1
  Sb  Sb9  1  0.000000  0.684644  0.949052  1
  Sb  Sb10  1  0.000000  0.351540  0.278070  1
  Sb  Sb11  1  0.000000  0.017657  0.613630  1
  Pt  Pt12  1  0.500000  0.832564  0.669904  1
  Pt  Pt13  1  0.500000  0.498581  0.001218  1
  Pt  Pt14  1  0.500000  0.163347  0.328533  1
  Pt  Pt15  1  0.000000  0.330995  0.671316  1
  Pt  Pt16  1  0.000000  0.999814  0.995928  1
  Pt  Pt17  1  0.000000  0.665687  0.333963  1
