# generated using pymatgen
data_Tm12Ni4SnIr
_symmetry_space_group_name_H-M   'P 1'
_cell_length_a   8.21768453
_cell_length_b   8.22158768
_cell_length_c   8.21574305
_cell_angle_alpha   106.55747212
_cell_angle_beta   110.10723103
_cell_angle_gamma   111.79446578
_symmetry_Int_Tables_number   1
_chemical_formula_structural   Tm12Ni4SnIr
_chemical_formula_sum   'Tm12 Ni4 Sn1 Ir1'
_cell_volume   426.36506990
_cell_formula_units_Z   1
loop_
 _symmetry_equiv_pos_site_id
 _symmetry_equiv_pos_as_xyz
  1  'x, y, z'
loop_
 _atom_site_type_symbol
 _atom_site_label
 _atom_site_symmetry_multiplicity
 _atom_site_fract_x
 _atom_site_fract_y
 _atom_site_fract_z
 _atom_site_occupancy
  Tm  Tm0  1  0.692105  0.281926  0.974114  1
  Tm  Tm1  1  0.307857  0.718096  0.025866  1
  Tm  Tm2  1  0.692200  0.718036  0.410378  1
  Tm  Tm3  1  0.307650  0.281763  0.589267  1
  Tm  Tm4  1  0.806498  0.128475  0.321915  1
  Tm  Tm5  1  0.806611  0.484503  0.678014  1
  Tm  Tm6  1  0.193443  0.871582  0.678100  1
  Tm  Tm7  1  0.193385  0.515546  0.321938  1
  Tm  Tm8  1  0.606838  0.787627  0.818986  1
  Tm  Tm9  1  0.968472  0.787634  0.180732  1
  Tm  Tm10  1  0.031507  0.212300  0.819212  1
  Tm  Tm11  1  0.393129  0.212311  0.180947  1
  Ni  Ni12  1  0.861276  0.500320  0.361168  1
  Ni  Ni13  1  0.139119  0.500019  0.639243  1
  Ni  Ni14  1  0.001560  0.123397  0.124458  1
  Ni  Ni15  1  0.998523  0.876646  0.875907  1
  Sn  Sn16  1  0.499972  0.999947  0.499944  1
  Ir  Ir17  1  0.499854  0.499873  0.999808  1
