# generated using pymatgen
data_Zn3P6PbN13
_symmetry_space_group_name_H-M   'P 1'
_cell_length_a   7.09480637
_cell_length_b   7.22265587
_cell_length_c   7.09480732
_cell_angle_alpha   109.83666252
_cell_angle_beta   109.10330405
_cell_angle_gamma   109.83668203
_symmetry_Int_Tables_number   1
_chemical_formula_structural   Zn3P6PbN13
_chemical_formula_sum   'Zn3 P6 Pb1 N13'
_cell_volume   278.59772676
_cell_formula_units_Z   1
loop_
 _symmetry_equiv_pos_site_id
 _symmetry_equiv_pos_as_xyz
  1  'x, y, z'
loop_
 _atom_site_type_symbol
 _atom_site_label
 _atom_site_symmetry_multiplicity
 _atom_site_fract_x
 _atom_site_fract_y
 _atom_site_fract_z
 _atom_site_occupancy
  Zn  Zn0  1  0.699389  0.009334  0.000000  1
  Zn  Zn1  1  0.000000  0.009334  0.699389  1
  Zn  Zn2  1  0.300611  0.309944  0.300611  1
  P  P3  1  0.494984  0.238981  0.746530  1
  P  P4  1  0.505016  0.743997  0.251545  1
  P  P5  1  0.748455  0.492452  0.253470  1
  P  P6  1  0.251545  0.743997  0.505016  1
  P  P7  1  0.746530  0.238981  0.494984  1
  P  P8  1  0.253470  0.492452  0.748455  1
  Pb  Pb9  1  0.000000  0.732181  0.000000  1
  N  N10  1  0.000000  0.725949  0.453749  1
  N  N11  1  0.284462  0.546674  0.551045  1
  N  N12  1  0.724452  0.437234  0.000000  1
  N  N13  1  0.275548  0.712783  0.275548  1
  N  N14  1  0.448955  0.995630  0.733418  1
  N  N15  1  0.715538  0.262211  0.266582  1
  N  N16  1  0.546251  0.272199  0.546251  1
  N  N17  1  0.733418  0.995630  0.448955  1
  N  N18  1  0.266582  0.262211  0.715538  1
  N  N19  1  0.453749  0.725949  0.000000  1
  N  N20  1  0.551045  0.546674  0.284462  1
  N  N21  1  0.000000  0.437234  0.724452  1
  N  N22  1  0.000000  0.067968  0.000000  1
