# generated using pymatgen
data_La10RuPb6Br
_symmetry_space_group_name_H-M   'P 1'
_cell_length_a   9.66710500
_cell_length_b   9.66711187
_cell_length_c   7.36185700
_cell_angle_alpha   90.00134176
_cell_angle_beta   89.99932751
_cell_angle_gamma   120.00001731
_symmetry_Int_Tables_number   1
_chemical_formula_structural   La10RuPb6Br
_chemical_formula_sum   'La10 Ru1 Pb6 Br1'
_cell_volume   595.81456182
_cell_formula_units_Z   1
loop_
 _symmetry_equiv_pos_site_id
 _symmetry_equiv_pos_as_xyz
  1  'x, y, z'
loop_
 _atom_site_type_symbol
 _atom_site_label
 _atom_site_symmetry_multiplicity
 _atom_site_fract_x
 _atom_site_fract_y
 _atom_site_fract_z
 _atom_site_occupancy
  La  La0  1  0.758198  0.758217  0.727786  1
  La  La1  1  0.241802  0.000019  0.727786  1
  La  La2  1  0.000000  0.241797  0.727836  1
  La  La3  1  0.241802  0.241783  0.272214  1
  La  La4  1  0.758198  0.999981  0.272214  1
  La  La5  1  0.000000  0.758203  0.272164  1
  La  La6  1  0.666633  0.333316  0.000000  1
  La  La7  1  0.333367  0.666684  0.000000  1
  La  La8  1  0.333319  0.666660  0.500000  1
  La  La9  1  0.666681  0.333340  0.500000  1
  Ru  Ru10  1  0.000000  0.000000  0.500000  1
  Pb  Pb11  1  0.400688  0.400691  0.752642  1
  Pb  Pb12  1  0.599312  0.000002  0.752642  1
  Pb  Pb13  1  0.000000  0.599315  0.752653  1
  Pb  Pb14  1  0.599312  0.599309  0.247358  1
  Pb  Pb15  1  0.400688  0.999998  0.247358  1
  Pb  Pb16  1  0.000000  0.400685  0.247347  1
  Br  Br17  1  0.000000  0.000000  0.000000  1
