# generated using pymatgen
data_ErTm9(Ir2Rh)2
_symmetry_space_group_name_H-M   'P 1'
_cell_length_a   10.71407019
_cell_length_b   10.71269000
_cell_length_c   6.33843600
_cell_angle_alpha   90.00000000
_cell_angle_beta   90.01071682
_cell_angle_gamma   90.00000000
_symmetry_Int_Tables_number   1
_chemical_formula_structural   ErTm9(Ir2Rh)2
_chemical_formula_sum   'Er2 Tm18 Ir8 Rh4'
_cell_volume   727.50356641
_cell_formula_units_Z   2
loop_
 _symmetry_equiv_pos_site_id
 _symmetry_equiv_pos_as_xyz
  1  'x, y, z'
loop_
 _atom_site_type_symbol
 _atom_site_label
 _atom_site_symmetry_multiplicity
 _atom_site_fract_x
 _atom_site_fract_y
 _atom_site_fract_z
 _atom_site_occupancy
  Er  Er0  1  0.290412  0.088567  0.378057  1
  Er  Er1  1  0.290412  0.911433  0.878057  1
  Tm  Tm2  1  0.709444  0.088336  0.878188  1
  Tm  Tm3  1  0.709444  0.911664  0.378188  1
  Tm  Tm4  1  0.588573  0.790541  0.878097  1
  Tm  Tm5  1  0.588573  0.209459  0.378097  1
  Tm  Tm6  1  0.411983  0.790416  0.378198  1
  Tm  Tm7  1  0.411983  0.209584  0.878198  1
  Tm  Tm8  1  0.209332  0.411761  0.621790  1
  Tm  Tm9  1  0.209332  0.588239  0.121790  1
  Tm  Tm10  1  0.790571  0.411791  0.121701  1
  Tm  Tm11  1  0.790571  0.588209  0.621701  1
  Tm  Tm12  1  0.911689  0.709341  0.121612  1
  Tm  Tm13  1  0.911689  0.290659  0.621612  1
  Tm  Tm14  1  0.087933  0.709117  0.621691  1
  Tm  Tm15  1  0.087933  0.290883  0.121691  1
  Tm  Tm16  1  0.999720  0.999923  0.500343  1
  Tm  Tm17  1  0.999720  0.000077  0.000343  1
  Tm  Tm18  1  0.500077  0.500078  0.000162  1
  Tm  Tm19  1  0.500077  0.499922  0.500162  1
  Ir  Ir20  1  0.846016  0.153924  0.250002  1
  Ir  Ir21  1  0.846016  0.846076  0.750002  1
  Ir  Ir22  1  0.153522  0.154363  0.750451  1
  Ir  Ir23  1  0.153522  0.845637  0.250451  1
  Ir  Ir24  1  0.653902  0.346063  0.750028  1
  Ir  Ir25  1  0.653902  0.653937  0.250028  1
  Ir  Ir26  1  0.346106  0.346514  0.249722  1
  Ir  Ir27  1  0.346106  0.653486  0.749722  1
  Rh  Rh28  1  0.500791  0.999889  0.123589  1
  Rh  Rh29  1  0.500791  0.000111  0.623589  1
  Rh  Rh30  1  0.999930  0.499907  0.876370  1
  Rh  Rh31  1  0.999930  0.500093  0.376370  1
