# generated using pymatgen
data_Ac8Er11ScSi15As
_symmetry_space_group_name_H-M   'P 1'
_cell_length_a   7.76175860
_cell_length_b   7.95045629
_cell_length_c   14.95583835
_cell_angle_alpha   89.98655902
_cell_angle_beta   87.63954938
_cell_angle_gamma   90.68280952
_symmetry_Int_Tables_number   1
_chemical_formula_structural   Ac8Er11ScSi15As
_chemical_formula_sum   'Ac8 Er11 Sc1 Si15 As1'
_cell_volume   922.06882146
_cell_formula_units_Z   1
loop_
 _symmetry_equiv_pos_site_id
 _symmetry_equiv_pos_as_xyz
  1  'x, y, z'
loop_
 _atom_site_type_symbol
 _atom_site_label
 _atom_site_symmetry_multiplicity
 _atom_site_fract_x
 _atom_site_fract_y
 _atom_site_fract_z
 _atom_site_occupancy
  Ac  Ac0  1  0.014260  0.173271  0.099853  1
  Ac  Ac1  1  0.987105  0.828018  0.901967  1
  Ac  Ac2  1  0.487269  0.673550  0.902251  1
  Ac  Ac3  1  0.000390  0.823826  0.597746  1
  Ac  Ac4  1  0.511857  0.329712  0.097284  1
  Ac  Ac5  1  0.999156  0.176248  0.399708  1
  Ac  Ac6  1  0.498012  0.319753  0.400551  1
  Ac  Ac7  1  0.504516  0.678777  0.597444  1
  Er  Er8  1  0.169504  0.498248  0.749957  1
  Er  Er9  1  0.831404  0.502550  0.253129  1
  Er  Er10  1  0.329411  0.992129  0.252026  1
  Er  Er11  1  0.671328  0.004408  0.746038  1
  Er  Er12  1  0.348631  0.161205  0.624380  1
  Er  Er13  1  0.652197  0.836051  0.374735  1
  Er  Er14  1  0.151323  0.664024  0.379141  1
  Er  Er15  1  0.671720  0.825594  0.125309  1
  Er  Er16  1  0.844688  0.337283  0.619528  1
  Er  Er17  1  0.328041  0.173678  0.875074  1
  Er  Er18  1  0.830089  0.324818  0.877243  1
  Sc  Sc19  1  0.168699  0.674563  0.126200  1
  Si  Si20  1  0.039108  0.135819  0.750256  1
  Si  Si21  1  0.963955  0.862597  0.247019  1
  Si  Si22  1  0.450078  0.627415  0.246648  1
  Si  Si23  1  0.543809  0.371860  0.751069  1
  Si  Si24  1  0.299706  0.878140  0.752294  1
  Si  Si25  1  0.699767  0.120113  0.246645  1
  Si  Si26  1  0.205658  0.390835  0.246682  1
  Si  Si27  1  0.796887  0.615914  0.751763  1
  Si  Si28  1  0.807054  0.545828  0.451823  1
  Si  Si29  1  0.315395  0.955654  0.454496  1
  Si  Si30  1  0.862658  0.536036  0.042464  1
  Si  Si31  1  0.684628  0.043441  0.545443  1
  Si  Si32  1  0.146164  0.469834  0.963606  1
  Si  Si33  1  0.641771  0.033198  0.960465  1
  Si  Si34  1  0.353685  0.963807  0.041691  1
  As  As35  1  0.190079  0.451806  0.548069  1
