# generated using pymatgen
data_Yb4Ga2As4Rh7
_symmetry_space_group_name_H-M   'P 1'
_cell_length_a   7.23212372
_cell_length_b   7.22594585
_cell_length_c   7.22594538
_cell_angle_alpha   109.81950912
_cell_angle_beta   109.28022882
_cell_angle_gamma   109.28021678
_symmetry_Int_Tables_number   1
_chemical_formula_structural   Yb4Ga2As4Rh7
_chemical_formula_sum   'Yb4 Ga2 As4 Rh7'
_cell_volume   290.80658109
_cell_formula_units_Z   1
loop_
 _symmetry_equiv_pos_site_id
 _symmetry_equiv_pos_as_xyz
  1  'x, y, z'
loop_
 _atom_site_type_symbol
 _atom_site_label
 _atom_site_symmetry_multiplicity
 _atom_site_fract_x
 _atom_site_fract_y
 _atom_site_fract_z
 _atom_site_occupancy
  Yb  Yb0  1  0.489414  0.490351  0.490351  1
  Yb  Yb1  1  0.999099  0.499549  0.999549  1
  Yb  Yb2  1  0.489414  0.999064  0.999064  1
  Yb  Yb3  1  0.999099  0.999549  0.499549  1
  Ga  Ga4  1  0.687006  0.996854  0.690152  1
  Ga  Ga5  1  0.687006  0.690152  0.996854  1
  As  As6  1  0.327507  0.331030  0.996478  1
  As  As7  1  0.992370  0.678746  0.678746  1
  As  As8  1  0.992370  0.313624  0.313624  1
  As  As9  1  0.327507  0.996478  0.331030  1
  Rh  Rh10  1  0.501568  0.750784  0.250784  1
  Rh  Rh11  1  0.748507  0.247471  0.501036  1
  Rh  Rh12  1  0.247125  0.746228  0.500896  1
  Rh  Rh13  1  0.247125  0.500896  0.746228  1
  Rh  Rh14  1  0.014808  0.007404  0.007404  1
  Rh  Rh15  1  0.501568  0.250784  0.750784  1
  Rh  Rh16  1  0.748507  0.501036  0.247471  1
