# generated using pymatgen
data_Np8TiS17
_symmetry_space_group_name_H-M   'P 1'
_cell_length_a   7.79639397
_cell_length_b   7.79639318
_cell_length_c   10.35992817
_cell_angle_alpha   80.87515692
_cell_angle_beta   80.87515920
_cell_angle_gamma   65.53552254
_symmetry_Int_Tables_number   1
_chemical_formula_structural   Np8TiS17
_chemical_formula_sum   'Np8 Ti1 S17'
_cell_volume   562.89235649
_cell_formula_units_Z   1
loop_
 _symmetry_equiv_pos_site_id
 _symmetry_equiv_pos_as_xyz
  1  'x, y, z'
loop_
 _atom_site_type_symbol
 _atom_site_label
 _atom_site_symmetry_multiplicity
 _atom_site_fract_x
 _atom_site_fract_y
 _atom_site_fract_z
 _atom_site_occupancy
  Np  Np0  1  0.816261  0.300423  0.298953  1
  Np  Np1  1  0.300423  0.816261  0.298953  1
  Np  Np2  1  0.183739  0.699577  0.701047  1
  Np  Np3  1  0.699577  0.183739  0.701047  1
  Np  Np4  1  0.206760  0.206760  0.542625  1
  Np  Np5  1  0.793240  0.793240  0.457375  1
  Np  Np6  1  0.682010  0.682010  0.980322  1
  Np  Np7  1  0.317990  0.317990  0.019678  1
  Ti  Ti8  1  0.000000  0.000000  0.000000  1
  S  S9  1  0.824349  0.430231  0.534665  1
  S  S10  1  0.430231  0.824349  0.534665  1
  S  S11  1  0.175651  0.569769  0.465335  1
  S  S12  1  0.569769  0.175651  0.465335  1
  S  S13  1  0.939500  0.323988  0.029745  1
  S  S14  1  0.323988  0.939500  0.029745  1
  S  S15  1  0.060500  0.676012  0.970255  1
  S  S16  1  0.676012  0.060500  0.970255  1
  S  S17  1  0.209591  0.209591  0.279276  1
  S  S18  1  0.790409  0.790409  0.720724  1
  S  S19  1  0.061216  0.061216  0.770609  1
  S  S20  1  0.938784  0.938784  0.229391  1
  S  S21  1  0.303129  0.303129  0.754452  1
  S  S22  1  0.696871  0.696871  0.245548  1
  S  S23  1  0.520968  0.520968  0.830822  1
  S  S24  1  0.479032  0.479032  0.169178  1
  S  S25  1  0.000000  0.000000  0.500000  1
