# generated using pymatgen
data_Y3Tm3Co16(TcP6)2
_symmetry_space_group_name_H-M   'P 1'
_cell_length_a   3.69330600
_cell_length_b   10.48873400
_cell_length_c   12.17822400
_cell_angle_alpha   89.99922636
_cell_angle_beta   90.00000000
_cell_angle_gamma   90.00000000
_symmetry_Int_Tables_number   1
_chemical_formula_structural   Y3Tm3Co16(TcP6)2
_chemical_formula_sum   'Y3 Tm3 Co16 Tc2 P12'
_cell_volume   471.76131044
_cell_formula_units_Z   1
loop_
 _symmetry_equiv_pos_site_id
 _symmetry_equiv_pos_as_xyz
  1  'x, y, z'
loop_
 _atom_site_type_symbol
 _atom_site_label
 _atom_site_symmetry_multiplicity
 _atom_site_fract_x
 _atom_site_fract_y
 _atom_site_fract_z
 _atom_site_occupancy
  Y  Y0  1  0.000000  0.500243  0.524141  1
  Y  Y1  1  0.500000  0.999814  0.475650  1
  Y  Y2  1  0.000000  0.317986  0.794231  1
  Tm  Tm3  1  0.500000  0.818287  0.205994  1
  Tm  Tm4  1  0.500000  0.181741  0.205781  1
  Tm  Tm5  1  0.000000  0.682092  0.794087  1
  Co  Co6  1  0.500000  0.501195  0.703160  1
  Co  Co7  1  0.000000  0.999897  0.296402  1
  Co  Co8  1  0.000000  0.500503  0.987310  1
  Co  Co9  1  0.500000  0.999517  0.013505  1
  Co  Co10  1  0.500000  0.332137  0.990463  1
  Co  Co11  1  0.500000  0.668252  0.989857  1
  Co  Co12  1  0.000000  0.167476  0.010943  1
  Co  Co13  1  0.000000  0.832131  0.010545  1
  Co  Co14  1  0.500000  0.296511  0.430370  1
  Co  Co15  1  0.500000  0.703571  0.430750  1
  Co  Co16  1  0.000000  0.203195  0.568407  1
  Co  Co17  1  0.000000  0.796624  0.569119  1
  Co  Co18  1  0.500000  0.878165  0.708349  1
  Co  Co19  1  0.500000  0.120537  0.707707  1
  Co  Co20  1  0.000000  0.621692  0.291701  1
  Co  Co21  1  0.000000  0.378386  0.291546  1
  Tc  Tc22  1  0.500000  0.500249  0.156292  1
  Tc  Tc23  1  0.000000  0.999633  0.843872  1
  P  P24  1  0.500000  0.500989  0.880842  1
  P  P25  1  0.000000  0.999821  0.119809  1
  P  P26  1  0.500000  0.500014  0.348487  1
  P  P27  1  0.000000  0.000042  0.651398  1
  P  P28  1  0.500000  0.311831  0.615888  1
  P  P29  1  0.500000  0.688494  0.616998  1
  P  P30  1  0.000000  0.187953  0.382563  1
  P  P31  1  0.000000  0.811861  0.382839  1
  P  P32  1  0.500000  0.845508  0.892295  1
  P  P33  1  0.500000  0.153497  0.893107  1
  P  P34  1  0.000000  0.654730  0.107941  1
  P  P35  1  0.000000  0.345424  0.107651  1
