# generated using pymatgen
data_Sm8Er12SnPb15
_symmetry_space_group_name_H-M   'P 1'
_cell_length_a   8.19069674
_cell_length_b   8.32181177
_cell_length_c   15.64285200
_cell_angle_alpha   90.00000000
_cell_angle_beta   90.00000000
_cell_angle_gamma   89.92529429
_symmetry_Int_Tables_number   1
_chemical_formula_structural   Sm8Er12SnPb15
_chemical_formula_sum   'Sm8 Er12 Sn1 Pb15'
_cell_volume   1066.23835738
_cell_formula_units_Z   1
loop_
 _symmetry_equiv_pos_site_id
 _symmetry_equiv_pos_as_xyz
  1  'x, y, z'
loop_
 _atom_site_type_symbol
 _atom_site_label
 _atom_site_symmetry_multiplicity
 _atom_site_fract_x
 _atom_site_fract_y
 _atom_site_fract_z
 _atom_site_occupancy
  Sm  Sm0  1  0.520582  0.321825  0.903013  1
  Sm  Sm1  1  0.020499  0.178396  0.596882  1
  Sm  Sm2  1  0.477775  0.678260  0.402227  1
  Sm  Sm3  1  0.981087  0.820170  0.098591  1
  Sm  Sm4  1  0.477775  0.678260  0.097773  1
  Sm  Sm5  1  0.981087  0.820170  0.401409  1
  Sm  Sm6  1  0.520582  0.321825  0.596987  1
  Sm  Sm7  1  0.020499  0.178396  0.903118  1
  Er  Er8  1  0.364682  0.838185  0.877538  1
  Er  Er9  1  0.864539  0.661880  0.622400  1
  Er  Er10  1  0.635222  0.162054  0.377343  1
  Er  Er11  1  0.135291  0.339640  0.122958  1
  Er  Er12  1  0.635222  0.162054  0.122657  1
  Er  Er13  1  0.135291  0.339640  0.377042  1
  Er  Er14  1  0.364682  0.838185  0.622462  1
  Er  Er15  1  0.864539  0.661880  0.877600  1
  Er  Er16  1  0.196540  0.503968  0.750000  1
  Er  Er17  1  0.696519  0.995930  0.750000  1
  Er  Er18  1  0.805536  0.497135  0.250000  1
  Er  Er19  1  0.301874  0.001197  0.250000  1
  Sn  Sn20  1  0.169584  0.647531  0.250000  1
  Pb  Pb21  1  0.295249  0.039175  0.042024  1
  Pb  Pb22  1  0.795222  0.461296  0.458055  1
  Pb  Pb23  1  0.704672  0.961263  0.541880  1
  Pb  Pb24  1  0.204694  0.538826  0.958048  1
  Pb  Pb25  1  0.704672  0.961263  0.958120  1
  Pb  Pb26  1  0.204694  0.538826  0.541952  1
  Pb  Pb27  1  0.295249  0.039175  0.457976  1
  Pb  Pb28  1  0.795222  0.461296  0.041945  1
  Pb  Pb29  1  0.560232  0.625630  0.750000  1
  Pb  Pb30  1  0.060226  0.874352  0.750000  1
  Pb  Pb31  1  0.438750  0.376357  0.250000  1
  Pb  Pb32  1  0.939720  0.125755  0.250000  1
  Pb  Pb33  1  0.332178  0.150079  0.750000  1
  Pb  Pb34  1  0.832260  0.349880  0.750000  1
  Pb  Pb35  1  0.667553  0.850243  0.250000  1
