# generated using pymatgen
data_Ca2Si4RuRh
_symmetry_space_group_name_H-M   'P 1'
_cell_length_a   4.54700854
_cell_length_b   3.96376700
_cell_length_c   8.31421737
_cell_angle_alpha   90.00000000
_cell_angle_beta   101.65349683
_cell_angle_gamma   90.00000000
_symmetry_Int_Tables_number   1
_chemical_formula_structural   Ca2Si4RuRh
_chemical_formula_sum   'Ca2 Si4 Ru1 Rh1'
_cell_volume   146.76065181
_cell_formula_units_Z   1
loop_
 _symmetry_equiv_pos_site_id
 _symmetry_equiv_pos_as_xyz
  1  'x, y, z'
loop_
 _atom_site_type_symbol
 _atom_site_label
 _atom_site_symmetry_multiplicity
 _atom_site_fract_x
 _atom_site_fract_y
 _atom_site_fract_z
 _atom_site_occupancy
  Ca  Ca0  1  0.924374  0.250000  0.301849  1
  Ca  Ca1  1  0.075105  0.750000  0.696810  1
  Si  Si2  1  0.832126  0.750000  0.011483  1
  Si  Si3  1  0.473636  0.750000  0.413557  1
  Si  Si4  1  0.529361  0.250000  0.590576  1
  Si  Si5  1  0.163751  0.250000  0.982783  1
  Ru  Ru6  1  0.622162  0.250000  0.886508  1
  Rh  Rh7  1  0.379483  0.750000  0.116432  1
