# generated using pymatgen
data_Rb3Eu(PO4)2
_symmetry_space_group_name_H-M   'P 1'
_cell_length_a   5.87614000
_cell_length_b   5.87614005
_cell_length_c   8.11083100
_cell_angle_alpha   90.00000000
_cell_angle_beta   90.00000000
_cell_angle_gamma   120.00001096
_symmetry_Int_Tables_number   1
_chemical_formula_structural   Rb3Eu(PO4)2
_chemical_formula_sum   'Rb3 Eu1 P2 O8'
_cell_volume   242.53823276
_cell_formula_units_Z   1
loop_
 _symmetry_equiv_pos_site_id
 _symmetry_equiv_pos_as_xyz
  1  'x, y, z'
loop_
 _atom_site_type_symbol
 _atom_site_label
 _atom_site_symmetry_multiplicity
 _atom_site_fract_x
 _atom_site_fract_y
 _atom_site_fract_z
 _atom_site_occupancy
  Rb  Rb0  1  0.333333  0.666667  0.737830  1
  Rb  Rb1  1  0.666667  0.333333  0.262170  1
  Rb  Rb2  1  0.000000  0.000000  0.000000  1
  Eu  Eu3  1  0.000000  0.000000  0.500000  1
  P  P4  1  0.333333  0.666667  0.266706  1
  P  P5  1  0.666667  0.333333  0.733294  1
  O  O6  1  0.333333  0.666667  0.078108  1
  O  O7  1  0.666667  0.333333  0.921892  1
  O  O8  1  0.188429  0.811571  0.332768  1
  O  O9  1  0.811571  0.188429  0.667232  1
  O  O10  1  0.188429  0.376858  0.332768  1
  O  O11  1  0.811571  0.623142  0.667232  1
  O  O12  1  0.623142  0.811571  0.332768  1
  O  O13  1  0.376858  0.188429  0.667232  1
