# generated using pymatgen
data_Er5Tm2Sn23Ir6
_symmetry_space_group_name_H-M   'P 1'
_cell_length_a   9.83538403
_cell_length_b   9.83538423
_cell_length_c   10.10212300
_cell_angle_alpha   89.99753560
_cell_angle_beta   90.00246580
_cell_angle_gamma   120.00793521
_symmetry_Int_Tables_number   1
_chemical_formula_structural   Er5Tm2Sn23Ir6
_chemical_formula_sum   'Er5 Tm2 Sn23 Ir6'
_cell_volume   846.23542926
_cell_formula_units_Z   1
loop_
 _symmetry_equiv_pos_site_id
 _symmetry_equiv_pos_as_xyz
  1  'x, y, z'
loop_
 _atom_site_type_symbol
 _atom_site_label
 _atom_site_symmetry_multiplicity
 _atom_site_fract_x
 _atom_site_fract_y
 _atom_site_fract_z
 _atom_site_occupancy
  Er  Er0  1  0.480804  0.961592  0.306830  1
  Er  Er1  1  0.519196  0.038408  0.693170  1
  Er  Er2  1  0.038408  0.519196  0.306830  1
  Er  Er3  1  0.961592  0.480804  0.693170  1
  Er  Er4  1  0.000000  0.000000  0.000000  1
  Tm  Tm5  1  0.480862  0.519138  0.306845  1
  Tm  Tm6  1  0.519138  0.480862  0.693155  1
  Sn  Sn7  1  0.119648  0.880352  0.284111  1
  Sn  Sn8  1  0.880352  0.119648  0.715889  1
  Sn  Sn9  1  0.119732  0.239359  0.284116  1
  Sn  Sn10  1  0.880268  0.760641  0.715884  1
  Sn  Sn11  1  0.760641  0.880268  0.284116  1
  Sn  Sn12  1  0.239359  0.119732  0.715884  1
  Sn  Sn13  1  0.777201  0.222799  0.456928  1
  Sn  Sn14  1  0.222799  0.777201  0.543072  1
  Sn  Sn15  1  0.777079  0.554387  0.456929  1
  Sn  Sn16  1  0.222921  0.445613  0.543071  1
  Sn  Sn17  1  0.445613  0.222921  0.456929  1
  Sn  Sn18  1  0.554387  0.777079  0.543071  1
  Sn  Sn19  1  0.352477  0.000015  0.999994  1
  Sn  Sn20  1  0.647523  0.999985  0.000006  1
  Sn  Sn21  1  0.000015  0.352477  0.000006  1
  Sn  Sn22  1  0.999985  0.647523  0.999994  1
  Sn  Sn23  1  0.647493  0.647493  0.000000  1
  Sn  Sn24  1  0.352507  0.352507  0.000000  1
  Sn  Sn25  1  0.333393  0.666607  0.125039  1
  Sn  Sn26  1  0.666607  0.333393  0.874961  1
  Sn  Sn27  1  0.333348  0.666652  0.826440  1
  Sn  Sn28  1  0.666652  0.333348  0.173560  1
  Sn  Sn29  1  0.000000  0.000000  0.500000  1
  Ir  Ir30  1  0.831046  0.168954  0.198566  1
  Ir  Ir31  1  0.168954  0.831046  0.801434  1
  Ir  Ir32  1  0.830918  0.662050  0.198619  1
  Ir  Ir33  1  0.169082  0.337950  0.801381  1
  Ir  Ir34  1  0.337950  0.169082  0.198619  1
  Ir  Ir35  1  0.662050  0.830918  0.801381  1
