# generated using pymatgen
data_Tb3Dy5(ZnI6)2
_symmetry_space_group_name_H-M   'P 1'
_cell_length_a   4.17764500
_cell_length_b   14.17942903
_cell_length_c   14.93437703
_cell_angle_alpha   90.00694244
_cell_angle_beta   90.00000000
_cell_angle_gamma   90.00000000
_symmetry_Int_Tables_number   1
_chemical_formula_structural   Tb3Dy5(ZnI6)2
_chemical_formula_sum   'Tb3 Dy5 Zn2 I12'
_cell_volume   884.66202197
_cell_formula_units_Z   1
loop_
 _symmetry_equiv_pos_site_id
 _symmetry_equiv_pos_as_xyz
  1  'x, y, z'
loop_
 _atom_site_type_symbol
 _atom_site_label
 _atom_site_symmetry_multiplicity
 _atom_site_fract_x
 _atom_site_fract_y
 _atom_site_fract_z
 _atom_site_occupancy
  Tb  Tb0  1  0.500000  0.885998  0.652629  1
  Tb  Tb1  1  0.500000  0.614157  0.152834  1
  Tb  Tb2  1  0.500000  0.385848  0.847179  1
  Dy  Dy3  1  0.500000  0.113873  0.347536  1
  Dy  Dy4  1  0.000000  0.113552  0.576728  1
  Dy  Dy5  1  0.000000  0.886514  0.423168  1
  Dy  Dy6  1  0.000000  0.613640  0.923128  1
  Dy  Dy7  1  0.000000  0.386333  0.076890  1
  Zn  Zn8  1  0.500000  0.000212  0.499735  1
  Zn  Zn9  1  0.500000  0.499973  0.000007  1
  I  I10  1  0.500000  0.245675  0.163450  1
  I  I11  1  0.500000  0.753995  0.837043  1
  I  I12  1  0.500000  0.746116  0.337085  1
  I  I13  1  0.500000  0.253928  0.662832  1
  I  I14  1  0.000000  0.259561  0.414024  1
  I  I15  1  0.000000  0.739614  0.585215  1
  I  I16  1  0.000000  0.760549  0.085265  1
  I  I17  1  0.000000  0.239475  0.914779  1
  I  I18  1  0.000000  0.999276  0.238670  1
  I  I19  1  0.000000  0.001727  0.761792  1
  I  I20  1  0.000000  0.498243  0.261922  1
  I  I21  1  0.000000  0.501742  0.738088  1
