# generated using pymatgen
data_TaTi2ZnPd12
_symmetry_space_group_name_H-M   'P 1'
_cell_length_a   5.58479800
_cell_length_b   5.58479805
_cell_length_c   9.05191400
_cell_angle_alpha   90.00000000
_cell_angle_beta   90.00000000
_cell_angle_gamma   119.99999971
_symmetry_Int_Tables_number   1
_chemical_formula_structural   TaTi2ZnPd12
_chemical_formula_sum   'Ta1 Ti2 Zn1 Pd12'
_cell_volume   244.50401492
_cell_formula_units_Z   1
loop_
 _symmetry_equiv_pos_site_id
 _symmetry_equiv_pos_as_xyz
  1  'x, y, z'
loop_
 _atom_site_type_symbol
 _atom_site_label
 _atom_site_symmetry_multiplicity
 _atom_site_fract_x
 _atom_site_fract_y
 _atom_site_fract_z
 _atom_site_occupancy
  Ta  Ta0  1  0.000000  0.000000  0.498831  1
  Ti  Ti1  1  0.000000  0.000000  0.000189  1
  Ti  Ti2  1  0.666667  0.333333  0.753065  1
  Zn  Zn3  1  0.333333  0.666667  0.248732  1
  Pd  Pd4  1  0.501295  0.498705  0.502227  1
  Pd  Pd5  1  0.501295  0.002588  0.502227  1
  Pd  Pd6  1  0.997412  0.498705  0.502227  1
  Pd  Pd7  1  0.501484  0.498516  0.997475  1
  Pd  Pd8  1  0.501484  0.002969  0.997475  1
  Pd  Pd9  1  0.997031  0.498516  0.997475  1
  Pd  Pd10  1  0.833733  0.667468  0.250146  1
  Pd  Pd11  1  0.332532  0.166267  0.250146  1
  Pd  Pd12  1  0.833733  0.166267  0.250146  1
  Pd  Pd13  1  0.166254  0.332508  0.749880  1
  Pd  Pd14  1  0.667492  0.833746  0.749880  1
  Pd  Pd15  1  0.166254  0.833746  0.749880  1
