# generated using pymatgen
data_Li5Mn2P12Ir17
_symmetry_space_group_name_H-M   'P 1'
_cell_length_a   12.58182800
_cell_length_b   12.49183495
_cell_length_c   3.91508400
_cell_angle_alpha   90.00000000
_cell_angle_beta   90.00000000
_cell_angle_gamma   120.23860418
_symmetry_Int_Tables_number   1
_chemical_formula_structural   Li5Mn2P12Ir17
_chemical_formula_sum   'Li5 Mn2 P12 Ir17'
_cell_volume   531.60918919
_cell_formula_units_Z   1
loop_
 _symmetry_equiv_pos_site_id
 _symmetry_equiv_pos_as_xyz
  1  'x, y, z'
loop_
 _atom_site_type_symbol
 _atom_site_label
 _atom_site_symmetry_multiplicity
 _atom_site_fract_x
 _atom_site_fract_y
 _atom_site_fract_z
 _atom_site_occupancy
  Li  Li0  1  0.330885  0.662446  0.500000  1
  Li  Li1  1  0.668439  0.337554  0.500000  1
  Li  Li2  1  0.002963  0.833190  0.000000  1
  Li  Li3  1  0.169773  0.166810  0.000000  1
  Li  Li4  1  0.834456  0.000000  0.000000  1
  Mn  Mn5  1  0.000143  0.458683  0.500000  1
  Mn  Mn6  1  0.541460  0.541317  0.500000  1
  P  P7  1  0.998833  0.636829  0.500000  1
  P  P8  1  0.362003  0.363171  0.500000  1
  P  P9  1  0.638216  0.000000  0.500000  1
  P  P10  1  0.513156  0.684210  0.000000  1
  P  P11  1  0.311049  0.823939  0.000000  1
  P  P12  1  0.172833  0.482325  0.000000  1
  P  P13  1  0.487110  0.176061  0.000000  1
  P  P14  1  0.690508  0.517675  0.000000  1
  P  P15  1  0.828945  0.315790  0.000000  1
  P  P16  1  0.995732  0.176295  0.500000  1
  P  P17  1  0.819437  0.823705  0.500000  1
  P  P18  1  0.178724  0.000000  0.500000  1
  Ir  Ir19  1  0.508044  0.867849  0.000000  1
  Ir  Ir20  1  0.132112  0.636136  0.000000  1
  Ir  Ir21  1  0.359920  0.486013  0.000000  1
  Ir  Ir22  1  0.495977  0.363864  0.000000  1
  Ir  Ir23  1  0.873909  0.513987  0.000000  1
  Ir  Ir24  1  0.640196  0.132151  0.000000  1
  Ir  Ir25  1  0.456222  0.000000  0.500000  1
  Ir  Ir26  1  0.997346  0.281614  0.000000  1
  Ir  Ir27  1  0.715732  0.718386  0.000000  1
  Ir  Ir28  1  0.289834  0.000000  0.000000  1
  Ir  Ir29  1  0.619608  0.802922  0.500000  1
  Ir  Ir30  1  0.192345  0.816706  0.500000  1
  Ir  Ir31  1  0.178593  0.375570  0.500000  1
  Ir  Ir32  1  0.375639  0.183294  0.500000  1
  Ir  Ir33  1  0.803023  0.624430  0.500000  1
  Ir  Ir34  1  0.816686  0.197078  0.500000  1
  Ir  Ir35  1  0.000146  0.000000  0.500000  1
