# generated using pymatgen
data_Ca3In(Rh2O7)2
_symmetry_space_group_name_H-M   'P 1'
_cell_length_a   7.26595285
_cell_length_b   7.20057327
_cell_length_c   7.26595300
_cell_angle_alpha   59.69919013
_cell_angle_beta   60.00000388
_cell_angle_gamma   59.69918882
_symmetry_Int_Tables_number   1
_chemical_formula_structural   Ca3In(Rh2O7)2
_chemical_formula_sum   'Ca3 In1 Rh4 O14'
_cell_volume   267.57626292
_cell_formula_units_Z   1
loop_
 _symmetry_equiv_pos_site_id
 _symmetry_equiv_pos_as_xyz
  1  'x, y, z'
loop_
 _atom_site_type_symbol
 _atom_site_label
 _atom_site_symmetry_multiplicity
 _atom_site_fract_x
 _atom_site_fract_y
 _atom_site_fract_z
 _atom_site_occupancy
  Ca  Ca0  1  0.125000  0.125000  0.125000  1
  Ca  Ca1  1  0.625000  0.125000  0.125000  1
  Ca  Ca2  1  0.125000  0.125000  0.625000  1
  In  In3  1  0.125000  0.625000  0.125000  1
  Rh  Rh4  1  0.625000  0.625000  0.625000  1
  Rh  Rh5  1  0.625000  0.625000  0.125000  1
  Rh  Rh6  1  0.125000  0.625000  0.625000  1
  Rh  Rh7  1  0.625000  0.125000  0.625000  1
  O  O8  1  0.240584  0.278249  0.240584  1
  O  O9  1  0.299715  0.692580  0.299715  1
  O  O10  1  0.953856  0.953284  0.546430  1
  O  O11  1  0.546430  0.953284  0.546430  1
  O  O12  1  0.707990  0.692580  0.299715  1
  O  O13  1  0.950285  0.557420  0.542010  1
  O  O14  1  0.703570  0.296716  0.703570  1
  O  O15  1  0.296144  0.296716  0.703570  1
  O  O16  1  0.703570  0.296716  0.296144  1
  O  O17  1  0.299715  0.692580  0.707990  1
  O  O18  1  0.950285  0.557420  0.950285  1
  O  O19  1  0.542010  0.557420  0.950285  1
  O  O20  1  0.009416  0.971751  0.009416  1
  O  O21  1  0.546430  0.953284  0.953856  1
