# generated using pymatgen
data_Dy12TlNi5
_symmetry_space_group_name_H-M   'P 1'
_cell_length_a   8.31709727
_cell_length_b   8.31709650
_cell_length_c   8.31709600
_cell_angle_alpha   107.02632640
_cell_angle_beta   109.73967100
_cell_angle_gamma   111.68120119
_symmetry_Int_Tables_number   1
_chemical_formula_structural   Dy12TlNi5
_chemical_formula_sum   'Dy12 Tl1 Ni5'
_cell_volume   442.15289136
_cell_formula_units_Z   1
loop_
 _symmetry_equiv_pos_site_id
 _symmetry_equiv_pos_as_xyz
  1  'x, y, z'
loop_
 _atom_site_type_symbol
 _atom_site_label
 _atom_site_symmetry_multiplicity
 _atom_site_fract_x
 _atom_site_fract_y
 _atom_site_fract_z
 _atom_site_occupancy
  Dy  Dy0  1  0.477372  0.295415  0.181949  1
  Dy  Dy1  1  0.113466  0.295415  0.818043  1
  Dy  Dy2  1  0.886534  0.704585  0.181957  1
  Dy  Dy3  1  0.522628  0.704585  0.818051  1
  Dy  Dy4  1  0.305565  0.626955  0.321392  1
  Dy  Dy5  1  0.305575  0.984192  0.678616  1
  Dy  Dy6  1  0.694435  0.373045  0.678608  1
  Dy  Dy7  1  0.694425  0.015808  0.321384  1
  Dy  Dy8  1  0.190610  0.210725  0.401338  1
  Dy  Dy9  1  0.809390  0.789275  0.598662  1
  Dy  Dy10  1  0.190613  0.789275  0.979884  1
  Dy  Dy11  1  0.809387  0.210725  0.020116  1
  Tl  Tl12  1  0.000000  0.500000  0.500000  1
  Ni  Ni13  1  0.500007  0.624692  0.124685  1
  Ni  Ni14  1  0.499993  0.375308  0.875315  1
  Ni  Ni15  1  0.366008  0.000000  0.366008  1
  Ni  Ni16  1  0.633992  0.000000  0.633992  1
  Ni  Ni17  1  0.000000  0.000000  0.000000  1
