# generated using pymatgen
data_PrNd5RhBr10
_symmetry_space_group_name_H-M   'P 1'
_cell_length_a   7.66953690
_cell_length_b   9.51057171
_cell_length_c   9.65913180
_cell_angle_alpha   108.66836469
_cell_angle_beta   96.90277165
_cell_angle_gamma   106.33408795
_symmetry_Int_Tables_number   1
_chemical_formula_structural   PrNd5RhBr10
_chemical_formula_sum   'Pr1 Nd5 Rh1 Br10'
_cell_volume   623.18724680
_cell_formula_units_Z   1
loop_
 _symmetry_equiv_pos_site_id
 _symmetry_equiv_pos_as_xyz
  1  'x, y, z'
loop_
 _atom_site_type_symbol
 _atom_site_label
 _atom_site_symmetry_multiplicity
 _atom_site_fract_x
 _atom_site_fract_y
 _atom_site_fract_z
 _atom_site_occupancy
  Pr  Pr0  1  0.970730  0.297319  0.093693  1
  Nd  Nd1  1  0.131245  0.051493  0.753148  1
  Nd  Nd2  1  0.631377  0.855925  0.812688  1
  Nd  Nd3  1  0.868101  0.948600  0.246636  1
  Nd  Nd4  1  0.029703  0.704974  0.906940  1
  Nd  Nd5  1  0.368397  0.143124  0.187125  1
  Rh  Rh6  1  0.999894  0.999805  0.999894  1
  Br  Br7  1  0.204484  0.743782  0.652200  1
  Br  Br8  1  0.645356  0.539172  0.726941  1
  Br  Br9  1  0.247090  0.081082  0.451795  1
  Br  Br10  1  0.793765  0.255188  0.349162  1
  Br  Br11  1  0.548844  0.173518  0.919480  1
  Br  Br12  1  0.752357  0.918186  0.548023  1
  Br  Br13  1  0.909329  0.629740  0.167746  1
  Br  Br14  1  0.358660  0.461165  0.274376  1
  Br  Br15  1  0.091452  0.371992  0.830624  1
  Br  Br16  1  0.449215  0.824939  0.079526  1
