# generated using pymatgen
data_YbDy(MnAl5)4
_symmetry_space_group_name_H-M   'P 1'
_cell_length_a   6.82211797
_cell_length_b   6.82211653
_cell_length_c   9.02873600
_cell_angle_alpha   90.00000000
_cell_angle_beta   90.00000000
_cell_angle_gamma   97.40959582
_symmetry_Int_Tables_number   1
_chemical_formula_structural   YbDy(MnAl5)4
_chemical_formula_sum   'Yb1 Dy1 Mn4 Al20'
_cell_volume   416.70004196
_cell_formula_units_Z   1
loop_
 _symmetry_equiv_pos_site_id
 _symmetry_equiv_pos_as_xyz
  1  'x, y, z'
loop_
 _atom_site_type_symbol
 _atom_site_label
 _atom_site_symmetry_multiplicity
 _atom_site_fract_x
 _atom_site_fract_y
 _atom_site_fract_z
 _atom_site_occupancy
  Yb  Yb0  1  0.875606  0.124394  0.750000  1
  Dy  Dy1  1  0.124751  0.875249  0.250000  1
  Mn  Mn2  1  0.000226  0.501200  0.498799  1
  Mn  Mn3  1  0.000226  0.501200  0.001201  1
  Mn  Mn4  1  0.498800  0.999774  0.001201  1
  Mn  Mn5  1  0.498800  0.999774  0.498799  1
  Al  Al6  1  0.625842  0.374158  0.542776  1
  Al  Al7  1  0.374507  0.625493  0.452453  1
  Al  Al8  1  0.374507  0.625493  0.047547  1
  Al  Al9  1  0.625842  0.374158  0.957224  1
  Al  Al10  1  0.228189  0.228937  0.499732  1
  Al  Al11  1  0.771063  0.771811  0.499732  1
  Al  Al12  1  0.771063  0.771811  0.000268  1
  Al  Al13  1  0.228189  0.228937  0.000268  1
  Al  Al14  1  0.844360  0.155640  0.095612  1
  Al  Al15  1  0.158202  0.841798  0.904149  1
  Al  Al16  1  0.158202  0.841798  0.595851  1
  Al  Al17  1  0.844360  0.155640  0.404388  1
  Al  Al18  1  0.867643  0.588963  0.750000  1
  Al  Al19  1  0.131251  0.412166  0.250000  1
  Al  Al20  1  0.411037  0.132357  0.750000  1
  Al  Al21  1  0.587834  0.868749  0.250000  1
  Al  Al22  1  0.218527  0.474734  0.750000  1
  Al  Al23  1  0.780446  0.524741  0.250000  1
  Al  Al24  1  0.525266  0.781473  0.750000  1
  Al  Al25  1  0.475259  0.219554  0.250000  1
