# generated using pymatgen
data_PaGaCo4
_symmetry_space_group_name_H-M   'P 1'
_cell_length_a   8.35470700
_cell_length_b   8.35470768
_cell_length_c   4.11257000
_cell_angle_alpha   90.00000000
_cell_angle_beta   90.00000000
_cell_angle_gamma   120.00000127
_symmetry_Int_Tables_number   1
_chemical_formula_structural   PaGaCo4
_chemical_formula_sum   'Pa3 Ga3 Co12'
_cell_volume   248.60302692
_cell_formula_units_Z   3
loop_
 _symmetry_equiv_pos_site_id
 _symmetry_equiv_pos_as_xyz
  1  'x, y, z'
loop_
 _atom_site_type_symbol
 _atom_site_label
 _atom_site_symmetry_multiplicity
 _atom_site_fract_x
 _atom_site_fract_y
 _atom_site_fract_z
 _atom_site_occupancy
  Pa  Pa0  1  0.333333  0.666667  0.000000  1
  Pa  Pa1  1  0.666667  0.333333  0.000000  1
  Pa  Pa2  1  0.000000  0.000000  0.000000  1
  Ga  Ga3  1  0.500000  0.000000  0.500000  1
  Ga  Ga4  1  0.000000  0.500000  0.500000  1
  Ga  Ga5  1  0.500000  0.500000  0.500000  1
  Co  Co6  1  0.326832  0.000000  0.000000  1
  Co  Co7  1  0.673168  0.000000  0.000000  1
  Co  Co8  1  0.000000  0.326832  0.000000  1
  Co  Co9  1  0.000000  0.673168  0.000000  1
  Co  Co10  1  0.673168  0.673168  0.000000  1
  Co  Co11  1  0.326832  0.326832  0.000000  1
  Co  Co12  1  0.162585  0.325171  0.500000  1
  Co  Co13  1  0.837415  0.674829  0.500000  1
  Co  Co14  1  0.674829  0.837415  0.500000  1
  Co  Co15  1  0.325171  0.162585  0.500000  1
  Co  Co16  1  0.162585  0.837415  0.500000  1
  Co  Co17  1  0.837415  0.162585  0.500000  1
