# generated using pymatgen
data_SmVCo2P3Rh2
_symmetry_space_group_name_H-M   'P 1'
_cell_length_a   3.77026700
_cell_length_b   10.70531800
_cell_length_c   12.31441300
_cell_angle_alpha   90.00000000
_cell_angle_beta   90.00000000
_cell_angle_gamma   90.00000000
_symmetry_Int_Tables_number   1
_chemical_formula_structural   SmVCo2P3Rh2
_chemical_formula_sum   'Sm4 V4 Co8 P12 Rh8'
_cell_volume   497.03319448
_cell_formula_units_Z   4
loop_
 _symmetry_equiv_pos_site_id
 _symmetry_equiv_pos_as_xyz
  1  'x, y, z'
loop_
 _atom_site_type_symbol
 _atom_site_label
 _atom_site_symmetry_multiplicity
 _atom_site_fract_x
 _atom_site_fract_y
 _atom_site_fract_z
 _atom_site_occupancy
  Sm  Sm0  1  0.250000  0.580544  0.708070  1
  Sm  Sm1  1  0.250000  0.919456  0.208070  1
  Sm  Sm2  1  0.750000  0.419456  0.291930  1
  Sm  Sm3  1  0.750000  0.080544  0.791930  1
  V  V4  1  0.250000  0.702096  0.987875  1
  V  V5  1  0.250000  0.797904  0.487875  1
  V  V6  1  0.750000  0.297904  0.012125  1
  V  V7  1  0.750000  0.202096  0.512125  1
  Co  Co8  1  0.250000  0.885706  0.691970  1
  Co  Co9  1  0.250000  0.614294  0.191970  1
  Co  Co10  1  0.750000  0.114294  0.308030  1
  Co  Co11  1  0.750000  0.385706  0.808030  1
  Co  Co12  1  0.250000  0.466125  0.936088  1
  Co  Co13  1  0.250000  0.033875  0.436088  1
  Co  Co14  1  0.750000  0.533875  0.063912  1
  Co  Co15  1  0.750000  0.966125  0.563912  1
  P  P16  1  0.250000  0.426747  0.110476  1
  P  P17  1  0.250000  0.073253  0.610476  1
  P  P18  1  0.750000  0.573253  0.889524  1
  P  P19  1  0.750000  0.926747  0.389524  1
  P  P20  1  0.250000  0.274993  0.871681  1
  P  P21  1  0.250000  0.225007  0.371681  1
  P  P22  1  0.750000  0.725007  0.128319  1
  P  P23  1  0.750000  0.774993  0.628319  1
  P  P24  1  0.250000  0.603090  0.386460  1
  P  P25  1  0.250000  0.896910  0.886460  1
  P  P26  1  0.750000  0.396910  0.613540  1
  P  P27  1  0.750000  0.103090  0.113540  1
  Rh  Rh28  1  0.250000  0.403210  0.486250  1
  Rh  Rh29  1  0.250000  0.096790  0.986250  1
  Rh  Rh30  1  0.750000  0.596790  0.513750  1
  Rh  Rh31  1  0.750000  0.903210  0.013750  1
  Rh  Rh32  1  0.250000  0.224978  0.181535  1
  Rh  Rh33  1  0.250000  0.275022  0.681535  1
  Rh  Rh34  1  0.750000  0.775022  0.818465  1
  Rh  Rh35  1  0.750000  0.724978  0.318465  1
