# generated using pymatgen
data_YEr(ThIr)3
_symmetry_space_group_name_H-M   'P 1'
_cell_length_a   6.52668300
_cell_length_b   8.37322546
_cell_length_c   8.37266100
_cell_angle_alpha   120.00223690
_cell_angle_beta   89.99961526
_cell_angle_gamma   90.00077550
_symmetry_Int_Tables_number   1
_chemical_formula_structural   YEr(ThIr)3
_chemical_formula_sum   'Y2 Er2 Th6 Ir6'
_cell_volume   396.25034593
_cell_formula_units_Z   2
loop_
 _symmetry_equiv_pos_site_id
 _symmetry_equiv_pos_as_xyz
  1  'x, y, z'
loop_
 _atom_site_type_symbol
 _atom_site_label
 _atom_site_symmetry_multiplicity
 _atom_site_fract_x
 _atom_site_fract_y
 _atom_site_fract_z
 _atom_site_occupancy
  Y  Y0  1  0.499996  0.333351  0.666699  1
  Y  Y1  1  0.499996  0.666652  0.333301  1
  Er  Er2  1  0.000039  0.666617  0.333236  1
  Er  Er3  1  0.000039  0.333382  0.666764  1
  Th  Th4  1  0.752051  0.255338  0.000000  1
  Th  Th5  1  0.752047  0.744623  0.744614  1
  Th  Th6  1  0.752047  0.000010  0.255386  1
  Th  Th7  1  0.247950  0.744656  0.000000  1
  Th  Th8  1  0.247943  0.255380  0.255389  1
  Th  Th9  1  0.247943  0.999990  0.744611  1
  Ir  Ir10  1  0.754104  0.619443  0.000000  1
  Ir  Ir11  1  0.754099  0.380555  0.380552  1
  Ir  Ir12  1  0.754099  0.000005  0.619448  1
  Ir  Ir13  1  0.245880  0.380556  0.000000  1
  Ir  Ir14  1  0.245884  0.619447  0.619450  1
  Ir  Ir15  1  0.245884  0.999996  0.380550  1
