# generated using pymatgen
data_Tb2YMg3RuAu2
_symmetry_space_group_name_H-M   'P 1'
_cell_length_a   7.50244823
_cell_length_b   7.54649195
_cell_length_c   4.09890200
_cell_angle_alpha   90.00000000
_cell_angle_beta   90.00000000
_cell_angle_gamma   119.67243360
_symmetry_Int_Tables_number   1
_chemical_formula_structural   Tb2YMg3RuAu2
_chemical_formula_sum   'Tb2 Y1 Mg3 Ru1 Au2'
_cell_volume   201.63705846
_cell_formula_units_Z   1
loop_
 _symmetry_equiv_pos_site_id
 _symmetry_equiv_pos_as_xyz
  1  'x, y, z'
loop_
 _atom_site_type_symbol
 _atom_site_label
 _atom_site_symmetry_multiplicity
 _atom_site_fract_x
 _atom_site_fract_y
 _atom_site_fract_z
 _atom_site_occupancy
  Tb  Tb0  1  0.027166  0.601399  0.000000  1
  Tb  Tb1  1  0.399936  0.426480  0.000000  1
  Y  Y2  1  0.575024  0.974329  0.000000  1
  Mg  Mg3  1  0.253143  0.000814  0.500000  1
  Mg  Mg4  1  0.998654  0.250894  0.500000  1
  Mg  Mg5  1  0.748694  0.748575  0.500000  1
  Ru  Ru6  1  0.330283  0.662984  0.500000  1
  Au  Au7  1  0.666751  0.334095  0.500000  1
  Au  Au8  1  0.000350  0.000429  0.000000  1
