# generated using pymatgen
data_Sc8Tc(B8Ir)3
_symmetry_space_group_name_H-M   'P 1'
_cell_length_a   3.49035800
_cell_length_b   8.90085416
_cell_length_c   11.21910570
_cell_angle_alpha   90.07962066
_cell_angle_beta   90.00000000
_cell_angle_gamma   90.00000000
_symmetry_Int_Tables_number   1
_chemical_formula_structural   Sc8Tc(B8Ir)3
_chemical_formula_sum   'Sc8 Tc1 B24 Ir3'
_cell_volume   348.54549952
_cell_formula_units_Z   1
loop_
 _symmetry_equiv_pos_site_id
 _symmetry_equiv_pos_as_xyz
  1  'x, y, z'
loop_
 _atom_site_type_symbol
 _atom_site_label
 _atom_site_symmetry_multiplicity
 _atom_site_fract_x
 _atom_site_fract_y
 _atom_site_fract_z
 _atom_site_occupancy
  Sc  Sc0  1  0.500000  0.312428  0.408528  1
  Sc  Sc1  1  0.500000  0.682966  0.586307  1
  Sc  Sc2  1  0.500000  0.182003  0.918656  1
  Sc  Sc3  1  0.500000  0.821999  0.087397  1
  Sc  Sc4  1  0.500000  0.441576  0.124714  1
  Sc  Sc5  1  0.500000  0.556128  0.875344  1
  Sc  Sc6  1  0.500000  0.055845  0.625146  1
  Sc  Sc7  1  0.500000  0.946690  0.373511  1
  Tc  Tc8  1  0.500000  0.138686  0.179660  1
  B  B9  1  0.000000  0.102143  0.472449  1
  B  B10  1  0.000000  0.897301  0.528312  1
  B  B11  1  0.000000  0.398004  0.971587  1
  B  B12  1  0.000000  0.603438  0.027973  1
  B  B13  1  0.000000  0.130106  0.317389  1
  B  B14  1  0.000000  0.869156  0.681102  1
  B  B15  1  0.000000  0.369827  0.818860  1
  B  B16  1  0.000000  0.630666  0.181719  1
  B  B17  1  0.000000  0.053341  0.064495  1
  B  B18  1  0.000000  0.946670  0.935891  1
  B  B19  1  0.000000  0.446062  0.563736  1
  B  B20  1  0.000000  0.553201  0.435800  1
  B  B21  1  0.000000  0.479274  0.286863  1
  B  B22  1  0.000000  0.520837  0.713212  1
  B  B23  1  0.000000  0.021040  0.786867  1
  B  B24  1  0.000000  0.979150  0.212963  1
  B  B25  1  0.000000  0.252512  0.078696  1
  B  B26  1  0.000000  0.747625  0.922650  1
  B  B27  1  0.000000  0.246928  0.577559  1
  B  B28  1  0.000000  0.752991  0.422070  1
  B  B29  1  0.000000  0.295144  0.235703  1
  B  B30  1  0.000000  0.704933  0.763115  1
  B  B31  1  0.000000  0.205454  0.736995  1
  B  B32  1  0.000000  0.794854  0.264303  1
  Ir  Ir33  1  0.500000  0.861109  0.820622  1
  Ir  Ir34  1  0.500000  0.360844  0.678959  1
  Ir  Ir35  1  0.500000  0.639073  0.320845  1
