# generated using pymatgen
data_Sm2DyRuI3
_symmetry_space_group_name_H-M   'P 1'
_cell_length_a   4.28641700
_cell_length_b   8.98379263
_cell_length_c   12.45804789
_cell_angle_alpha   86.05531147
_cell_angle_beta   90.00000000
_cell_angle_gamma   90.00000000
_symmetry_Int_Tables_number   1
_chemical_formula_structural   Sm2DyRuI3
_chemical_formula_sum   'Sm4 Dy2 Ru2 I6'
_cell_volume   478.60147964
_cell_formula_units_Z   2
loop_
 _symmetry_equiv_pos_site_id
 _symmetry_equiv_pos_as_xyz
  1  'x, y, z'
loop_
 _atom_site_type_symbol
 _atom_site_label
 _atom_site_symmetry_multiplicity
 _atom_site_fract_x
 _atom_site_fract_y
 _atom_site_fract_z
 _atom_site_occupancy
  Sm  Sm0  1  0.750000  0.096641  0.682374  1
  Sm  Sm1  1  0.250000  0.903359  0.317626  1
  Sm  Sm2  1  0.250000  0.268073  0.898966  1
  Sm  Sm3  1  0.750000  0.731927  0.101034  1
  Dy  Dy4  1  0.750000  0.125773  0.122489  1
  Dy  Dy5  1  0.250000  0.874227  0.877511  1
  Ru  Ru6  1  0.750000  0.054969  0.906829  1
  Ru  Ru7  1  0.250000  0.945031  0.093171  1
  I  I8  1  0.250000  0.353467  0.637991  1
  I  I9  1  0.750000  0.646533  0.362009  1
  I  I10  1  0.750000  0.147512  0.389878  1
  I  I11  1  0.250000  0.852488  0.610122  1
  I  I12  1  0.250000  0.422851  0.134728  1
  I  I13  1  0.750000  0.577149  0.865272  1
