# generated using pymatgen
data_Pa4Ge6Mo3Os4
_symmetry_space_group_name_H-M   'P 1'
_cell_length_a   7.34459443
_cell_length_b   7.33530920
_cell_length_c   7.33530951
_cell_angle_alpha   109.81760295
_cell_angle_beta   109.27295270
_cell_angle_gamma   109.27294010
_symmetry_Int_Tables_number   1
_chemical_formula_structural   Pa4Ge6Mo3Os4
_chemical_formula_sum   'Pa4 Ge6 Mo3 Os4'
_cell_volume   304.39783353
_cell_formula_units_Z   1
loop_
 _symmetry_equiv_pos_site_id
 _symmetry_equiv_pos_as_xyz
  1  'x, y, z'
loop_
 _atom_site_type_symbol
 _atom_site_label
 _atom_site_symmetry_multiplicity
 _atom_site_fract_x
 _atom_site_fract_y
 _atom_site_fract_z
 _atom_site_occupancy
  Pa  Pa0  1  0.997214  0.998607  0.498607  1
  Pa  Pa1  1  0.997214  0.498607  0.998607  1
  Pa  Pa2  1  0.503256  0.003695  0.003695  1
  Pa  Pa3  1  0.503256  0.499561  0.499561  1
  Ge  Ge4  1  0.686732  0.688517  0.998215  1
  Ge  Ge5  1  0.308360  0.997755  0.310605  1
  Ge  Ge6  1  0.004849  0.311689  0.311689  1
  Ge  Ge7  1  0.308360  0.310605  0.997755  1
  Ge  Ge8  1  0.686732  0.998215  0.688517  1
  Ge  Ge9  1  0.004849  0.693160  0.693160  1
  Mo  Mo10  1  0.752342  0.250715  0.501627  1
  Mo  Mo11  1  0.752342  0.501627  0.250715  1
  Mo  Mo12  1  0.999573  0.999787  0.999787  1
  Os  Os13  1  0.496943  0.248472  0.748472  1
  Os  Os14  1  0.250518  0.500594  0.749924  1
  Os  Os15  1  0.250518  0.749924  0.500594  1
  Os  Os16  1  0.496943  0.748472  0.248472  1
