# generated using pymatgen
data_Y5Bi3Se
_symmetry_space_group_name_H-M   'P 1'
_cell_length_a   9.28836400
_cell_length_b   9.28836471
_cell_length_c   6.65854400
_cell_angle_alpha   90.00000000
_cell_angle_beta   90.00000000
_cell_angle_gamma   119.99999748
_symmetry_Int_Tables_number   1
_chemical_formula_structural   Y5Bi3Se
_chemical_formula_sum   'Y10 Bi6 Se2'
_cell_volume   497.49463631
_cell_formula_units_Z   2
loop_
 _symmetry_equiv_pos_site_id
 _symmetry_equiv_pos_as_xyz
  1  'x, y, z'
loop_
 _atom_site_type_symbol
 _atom_site_label
 _atom_site_symmetry_multiplicity
 _atom_site_fract_x
 _atom_site_fract_y
 _atom_site_fract_z
 _atom_site_occupancy
  Y  Y0  1  0.666667  0.333333  0.000000  1
  Y  Y1  1  0.333333  0.666667  0.000000  1
  Y  Y2  1  0.333333  0.666667  0.500000  1
  Y  Y3  1  0.666667  0.333333  0.500000  1
  Y  Y4  1  0.746075  0.746075  0.750000  1
  Y  Y5  1  0.253925  0.000000  0.750000  1
  Y  Y6  1  0.000000  0.253925  0.750000  1
  Y  Y7  1  0.253925  0.253925  0.250000  1
  Y  Y8  1  0.746075  0.000000  0.250000  1
  Y  Y9  1  0.000000  0.746075  0.250000  1
  Bi  Bi10  1  0.395923  0.395923  0.750000  1
  Bi  Bi11  1  0.604077  0.000000  0.750000  1
  Bi  Bi12  1  0.000000  0.604077  0.750000  1
  Bi  Bi13  1  0.604077  0.604077  0.250000  1
  Bi  Bi14  1  0.395923  0.000000  0.250000  1
  Bi  Bi15  1  0.000000  0.395923  0.250000  1
  Se  Se16  1  0.000000  0.000000  0.000000  1
  Se  Se17  1  0.000000  0.000000  0.500000  1
