# generated using pymatgen
data_LaDyTh7Se17
_symmetry_space_group_name_H-M   'P 1'
_cell_length_a   8.49383157
_cell_length_b   8.47979933
_cell_length_c   11.24713000
_cell_angle_alpha   80.63323778
_cell_angle_beta   80.61848926
_cell_angle_gamma   65.18031533
_symmetry_Int_Tables_number   1
_chemical_formula_structural   LaDyTh7Se17
_chemical_formula_sum   'La1 Dy1 Th7 Se17'
_cell_volume   721.39059326
_cell_formula_units_Z   1
loop_
 _symmetry_equiv_pos_site_id
 _symmetry_equiv_pos_as_xyz
  1  'x, y, z'
loop_
 _atom_site_type_symbol
 _atom_site_label
 _atom_site_symmetry_multiplicity
 _atom_site_fract_x
 _atom_site_fract_y
 _atom_site_fract_z
 _atom_site_occupancy
  La  La0  1  0.810830  0.305496  0.299301  1
  Dy  Dy1  1  0.998694  0.001857  0.001809  1
  Th  Th2  1  0.303141  0.812987  0.298189  1
  Th  Th3  1  0.186586  0.696953  0.699741  1
  Th  Th4  1  0.697354  0.187756  0.700178  1
  Th  Th5  1  0.206114  0.204592  0.538014  1
  Th  Th6  1  0.793700  0.792469  0.461300  1
  Th  Th7  1  0.681724  0.682816  0.980664  1
  Th  Th8  1  0.315534  0.319027  0.021297  1
  Se  Se9  1  0.825071  0.431009  0.538152  1
  Se  Se10  1  0.431387  0.819759  0.532845  1
  Se  Se11  1  0.178185  0.566931  0.467849  1
  Se  Se12  1  0.569084  0.172151  0.472578  1
  Se  Se13  1  0.943381  0.337452  0.031878  1
  Se  Se14  1  0.334660  0.944699  0.034707  1
  Se  Se15  1  0.057531  0.666729  0.960993  1
  Se  Se16  1  0.664329  0.059776  0.962450  1
  Se  Se17  1  0.218610  0.202672  0.277265  1
  Se  Se18  1  0.791002  0.791618  0.723750  1
  Se  Se19  1  0.065792  0.062386  0.761487  1
  Se  Se20  1  0.942481  0.926630  0.239895  1
  Se  Se21  1  0.304594  0.304156  0.752211  1
  Se  Se22  1  0.688970  0.705930  0.246128  1
  Se  Se23  1  0.519360  0.521502  0.831589  1
  Se  Se24  1  0.470381  0.488134  0.162518  1
  Se  Se25  1  0.001501  0.994514  0.503213  1
