# generated using pymatgen
data_Er9Lu(SiHg)4
_symmetry_space_group_name_H-M   'P 1'
_cell_length_a   8.69347172
_cell_length_b   8.69347221
_cell_length_c   7.49036601
_cell_angle_alpha   89.99752213
_cell_angle_beta   89.99752020
_cell_angle_gamma   129.08296483
_symmetry_Int_Tables_number   1
_chemical_formula_structural   Er9Lu(SiHg)4
_chemical_formula_sum   'Er9 Lu1 Si4 Hg4'
_cell_volume   439.42235861
_cell_formula_units_Z   1
loop_
 _symmetry_equiv_pos_site_id
 _symmetry_equiv_pos_as_xyz
  1  'x, y, z'
loop_
 _atom_site_type_symbol
 _atom_site_label
 _atom_site_symmetry_multiplicity
 _atom_site_fract_x
 _atom_site_fract_y
 _atom_site_fract_z
 _atom_site_occupancy
  Er  Er0  1  0.051871  0.306458  0.325803  1
  Er  Er1  1  0.948129  0.693542  0.674197  1
  Er  Er2  1  0.447668  0.193131  0.826137  1
  Er  Er3  1  0.806869  0.552332  0.173863  1
  Er  Er4  1  0.552332  0.806869  0.173863  1
  Er  Er5  1  0.193131  0.447668  0.826137  1
  Er  Er6  1  0.693542  0.948129  0.674197  1
  Er  Er7  1  0.306458  0.051871  0.325803  1
  Er  Er8  1  0.500000  0.500000  0.500000  1
  Lu  Lu9  1  0.000000  0.000000  0.000000  1
  Si  Si10  1  0.377931  0.377931  0.124433  1
  Si  Si11  1  0.622069  0.622069  0.875567  1
  Si  Si12  1  0.121562  0.121562  0.624970  1
  Si  Si13  1  0.878438  0.878438  0.375030  1
  Hg  Hg14  1  0.783927  0.216073  0.000000  1
  Hg  Hg15  1  0.216074  0.783927  0.000000  1
  Hg  Hg16  1  0.716140  0.283860  0.500000  1
  Hg  Hg17  1  0.283860  0.716140  0.500000  1
