# generated using pymatgen
data_Tm3In4CoCu
_symmetry_space_group_name_H-M   'P 1'
_cell_length_a   7.87868000
_cell_length_b   7.87867998
_cell_length_c   3.61738000
_cell_angle_alpha   90.00000000
_cell_angle_beta   90.00000000
_cell_angle_gamma   120.00000010
_symmetry_Int_Tables_number   1
_chemical_formula_structural   Tm3In4CoCu
_chemical_formula_sum   'Tm3 In4 Co1 Cu1'
_cell_volume   194.46062897
_cell_formula_units_Z   1
loop_
 _symmetry_equiv_pos_site_id
 _symmetry_equiv_pos_as_xyz
  1  'x, y, z'
loop_
 _atom_site_type_symbol
 _atom_site_label
 _atom_site_symmetry_multiplicity
 _atom_site_fract_x
 _atom_site_fract_y
 _atom_site_fract_z
 _atom_site_occupancy
  Tm  Tm0  1  0.286419  0.242372  0.500000  1
  Tm  Tm1  1  0.757628  0.044045  0.500000  1
  Tm  Tm2  1  0.955955  0.713581  0.500000  1
  In  In3  1  0.071781  0.407082  0.000000  1
  In  In4  1  0.592918  0.664699  0.000000  1
  In  In5  1  0.335301  0.928219  0.000000  1
  In  In6  1  0.666667  0.333333  0.000000  1
  Co  Co7  1  0.000000  0.000000  0.000000  1
  Cu  Cu8  1  0.333333  0.666667  0.500000  1
