# generated using pymatgen
data_Ho12Si12OsRh3
_symmetry_space_group_name_H-M   'P 1'
_cell_length_a   4.20856700
_cell_length_b   10.66281650
_cell_length_c   12.28540400
_cell_angle_alpha   90.07588365
_cell_angle_beta   90.00000000
_cell_angle_gamma   90.00000000
_symmetry_Int_Tables_number   1
_chemical_formula_structural   Ho12Si12OsRh3
_chemical_formula_sum   'Ho12 Si12 Os1 Rh3'
_cell_volume   551.30920353
_cell_formula_units_Z   1
loop_
 _symmetry_equiv_pos_site_id
 _symmetry_equiv_pos_as_xyz
  1  'x, y, z'
loop_
 _atom_site_type_symbol
 _atom_site_label
 _atom_site_symmetry_multiplicity
 _atom_site_fract_x
 _atom_site_fract_y
 _atom_site_fract_z
 _atom_site_occupancy
  Ho  Ho0  1  0.250000  0.878671  0.020145  1
  Ho  Ho1  1  0.250000  0.619344  0.521364  1
  Ho  Ho2  1  0.750000  0.120447  0.979312  1
  Ho  Ho3  1  0.750000  0.379620  0.480166  1
  Ho  Ho4  1  0.250000  0.920588  0.604002  1
  Ho  Ho5  1  0.250000  0.579906  0.105130  1
  Ho  Ho6  1  0.750000  0.080111  0.396044  1
  Ho  Ho7  1  0.750000  0.420572  0.895518  1
  Ho  Ho8  1  0.250000  0.661911  0.799805  1
  Ho  Ho9  1  0.250000  0.839131  0.301052  1
  Ho  Ho10  1  0.750000  0.338942  0.198288  1
  Ho  Ho11  1  0.750000  0.159108  0.699116  1
  Si  Si12  1  0.250000  0.013880  0.822934  1
  Si  Si13  1  0.250000  0.485931  0.322104  1
  Si  Si14  1  0.750000  0.986270  0.177550  1
  Si  Si15  1  0.750000  0.509399  0.679507  1
  Si  Si16  1  0.250000  0.248619  0.839209  1
  Si  Si17  1  0.250000  0.252899  0.341983  1
  Si  Si18  1  0.750000  0.752588  0.158425  1
  Si  Si19  1  0.750000  0.747981  0.657445  1
  Si  Si20  1  0.250000  0.203973  0.544921  1
  Si  Si21  1  0.250000  0.300492  0.040804  1
  Si  Si22  1  0.750000  0.800686  0.458083  1
  Si  Si23  1  0.750000  0.698066  0.957802  1
  Os  Os24  1  0.250000  0.391467  0.680598  1
  Rh  Rh25  1  0.250000  0.109732  0.182630  1
  Rh  Rh26  1  0.750000  0.609699  0.318415  1
  Rh  Rh27  1  0.750000  0.889966  0.817647  1
