# generated using pymatgen
data_Li4Tb8Sc7Si16W
_symmetry_space_group_name_H-M   'P 1'
_cell_length_a   6.90185431
_cell_length_b   7.36350569
_cell_length_c   13.94769703
_cell_angle_alpha   90.06164697
_cell_angle_beta   89.70613145
_cell_angle_gamma   89.76400857
_symmetry_Int_Tables_number   1
_chemical_formula_structural   Li4Tb8Sc7Si16W
_chemical_formula_sum   'Li4 Tb8 Sc7 Si16 W1'
_cell_volume   708.83191251
_cell_formula_units_Z   1
loop_
 _symmetry_equiv_pos_site_id
 _symmetry_equiv_pos_as_xyz
  1  'x, y, z'
loop_
 _atom_site_type_symbol
 _atom_site_label
 _atom_site_symmetry_multiplicity
 _atom_site_fract_x
 _atom_site_fract_y
 _atom_site_fract_z
 _atom_site_occupancy
  Li  Li0  1  0.160002  0.500047  0.745324  1
  Li  Li1  1  0.840814  0.495381  0.251292  1
  Li  Li2  1  0.340916  0.006010  0.249896  1
  Li  Li3  1  0.657724  0.999393  0.745484  1
  Tb  Tb4  1  0.013413  0.181536  0.099573  1
  Tb  Tb5  1  0.987251  0.822608  0.894109  1
  Tb  Tb6  1  0.487373  0.677898  0.896710  1
  Tb  Tb7  1  0.987441  0.826060  0.598809  1
  Tb  Tb8  1  0.513318  0.319148  0.100409  1
  Tb  Tb9  1  0.012039  0.182038  0.400859  1
  Tb  Tb10  1  0.511119  0.319512  0.405605  1
  Tb  Tb11  1  0.486780  0.676026  0.598394  1
  Sc  Sc12  1  0.667508  0.821733  0.378846  1
  Sc  Sc13  1  0.167427  0.680861  0.378907  1
  Sc  Sc14  1  0.668550  0.821143  0.126996  1
  Sc  Sc15  1  0.834132  0.315606  0.624777  1
  Sc  Sc16  1  0.330249  0.180706  0.871221  1
  Sc  Sc17  1  0.830169  0.320012  0.871857  1
  Sc  Sc18  1  0.168509  0.679747  0.125960  1
  Si  Si19  1  0.040240  0.110461  0.744648  1
  Si  Si20  1  0.968330  0.895879  0.251381  1
  Si  Si21  1  0.466791  0.608502  0.251922  1
  Si  Si22  1  0.526926  0.381973  0.745010  1
  Si  Si23  1  0.292262  0.893586  0.744270  1
  Si  Si24  1  0.713459  0.115347  0.251210  1
  Si  Si25  1  0.217675  0.385668  0.251017  1
  Si  Si26  1  0.785285  0.608430  0.745582  1
  Si  Si27  1  0.176293  0.446879  0.537618  1
  Si  Si28  1  0.841361  0.534393  0.468930  1
  Si  Si29  1  0.329189  0.969218  0.476411  1
  Si  Si30  1  0.841264  0.538335  0.034067  1
  Si  Si31  1  0.643293  0.037909  0.542925  1
  Si  Si32  1  0.155796  0.465257  0.963376  1
  Si  Si33  1  0.659321  0.036521  0.964150  1
  Si  Si34  1  0.342845  0.962570  0.033280  1
  W  W35  1  0.334939  0.183604  0.629173  1
