# generated using pymatgen
data_La3Nd2Tl2InCl
_symmetry_space_group_name_H-M   'P 1'
_cell_length_a   9.67624718
_cell_length_b   9.67624784
_cell_length_c   6.82719700
_cell_angle_alpha   90.00000000
_cell_angle_beta   90.00000000
_cell_angle_gamma   119.88857399
_symmetry_Int_Tables_number   1
_chemical_formula_structural   La3Nd2Tl2InCl
_chemical_formula_sum   'La6 Nd4 Tl4 In2 Cl2'
_cell_volume   554.20895183
_cell_formula_units_Z   2
loop_
 _symmetry_equiv_pos_site_id
 _symmetry_equiv_pos_as_xyz
  1  'x, y, z'
loop_
 _atom_site_type_symbol
 _atom_site_label
 _atom_site_symmetry_multiplicity
 _atom_site_fract_x
 _atom_site_fract_y
 _atom_site_fract_z
 _atom_site_occupancy
  La  La0  1  0.740425  0.740425  0.250000  1
  La  La1  1  0.999735  0.740172  0.750000  1
  La  La2  1  0.740172  0.999735  0.750000  1
  La  La3  1  0.259575  0.259575  0.750000  1
  La  La4  1  0.000265  0.259828  0.250000  1
  La  La5  1  0.259828  0.000265  0.250000  1
  Nd  Nd6  1  0.334291  0.665709  0.500000  1
  Nd  Nd7  1  0.665709  0.334291  0.500000  1
  Nd  Nd8  1  0.334291  0.665709  0.000000  1
  Nd  Nd9  1  0.665709  0.334291  0.000000  1
  Tl  Tl10  1  0.393434  0.999812  0.750000  1
  Tl  Tl11  1  0.000188  0.606566  0.250000  1
  Tl  Tl12  1  0.606566  0.000188  0.250000  1
  Tl  Tl13  1  0.999812  0.393434  0.750000  1
  In  In14  1  0.393864  0.393864  0.250000  1
  In  In15  1  0.606136  0.606136  0.750000  1
  Cl  Cl16  1  0.000000  0.000000  0.500000  1
  Cl  Cl17  1  0.000000  0.000000  0.000000  1
