# generated using pymatgen
data_Pr6Sm4Be3Si15Au2
_symmetry_space_group_name_H-M   'P 1'
_cell_length_a   4.15274575
_cell_length_b   4.15110997
_cell_length_c   34.97581400
_cell_angle_alpha   86.58458678
_cell_angle_beta   86.54960983
_cell_angle_gamma   90.00036206
_symmetry_Int_Tables_number   1
_chemical_formula_structural   Pr6Sm4Be3Si15Au2
_chemical_formula_sum   'Pr6 Sm4 Be3 Si15 Au2'
_cell_volume   600.76491196
_cell_formula_units_Z   1
loop_
 _symmetry_equiv_pos_site_id
 _symmetry_equiv_pos_as_xyz
  1  'x, y, z'
loop_
 _atom_site_type_symbol
 _atom_site_label
 _atom_site_symmetry_multiplicity
 _atom_site_fract_x
 _atom_site_fract_y
 _atom_site_fract_z
 _atom_site_occupancy
  Pr  Pr0  1  0.545924  0.046096  0.907925  1
  Pr  Pr1  1  0.997495  0.997229  0.005425  1
  Pr  Pr2  1  0.399860  0.399662  0.200616  1
  Pr  Pr3  1  0.802035  0.801844  0.396021  1
  Pr  Pr4  1  0.204445  0.203980  0.591779  1
  Pr  Pr5  1  0.600907  0.600650  0.797978  1
  Sm  Sm6  1  0.948022  0.448170  0.103649  1
  Sm  Sm7  1  0.350650  0.850713  0.298721  1
  Sm  Sm8  1  0.753226  0.253456  0.493666  1
  Sm  Sm9  1  0.149335  0.649923  0.700689  1
  Be  Be10  1  0.465069  0.965268  0.069569  1
  Be  Be11  1  0.867529  0.367691  0.264947  1
  Be  Be12  1  0.269657  0.769822  0.460278  1
  Si  Si13  1  0.667118  0.167238  0.665405  1
  Si  Si14  1  0.063510  0.564170  0.871915  1
  Si  Si15  1  0.916002  0.916325  0.167665  1
  Si  Si16  1  0.318346  0.318869  0.362879  1
  Si  Si17  1  0.720365  0.720928  0.558736  1
  Si  Si18  1  0.116950  0.116943  0.765948  1
  Si  Si19  1  0.513310  0.513455  0.973056  1
  Si  Si20  1  0.433768  0.933408  0.132698  1
  Si  Si21  1  0.836052  0.335608  0.328032  1
  Si  Si22  1  0.238398  0.738103  0.523384  1
  Si  Si23  1  0.634084  0.134346  0.731952  1
  Si  Si24  1  0.030727  0.530477  0.938911  1
  Si  Si25  1  0.479796  0.479515  0.040787  1
  Si  Si26  1  0.882284  0.882143  0.235852  1
  Si  Si27  1  0.284529  0.284302  0.431136  1
  Au  Au28  1  0.685367  0.684999  0.629700  1
  Au  Au29  1  0.082445  0.081867  0.836284  1
