# generated using pymatgen
data_Ba6Sn8SbCl
_symmetry_space_group_name_H-M   'P 1'
_cell_length_a   9.25027622
_cell_length_b   9.25027707
_cell_length_c   9.30848889
_cell_angle_alpha   119.79334723
_cell_angle_beta   119.79335669
_cell_angle_gamma   90.00000257
_symmetry_Int_Tables_number   1
_chemical_formula_structural   Ba6Sn8SbCl
_chemical_formula_sum   'Ba6 Sn8 Sb1 Cl1'
_cell_volume   566.71437896
_cell_formula_units_Z   1
loop_
 _symmetry_equiv_pos_site_id
 _symmetry_equiv_pos_as_xyz
  1  'x, y, z'
loop_
 _atom_site_type_symbol
 _atom_site_label
 _atom_site_symmetry_multiplicity
 _atom_site_fract_x
 _atom_site_fract_y
 _atom_site_fract_z
 _atom_site_occupancy
  Ba  Ba0  1  0.256224  0.256224  0.512447  1
  Ba  Ba1  1  0.743776  0.743776  0.487553  1
  Ba  Ba2  1  0.665689  0.165632  0.000000  1
  Ba  Ba3  1  0.334311  0.834368  0.000000  1
  Ba  Ba4  1  0.834368  0.665689  0.000000  1
  Ba  Ba5  1  0.165632  0.334311  0.000000  1
  Sn  Sn6  1  0.332695  0.834283  0.385863  1
  Sn  Sn7  1  0.667305  0.165717  0.614137  1
  Sn  Sn8  1  0.053169  0.551581  0.385863  1
  Sn  Sn9  1  0.551581  0.332695  0.385863  1
  Sn  Sn10  1  0.165717  0.946831  0.614137  1
  Sn  Sn11  1  0.946831  0.448419  0.614137  1
  Sn  Sn12  1  0.448419  0.667305  0.614137  1
  Sn  Sn13  1  0.834283  0.053169  0.385863  1
  Sb  Sb14  1  0.000000  0.000000  0.000000  1
  Cl  Cl15  1  0.500000  0.500000  0.000000  1
