# generated using pymatgen
data_Th6In(As3Rh5)4
_symmetry_space_group_name_H-M   'P 1'
_cell_length_a   13.99691200
_cell_length_b   13.99691118
_cell_length_c   4.06706200
_cell_angle_alpha   90.00000000
_cell_angle_beta   90.00000000
_cell_angle_gamma   119.99999721
_symmetry_Int_Tables_number   1
_chemical_formula_structural   Th6In(As3Rh5)4
_chemical_formula_sum   'Th6 In1 As12 Rh20'
_cell_volume   690.04255715
_cell_formula_units_Z   1
loop_
 _symmetry_equiv_pos_site_id
 _symmetry_equiv_pos_as_xyz
  1  'x, y, z'
loop_
 _atom_site_type_symbol
 _atom_site_label
 _atom_site_symmetry_multiplicity
 _atom_site_fract_x
 _atom_site_fract_y
 _atom_site_fract_z
 _atom_site_occupancy
  Th  Th0  1  0.529867  0.720536  0.254469  1
  Th  Th1  1  0.279464  0.809331  0.254469  1
  Th  Th2  1  0.190669  0.470133  0.254469  1
  Th  Th3  1  0.470133  0.279464  0.745531  1
  Th  Th4  1  0.720536  0.190669  0.745531  1
  Th  Th5  1  0.809331  0.529867  0.745531  1
  In  In6  1  0.000000  0.000000  0.000000  1
  As  As7  1  0.526794  0.137808  0.246021  1
  As  As8  1  0.862192  0.388987  0.246021  1
  As  As9  1  0.611013  0.473206  0.246021  1
  As  As10  1  0.949976  0.718970  0.242592  1
  As  As11  1  0.281030  0.231007  0.242592  1
  As  As12  1  0.768993  0.050024  0.242592  1
  As  As13  1  0.388987  0.526794  0.753979  1
  As  As14  1  0.473206  0.862192  0.753979  1
  As  As15  1  0.137808  0.611013  0.753979  1
  As  As16  1  0.718970  0.768993  0.757408  1
  As  As17  1  0.231007  0.949976  0.757408  1
  As  As18  1  0.050024  0.281030  0.757408  1
  Rh  Rh19  1  0.333333  0.666667  0.745259  1
  Rh  Rh20  1  0.919051  0.250770  0.245481  1
  Rh  Rh21  1  0.749230  0.668283  0.245481  1
  Rh  Rh22  1  0.331717  0.080949  0.245481  1
  Rh  Rh23  1  0.437156  0.021056  0.747443  1
  Rh  Rh24  1  0.978944  0.416100  0.747443  1
  Rh  Rh25  1  0.583900  0.562844  0.747443  1
  Rh  Rh26  1  0.666667  0.333333  0.254741  1
  Rh  Rh27  1  0.096264  0.205678  0.265872  1
  Rh  Rh28  1  0.794322  0.890587  0.265872  1
  Rh  Rh29  1  0.109413  0.903736  0.265872  1
  Rh  Rh30  1  0.021056  0.583900  0.252557  1
  Rh  Rh31  1  0.416100  0.437156  0.252557  1
  Rh  Rh32  1  0.562844  0.978944  0.252557  1
  Rh  Rh33  1  0.668283  0.919051  0.754519  1
  Rh  Rh34  1  0.080949  0.749230  0.754519  1
  Rh  Rh35  1  0.250770  0.331717  0.754519  1
  Rh  Rh36  1  0.903736  0.794322  0.734128  1
  Rh  Rh37  1  0.205678  0.109413  0.734128  1
  Rh  Rh38  1  0.890587  0.096264  0.734128  1
