# generated using pymatgen
data_Mn3VF12
_symmetry_space_group_name_H-M   'P 1'
_cell_length_a   7.94504210
_cell_length_b   5.47768618
_cell_length_c   5.48077828
_cell_angle_alpha   89.96581334
_cell_angle_beta   90.02111122
_cell_angle_gamma   89.79334478
_symmetry_Int_Tables_number   1
_chemical_formula_structural   Mn3VF12
_chemical_formula_sum   'Mn3 V1 F12'
_cell_volume   238.52431224
_cell_formula_units_Z   1
loop_
 _symmetry_equiv_pos_site_id
 _symmetry_equiv_pos_as_xyz
  1  'x, y, z'
loop_
 _atom_site_type_symbol
 _atom_site_label
 _atom_site_symmetry_multiplicity
 _atom_site_fract_x
 _atom_site_fract_y
 _atom_site_fract_z
 _atom_site_occupancy
  Mn  Mn0  1  0.000000  0.000000  0.000000  1
  Mn  Mn1  1  0.500000  0.000000  0.000000  1
  Mn  Mn2  1  0.500000  0.500000  0.500000  1
  V  V3  1  0.000000  0.500000  0.500000  1
  F  F4  1  0.261959  0.013284  0.998978  1
  F  F5  1  0.507920  0.309188  0.212037  1
  F  F6  1  0.991337  0.319584  0.205819  1
  F  F7  1  0.007270  0.793803  0.318397  1
  F  F8  1  0.493457  0.788956  0.308450  1
  F  F9  1  0.769210  0.516452  0.504999  1
  F  F10  1  0.230790  0.483548  0.495001  1
  F  F11  1  0.506543  0.211044  0.691550  1
  F  F12  1  0.992730  0.206197  0.681603  1
  F  F13  1  0.008663  0.680416  0.794181  1
  F  F14  1  0.492080  0.690812  0.787963  1
  F  F15  1  0.738041  0.986716  0.001022  1
