# generated using pymatgen
data_NdMnNi(Sb6Os)2
_symmetry_space_group_name_H-M   'P 1'
_cell_length_a   8.07756378
_cell_length_b   8.06261462
_cell_length_c   8.06264382
_cell_angle_alpha   109.22207984
_cell_angle_beta   109.33684321
_cell_angle_gamma   109.36675273
_symmetry_Int_Tables_number   1
_chemical_formula_structural   NdMnNi(Sb6Os)2
_chemical_formula_sum   'Nd1 Mn1 Ni1 Sb12 Os2'
_cell_volume   406.63007437
_cell_formula_units_Z   1
loop_
 _symmetry_equiv_pos_site_id
 _symmetry_equiv_pos_as_xyz
  1  'x, y, z'
loop_
 _atom_site_type_symbol
 _atom_site_label
 _atom_site_symmetry_multiplicity
 _atom_site_fract_x
 _atom_site_fract_y
 _atom_site_fract_z
 _atom_site_occupancy
  Nd  Nd0  1  0.000000  0.000000  0.000000  1
  Mn  Mn1  1  0.500000  0.000000  0.000000  1
  Ni  Ni2  1  0.500000  0.500000  0.500000  1
  Sb  Sb3  1  0.168231  0.827221  0.672646  1
  Sb  Sb4  1  0.831769  0.172779  0.327354  1
  Sb  Sb5  1  0.840764  0.504719  0.658288  1
  Sb  Sb6  1  0.159236  0.495281  0.341712  1
  Sb  Sb7  1  0.817470  0.661071  0.158445  1
  Sb  Sb8  1  0.182530  0.338929  0.841555  1
  Sb  Sb9  1  0.505956  0.669487  0.844587  1
  Sb  Sb10  1  0.494044  0.330513  0.155413  1
  Sb  Sb11  1  0.660965  0.156345  0.827239  1
  Sb  Sb12  1  0.339035  0.843655  0.172761  1
  Sb  Sb13  1  0.658187  0.840668  0.504921  1
  Sb  Sb14  1  0.341813  0.159332  0.495079  1
  Os  Os15  1  0.000000  0.000000  0.500000  1
  Os  Os16  1  0.000000  0.500000  0.000000  1
