# generated using pymatgen
data_CaY6RuI12
_symmetry_space_group_name_H-M   'P 1'
_cell_length_a   9.82806459
_cell_length_b   9.82806356
_cell_length_c   9.82806419
_cell_angle_alpha   107.00183509
_cell_angle_beta   107.00184418
_cell_angle_gamma   107.00184464
_symmetry_Int_Tables_number   1
_chemical_formula_structural   CaY6RuI12
_chemical_formula_sum   'Ca1 Y6 Ru1 I12'
_cell_volume   790.54725405
_cell_formula_units_Z   1
loop_
 _symmetry_equiv_pos_site_id
 _symmetry_equiv_pos_as_xyz
  1  'x, y, z'
loop_
 _atom_site_type_symbol
 _atom_site_label
 _atom_site_symmetry_multiplicity
 _atom_site_fract_x
 _atom_site_fract_y
 _atom_site_fract_z
 _atom_site_occupancy
  Ca  Ca0  1  0.500000  0.500000  0.500000  1
  Y  Y1  1  0.701555  0.975556  0.904143  1
  Y  Y2  1  0.975556  0.904143  0.701555  1
  Y  Y3  1  0.095857  0.298445  0.024444  1
  Y  Y4  1  0.298445  0.024444  0.095857  1
  Y  Y5  1  0.904143  0.701555  0.975556  1
  Y  Y6  1  0.024444  0.095857  0.298445  1
  Ru  Ru7  1  0.000000  0.000000  0.000000  1
  I  I8  1  0.071829  0.223654  0.679088  1
  I  I9  1  0.378499  0.149377  0.456590  1
  I  I10  1  0.621501  0.850623  0.543410  1
  I  I11  1  0.223654  0.679088  0.071829  1
  I  I12  1  0.776346  0.320912  0.928171  1
  I  I13  1  0.679088  0.071829  0.223654  1
  I  I14  1  0.543410  0.621501  0.850623  1
  I  I15  1  0.850623  0.543410  0.621501  1
  I  I16  1  0.928171  0.776346  0.320912  1
  I  I17  1  0.320912  0.928171  0.776346  1
  I  I18  1  0.456590  0.378499  0.149377  1
  I  I19  1  0.149377  0.456590  0.378499  1
