# generated using pymatgen
data_CsMo2As3O13
_symmetry_space_group_name_H-M   'P 1'
_cell_length_a   9.62074853
_cell_length_b   9.34629755
_cell_length_c   9.34627206
_cell_angle_alpha   104.42311393
_cell_angle_beta   111.69891915
_cell_angle_gamma   111.69879621
_symmetry_Int_Tables_number   1
_chemical_formula_structural   CsMo2As3O13
_chemical_formula_sum   'Cs2 Mo4 As6 O26'
_cell_volume   649.05061342
_cell_formula_units_Z   2
loop_
 _symmetry_equiv_pos_site_id
 _symmetry_equiv_pos_as_xyz
  1  'x, y, z'
loop_
 _atom_site_type_symbol
 _atom_site_label
 _atom_site_symmetry_multiplicity
 _atom_site_fract_x
 _atom_site_fract_y
 _atom_site_fract_z
 _atom_site_occupancy
  Cs  Cs0  1  0.999997  0.499994  0.999997  1
  Cs  Cs1  1  0.499997  0.999995  0.500004  1
  Mo  Mo2  1  0.666612  0.321331  0.159693  1
  Mo  Mo3  1  0.166615  0.159694  0.321341  1
  Mo  Mo4  1  0.833391  0.840307  0.678669  1
  Mo  Mo5  1  0.333387  0.678660  0.840309  1
  As  As6  1  0.250002  0.993364  0.006638  1
  As  As7  1  0.559929  0.641616  0.236445  1
  As  As8  1  0.940072  0.763555  0.358382  1
  As  As9  1  0.059929  0.236448  0.641617  1
  As  As10  1  0.440068  0.358382  0.763550  1
  As  As11  1  0.750002  0.006639  0.993363  1
  O  O12  1  0.574037  0.891792  0.008403  1
  O  O13  1  0.789234  0.214623  0.065063  1
  O  O14  1  0.392236  0.644848  0.096154  1
  O  O15  1  0.925964  0.991593  0.108206  1
  O  O16  1  0.529888  0.439010  0.186169  1
  O  O17  1  0.289239  0.065066  0.214621  1
  O  O18  1  0.749999  0.767340  0.232658  1
  O  O19  1  0.892390  0.555540  0.260398  1
  O  O20  1  0.217869  0.338175  0.287067  1
  O  O21  1  0.107764  0.903846  0.355152  1
  O  O22  1  0.717865  0.287067  0.338170  1
  O  O23  1  0.607613  0.739604  0.444460  1
  O  O24  1  0.029891  0.186170  0.439012  1
  O  O25  1  0.970110  0.813830  0.560988  1
  O  O26  1  0.392393  0.260399  0.555538  1
  O  O27  1  0.282132  0.712932  0.661830  1
  O  O28  1  0.892237  0.096153  0.644851  1
  O  O29  1  0.782136  0.661833  0.712933  1
  O  O30  1  0.107610  0.444463  0.739605  1
  O  O31  1  0.249997  0.232656  0.767337  1
  O  O32  1  0.710767  0.934938  0.785379  1
  O  O33  1  0.470109  0.560989  0.813831  1
  O  O34  1  0.074034  0.008404  0.891790  1
  O  O35  1  0.607757  0.355147  0.903845  1
  O  O36  1  0.210761  0.785382  0.934937  1
  O  O37  1  0.425966  0.108209  0.991592  1
