# generated using pymatgen
data_Tm4Ga3SiRu4
_symmetry_space_group_name_H-M   'P 1'
_cell_length_a   4.42252900
_cell_length_b   7.02849306
_cell_length_c   7.14122573
_cell_angle_alpha   90.26112108
_cell_angle_beta   90.00000000
_cell_angle_gamma   90.00000000
_symmetry_Int_Tables_number   1
_chemical_formula_structural   Tm4Ga3SiRu4
_chemical_formula_sum   'Tm4 Ga3 Si1 Ru4'
_cell_volume   221.97351579
_cell_formula_units_Z   1
loop_
 _symmetry_equiv_pos_site_id
 _symmetry_equiv_pos_as_xyz
  1  'x, y, z'
loop_
 _atom_site_type_symbol
 _atom_site_label
 _atom_site_symmetry_multiplicity
 _atom_site_fract_x
 _atom_site_fract_y
 _atom_site_fract_z
 _atom_site_occupancy
  Tm  Tm0  1  0.250000  0.987237  0.806934  1
  Tm  Tm1  1  0.750000  0.013765  0.196306  1
  Tm  Tm2  1  0.250000  0.479586  0.695111  1
  Tm  Tm3  1  0.750000  0.513237  0.305698  1
  Ga  Ga4  1  0.250000  0.300935  0.107406  1
  Ga  Ga5  1  0.750000  0.696366  0.892404  1
  Ga  Ga6  1  0.250000  0.798741  0.396852  1
  Si  Si7  1  0.750000  0.198333  0.601324  1
  Ru  Ru8  1  0.750000  0.854818  0.564923  1
  Ru  Ru9  1  0.250000  0.164819  0.446666  1
  Ru  Ru10  1  0.750000  0.329836  0.922279  1
  Ru  Ru11  1  0.250000  0.662327  0.064097  1
