# generated using pymatgen
data_CeThBiPt2
_symmetry_space_group_name_H-M   'P 1'
_cell_length_a   8.02438600
_cell_length_b   8.01763600
_cell_length_c   3.81821900
_cell_angle_alpha   90.00000000
_cell_angle_beta   90.00000000
_cell_angle_gamma   90.00000000
_symmetry_Int_Tables_number   1
_chemical_formula_structural   CeThBiPt2
_chemical_formula_sum   'Ce2 Th2 Bi2 Pt4'
_cell_volume   245.65125170
_cell_formula_units_Z   2
loop_
 _symmetry_equiv_pos_site_id
 _symmetry_equiv_pos_as_xyz
  1  'x, y, z'
loop_
 _atom_site_type_symbol
 _atom_site_label
 _atom_site_symmetry_multiplicity
 _atom_site_fract_x
 _atom_site_fract_y
 _atom_site_fract_z
 _atom_site_occupancy
  Ce  Ce0  1  0.825562  0.673689  0.500000  1
  Ce  Ce1  1  0.674438  0.173689  0.500000  1
  Th  Th2  1  0.170194  0.329091  0.500000  1
  Th  Th3  1  0.329806  0.829091  0.500000  1
  Bi  Bi4  1  0.506291  0.497701  0.000000  1
  Bi  Bi5  1  0.993709  0.997701  0.000000  1
  Pt  Pt6  1  0.622418  0.873571  0.000000  1
  Pt  Pt7  1  0.129368  0.625947  0.000000  1
  Pt  Pt8  1  0.877582  0.373571  0.000000  1
  Pt  Pt9  1  0.370632  0.125947  0.000000  1
