# generated using pymatgen
data_La2Pr7ErGa6
_symmetry_space_group_name_H-M   'P 1'
_cell_length_a   7.87048403
_cell_length_b   7.86855718
_cell_length_c   14.87708531
_cell_angle_alpha   89.97685038
_cell_angle_beta   89.99767766
_cell_angle_gamma   89.99100080
_symmetry_Int_Tables_number   1
_chemical_formula_structural   La2Pr7ErGa6
_chemical_formula_sum   'La4 Pr14 Er2 Ga12'
_cell_volume   921.32818962
_cell_formula_units_Z   2
loop_
 _symmetry_equiv_pos_site_id
 _symmetry_equiv_pos_as_xyz
  1  'x, y, z'
loop_
 _atom_site_type_symbol
 _atom_site_label
 _atom_site_symmetry_multiplicity
 _atom_site_fract_x
 _atom_site_fract_y
 _atom_site_fract_z
 _atom_site_occupancy
  La  La0  1  0.999932  0.500201  0.708922  1
  La  La1  1  0.499113  0.998869  0.291518  1
  La  La2  1  0.160306  0.817916  0.397692  1
  La  La3  1  0.682329  0.660083  0.397628  1
  Pr  Pr4  1  0.339334  0.311524  0.104283  1
  Pr  Pr5  1  0.839192  0.811509  0.895579  1
  Pr  Pr6  1  0.841559  0.183800  0.396351  1
  Pr  Pr7  1  0.160911  0.188308  0.895517  1
  Pr  Pr8  1  0.660447  0.688104  0.104145  1
  Pr  Pr9  1  0.816128  0.840962  0.603601  1
  Pr  Pr10  1  0.316529  0.341176  0.396431  1
  Pr  Pr11  1  0.188424  0.839674  0.104280  1
  Pr  Pr12  1  0.183387  0.159421  0.603795  1
  Pr  Pr13  1  0.811549  0.161096  0.104082  1
  Pr  Pr14  1  0.340508  0.683589  0.603759  1
  Pr  Pr15  1  0.688325  0.338835  0.895562  1
  Pr  Pr16  1  0.658987  0.315992  0.603678  1
  Pr  Pr17  1  0.311295  0.660989  0.895534  1
  Er  Er18  1  0.500290  0.999985  0.773579  1
  Er  Er19  1  0.000169  0.499609  0.225657  1
  Ga  Ga20  1  0.624361  0.382401  0.248222  1
  Ga  Ga21  1  0.875386  0.116132  0.751270  1
  Ga  Ga22  1  0.500262  0.001008  0.500854  1
  Ga  Ga23  1  0.883569  0.876691  0.247955  1
  Ga  Ga24  1  0.000040  0.500010  0.017944  1
  Ga  Ga25  1  0.124625  0.883746  0.751250  1
  Ga  Ga26  1  0.383700  0.375506  0.751307  1
  Ga  Ga27  1  0.116392  0.125254  0.248260  1
  Ga  Ga28  1  0.375690  0.615203  0.247959  1
  Ga  Ga29  1  0.616170  0.624768  0.751083  1
  Ga  Ga30  1  0.500112  0.000197  0.981802  1
  Ga  Ga31  1  0.000980  0.497444  0.500500  1
