# generated using pymatgen
data_Cs4MnInS2(O4F3)2
_symmetry_space_group_name_H-M   'P 1'
_cell_length_a   11.94097400
_cell_length_b   7.56489072
_cell_length_c   9.40642100
_cell_angle_alpha   87.44459521
_cell_angle_beta   90.00000000
_cell_angle_gamma   90.00000000
_symmetry_Int_Tables_number   1
_chemical_formula_structural   Cs4MnInS2(O4F3)2
_chemical_formula_sum   'Cs8 Mn2 In2 S4 O16 F12'
_cell_volume   848.85739312
_cell_formula_units_Z   2
loop_
 _symmetry_equiv_pos_site_id
 _symmetry_equiv_pos_as_xyz
  1  'x, y, z'
loop_
 _atom_site_type_symbol
 _atom_site_label
 _atom_site_symmetry_multiplicity
 _atom_site_fract_x
 _atom_site_fract_y
 _atom_site_fract_z
 _atom_site_occupancy
  Cs  Cs0  1  0.193446  0.795108  0.333994  1
  Cs  Cs1  1  0.683256  0.203371  0.167229  1
  Cs  Cs2  1  0.806554  0.204892  0.666006  1
  Cs  Cs3  1  0.316744  0.796629  0.832771  1
  Cs  Cs4  1  0.315077  0.289489  0.172161  1
  Cs  Cs5  1  0.804857  0.706796  0.329170  1
  Cs  Cs6  1  0.684923  0.710511  0.827839  1
  Cs  Cs7  1  0.195143  0.293204  0.670830  1
  Mn  Mn8  1  0.500000  0.500000  0.500000  1
  Mn  Mn9  1  0.500000  0.000000  0.500000  1
  In  In10  1  0.000000  0.500000  0.000000  1
  In  In11  1  0.000000  0.000000  0.000000  1
  S  S12  1  0.000430  0.245470  0.300587  1
  S  S13  1  0.497809  0.746076  0.208656  1
  S  S14  1  0.999570  0.754530  0.699413  1
  S  S15  1  0.502191  0.253924  0.791344  1
  O  O16  1  0.452071  0.891631  0.294991  1
  O  O17  1  0.951727  0.106322  0.205646  1
  O  O18  1  0.547929  0.108369  0.705009  1
  O  O19  1  0.048273  0.893678  0.794354  1
  O  O20  1  0.056230  0.387074  0.204100  1
  O  O21  1  0.547526  0.601403  0.311070  1
  O  O22  1  0.943770  0.612926  0.795900  1
  O  O23  1  0.452474  0.398597  0.688930  1
  O  O24  1  0.907258  0.322402  0.378776  1
  O  O25  1  0.406696  0.669592  0.125988  1
  O  O26  1  0.092742  0.677598  0.621224  1
  O  O27  1  0.593304  0.330408  0.874012  1
  O  O28  1  0.088163  0.167901  0.393064  1
  O  O29  1  0.592053  0.809810  0.119563  1
  O  O30  1  0.911837  0.832099  0.606936  1
  O  O31  1  0.407947  0.190190  0.880437  1
  F  F32  1  0.347939  0.517406  0.453597  1
  F  F33  1  0.832173  0.482513  0.050570  1
  F  F34  1  0.652061  0.482594  0.546403  1
  F  F35  1  0.167827  0.517487  0.949430  1
  F  F36  1  0.168914  0.018999  0.040985  1
  F  F37  1  0.652694  0.979894  0.461552  1
  F  F38  1  0.831086  0.981001  0.959015  1
  F  F39  1  0.347306  0.020106  0.538448  1
  F  F40  1  0.002356  0.745839  0.108203  1
  F  F41  1  0.501304  0.236334  0.409335  1
  F  F42  1  0.997644  0.254161  0.891797  1
  F  F43  1  0.498696  0.763666  0.590665  1
