# generated using pymatgen
data_La4ErMgSi4
_symmetry_space_group_name_H-M   'P 1'
_cell_length_a   7.60925500
_cell_length_b   7.60925500
_cell_length_c   4.49444100
_cell_angle_alpha   90.00000000
_cell_angle_beta   90.00000000
_cell_angle_gamma   90.00000000
_symmetry_Int_Tables_number   1
_chemical_formula_structural   La4ErMgSi4
_chemical_formula_sum   'La4 Er1 Mg1 Si4'
_cell_volume   260.23155711
_cell_formula_units_Z   1
loop_
 _symmetry_equiv_pos_site_id
 _symmetry_equiv_pos_as_xyz
  1  'x, y, z'
loop_
 _atom_site_type_symbol
 _atom_site_label
 _atom_site_symmetry_multiplicity
 _atom_site_fract_x
 _atom_site_fract_y
 _atom_site_fract_z
 _atom_site_occupancy
  La  La0  1  0.671238  0.186728  0.500000  1
  La  La1  1  0.328762  0.813272  0.500000  1
  La  La2  1  0.186728  0.328762  0.500000  1
  La  La3  1  0.813272  0.671238  0.500000  1
  Er  Er4  1  0.000000  0.000000  0.000000  1
  Mg  Mg5  1  0.500000  0.500000  0.000000  1
  Si  Si6  1  0.107783  0.619207  0.000000  1
  Si  Si7  1  0.892217  0.380793  0.000000  1
  Si  Si8  1  0.619207  0.892217  0.000000  1
  Si  Si9  1  0.380793  0.107783  0.000000  1
