# generated using pymatgen
data_Zr8V5Si16Mo7
_symmetry_space_group_name_H-M   'P 1'
_cell_length_a   6.56171352
_cell_length_b   6.69496115
_cell_length_c   12.72129350
_cell_angle_alpha   89.94696026
_cell_angle_beta   90.03623161
_cell_angle_gamma   90.09909949
_symmetry_Int_Tables_number   1
_chemical_formula_structural   Zr8V5Si16Mo7
_chemical_formula_sum   'Zr8 V5 Si16 Mo7'
_cell_volume   558.85054216
_cell_formula_units_Z   1
loop_
 _symmetry_equiv_pos_site_id
 _symmetry_equiv_pos_as_xyz
  1  'x, y, z'
loop_
 _atom_site_type_symbol
 _atom_site_label
 _atom_site_symmetry_multiplicity
 _atom_site_fract_x
 _atom_site_fract_y
 _atom_site_fract_z
 _atom_site_occupancy
  Zr  Zr0  1  0.495460  0.331609  0.093410  1
  Zr  Zr1  1  0.994488  0.168485  0.407447  1
  Zr  Zr2  1  0.505530  0.668611  0.592226  1
  Zr  Zr3  1  0.004509  0.831215  0.907880  1
  Zr  Zr4  1  0.505924  0.668729  0.906140  1
  Zr  Zr5  1  0.006700  0.830503  0.591818  1
  Zr  Zr6  1  0.492458  0.331209  0.406714  1
  Zr  Zr7  1  0.995342  0.169224  0.094730  1
  V  V8  1  0.836758  0.333495  0.625072  1
  V  V9  1  0.336433  0.166698  0.874838  1
  V  V10  1  0.164048  0.666845  0.124021  1
  V  V11  1  0.663791  0.833597  0.375432  1
  V  V12  1  0.162444  0.662841  0.376459  1
  Si  Si13  1  0.670990  0.042445  0.539754  1
  Si  Si14  1  0.171825  0.457434  0.960327  1
  Si  Si15  1  0.328417  0.958133  0.039955  1
  Si  Si16  1  0.831052  0.543479  0.459124  1
  Si  Si17  1  0.333742  0.951778  0.455569  1
  Si  Si18  1  0.837696  0.543616  0.043859  1
  Si  Si19  1  0.662269  0.043514  0.956701  1
  Si  Si20  1  0.163995  0.458762  0.540321  1
  Si  Si21  1  0.537994  0.371456  0.749173  1
  Si  Si22  1  0.037899  0.128138  0.750323  1
  Si  Si23  1  0.459365  0.628881  0.251464  1
  Si  Si24  1  0.963486  0.869790  0.252107  1
  Si  Si25  1  0.803836  0.634619  0.748146  1
  Si  Si26  1  0.302652  0.865865  0.751058  1
  Si  Si27  1  0.197275  0.368399  0.250280  1
  Si  Si28  1  0.697445  0.133866  0.252046  1
  Mo  Mo29  1  0.663740  0.835984  0.122671  1
  Mo  Mo30  1  0.835633  0.336666  0.878161  1
  Mo  Mo31  1  0.335265  0.163821  0.621414  1
  Mo  Mo32  1  0.669042  0.996052  0.749221  1
  Mo  Mo33  1  0.168787  0.503787  0.749639  1
  Mo  Mo34  1  0.330435  0.002022  0.250558  1
  Mo  Mo35  1  0.833278  0.498429  0.251944  1
