# generated using pymatgen
data_SrPr6CoCl12
_symmetry_space_group_name_H-M   'P 1'
_cell_length_a   9.28310348
_cell_length_b   9.25549074
_cell_length_c   9.11313332
_cell_angle_alpha   105.64470706
_cell_angle_beta   106.17187706
_cell_angle_gamma   106.29882878
_symmetry_Int_Tables_number   1
_chemical_formula_structural   SrPr6CoCl12
_chemical_formula_sum   'Sr1 Pr6 Co1 Cl12'
_cell_volume   668.43558128
_cell_formula_units_Z   1
loop_
 _symmetry_equiv_pos_site_id
 _symmetry_equiv_pos_as_xyz
  1  'x, y, z'
loop_
 _atom_site_type_symbol
 _atom_site_label
 _atom_site_symmetry_multiplicity
 _atom_site_fract_x
 _atom_site_fract_y
 _atom_site_fract_z
 _atom_site_occupancy
  Sr  Sr0  1  0.500000  0.500000  0.500000  1
  Pr  Pr1  1  0.110696  0.317639  0.014043  1
  Pr  Pr2  1  0.317392  0.015947  0.111137  1
  Pr  Pr3  1  0.016738  0.104900  0.306209  1
  Pr  Pr4  1  0.983263  0.895100  0.693792  1
  Pr  Pr5  1  0.682608  0.984054  0.888863  1
  Pr  Pr6  1  0.889304  0.682361  0.985957  1
  Co  Co7  1  0.000000  0.000000  0.000000  1
  Cl  Cl8  1  0.210542  0.680694  0.073034  1
  Cl  Cl9  1  0.445786  0.358173  0.152463  1
  Cl  Cl10  1  0.681977  0.072361  0.213079  1
  Cl  Cl11  1  0.930021  0.789168  0.323728  1
  Cl  Cl12  1  0.157776  0.444342  0.360245  1
  Cl  Cl13  1  0.361323  0.158758  0.449543  1
  Cl  Cl14  1  0.638677  0.841242  0.550458  1
  Cl  Cl15  1  0.842225  0.555658  0.639755  1
  Cl  Cl16  1  0.069980  0.210832  0.676273  1
  Cl  Cl17  1  0.318024  0.927640  0.786921  1
  Cl  Cl18  1  0.554214  0.641827  0.847538  1
  Cl  Cl19  1  0.789458  0.319306  0.926966  1
