# generated using pymatgen
data_Ac2Ga5CoPt2
_symmetry_space_group_name_H-M   'P 1'
_cell_length_a   8.85947419
_cell_length_b   8.85947368
_cell_length_c   8.85947300
_cell_angle_alpha   140.60775686
_cell_angle_beta   107.04703643
_cell_angle_gamma   86.21709407
_symmetry_Int_Tables_number   1
_chemical_formula_structural   Ac2Ga5CoPt2
_chemical_formula_sum   'Ac4 Ga10 Co2 Pt4'
_cell_volume   406.87370099
_cell_formula_units_Z   2
loop_
 _symmetry_equiv_pos_site_id
 _symmetry_equiv_pos_as_xyz
  1  'x, y, z'
loop_
 _atom_site_type_symbol
 _atom_site_label
 _atom_site_symmetry_multiplicity
 _atom_site_fract_x
 _atom_site_fract_y
 _atom_site_fract_z
 _atom_site_occupancy
  Ac  Ac0  1  0.860985  0.638218  0.222766  1
  Ac  Ac1  1  0.139015  0.361782  0.777234  1
  Ac  Ac2  1  0.415453  0.138218  0.277234  1
  Ac  Ac3  1  0.584547  0.861782  0.722766  1
  Ga  Ga4  1  0.500000  0.750000  0.250000  1
  Ga  Ga5  1  0.500000  0.250000  0.750000  1
  Ga  Ga6  1  0.207096  0.957096  0.750000  1
  Ga  Ga7  1  0.792904  0.542904  0.750000  1
  Ga  Ga8  1  0.792904  0.042904  0.250000  1
  Ga  Ga9  1  0.207096  0.457096  0.250000  1
  Ga  Ga10  1  0.059880  0.911051  0.148830  1
  Ga  Ga11  1  0.940120  0.088949  0.851170  1
  Ga  Ga12  1  0.762221  0.411051  0.351170  1
  Ga  Ga13  1  0.237779  0.588949  0.648830  1
  Co  Co14  1  0.000000  0.750000  0.750000  1
  Co  Co15  1  0.000000  0.250000  0.250000  1
  Pt  Pt16  1  0.250929  0.854917  0.396015  1
  Pt  Pt17  1  0.749071  0.145083  0.603985  1
  Pt  Pt18  1  0.458901  0.354917  0.103985  1
  Pt  Pt19  1  0.541099  0.645083  0.896015  1
