# generated using pymatgen
data_TbMn8NbP4
_symmetry_space_group_name_H-M   'P 1'
_cell_length_a   6.93139638
_cell_length_b   6.93139715
_cell_length_c   3.70474400
_cell_angle_alpha   90.00000000
_cell_angle_beta   90.00000000
_cell_angle_gamma   88.74004319
_symmetry_Int_Tables_number   1
_chemical_formula_structural   TbMn8NbP4
_chemical_formula_sum   'Tb1 Mn8 Nb1 P4'
_cell_volume   177.94865351
_cell_formula_units_Z   1
loop_
 _symmetry_equiv_pos_site_id
 _symmetry_equiv_pos_as_xyz
  1  'x, y, z'
loop_
 _atom_site_type_symbol
 _atom_site_label
 _atom_site_symmetry_multiplicity
 _atom_site_fract_x
 _atom_site_fract_y
 _atom_site_fract_z
 _atom_site_occupancy
  Tb  Tb0  1  0.500000  0.500000  0.000000  1
  Mn  Mn1  1  0.080958  0.340379  0.000000  1
  Mn  Mn2  1  0.851006  0.409527  0.500000  1
  Mn  Mn3  1  0.148994  0.590473  0.500000  1
  Mn  Mn4  1  0.919042  0.659621  0.000000  1
  Mn  Mn5  1  0.409527  0.851006  0.500000  1
  Mn  Mn6  1  0.590473  0.148994  0.500000  1
  Mn  Mn7  1  0.340379  0.080958  0.000000  1
  Mn  Mn8  1  0.659621  0.919042  0.000000  1
  Nb  Nb9  1  0.000000  0.000000  0.500000  1
  P  P10  1  0.791811  0.208189  0.000000  1
  P  P11  1  0.723330  0.723330  0.500000  1
  P  P12  1  0.276670  0.276670  0.500000  1
  P  P13  1  0.208189  0.791811  0.000000  1
