# generated using pymatgen
data_Pr17Tm3(Ga3Sn)3
_symmetry_space_group_name_H-M   'P 1'
_cell_length_a   7.98811000
_cell_length_b   7.98811000
_cell_length_c   14.75714200
_cell_angle_alpha   90.00000000
_cell_angle_beta   90.00000000
_cell_angle_gamma   90.00000000
_symmetry_Int_Tables_number   1
_chemical_formula_structural   Pr17Tm3(Ga3Sn)3
_chemical_formula_sum   'Pr17 Tm3 Ga9 Sn3'
_cell_volume   941.65177555
_cell_formula_units_Z   1
loop_
 _symmetry_equiv_pos_site_id
 _symmetry_equiv_pos_as_xyz
  1  'x, y, z'
loop_
 _atom_site_type_symbol
 _atom_site_label
 _atom_site_symmetry_multiplicity
 _atom_site_fract_x
 _atom_site_fract_y
 _atom_site_fract_z
 _atom_site_occupancy
  Pr  Pr0  1  0.819245  0.839829  0.607379  1
  Pr  Pr1  1  0.182121  0.841492  0.104433  1
  Pr  Pr2  1  0.160312  0.823226  0.392144  1
  Pr  Pr3  1  0.839688  0.176774  0.392144  1
  Pr  Pr4  1  0.676774  0.660312  0.392144  1
  Pr  Pr5  1  0.660171  0.319245  0.607379  1
  Pr  Pr6  1  0.339829  0.680755  0.607379  1
  Pr  Pr7  1  0.658508  0.682121  0.104433  1
  Pr  Pr8  1  0.678349  0.340259  0.894229  1
  Pr  Pr9  1  0.840259  0.821651  0.894229  1
  Pr  Pr10  1  0.323226  0.339688  0.392144  1
  Pr  Pr11  1  0.180755  0.160171  0.607379  1
  Pr  Pr12  1  0.817879  0.158508  0.104433  1
  Pr  Pr13  1  0.321651  0.659741  0.894229  1
  Pr  Pr14  1  0.341492  0.317879  0.104433  1
  Pr  Pr15  1  0.159741  0.178349  0.894229  1
  Pr  Pr16  1  0.500000  0.000000  0.787890  1
  Tm  Tm17  1  0.000000  0.500000  0.731411  1
  Tm  Tm18  1  0.000000  0.500000  0.229843  1
  Tm  Tm19  1  0.500000  0.000000  0.263804  1
  Ga  Ga20  1  0.624616  0.375357  0.249463  1
  Ga  Ga21  1  0.119248  0.872281  0.748496  1
  Ga  Ga22  1  0.372281  0.380752  0.748496  1
  Ga  Ga23  1  0.375384  0.624643  0.249463  1
  Ga  Ga24  1  0.875357  0.875384  0.249463  1
  Ga  Ga25  1  0.627719  0.619248  0.748496  1
  Ga  Ga26  1  0.880752  0.127719  0.748496  1
  Ga  Ga27  1  0.500000  0.000000  0.997905  1
  Ga  Ga28  1  0.124643  0.124616  0.249463  1
  Sn  Sn29  1  0.000000  0.500000  0.510033  1
  Sn  Sn30  1  0.500000  0.000000  0.484563  1
  Sn  Sn31  1  0.000000  0.500000  0.009968  1
