# generated using pymatgen
data_Yb3Dy16TmIr12
_symmetry_space_group_name_H-M   'P 1'
_cell_length_a   10.86421487
_cell_length_b   10.90634364
_cell_length_c   6.34662200
_cell_angle_alpha   89.96157637
_cell_angle_beta   90.21831507
_cell_angle_gamma   90.01086859
_symmetry_Int_Tables_number   1
_chemical_formula_structural   Yb3Dy16TmIr12
_chemical_formula_sum   'Yb3 Dy16 Tm1 Ir12'
_cell_volume   751.99836911
_cell_formula_units_Z   1
loop_
 _symmetry_equiv_pos_site_id
 _symmetry_equiv_pos_as_xyz
  1  'x, y, z'
loop_
 _atom_site_type_symbol
 _atom_site_label
 _atom_site_symmetry_multiplicity
 _atom_site_fract_x
 _atom_site_fract_y
 _atom_site_fract_z
 _atom_site_occupancy
  Yb  Yb0  1  0.287845  0.086680  0.375684  1
  Yb  Yb1  1  0.290429  0.911557  0.875794  1
  Yb  Yb2  1  0.001942  0.999744  0.499193  1
  Dy  Dy3  1  0.708325  0.087620  0.880160  1
  Dy  Dy4  1  0.710731  0.914326  0.380037  1
  Dy  Dy5  1  0.587815  0.792261  0.878085  1
  Dy  Dy6  1  0.586308  0.207686  0.377729  1
  Dy  Dy7  1  0.411995  0.793093  0.379270  1
  Dy  Dy8  1  0.410729  0.206925  0.880082  1
  Dy  Dy9  1  0.209928  0.413392  0.623581  1
  Dy  Dy10  1  0.210064  0.588017  0.122605  1
  Dy  Dy11  1  0.790827  0.411078  0.120148  1
  Dy  Dy12  1  0.790890  0.587559  0.620642  1
  Dy  Dy13  1  0.911826  0.708840  0.122156  1
  Dy  Dy14  1  0.913429  0.289043  0.622637  1
  Dy  Dy15  1  0.086773  0.710451  0.621088  1
  Dy  Dy16  1  0.088643  0.291817  0.120993  1
  Dy  Dy17  1  0.001108  0.000451  0.999487  1
  Dy  Dy18  1  0.500190  0.499700  0.998327  1
  Tm  Tm19  1  0.500109  0.500342  0.498502  1
  Ir  Ir20  1  0.846652  0.156472  0.246173  1
  Ir  Ir21  1  0.845925  0.844403  0.754862  1
  Ir  Ir22  1  0.151149  0.161579  0.757232  1
  Ir  Ir23  1  0.149912  0.836888  0.247442  1
  Ir  Ir24  1  0.651486  0.346437  0.747346  1
  Ir  Ir25  1  0.650884  0.654191  0.252861  1
  Ir  Ir26  1  0.348252  0.351464  0.249442  1
  Ir  Ir27  1  0.347659  0.648205  0.743396  1
  Ir  Ir28  1  0.504085  0.000262  0.122742  1
  Ir  Ir29  1  0.504043  0.999542  0.621565  1
  Ir  Ir30  1  0.000012  0.500194  0.879722  1
  Ir  Ir31  1  0.000037  0.499780  0.381014  1
