# generated using pymatgen
data_Pu3Rh4
_symmetry_space_group_name_H-M   'P 1'
_cell_length_a   7.77805356
_cell_length_b   7.77805377
_cell_length_c   7.77805400
_cell_angle_alpha   114.37986478
_cell_angle_beta   114.37986548
_cell_angle_gamma   114.37986001
_symmetry_Int_Tables_number   1
_chemical_formula_structural   Pu3Rh4
_chemical_formula_sum   'Pu6 Rh8'
_cell_volume   277.65207282
_cell_formula_units_Z   2
loop_
 _symmetry_equiv_pos_site_id
 _symmetry_equiv_pos_as_xyz
  1  'x, y, z'
loop_
 _atom_site_type_symbol
 _atom_site_label
 _atom_site_symmetry_multiplicity
 _atom_site_fract_x
 _atom_site_fract_y
 _atom_site_fract_z
 _atom_site_occupancy
  Pu  Pu0  1  0.408180  0.279341  0.022796  1
  Pu  Pu1  1  0.279341  0.022796  0.408180  1
  Pu  Pu2  1  0.022796  0.408180  0.279341  1
  Pu  Pu3  1  0.591820  0.720659  0.977204  1
  Pu  Pu4  1  0.720659  0.977204  0.591820  1
  Pu  Pu5  1  0.977204  0.591820  0.720659  1
  Rh  Rh6  1  0.000000  0.000000  0.000000  1
  Rh  Rh7  1  0.500000  0.500000  0.500000  1
  Rh  Rh8  1  0.233144  0.540093  0.072902  1
  Rh  Rh9  1  0.540093  0.072902  0.233144  1
  Rh  Rh10  1  0.072902  0.233144  0.540093  1
  Rh  Rh11  1  0.766856  0.459907  0.927098  1
  Rh  Rh12  1  0.459907  0.927098  0.766856  1
  Rh  Rh13  1  0.927098  0.766856  0.459907  1
