# generated using pymatgen
data_Y4Ho3ErPt4
_symmetry_space_group_name_H-M   'P 1'
_cell_length_a   4.76659500
_cell_length_b   7.16648401
_cell_length_c   8.79690514
_cell_angle_alpha   89.95933897
_cell_angle_beta   90.00000000
_cell_angle_gamma   90.00000000
_symmetry_Int_Tables_number   1
_chemical_formula_structural   Y4Ho3ErPt4
_chemical_formula_sum   'Y4 Ho3 Er1 Pt4'
_cell_volume   300.49980107
_cell_formula_units_Z   1
loop_
 _symmetry_equiv_pos_site_id
 _symmetry_equiv_pos_as_xyz
  1  'x, y, z'
loop_
 _atom_site_type_symbol
 _atom_site_label
 _atom_site_symmetry_multiplicity
 _atom_site_fract_x
 _atom_site_fract_y
 _atom_site_fract_z
 _atom_site_occupancy
  Y  Y0  1  0.250000  0.989565  0.331267  1
  Y  Y1  1  0.250000  0.489657  0.168813  1
  Y  Y2  1  0.750000  0.010305  0.669077  1
  Y  Y3  1  0.750000  0.510544  0.831007  1
  Ho  Ho4  1  0.250000  0.855775  0.920290  1
  Ho  Ho5  1  0.250000  0.355835  0.579611  1
  Ho  Ho6  1  0.750000  0.144248  0.079748  1
  Er  Er7  1  0.750000  0.644385  0.420298  1
  Pt  Pt8  1  0.250000  0.256484  0.906250  1
  Pt  Pt9  1  0.250000  0.756295  0.593650  1
  Pt  Pt10  1  0.750000  0.743383  0.093771  1
  Pt  Pt11  1  0.750000  0.243525  0.406219  1
