# generated using pymatgen
data_KBa(LaI4)2
_symmetry_space_group_name_H-M   'P 1'
_cell_length_a   9.31482072
_cell_length_b   9.31482013
_cell_length_c   7.63668272
_cell_angle_alpha   72.26218657
_cell_angle_beta   72.26219045
_cell_angle_gamma   110.92108729
_symmetry_Int_Tables_number   1
_chemical_formula_structural   KBa(LaI4)2
_chemical_formula_sum   'K1 Ba1 La2 I8'
_cell_volume   521.97316241
_cell_formula_units_Z   1
loop_
 _symmetry_equiv_pos_site_id
 _symmetry_equiv_pos_as_xyz
  1  'x, y, z'
loop_
 _atom_site_type_symbol
 _atom_site_label
 _atom_site_symmetry_multiplicity
 _atom_site_fract_x
 _atom_site_fract_y
 _atom_site_fract_z
 _atom_site_occupancy
  K  K0  1  0.637364  0.362636  0.250000  1
  Ba  Ba1  1  0.365900  0.634100  0.750000  1
  La  La2  1  0.000227  0.999773  0.750000  1
  La  La3  1  0.000188  0.999812  0.250000  1
  I  I4  1  0.646683  0.776205  0.217970  1
  I  I5  1  0.223795  0.353317  0.282030  1
  I  I6  1  0.351658  0.228502  0.786952  1
  I  I7  1  0.771498  0.648342  0.713048  1
  I  I8  1  0.717027  0.054065  0.584770  1
  I  I9  1  0.945935  0.282973  0.915230  1
  I  I10  1  0.278396  0.938671  0.423961  1
  I  I11  1  0.061329  0.721604  0.076039  1
