# generated using pymatgen
data_Hf4Fe3CuSi7
_symmetry_space_group_name_H-M   'P 1'
_cell_length_a   9.51696752
_cell_length_b   9.51536595
_cell_length_c   9.46180981
_cell_angle_alpha   94.15205080
_cell_angle_beta   94.19238817
_cell_angle_gamma   148.80702679
_symmetry_Int_Tables_number   1
_chemical_formula_structural   Hf4Fe3CuSi7
_chemical_formula_sum   'Hf8 Fe6 Cu2 Si14'
_cell_volume   427.21804645
_cell_formula_units_Z   2
loop_
 _symmetry_equiv_pos_site_id
 _symmetry_equiv_pos_as_xyz
  1  'x, y, z'
loop_
 _atom_site_type_symbol
 _atom_site_label
 _atom_site_symmetry_multiplicity
 _atom_site_fract_x
 _atom_site_fract_y
 _atom_site_fract_z
 _atom_site_occupancy
  Hf  Hf0  1  0.138338  0.138400  0.276599  1
  Hf  Hf1  1  0.861643  0.861628  0.723248  1
  Hf  Hf2  1  0.862928  0.136988  0.000005  1
  Hf  Hf3  1  0.136961  0.862930  0.999939  1
  Hf  Hf4  1  0.491809  0.296489  0.802064  1
  Hf  Hf5  1  0.494636  0.689951  0.197942  1
  Hf  Hf6  1  0.703395  0.508017  0.197896  1
  Hf  Hf7  1  0.310206  0.505467  0.802013  1
  Fe  Fe8  1  0.109132  0.891473  0.499895  1
  Fe  Fe9  1  0.391048  0.608671  0.499966  1
  Fe  Fe10  1  0.595655  0.404526  0.500011  1
  Fe  Fe11  1  0.904641  0.095808  0.500178  1
  Fe  Fe12  1  0.899054  0.399050  0.798693  1
  Fe  Fe13  1  0.600668  0.100718  0.201376  1
  Cu  Cu14  1  0.395120  0.895001  0.791448  1
  Cu  Cu15  1  0.104687  0.604814  0.208904  1
  Si  Si16  1  0.528335  0.126505  0.584211  1
  Si  Si17  1  0.542955  0.944792  0.415791  1
  Si  Si18  1  0.873058  0.471355  0.415865  1
  Si  Si19  1  0.055883  0.457760  0.584247  1
  Si  Si20  1  0.748494  0.748470  0.999925  1
  Si  Si21  1  0.251425  0.251444  0.999977  1
  Si  Si22  1  0.290194  0.290011  0.579922  1
  Si  Si23  1  0.710156  0.709995  0.419975  1
  Si  Si24  1  0.707660  0.292506  0.000068  1
  Si  Si25  1  0.292268  0.707397  0.000068  1
  Si  Si26  1  0.985353  0.279861  0.301431  1
  Si  Si27  1  0.977865  0.683476  0.698374  1
  Si  Si28  1  0.720131  0.014672  0.698441  1
  Si  Si29  1  0.316303  0.021823  0.301530  1
