# generated using pymatgen
data_Ho6Lu6TlGaCo4
_symmetry_space_group_name_H-M   'P 1'
_cell_length_a   8.21894168
_cell_length_b   8.19799827
_cell_length_c   8.19764981
_cell_angle_alpha   111.90485896
_cell_angle_beta   109.70833142
_cell_angle_gamma   106.74729886
_symmetry_Int_Tables_number   1
_chemical_formula_structural   Ho6Lu6TlGaCo4
_chemical_formula_sum   'Ho6 Lu6 Tl1 Ga1 Co4'
_cell_volume   424.82744500
_cell_formula_units_Z   1
loop_
 _symmetry_equiv_pos_site_id
 _symmetry_equiv_pos_as_xyz
  1  'x, y, z'
loop_
 _atom_site_type_symbol
 _atom_site_label
 _atom_site_symmetry_multiplicity
 _atom_site_fract_x
 _atom_site_fract_y
 _atom_site_fract_z
 _atom_site_occupancy
  Ho  Ho0  1  0.565610  0.266230  0.299345  1
  Ho  Ho1  1  0.434390  0.733770  0.700655  1
  Ho  Ho2  1  0.180557  0.779881  0.962359  1
  Ho  Ho3  1  0.819418  0.781753  0.599276  1
  Ho  Ho4  1  0.180582  0.218247  0.400724  1
  Ho  Ho5  1  0.819443  0.220119  0.037641  1
  Lu  Lu6  1  0.966667  0.265589  0.701057  1
  Lu  Lu7  1  0.033333  0.734411  0.298943  1
  Lu  Lu8  1  0.675589  0.859362  0.186776  1
  Lu  Lu9  1  0.324443  0.511184  0.183797  1
  Lu  Lu10  1  0.324411  0.140638  0.813224  1
  Lu  Lu11  1  0.675557  0.488816  0.816203  1
  Tl  Tl12  1  0.500000  0.000000  0.500000  1
  Ga  Ga13  1  0.000000  0.500000  0.500000  1
  Co  Co14  1  0.113491  0.115915  0.997563  1
  Co  Co15  1  0.886509  0.884085  0.002437  1
  Co  Co16  1  0.659166  0.500946  0.158208  1
  Co  Co17  1  0.340834  0.499054  0.841792  1
