# generated using pymatgen
data_Dy12In2Tc3
_symmetry_space_group_name_H-M   'P 1'
_cell_length_a   8.47983013
_cell_length_b   8.47950132
_cell_length_c   8.47983073
_cell_angle_alpha   108.93837718
_cell_angle_beta   108.94966538
_cell_angle_gamma   110.53243334
_symmetry_Int_Tables_number   1
_chemical_formula_structural   Dy12In2Tc3
_chemical_formula_sum   'Dy12 In2 Tc3'
_cell_volume   469.24797884
_cell_formula_units_Z   1
loop_
 _symmetry_equiv_pos_site_id
 _symmetry_equiv_pos_as_xyz
  1  'x, y, z'
loop_
 _atom_site_type_symbol
 _atom_site_label
 _atom_site_symmetry_multiplicity
 _atom_site_fract_x
 _atom_site_fract_y
 _atom_site_fract_z
 _atom_site_occupancy
  Dy  Dy0  1  0.190416  0.430566  0.240151  1
  Dy  Dy1  1  0.809584  0.569434  0.759849  1
  Dy  Dy2  1  0.190409  0.950251  0.759842  1
  Dy  Dy3  1  0.950322  0.190488  0.759835  1
  Dy  Dy4  1  0.809591  0.049749  0.240158  1
  Dy  Dy5  1  0.049678  0.809512  0.240165  1
  Dy  Dy6  1  0.430654  0.190488  0.240167  1
  Dy  Dy7  1  0.569346  0.809512  0.759833  1
  Dy  Dy8  1  0.306299  0.306343  0.612642  1
  Dy  Dy9  1  0.693701  0.693657  0.387358  1
  Dy  Dy10  1  0.693702  0.306343  0.000044  1
  Dy  Dy11  1  0.306298  0.693657  0.999956  1
  In  In12  1  0.000000  0.500000  0.500000  1
  In  In13  1  0.500000  0.000000  0.500000  1
  Tc  Tc14  1  0.371619  0.371610  0.999991  1
  Tc  Tc15  1  0.628381  0.628390  0.000009  1
  Tc  Tc16  1  0.000000  0.000000  0.000000  1
