# generated using pymatgen
data_La2Mn17BeSi8
_symmetry_space_group_name_H-M   'P 1'
_cell_length_a   8.06901156
_cell_length_b   8.06530730
_cell_length_c   7.90499125
_cell_angle_alpha   60.68618309
_cell_angle_beta   60.63936480
_cell_angle_gamma   58.67445575
_symmetry_Int_Tables_number   1
_chemical_formula_structural   La2Mn17BeSi8
_chemical_formula_sum   'La2 Mn17 Be1 Si8'
_cell_volume   363.48230226
_cell_formula_units_Z   1
loop_
 _symmetry_equiv_pos_site_id
 _symmetry_equiv_pos_as_xyz
  1  'x, y, z'
loop_
 _atom_site_type_symbol
 _atom_site_label
 _atom_site_symmetry_multiplicity
 _atom_site_fract_x
 _atom_site_fract_y
 _atom_site_fract_z
 _atom_site_occupancy
  La  La0  1  0.250000  0.250000  0.250000  1
  La  La1  1  0.750000  0.750000  0.750000  1
  Mn  Mn2  1  0.696633  0.303367  0.060454  1
  Mn  Mn3  1  0.303367  0.696633  0.939546  1
  Mn  Mn4  1  0.189326  0.810674  0.443839  1
  Mn  Mn5  1  0.810674  0.189326  0.556161  1
  Mn  Mn6  1  0.443839  0.556161  0.189326  1
  Mn  Mn7  1  0.556161  0.443839  0.810674  1
  Mn  Mn8  1  0.060454  0.939546  0.696633  1
  Mn  Mn9  1  0.939546  0.060454  0.303367  1
  Mn  Mn10  1  0.442300  0.204991  0.795009  1
  Mn  Mn11  1  0.204991  0.442300  0.557700  1
  Mn  Mn12  1  0.943787  0.716236  0.056213  1
  Mn  Mn13  1  0.716236  0.943787  0.283764  1
  Mn  Mn14  1  0.557700  0.795009  0.204991  1
  Mn  Mn15  1  0.795009  0.557700  0.442300  1
  Mn  Mn16  1  0.056213  0.283764  0.943787  1
  Mn  Mn17  1  0.283764  0.056213  0.716236  1
  Mn  Mn18  1  0.500000  0.500000  0.500000  1
  Be  Be19  1  0.000000  0.000000  0.000000  1
  Si  Si20  1  0.702966  0.056971  0.943029  1
  Si  Si21  1  0.056971  0.702966  0.297034  1
  Si  Si22  1  0.199833  0.550285  0.800167  1
  Si  Si23  1  0.550285  0.199833  0.449715  1
  Si  Si24  1  0.297034  0.943029  0.056971  1
  Si  Si25  1  0.943029  0.297034  0.702966  1
  Si  Si26  1  0.800167  0.449715  0.199833  1
  Si  Si27  1  0.449715  0.800167  0.550285  1
