# generated using pymatgen
data_Y3ScBe8(B5O11)4
_symmetry_space_group_name_H-M   'P 1'
_cell_length_a   4.36205475
_cell_length_b   6.72413090
_cell_length_c   25.64516738
_cell_angle_alpha   90.07226793
_cell_angle_beta   89.60956189
_cell_angle_gamma   90.10057137
_symmetry_Int_Tables_number   1
_chemical_formula_structural   Y3ScBe8(B5O11)4
_chemical_formula_sum   'Y3 Sc1 Be8 B20 O44'
_cell_volume   752.17989010
_cell_formula_units_Z   1
loop_
 _symmetry_equiv_pos_site_id
 _symmetry_equiv_pos_as_xyz
  1  'x, y, z'
loop_
 _atom_site_type_symbol
 _atom_site_label
 _atom_site_symmetry_multiplicity
 _atom_site_fract_x
 _atom_site_fract_y
 _atom_site_fract_z
 _atom_site_occupancy
  Y  Y0  1  0.129219  0.867626  0.079995  1
  Y  Y1  1  0.363353  0.867439  0.581372  1
  Y  Y2  1  0.636049  0.369105  0.419245  1
  Sc  Sc3  1  0.861991  0.358006  0.917382  1
  Be  Be4  1  0.159074  0.453269  0.793688  1
  Be  Be5  1  0.838485  0.952722  0.208644  1
  Be  Be6  1  0.664354  0.952954  0.710735  1
  Be  Be7  1  0.335948  0.452484  0.289863  1
  Be  Be8  1  0.659796  0.230177  0.795025  1
  Be  Be9  1  0.342564  0.727642  0.205245  1
  Be  Be10  1  0.160456  0.729142  0.708800  1
  Be  Be11  1  0.838831  0.228790  0.292733  1
  B  B12  1  0.369122  0.041169  0.871874  1
  B  B13  1  0.631949  0.538520  0.126715  1
  B  B14  1  0.871563  0.539679  0.631371  1
  B  B15  1  0.127557  0.040247  0.369797  1
  B  B16  1  0.138469  0.707967  0.874751  1
  B  B17  1  0.857895  0.210069  0.127343  1
  B  B18  1  0.644966  0.209030  0.630197  1
  B  B19  1  0.354160  0.709833  0.370474  1
  B  B20  1  0.012427  0.945094  0.944804  1
  B  B21  1  0.985966  0.430801  0.051950  1
  B  B22  1  0.524619  0.437840  0.557348  1
  B  B23  1  0.475951  0.938504  0.443463  1
  B  B24  1  0.526414  0.964804  0.998762  1
  B  B25  1  0.480062  0.452240  0.996386  1
  B  B26  1  0.037654  0.458345  0.502295  1
  B  B27  1  0.962571  0.958126  0.498415  1
  B  B28  1  0.175022  0.089636  0.753106  1
  B  B29  1  0.825901  0.587145  0.246999  1
  B  B30  1  0.672951  0.590089  0.750957  1
  B  B31  1  0.325517  0.086965  0.251168  1
  O  O32  1  0.345129  0.845070  0.853005  1
  O  O33  1  0.653269  0.347662  0.147968  1
  O  O34  1  0.849991  0.345926  0.651092  1
  O  O35  1  0.148358  0.846454  0.349911  1
  O  O36  1  0.620041  0.927334  0.047966  1
  O  O37  1  0.400358  0.426632  0.945757  1
  O  O38  1  0.129962  0.427525  0.452439  1
  O  O39  1  0.869658  0.926278  0.548197  1
  O  O40  1  0.986675  0.749052  0.920777  1
  O  O41  1  0.009340  0.240842  0.080066  1
  O  O42  1  0.492355  0.244700  0.583581  1
  O  O43  1  0.507538  0.745476  0.417031  1
  O  O44  1  0.209032  0.939036  0.991924  1
  O  O45  1  0.796742  0.417534  0.003750  1
  O  O46  1  0.721084  0.426535  0.509760  1
  O  O47  1  0.279154  0.926501  0.490974  1
  O  O48  1  0.139838  0.094916  0.908015  1
  O  O49  1  0.848827  0.581853  0.087520  1
  O  O50  1  0.654605  0.586806  0.593345  1
  O  O51  1  0.346047  0.087458  0.407602  1
  O  O52  1  0.069210  0.524205  0.853831  1
  O  O53  1  0.920179  0.031296  0.149987  1
  O  O54  1  0.584441  0.027503  0.651623  1
  O  O55  1  0.415103  0.528664  0.348844  1
  O  O56  1  0.581485  0.177870  0.856181  1
  O  O57  1  0.430351  0.678818  0.143598  1
  O  O58  1  0.075858  0.678658  0.647632  1
  O  O59  1  0.923944  0.179695  0.353793  1
  O  O60  1  0.709394  0.024367  0.957502  1
  O  O61  1  0.291504  0.505560  0.037845  1
  O  O62  1  0.222188  0.517218  0.543439  1
  O  O63  1  0.778729  0.017638  0.457357  1
  O  O64  1  0.024343  0.225577  0.784643  1
  O  O65  1  0.976802  0.723224  0.215355  1
  O  O66  1  0.525429  0.724201  0.718790  1
  O  O67  1  0.474176  0.223374  0.282678  1
  O  O68  1  0.489850  0.088523  0.753599  1
  O  O69  1  0.511094  0.585662  0.246588  1
  O  O70  1  0.988045  0.589906  0.750970  1
  O  O71  1  0.010774  0.085629  0.251750  1
  O  O72  1  0.025596  0.955184  0.721943  1
  O  O73  1  0.974804  0.453986  0.278457  1
  O  O74  1  0.521113  0.455734  0.782137  1
  O  O75  1  0.476729  0.952894  0.219873  1
