# generated using pymatgen
data_VHg3(OF3)2
_symmetry_space_group_name_H-M   'P 1'
_cell_length_a   6.96758271
_cell_length_b   6.94164699
_cell_length_c   5.10307801
_cell_angle_alpha   90.35943610
_cell_angle_beta   89.28739228
_cell_angle_gamma   120.03047813
_symmetry_Int_Tables_number   1
_chemical_formula_structural   VHg3(OF3)2
_chemical_formula_sum   'V1 Hg3 O2 F6'
_cell_volume   213.66847137
_cell_formula_units_Z   1
loop_
 _symmetry_equiv_pos_site_id
 _symmetry_equiv_pos_as_xyz
  1  'x, y, z'
loop_
 _atom_site_type_symbol
 _atom_site_label
 _atom_site_symmetry_multiplicity
 _atom_site_fract_x
 _atom_site_fract_y
 _atom_site_fract_z
 _atom_site_occupancy
  V  V0  1  0.000000  0.000000  0.499999  1
  Hg  Hg1  1  0.500001  0.000000  0.000000  1
  Hg  Hg2  1  0.000000  0.500000  0.000000  1
  Hg  Hg3  1  0.500000  0.500000  0.000000  1
  O  O4  1  0.334948  0.666110  0.888056  1
  O  O5  1  0.665053  0.333891  0.111942  1
  F  F6  1  0.125962  0.257433  0.286997  1
  F  F7  1  0.129899  0.868938  0.285414  1
  F  F8  1  0.748346  0.875803  0.290555  1
  F  F9  1  0.251653  0.124197  0.709443  1
  F  F10  1  0.870102  0.131062  0.714584  1
  F  F11  1  0.874039  0.742568  0.713001  1
