# generated using pymatgen
data_Tb3ErAl8
_symmetry_space_group_name_H-M   'P 1'
_cell_length_a   9.65801979
_cell_length_b   9.65801994
_cell_length_c   9.65801997
_cell_angle_alpha   33.51307019
_cell_angle_beta   33.51306984
_cell_angle_gamma   33.51306480
_symmetry_Int_Tables_number   1
_chemical_formula_structural   Tb3ErAl8
_chemical_formula_sum   'Tb3 Er1 Al8'
_cell_volume   244.59854846
_cell_formula_units_Z   1
loop_
 _symmetry_equiv_pos_site_id
 _symmetry_equiv_pos_as_xyz
  1  'x, y, z'
loop_
 _atom_site_type_symbol
 _atom_site_label
 _atom_site_symmetry_multiplicity
 _atom_site_fract_x
 _atom_site_fract_y
 _atom_site_fract_z
 _atom_site_occupancy
  Tb  Tb0  1  0.187474  0.187474  0.187474  1
  Tb  Tb1  1  0.812548  0.812548  0.812548  1
  Tb  Tb2  1  0.312563  0.312563  0.312563  1
  Er  Er3  1  0.687386  0.687386  0.687386  1
  Al  Al4  1  0.000099  0.000099  0.000099  1
  Al  Al5  1  0.499936  0.499936  0.499936  1
  Al  Al6  1  0.749755  0.249784  0.249784  1
  Al  Al7  1  0.250379  0.750146  0.750146  1
  Al  Al8  1  0.249784  0.749755  0.249784  1
  Al  Al9  1  0.750146  0.250379  0.750146  1
  Al  Al10  1  0.249784  0.249784  0.749755  1
  Al  Al11  1  0.750146  0.750146  0.250379  1
