# generated using pymatgen
data_Dy8Ho7Er5(CoBi2)4
_symmetry_space_group_name_H-M   'P 1'
_cell_length_a   7.97411814
_cell_length_b   8.89433852
_cell_length_c   12.38096777
_cell_angle_alpha   89.96312285
_cell_angle_beta   90.01682250
_cell_angle_gamma   90.01297218
_symmetry_Int_Tables_number   1
_chemical_formula_structural   Dy8Ho7Er5(CoBi2)4
_chemical_formula_sum   'Dy8 Ho7 Er5 Co4 Bi8'
_cell_volume   878.11378211
_cell_formula_units_Z   1
loop_
 _symmetry_equiv_pos_site_id
 _symmetry_equiv_pos_as_xyz
  1  'x, y, z'
loop_
 _atom_site_type_symbol
 _atom_site_label
 _atom_site_symmetry_multiplicity
 _atom_site_fract_x
 _atom_site_fract_y
 _atom_site_fract_z
 _atom_site_occupancy
  Dy  Dy0  1  0.346971  0.749850  0.699591  1
  Dy  Dy1  1  0.652782  0.250108  0.300363  1
  Dy  Dy2  1  0.846953  0.250199  0.800256  1
  Dy  Dy3  1  0.153142  0.749822  0.199775  1
  Dy  Dy4  1  0.884644  0.749707  0.810818  1
  Dy  Dy5  1  0.115424  0.250324  0.189223  1
  Dy  Dy6  1  0.384529  0.250082  0.688991  1
  Dy  Dy7  1  0.615111  0.749824  0.310954  1
  Ho  Ho8  1  0.675398  0.962018  0.562706  1
  Ho  Ho9  1  0.824312  0.961920  0.062840  1
  Ho  Ho10  1  0.175723  0.038035  0.937137  1
  Ho  Ho11  1  0.052792  0.749855  0.497811  1
  Ho  Ho12  1  0.947641  0.250183  0.502156  1
  Ho  Ho13  1  0.552369  0.250280  0.002164  1
  Ho  Ho14  1  0.447565  0.749706  0.997867  1
  Er  Er15  1  0.674347  0.538063  0.562572  1
  Er  Er16  1  0.325692  0.461751  0.437387  1
  Er  Er17  1  0.174340  0.461869  0.937289  1
  Er  Er18  1  0.325360  0.038191  0.437292  1
  Er  Er19  1  0.825664  0.538116  0.062752  1
  Co  Co20  1  0.065911  0.749398  0.991752  1
  Co  Co21  1  0.934111  0.250588  0.008276  1
  Co  Co22  1  0.565369  0.250292  0.508099  1
  Co  Co23  1  0.433809  0.749695  0.491705  1
  Bi  Bi24  1  0.571450  0.509504  0.827111  1
  Bi  Bi25  1  0.428497  0.490476  0.172851  1
  Bi  Bi26  1  0.071451  0.490513  0.672854  1
  Bi  Bi27  1  0.428086  0.009564  0.172996  1
  Bi  Bi28  1  0.928479  0.509500  0.327158  1
  Bi  Bi29  1  0.571840  0.990483  0.827140  1
  Bi  Bi30  1  0.928504  0.990532  0.327262  1
  Bi  Bi31  1  0.071737  0.009551  0.672854  1
