# generated using pymatgen
data_Nb12Al4Zn8CN3
_symmetry_space_group_name_H-M   'P 1'
_cell_length_a   8.29995449
_cell_length_b   8.29995517
_cell_length_c   8.31414005
_cell_angle_alpha   60.05642147
_cell_angle_beta   60.05641472
_cell_angle_gamma   60.00000099
_symmetry_Int_Tables_number   1
_chemical_formula_structural   Nb12Al4Zn8CN3
_chemical_formula_sum   'Nb12 Al4 Zn8 C1 N3'
_cell_volume   405.34388087
_cell_formula_units_Z   1
loop_
 _symmetry_equiv_pos_site_id
 _symmetry_equiv_pos_as_xyz
  1  'x, y, z'
loop_
 _atom_site_type_symbol
 _atom_site_label
 _atom_site_symmetry_multiplicity
 _atom_site_fract_x
 _atom_site_fract_y
 _atom_site_fract_z
 _atom_site_occupancy
  Nb  Nb0  1  0.814522  0.184680  0.816119  1
  Nb  Nb1  1  0.065320  0.435478  0.433881  1
  Nb  Nb2  1  0.434307  0.064487  0.066899  1
  Nb  Nb3  1  0.064487  0.434307  0.066899  1
  Nb  Nb4  1  0.434307  0.434307  0.066899  1
  Nb  Nb5  1  0.065320  0.065320  0.433881  1
  Nb  Nb6  1  0.815693  0.815693  0.183101  1
  Nb  Nb7  1  0.184680  0.814522  0.816119  1
  Nb  Nb8  1  0.815693  0.185513  0.183101  1
  Nb  Nb9  1  0.184680  0.184680  0.816119  1
  Nb  Nb10  1  0.435478  0.065320  0.433881  1
  Nb  Nb11  1  0.185513  0.815693  0.183101  1
  Al  Al12  1  0.625000  0.625000  0.625000  1
  Al  Al13  1  0.125000  0.625000  0.625000  1
  Al  Al14  1  0.625000  0.125000  0.625000  1
  Al  Al15  1  0.625000  0.625000  0.125000  1
  Zn  Zn16  1  0.416412  0.416412  0.416115  1
  Zn  Zn17  1  0.498941  0.833588  0.833885  1
  Zn  Zn18  1  0.833588  0.498941  0.833885  1
  Zn  Zn19  1  0.833732  0.833732  0.498805  1
  Zn  Zn20  1  0.416412  0.751059  0.416115  1
  Zn  Zn21  1  0.416268  0.416268  0.751195  1
  Zn  Zn22  1  0.751059  0.416412  0.416115  1
  Zn  Zn23  1  0.833588  0.833588  0.833885  1
  C  C24  1  0.125000  0.125000  0.625000  1
  N  N25  1  0.125000  0.125000  0.125000  1
  N  N26  1  0.625000  0.125000  0.125000  1
  N  N27  1  0.125000  0.625000  0.125000  1
