# generated using pymatgen
data_TiV(BRu)2
_symmetry_space_group_name_H-M   'P 1'
_cell_length_a   3.01029400
_cell_length_b   8.77650803
_cell_length_c   8.77641003
_cell_angle_alpha   120.00037072
_cell_angle_beta   90.00000000
_cell_angle_gamma   90.00000000
_symmetry_Int_Tables_number   1
_chemical_formula_structural   TiV(BRu)2
_chemical_formula_sum   'Ti3 V3 B6 Ru6'
_cell_volume   200.80595205
_cell_formula_units_Z   3
loop_
 _symmetry_equiv_pos_site_id
 _symmetry_equiv_pos_as_xyz
  1  'x, y, z'
loop_
 _atom_site_type_symbol
 _atom_site_label
 _atom_site_symmetry_multiplicity
 _atom_site_fract_x
 _atom_site_fract_y
 _atom_site_fract_z
 _atom_site_occupancy
  Ti  Ti0  1  0.000000  0.586324  0.000000  1
  Ti  Ti1  1  0.000000  0.413755  0.413774  1
  Ti  Ti2  1  0.000000  0.999981  0.586226  1
  V  V3  1  0.000000  0.817189  0.817190  1
  V  V4  1  0.000000  0.000000  0.182810  1
  V  V5  1  0.000000  0.182681  0.000000  1
  B  B6  1  0.500000  0.000106  0.000000  1
  B  B7  1  0.500000  0.795895  0.000000  1
  B  B8  1  0.500000  0.204042  0.204075  1
  B  B9  1  0.500000  0.999968  0.795925  1
  B  B10  1  0.000000  0.333358  0.666702  1
  B  B11  1  0.000000  0.666656  0.333298  1
  Ru  Ru12  1  0.500000  0.538579  0.726158  1
  Ru  Ru13  1  0.500000  0.187639  0.461457  1
  Ru  Ru14  1  0.500000  0.273787  0.812451  1
  Ru  Ru15  1  0.500000  0.812421  0.273842  1
  Ru  Ru16  1  0.500000  0.726182  0.538543  1
  Ru  Ru17  1  0.500000  0.461336  0.187549  1
