# generated using pymatgen
data_Sc12IrPtRhBr16
_symmetry_space_group_name_H-M   'P 1'
_cell_length_a   8.91345457
_cell_length_b   11.06185545
_cell_length_c   11.69218906
_cell_angle_alpha   117.11746404
_cell_angle_beta   101.69820219
_cell_angle_gamma   101.31919617
_symmetry_Int_Tables_number   1
_chemical_formula_structural   Sc12IrPtRhBr16
_chemical_formula_sum   'Sc12 Ir1 Pt1 Rh1 Br16'
_cell_volume   948.08096792
_cell_formula_units_Z   1
loop_
 _symmetry_equiv_pos_site_id
 _symmetry_equiv_pos_as_xyz
  1  'x, y, z'
loop_
 _atom_site_type_symbol
 _atom_site_label
 _atom_site_symmetry_multiplicity
 _atom_site_fract_x
 _atom_site_fract_y
 _atom_site_fract_z
 _atom_site_occupancy
  Sc  Sc0  1  0.083676  0.252844  0.348266  1
  Sc  Sc1  1  0.915942  0.747097  0.651708  1
  Sc  Sc2  1  0.773991  0.538044  0.317415  1
  Sc  Sc3  1  0.225651  0.461961  0.682629  1
  Sc  Sc4  1  0.286290  0.748007  0.652025  1
  Sc  Sc5  1  0.713371  0.252037  0.348005  1
  Sc  Sc6  1  0.144164  0.537941  0.317993  1
  Sc  Sc7  1  0.855484  0.462082  0.681973  1
  Sc  Sc8  1  0.400549  0.349642  0.260423  1
  Sc  Sc9  1  0.600498  0.650388  0.739620  1
  Sc  Sc10  1  0.456031  0.296116  0.521627  1
  Sc  Sc11  1  0.544919  0.703842  0.478338  1
  Ir  Ir12  1  0.659341  0.499785  0.500605  1
  Pt  Pt13  1  0.000391  0.500000  0.499994  1
  Rh  Rh14  1  0.339520  0.500221  0.499411  1
  Br  Br15  1  0.396350  0.745686  0.890801  1
  Br  Br16  1  0.603528  0.254141  0.108925  1
  Br  Br17  1  0.192690  0.975941  0.788553  1
  Br  Br18  1  0.807566  0.024056  0.211448  1
  Br  Br19  1  0.334897  0.086361  0.245726  1
  Br  Br20  1  0.664961  0.913616  0.754268  1
  Br  Br21  1  0.555752  0.437140  0.804705  1
  Br  Br22  1  0.444115  0.562870  0.195262  1
  Br  Br23  1  0.308746  0.833222  0.462252  1
  Br  Br24  1  0.691185  0.166566  0.537784  1
  Br  Br25  1  0.163167  0.165799  0.533678  1
  Br  Br26  1  0.836856  0.834426  0.466298  1
  Br  Br27  1  0.926253  0.580067  0.155724  1
  Br  Br28  1  0.074027  0.419931  0.844272  1
  Br  Br29  1  0.928976  0.744378  0.891292  1
  Br  Br30  1  0.071111  0.255794  0.108979  1
