# generated using pymatgen
data_ErCo6SiGe3
_symmetry_space_group_name_H-M   'P 1'
_cell_length_a   6.74794000
_cell_length_b   6.74794096
_cell_length_c   3.64020700
_cell_angle_alpha   90.00000000
_cell_angle_beta   90.00000000
_cell_angle_gamma   120.00000507
_symmetry_Int_Tables_number   1
_chemical_formula_structural   ErCo6SiGe3
_chemical_formula_sum   'Er1 Co6 Si1 Ge3'
_cell_volume   143.54867123
_cell_formula_units_Z   1
loop_
 _symmetry_equiv_pos_site_id
 _symmetry_equiv_pos_as_xyz
  1  'x, y, z'
loop_
 _atom_site_type_symbol
 _atom_site_label
 _atom_site_symmetry_multiplicity
 _atom_site_fract_x
 _atom_site_fract_y
 _atom_site_fract_z
 _atom_site_occupancy
  Er  Er0  1  0.000000  0.000000  0.000000  1
  Co  Co1  1  0.530942  0.061883  0.000000  1
  Co  Co2  1  0.530941  0.469058  0.000000  1
  Co  Co3  1  0.938117  0.469058  0.000000  1
  Co  Co4  1  0.208479  0.416958  0.500001  1
  Co  Co5  1  0.208480  0.791522  0.500001  1
  Co  Co6  1  0.583042  0.791522  0.500001  1
  Si  Si7  1  0.333334  0.666667  0.000000  1
  Ge  Ge8  1  0.388630  0.194315  0.500001  1
  Ge  Ge9  1  0.805686  0.194315  0.500001  1
  Ge  Ge10  1  0.805685  0.611370  0.500001  1
