# generated using pymatgen
data_Er5Lu7Co4CuSn
_symmetry_space_group_name_H-M   'P 1'
_cell_length_a   8.14810174
_cell_length_b   8.16304128
_cell_length_c   8.16256590
_cell_angle_alpha   111.21240752
_cell_angle_beta   110.60644813
_cell_angle_gamma   106.70244169
_symmetry_Int_Tables_number   1
_chemical_formula_structural   Er5Lu7Co4CuSn
_chemical_formula_sum   'Er5 Lu7 Co4 Cu1 Sn1'
_cell_volume   416.81831124
_cell_formula_units_Z   1
loop_
 _symmetry_equiv_pos_site_id
 _symmetry_equiv_pos_as_xyz
  1  'x, y, z'
loop_
 _atom_site_type_symbol
 _atom_site_label
 _atom_site_symmetry_multiplicity
 _atom_site_fract_x
 _atom_site_fract_y
 _atom_site_fract_z
 _atom_site_occupancy
  Er  Er0  1  0.982016  0.782024  0.200134  1
  Er  Er1  1  0.186969  0.289244  0.475677  1
  Er  Er2  1  0.813399  0.711993  0.525894  1
  Er  Er3  1  0.186965  0.711367  0.897794  1
  Er  Er4  1  0.813378  0.287572  0.101456  1
  Lu  Lu5  1  0.315200  0.619574  0.305607  1
  Lu  Lu6  1  0.684753  0.379784  0.693609  1
  Lu  Lu7  1  0.315153  0.009730  0.695813  1
  Lu  Lu8  1  0.684702  0.991287  0.305160  1
  Lu  Lu9  1  0.418241  0.218127  0.200244  1
  Lu  Lu10  1  0.581306  0.782478  0.798954  1
  Lu  Lu11  1  0.016765  0.217313  0.799574  1
  Co  Co12  1  0.115701  0.614491  0.501232  1
  Co  Co13  1  0.884650  0.385694  0.498989  1
  Co  Co14  1  0.376732  0.000705  0.376209  1
  Co  Co15  1  0.623625  0.999629  0.624180  1
  Cu  Cu16  1  0.001495  0.999238  0.000154  1
  Sn  Sn17  1  0.498949  0.499753  0.999318  1
