# generated using pymatgen
data_TbYFe2(P3Rh4)2
_symmetry_space_group_name_H-M   'P 1'
_cell_length_a   3.85956300
_cell_length_b   10.75077300
_cell_length_c   12.41578600
_cell_angle_alpha   90.00000000
_cell_angle_beta   90.00000000
_cell_angle_gamma   90.00000000
_symmetry_Int_Tables_number   1
_chemical_formula_structural   TbYFe2(P3Rh4)2
_chemical_formula_sum   'Tb2 Y2 Fe4 P12 Rh16'
_cell_volume   515.17175559
_cell_formula_units_Z   2
loop_
 _symmetry_equiv_pos_site_id
 _symmetry_equiv_pos_as_xyz
  1  'x, y, z'
loop_
 _atom_site_type_symbol
 _atom_site_label
 _atom_site_symmetry_multiplicity
 _atom_site_fract_x
 _atom_site_fract_y
 _atom_site_fract_z
 _atom_site_occupancy
  Tb  Tb0  1  0.750000  0.417251  0.290756  1
  Tb  Tb1  1  0.750000  0.082749  0.790756  1
  Y  Y2  1  0.250000  0.582748  0.709248  1
  Y  Y3  1  0.250000  0.917252  0.209248  1
  Fe  Fe4  1  0.250000  0.462042  0.933265  1
  Fe  Fe5  1  0.250000  0.037958  0.433265  1
  Fe  Fe6  1  0.750000  0.537959  0.066727  1
  Fe  Fe7  1  0.750000  0.962041  0.566727  1
  P  P8  1  0.250000  0.430144  0.105655  1
  P  P9  1  0.250000  0.069856  0.605655  1
  P  P10  1  0.750000  0.569866  0.894331  1
  P  P11  1  0.750000  0.930134  0.394331  1
  P  P12  1  0.250000  0.271129  0.870376  1
  P  P13  1  0.250000  0.228871  0.370376  1
  P  P14  1  0.750000  0.728896  0.129630  1
  P  P15  1  0.750000  0.771104  0.629630  1
  P  P16  1  0.250000  0.601171  0.388992  1
  P  P17  1  0.250000  0.898829  0.888992  1
  P  P18  1  0.750000  0.398845  0.611009  1
  P  P19  1  0.750000  0.101155  0.111009  1
  Rh  Rh20  1  0.250000  0.716471  0.990528  1
  Rh  Rh21  1  0.250000  0.783529  0.490528  1
  Rh  Rh22  1  0.750000  0.283524  0.009478  1
  Rh  Rh23  1  0.750000  0.216476  0.509478  1
  Rh  Rh24  1  0.250000  0.408524  0.479852  1
  Rh  Rh25  1  0.250000  0.091476  0.979852  1
  Rh  Rh26  1  0.750000  0.591474  0.520165  1
  Rh  Rh27  1  0.750000  0.908526  0.020165  1
  Rh  Rh28  1  0.250000  0.230711  0.175385  1
  Rh  Rh29  1  0.250000  0.269289  0.675385  1
  Rh  Rh30  1  0.750000  0.769271  0.824610  1
  Rh  Rh31  1  0.750000  0.730729  0.324610  1
  Rh  Rh32  1  0.250000  0.881968  0.700491  1
  Rh  Rh33  1  0.250000  0.618032  0.200491  1
  Rh  Rh34  1  0.750000  0.118013  0.299500  1
  Rh  Rh35  1  0.750000  0.381987  0.799500  1
