# generated using pymatgen
data_Ca7Nd(DyIr2)2
_symmetry_space_group_name_H-M   'P 1'
_cell_length_a   6.61207857
_cell_length_b   7.46716644
_cell_length_c   8.63910173
_cell_angle_alpha   97.41297356
_cell_angle_beta   111.68702019
_cell_angle_gamma   89.55839049
_symmetry_Int_Tables_number   1
_chemical_formula_structural   Ca7Nd(DyIr2)2
_chemical_formula_sum   'Ca7 Nd1 Dy2 Ir4'
_cell_volume   392.66770176
_cell_formula_units_Z   1
loop_
 _symmetry_equiv_pos_site_id
 _symmetry_equiv_pos_as_xyz
  1  'x, y, z'
loop_
 _atom_site_type_symbol
 _atom_site_label
 _atom_site_symmetry_multiplicity
 _atom_site_fract_x
 _atom_site_fract_y
 _atom_site_fract_z
 _atom_site_occupancy
  Ca  Ca0  1  0.978753  0.423172  0.178188  1
  Ca  Ca1  1  0.202282  0.917825  0.180072  1
  Ca  Ca2  1  0.021334  0.581366  0.826820  1
  Ca  Ca3  1  0.203890  0.180761  0.567672  1
  Ca  Ca4  1  0.636889  0.318351  0.434299  1
  Ca  Ca5  1  0.797398  0.820081  0.431987  1
  Ca  Ca6  1  0.366531  0.682536  0.566011  1
  Nd  Nd7  1  0.804864  0.081675  0.830774  1
  Dy  Dy8  1  0.431911  0.253011  0.002389  1
  Dy  Dy9  1  0.560118  0.747248  0.997274  1
  Ir  Ir10  1  0.601197  0.418416  0.790410  1
  Ir  Ir11  1  0.802757  0.072488  0.190190  1
  Ir  Ir12  1  0.406176  0.575295  0.210639  1
  Ir  Ir13  1  0.185900  0.927776  0.793274  1
