# generated using pymatgen
data_Tm4Lu2Al21Si3Os8
_symmetry_space_group_name_H-M   'P 1'
_cell_length_a   8.68306800
_cell_length_b   8.68373531
_cell_length_c   9.60266200
_cell_angle_alpha   90.00009269
_cell_angle_beta   90.00000000
_cell_angle_gamma   119.99745800
_symmetry_Int_Tables_number   1
_chemical_formula_structural   Tm4Lu2Al21Si3Os8
_chemical_formula_sum   'Tm4 Lu2 Al21 Si3 Os8'
_cell_volume   627.06588973
_cell_formula_units_Z   1
loop_
 _symmetry_equiv_pos_site_id
 _symmetry_equiv_pos_as_xyz
  1  'x, y, z'
loop_
 _atom_site_type_symbol
 _atom_site_label
 _atom_site_symmetry_multiplicity
 _atom_site_fract_x
 _atom_site_fract_y
 _atom_site_fract_z
 _atom_site_occupancy
  Tm  Tm0  1  0.607443  0.803587  0.247737  1
  Tm  Tm1  1  0.393651  0.196973  0.752460  1
  Tm  Tm2  1  0.196143  0.803587  0.247737  1
  Tm  Tm3  1  0.803321  0.196973  0.752460  1
  Lu  Lu4  1  0.196846  0.393694  0.247627  1
  Lu  Lu5  1  0.802513  0.605028  0.752493  1
  Al  Al6  1  0.333225  0.666451  0.475224  1
  Al  Al7  1  0.164161  0.328323  0.575061  1
  Al  Al8  1  0.835157  0.670313  0.422728  1
  Al  Al9  1  0.671742  0.835764  0.575226  1
  Al  Al10  1  0.834975  0.669949  0.077295  1
  Al  Al11  1  0.329590  0.164902  0.422570  1
  Al  Al12  1  0.165348  0.330695  0.922131  1
  Al  Al13  1  0.164021  0.835764  0.575226  1
  Al  Al14  1  0.329973  0.165102  0.077481  1
  Al  Al15  1  0.835312  0.164902  0.422570  1
  Al  Al16  1  0.669396  0.834581  0.921964  1
  Al  Al17  1  0.835130  0.165102  0.077481  1
  Al  Al18  1  0.165185  0.834581  0.921964  1
  Al  Al19  1  0.563331  0.126661  0.248870  1
  Al  Al20  1  0.436995  0.873990  0.748790  1
  Al  Al21  1  0.873714  0.436681  0.248886  1
  Al  Al22  1  0.125639  0.562999  0.748779  1
  Al  Al23  1  0.562967  0.436681  0.248886  1
  Al  Al24  1  0.437360  0.562999  0.748779  1
  Al  Al25  1  0.000229  0.000457  0.248900  1
  Al  Al26  1  0.999772  0.999543  0.749386  1
  Si  Si27  1  0.333153  0.666306  0.040783  1
  Si  Si28  1  0.666841  0.333681  0.960727  1
  Si  Si29  1  0.666830  0.333659  0.540528  1
  Os  Os30  1  0.500001  0.000003  0.998813  1
  Os  Os31  1  0.999993  0.500013  0.998774  1
  Os  Os32  1  0.504298  0.008598  0.501533  1
  Os  Os33  1  0.500019  0.500013  0.998774  1
  Os  Os34  1  0.991449  0.495735  0.501591  1
  Os  Os35  1  0.504285  0.495735  0.501591  1
  Os  Os36  1  0.999989  0.999979  0.998989  1
  Os  Os37  1  0.999999  0.999999  0.499186  1
