# generated using pymatgen
data_Y6Zn23As
_symmetry_space_group_name_H-M   'P 1'
_cell_length_a   9.08585950
_cell_length_b   9.08586006
_cell_length_c   9.08586000
_cell_angle_alpha   60.00000021
_cell_angle_beta   59.99999819
_cell_angle_gamma   60.00000502
_symmetry_Int_Tables_number   1
_chemical_formula_structural   Y6Zn23As
_chemical_formula_sum   'Y6 Zn23 As1'
_cell_volume   530.37508505
_cell_formula_units_Z   1
loop_
 _symmetry_equiv_pos_site_id
 _symmetry_equiv_pos_as_xyz
  1  'x, y, z'
loop_
 _atom_site_type_symbol
 _atom_site_label
 _atom_site_symmetry_multiplicity
 _atom_site_fract_x
 _atom_site_fract_y
 _atom_site_fract_z
 _atom_site_occupancy
  Y  Y0  1  0.716114  0.283886  0.283886  1
  Y  Y1  1  0.716114  0.283886  0.716114  1
  Y  Y2  1  0.716114  0.716114  0.283886  1
  Y  Y3  1  0.283886  0.716114  0.716114  1
  Y  Y4  1  0.283886  0.716114  0.283886  1
  Y  Y5  1  0.283886  0.283886  0.716114  1
  Zn  Zn6  1  0.621313  0.126229  0.126229  1
  Zn  Zn7  1  0.126229  0.621313  0.126229  1
  Zn  Zn8  1  0.126229  0.126229  0.621313  1
  Zn  Zn9  1  0.126229  0.126229  0.126229  1
  Zn  Zn10  1  0.378687  0.873771  0.873771  1
  Zn  Zn11  1  0.873771  0.378687  0.873771  1
  Zn  Zn12  1  0.873771  0.873771  0.378687  1
  Zn  Zn13  1  0.873771  0.873771  0.873771  1
  Zn  Zn14  1  0.500000  0.000000  0.000000  1
  Zn  Zn15  1  0.500000  0.000000  0.500000  1
  Zn  Zn16  1  0.500000  0.500000  0.000000  1
  Zn  Zn17  1  0.000000  0.500000  0.500000  1
  Zn  Zn18  1  0.000000  0.500000  0.000000  1
  Zn  Zn19  1  0.000000  0.000000  0.500000  1
  Zn  Zn20  1  0.000000  0.000000  0.000000  1
  Zn  Zn21  1  0.011534  0.329488  0.329488  1
  Zn  Zn22  1  0.329488  0.011534  0.329488  1
  Zn  Zn23  1  0.329488  0.329488  0.011534  1
  Zn  Zn24  1  0.329488  0.329488  0.329488  1
  Zn  Zn25  1  0.988466  0.670512  0.670512  1
  Zn  Zn26  1  0.670512  0.988466  0.670512  1
  Zn  Zn27  1  0.670512  0.670512  0.988466  1
  Zn  Zn28  1  0.670512  0.670512  0.670512  1
  As  As29  1  0.500000  0.500000  0.500000  1
