# generated using pymatgen
data_Dy2Al3Pt4
_symmetry_space_group_name_H-M   'P 1'
_cell_length_a   8.13692819
_cell_length_b   8.13692856
_cell_length_c   7.63256200
_cell_angle_alpha   90.00000000
_cell_angle_beta   90.00000000
_cell_angle_gamma   140.05602066
_symmetry_Int_Tables_number   1
_chemical_formula_structural   Dy2Al3Pt4
_chemical_formula_sum   'Dy4 Al6 Pt8'
_cell_volume   324.45335383
_cell_formula_units_Z   2
loop_
 _symmetry_equiv_pos_site_id
 _symmetry_equiv_pos_as_xyz
  1  'x, y, z'
loop_
 _atom_site_type_symbol
 _atom_site_label
 _atom_site_symmetry_multiplicity
 _atom_site_fract_x
 _atom_site_fract_y
 _atom_site_fract_z
 _atom_site_occupancy
  Dy  Dy0  1  0.606701  0.393299  0.908264  1
  Dy  Dy1  1  0.393299  0.606701  0.091736  1
  Dy  Dy2  1  0.893299  0.106701  0.408264  1
  Dy  Dy3  1  0.106701  0.893299  0.591736  1
  Al  Al4  1  0.500000  0.500000  0.500000  1
  Al  Al5  1  0.000000  0.000000  0.000000  1
  Al  Al6  1  0.523289  0.976711  0.750000  1
  Al  Al7  1  0.976711  0.523289  0.250000  1
  Al  Al8  1  0.476711  0.023289  0.250000  1
  Al  Al9  1  0.023289  0.476711  0.750000  1
  Pt  Pt10  1  0.691412  0.808588  0.750000  1
  Pt  Pt11  1  0.808588  0.691412  0.250000  1
  Pt  Pt12  1  0.308588  0.191412  0.250000  1
  Pt  Pt13  1  0.191412  0.308588  0.750000  1
  Pt  Pt14  1  0.684360  0.315640  0.528521  1
  Pt  Pt15  1  0.315640  0.684360  0.471479  1
  Pt  Pt16  1  0.815640  0.184360  0.028521  1
  Pt  Pt17  1  0.184360  0.815640  0.971479  1
