# generated using pymatgen
data_Ca4AlGaPt4
_symmetry_space_group_name_H-M   'P 1'
_cell_length_a   5.71802323
_cell_length_b   5.71802362
_cell_length_c   7.82423201
_cell_angle_alpha   79.47811331
_cell_angle_beta   79.47811317
_cell_angle_gamma   60.11857497
_symmetry_Int_Tables_number   1
_chemical_formula_structural   Ca4AlGaPt4
_chemical_formula_sum   'Ca4 Al1 Ga1 Pt4'
_cell_volume   216.81717196
_cell_formula_units_Z   1
loop_
 _symmetry_equiv_pos_site_id
 _symmetry_equiv_pos_as_xyz
  1  'x, y, z'
loop_
 _atom_site_type_symbol
 _atom_site_label
 _atom_site_symmetry_multiplicity
 _atom_site_fract_x
 _atom_site_fract_y
 _atom_site_fract_z
 _atom_site_occupancy
  Ca  Ca0  1  0.782716  0.517263  0.849935  1
  Ca  Ca1  1  0.482737  0.217284  0.650065  1
  Ca  Ca2  1  0.216508  0.483025  0.148395  1
  Ca  Ca3  1  0.516975  0.783492  0.351605  1
  Al  Al4  1  0.888777  0.111223  0.250000  1
  Ga  Ga5  1  0.122903  0.877097  0.750000  1
  Pt  Pt6  1  0.000273  0.738717  0.500990  1
  Pt  Pt7  1  0.261283  0.999727  0.999010  1
  Pt  Pt8  1  0.993185  0.265357  0.493422  1
  Pt  Pt9  1  0.734643  0.006815  0.006578  1
