# generated using pymatgen
data_Dy12Er8CoBi8Ir3
_symmetry_space_group_name_H-M   'P 1'
_cell_length_a   7.97397490
_cell_length_b   8.98872200
_cell_length_c   12.50018129
_cell_angle_alpha   90.00000000
_cell_angle_beta   90.21101974
_cell_angle_gamma   90.00000000
_symmetry_Int_Tables_number   1
_chemical_formula_structural   Dy12Er8CoBi8Ir3
_chemical_formula_sum   'Dy12 Er8 Co1 Bi8 Ir3'
_cell_volume   895.95496265
_cell_formula_units_Z   1
loop_
 _symmetry_equiv_pos_site_id
 _symmetry_equiv_pos_as_xyz
  1  'x, y, z'
loop_
 _atom_site_type_symbol
 _atom_site_label
 _atom_site_symmetry_multiplicity
 _atom_site_fract_x
 _atom_site_fract_y
 _atom_site_fract_z
 _atom_site_occupancy
  Dy  Dy0  1  0.657345  0.750000  0.700042  1
  Dy  Dy1  1  0.338774  0.250000  0.292737  1
  Dy  Dy2  1  0.160912  0.250000  0.792899  1
  Dy  Dy3  1  0.839240  0.750000  0.207004  1
  Dy  Dy4  1  0.123473  0.750000  0.807963  1
  Dy  Dy5  1  0.874946  0.250000  0.191549  1
  Dy  Dy6  1  0.624660  0.250000  0.691582  1
  Dy  Dy7  1  0.380469  0.750000  0.314366  1
  Dy  Dy8  1  0.555985  0.750000  0.997383  1
  Dy  Dy9  1  0.447105  0.250000  0.001277  1
  Dy  Dy10  1  0.054872  0.250000  0.501522  1
  Dy  Dy11  1  0.946997  0.750000  0.498441  1
  Er  Er12  1  0.826025  0.457233  0.933153  1
  Er  Er13  1  0.175163  0.541931  0.066701  1
  Er  Er14  1  0.325725  0.543746  0.565566  1
  Er  Er15  1  0.175163  0.958069  0.066701  1
  Er  Er16  1  0.672471  0.464432  0.435843  1
  Er  Er17  1  0.826025  0.042767  0.933153  1
  Er  Er18  1  0.672471  0.035568  0.435843  1
  Er  Er19  1  0.325725  0.956254  0.565566  1
  Co  Co20  1  0.567296  0.750000  0.492254  1
  Bi  Bi21  1  0.932529  0.008724  0.672168  1
  Bi  Bi22  1  0.066318  0.990891  0.327598  1
  Bi  Bi23  1  0.433972  0.990560  0.826417  1
  Bi  Bi24  1  0.066318  0.509109  0.327598  1
  Bi  Bi25  1  0.565723  0.007973  0.173666  1
  Bi  Bi26  1  0.932529  0.491276  0.672168  1
  Bi  Bi27  1  0.565723  0.492027  0.173666  1
  Bi  Bi28  1  0.433972  0.509440  0.826417  1
  Ir  Ir29  1  0.929748  0.750000  0.991893  1
  Ir  Ir30  1  0.071941  0.250000  0.008920  1
  Ir  Ir31  1  0.430385  0.250000  0.507943  1
