# generated using pymatgen
data_LaBi3(Mo2O7)2
_symmetry_space_group_name_H-M   'P 1'
_cell_length_a   7.56850945
_cell_length_b   7.52302009
_cell_length_c   7.51023125
_cell_angle_alpha   120.05061125
_cell_angle_beta   119.57007064
_cell_angle_gamma   90.09556343
_symmetry_Int_Tables_number   1
_chemical_formula_structural   LaBi3(Mo2O7)2
_chemical_formula_sum   'La1 Bi3 Mo4 O14'
_cell_volume   303.84275716
_cell_formula_units_Z   1
loop_
 _symmetry_equiv_pos_site_id
 _symmetry_equiv_pos_as_xyz
  1  'x, y, z'
loop_
 _atom_site_type_symbol
 _atom_site_label
 _atom_site_symmetry_multiplicity
 _atom_site_fract_x
 _atom_site_fract_y
 _atom_site_fract_z
 _atom_site_occupancy
  La  La0  1  0.875000  0.625000  0.250000  1
  Bi  Bi1  1  0.375000  0.625000  0.750000  1
  Bi  Bi2  1  0.375000  0.625000  0.250000  1
  Bi  Bi3  1  0.375000  0.125000  0.750000  1
  Mo  Mo4  1  0.875000  0.625000  0.750000  1
  Mo  Mo5  1  0.375000  0.125000  0.250000  1
  Mo  Mo6  1  0.875000  0.125000  0.250000  1
  Mo  Mo7  1  0.875000  0.125000  0.750000  1
  O  O8  1  0.782859  0.195138  0.991568  1
  O  O9  1  0.549966  0.462232  0.499320  1
  O  O10  1  0.208731  0.207355  0.003559  1
  O  O11  1  0.953640  0.453459  0.497077  1
  O  O12  1  0.796239  0.798863  0.587131  1
  O  O13  1  0.539781  0.032952  0.085309  1
  O  O14  1  0.250023  0.750203  0.500925  1
  O  O15  1  0.953761  0.451137  0.912869  1
  O  O16  1  0.967141  0.054862  0.508432  1
  O  O17  1  0.541269  0.042645  0.496441  1
  O  O18  1  0.210219  0.217048  0.414691  1
  O  O19  1  0.499977  0.499797  0.999075  1
  O  O20  1  0.796360  0.796541  0.002923  1
  O  O21  1  0.200034  0.787768  0.000680  1
