# generated using pymatgen
data_Sr3MgGaPd2
_symmetry_space_group_name_H-M   'P 1'
_cell_length_a   6.22022900
_cell_length_b   8.48122500
_cell_length_c   14.74397600
_cell_angle_alpha   90.00000000
_cell_angle_beta   90.00000000
_cell_angle_gamma   90.00000000
_symmetry_Int_Tables_number   1
_chemical_formula_structural   Sr3MgGaPd2
_chemical_formula_sum   'Sr12 Mg4 Ga4 Pd8'
_cell_volume   777.82083799
_cell_formula_units_Z   4
loop_
 _symmetry_equiv_pos_site_id
 _symmetry_equiv_pos_as_xyz
  1  'x, y, z'
loop_
 _atom_site_type_symbol
 _atom_site_label
 _atom_site_symmetry_multiplicity
 _atom_site_fract_x
 _atom_site_fract_y
 _atom_site_fract_z
 _atom_site_occupancy
  Sr  Sr0  1  0.141810  0.604876  0.100196  1
  Sr  Sr1  1  0.141810  0.895124  0.899804  1
  Sr  Sr2  1  0.858190  0.104876  0.399804  1
  Sr  Sr3  1  0.858190  0.395124  0.600196  1
  Sr  Sr4  1  0.858190  0.395124  0.899804  1
  Sr  Sr5  1  0.858190  0.104876  0.100196  1
  Sr  Sr6  1  0.141810  0.895124  0.600196  1
  Sr  Sr7  1  0.141810  0.604876  0.399804  1
  Sr  Sr8  1  0.363960  0.254634  0.250000  1
  Sr  Sr9  1  0.363960  0.245366  0.750000  1
  Sr  Sr10  1  0.636040  0.754634  0.250000  1
  Sr  Sr11  1  0.636040  0.745366  0.750000  1
  Mg  Mg12  1  0.387687  0.250000  0.000000  1
  Mg  Mg13  1  0.612313  0.750000  0.500000  1
  Mg  Mg14  1  0.612313  0.750000  0.000000  1
  Mg  Mg15  1  0.387687  0.250000  0.500000  1
  Ga  Ga16  1  0.840828  0.403430  0.250000  1
  Ga  Ga17  1  0.840828  0.096570  0.750000  1
  Ga  Ga18  1  0.159172  0.903430  0.250000  1
  Ga  Ga19  1  0.159172  0.596570  0.750000  1
  Pd  Pd20  1  0.638120  0.468910  0.098182  1
  Pd  Pd21  1  0.638120  0.031090  0.901818  1
  Pd  Pd22  1  0.361880  0.968910  0.401818  1
  Pd  Pd23  1  0.361880  0.531090  0.598182  1
  Pd  Pd24  1  0.361880  0.531090  0.901818  1
  Pd  Pd25  1  0.361880  0.968910  0.098182  1
  Pd  Pd26  1  0.638120  0.031090  0.598182  1
  Pd  Pd27  1  0.638120  0.468910  0.401818  1
