# generated using pymatgen
data_Mg2Nb4Sb6Ir5Rh
_symmetry_space_group_name_H-M   'P 1'
_cell_length_a   7.65733001
_cell_length_b   7.65460850
_cell_length_c   7.65633945
_cell_angle_alpha   99.55778784
_cell_angle_beta   99.69325809
_cell_angle_gamma   119.94292784
_symmetry_Int_Tables_number   1
_chemical_formula_structural   Mg2Nb4Sb6Ir5Rh
_chemical_formula_sum   'Mg2 Nb4 Sb6 Ir5 Rh1'
_cell_volume   366.51807908
_cell_formula_units_Z   1
loop_
 _symmetry_equiv_pos_site_id
 _symmetry_equiv_pos_as_xyz
  1  'x, y, z'
loop_
 _atom_site_type_symbol
 _atom_site_label
 _atom_site_symmetry_multiplicity
 _atom_site_fract_x
 _atom_site_fract_y
 _atom_site_fract_z
 _atom_site_occupancy
  Mg  Mg0  1  0.836889  0.666708  0.003228  1
  Mg  Mg1  1  0.667254  0.837165  0.503375  1
  Nb  Nb2  1  0.331347  0.165350  0.499293  1
  Nb  Nb3  1  0.000856  0.498702  0.499364  1
  Nb  Nb4  1  0.164971  0.331331  0.998642  1
  Nb  Nb5  1  0.499157  0.001113  0.999125  1
  Sb  Sb6  1  0.254806  0.749094  0.246671  1
  Sb  Sb7  1  0.587932  0.432191  0.247705  1
  Sb  Sb8  1  0.906943  0.068256  0.253206  1
  Sb  Sb9  1  0.749445  0.253510  0.747830  1
  Sb  Sb10  1  0.433221  0.589364  0.748048  1
  Sb  Sb11  1  0.067622  0.908302  0.756299  1
  Ir  Ir12  1  0.620890  0.138587  0.367290  1
  Ir  Ir13  1  0.274210  0.441021  0.367300  1
  Ir  Ir14  1  0.979586  0.794553  0.388482  1
  Ir  Ir15  1  0.139683  0.621913  0.868020  1
  Ir  Ir16  1  0.440858  0.274386  0.868529  1
  Rh  Rh17  1  0.794329  0.978453  0.887596  1
