# generated using pymatgen
data_Hf5ZrGa6Pd5Pt
_symmetry_space_group_name_H-M   'P 1'
_cell_length_a   7.23205133
_cell_length_b   7.21808490
_cell_length_c   6.97522930
_cell_angle_alpha   89.98641302
_cell_angle_beta   90.03343861
_cell_angle_gamma   120.19928090
_symmetry_Int_Tables_number   1
_chemical_formula_structural   Hf5ZrGa6Pd5Pt
_chemical_formula_sum   'Hf5 Zr1 Ga6 Pd5 Pt1'
_cell_volume   314.70013102
_cell_formula_units_Z   1
loop_
 _symmetry_equiv_pos_site_id
 _symmetry_equiv_pos_as_xyz
  1  'x, y, z'
loop_
 _atom_site_type_symbol
 _atom_site_label
 _atom_site_symmetry_multiplicity
 _atom_site_fract_x
 _atom_site_fract_y
 _atom_site_fract_z
 _atom_site_occupancy
  Hf  Hf0  1  0.023301  0.409292  0.749256  1
  Hf  Hf1  1  0.408347  0.020756  0.250378  1
  Hf  Hf2  1  0.979708  0.388134  0.250357  1
  Hf  Hf3  1  0.385777  0.976081  0.749378  1
  Hf  Hf4  1  0.589359  0.612051  0.749104  1
  Zr  Zr5  1  0.613193  0.591692  0.249813  1
  Ga  Ga6  1  0.270799  0.267171  0.500162  1
  Ga  Ga7  1  0.733765  0.003513  0.499203  1
  Ga  Ga8  1  0.996100  0.730260  0.499569  1
  Ga  Ga9  1  0.731566  0.000627  0.999458  1
  Ga  Ga10  1  0.270154  0.269304  0.998533  1
  Ga  Ga11  1  0.999157  0.730957  0.999054  1
  Pd  Pd12  1  0.999835  0.999683  0.748929  1
  Pd  Pd13  1  0.002961  0.002569  0.249676  1
  Pd  Pd14  1  0.331128  0.667063  0.034360  1
  Pd  Pd15  1  0.666553  0.331839  0.534369  1
  Pd  Pd16  1  0.666714  0.331712  0.965703  1
  Pt  Pt17  1  0.331582  0.667298  0.472697  1
