# generated using pymatgen
data_Ca3Yb(HgN)2
_symmetry_space_group_name_H-M   'P 1'
_cell_length_a   10.17738776
_cell_length_b   10.17738866
_cell_length_c   5.04269100
_cell_angle_alpha   90.00000000
_cell_angle_beta   90.00000000
_cell_angle_gamma   160.40153218
_symmetry_Int_Tables_number   1
_chemical_formula_structural   Ca3Yb(HgN)2
_chemical_formula_sum   'Ca3 Yb1 Hg2 N2'
_cell_volume   175.19925305
_cell_formula_units_Z   1
loop_
 _symmetry_equiv_pos_site_id
 _symmetry_equiv_pos_as_xyz
  1  'x, y, z'
loop_
 _atom_site_type_symbol
 _atom_site_label
 _atom_site_symmetry_multiplicity
 _atom_site_fract_x
 _atom_site_fract_y
 _atom_site_fract_z
 _atom_site_occupancy
  Ca  Ca0  1  0.781278  0.218722  0.250000  1
  Ca  Ca1  1  0.380156  0.619844  0.750000  1
  Ca  Ca2  1  0.620040  0.379960  0.250000  1
  Yb  Yb3  1  0.219147  0.780853  0.750000  1
  Hg  Hg4  1  0.044057  0.955943  0.750000  1
  Hg  Hg5  1  0.956408  0.043592  0.250000  1
  N  N6  1  0.800241  0.199759  0.750000  1
  N  N7  1  0.198672  0.801328  0.250000  1
