# generated using pymatgen
data_Ba4Sr4SnPb3
_symmetry_space_group_name_H-M   'P 1'
_cell_length_a   9.05729023
_cell_length_b   5.52843400
_cell_length_c   10.32494226
_cell_angle_alpha   90.00000000
_cell_angle_beta   89.97419308
_cell_angle_gamma   90.00000000
_symmetry_Int_Tables_number   1
_chemical_formula_structural   Ba4Sr4SnPb3
_chemical_formula_sum   'Ba4 Sr4 Sn1 Pb3'
_cell_volume   516.99697415
_cell_formula_units_Z   1
loop_
 _symmetry_equiv_pos_site_id
 _symmetry_equiv_pos_as_xyz
  1  'x, y, z'
loop_
 _atom_site_type_symbol
 _atom_site_label
 _atom_site_symmetry_multiplicity
 _atom_site_fract_x
 _atom_site_fract_y
 _atom_site_fract_z
 _atom_site_occupancy
  Ba  Ba0  1  0.975754  0.750000  0.178546  1
  Ba  Ba1  1  0.476495  0.750000  0.320356  1
  Ba  Ba2  1  0.524526  0.250001  0.680521  1
  Ba  Ba3  1  0.022080  0.250001  0.820911  1
  Sr  Sr4  1  0.648626  0.250001  0.072373  1
  Sr  Sr5  1  0.147902  0.250001  0.426093  1
  Sr  Sr6  1  0.851738  0.750000  0.575073  1
  Sr  Sr7  1  0.353765  0.750000  0.925878  1
  Sn  Sn8  1  0.736569  0.750000  0.892637  1
  Pb  Pb9  1  0.262525  0.250001  0.107778  1
  Pb  Pb10  1  0.762401  0.250001  0.391995  1
  Pb  Pb11  1  0.237624  0.750000  0.607836  1
