# generated using pymatgen
data_CaNd7(YIr3)2
_symmetry_space_group_name_H-M   'P 1'
_cell_length_a   11.21470291
_cell_length_b   11.23574400
_cell_length_c   6.51325537
_cell_angle_alpha   90.00000000
_cell_angle_beta   90.44605290
_cell_angle_gamma   90.00000000
_symmetry_Int_Tables_number   1
_chemical_formula_structural   CaNd7(YIr3)2
_chemical_formula_sum   'Ca2 Nd14 Y4 Ir12'
_cell_volume   820.68133113
_cell_formula_units_Z   2
loop_
 _symmetry_equiv_pos_site_id
 _symmetry_equiv_pos_as_xyz
  1  'x, y, z'
loop_
 _atom_site_type_symbol
 _atom_site_label
 _atom_site_symmetry_multiplicity
 _atom_site_fract_x
 _atom_site_fract_y
 _atom_site_fract_z
 _atom_site_occupancy
  Ca  Ca0  1  0.289393  0.086625  0.381073  1
  Ca  Ca1  1  0.289393  0.913375  0.881073  1
  Nd  Nd2  1  0.710818  0.087267  0.883660  1
  Nd  Nd3  1  0.710818  0.912733  0.383660  1
  Nd  Nd4  1  0.584614  0.791216  0.881856  1
  Nd  Nd5  1  0.584614  0.208784  0.381856  1
  Nd  Nd6  1  0.409956  0.794235  0.384726  1
  Nd  Nd7  1  0.409956  0.205765  0.884726  1
  Nd  Nd8  1  0.211434  0.412251  0.618893  1
  Nd  Nd9  1  0.211434  0.587749  0.118893  1
  Nd  Nd10  1  0.789715  0.411877  0.116833  1
  Nd  Nd11  1  0.789715  0.588123  0.616833  1
  Nd  Nd12  1  0.911502  0.710644  0.119893  1
  Nd  Nd13  1  0.911502  0.289356  0.619893  1
  Nd  Nd14  1  0.089057  0.710997  0.619843  1
  Nd  Nd15  1  0.089057  0.289003  0.119843  1
  Y  Y16  1  0.003022  0.000909  0.498226  1
  Y  Y17  1  0.003022  0.999091  0.998226  1
  Y  Y18  1  0.499738  0.499432  0.995673  1
  Y  Y19  1  0.499738  0.500568  0.495673  1
  Ir  Ir20  1  0.852760  0.150442  0.249428  1
  Ir  Ir21  1  0.852760  0.849558  0.749428  1
  Ir  Ir22  1  0.144241  0.156118  0.752843  1
  Ir  Ir23  1  0.144241  0.843882  0.252843  1
  Ir  Ir24  1  0.648576  0.348819  0.749896  1
  Ir  Ir25  1  0.648576  0.651181  0.249896  1
  Ir  Ir26  1  0.349676  0.354153  0.244574  1
  Ir  Ir27  1  0.349676  0.645847  0.744574  1
  Ir  Ir28  1  0.505085  0.000626  0.121945  1
  Ir  Ir29  1  0.505085  0.999374  0.621945  1
  Ir  Ir30  1  0.000411  0.500501  0.880637  1
  Ir  Ir31  1  0.000411  0.499499  0.380637  1
