# generated using pymatgen
data_TbDy7(SiI6)2
_symmetry_space_group_name_H-M   'P 1'
_cell_length_a   4.20654000
_cell_length_b   14.01520506
_cell_length_c   14.78783807
_cell_angle_alpha   89.98899558
_cell_angle_beta   90.00000000
_cell_angle_gamma   90.00000000
_symmetry_Int_Tables_number   1
_chemical_formula_structural   TbDy7(SiI6)2
_chemical_formula_sum   'Tb1 Dy7 Si2 I12'
_cell_volume   871.82467744
_cell_formula_units_Z   1
loop_
 _symmetry_equiv_pos_site_id
 _symmetry_equiv_pos_as_xyz
  1  'x, y, z'
loop_
 _atom_site_type_symbol
 _atom_site_label
 _atom_site_symmetry_multiplicity
 _atom_site_fract_x
 _atom_site_fract_y
 _atom_site_fract_z
 _atom_site_occupancy
  Tb  Tb0  1  0.000000  0.111492  0.574796  1
  Dy  Dy1  1  0.500000  0.114068  0.347830  1
  Dy  Dy2  1  0.500000  0.885865  0.652125  1
  Dy  Dy3  1  0.500000  0.614042  0.152072  1
  Dy  Dy4  1  0.500000  0.385959  0.847922  1
  Dy  Dy5  1  0.000000  0.888583  0.425278  1
  Dy  Dy6  1  0.000000  0.611085  0.925497  1
  Dy  Dy7  1  0.000000  0.388914  0.074499  1
  Si  Si8  1  0.500000  0.999405  0.499602  1
  Si  Si9  1  0.500000  0.500001  0.000002  1
  I  I10  1  0.500000  0.245356  0.161704  1
  I  I11  1  0.500000  0.754622  0.838285  1
  I  I12  1  0.500000  0.745272  0.338213  1
  I  I13  1  0.500000  0.255474  0.662225  1
  I  I14  1  0.000000  0.258667  0.413912  1
  I  I15  1  0.000000  0.741564  0.585626  1
  I  I16  1  0.000000  0.758379  0.085598  1
  I  I17  1  0.000000  0.241625  0.914420  1
  I  I18  1  0.000000  0.999376  0.240702  1
  I  I19  1  0.000000  0.000217  0.759681  1
  I  I20  1  0.000000  0.499371  0.259225  1
  I  I21  1  0.000000  0.500663  0.740787  1
