# generated using pymatgen
data_La10Zn4IrRu5
_symmetry_space_group_name_H-M   'P 1'
_cell_length_a   8.57924674
_cell_length_b   8.63924835
_cell_length_c   8.63916841
_cell_angle_alpha   109.80077869
_cell_angle_beta   109.60366458
_cell_angle_gamma   109.28866123
_symmetry_Int_Tables_number   1
_chemical_formula_structural   La10Zn4IrRu5
_chemical_formula_sum   'La10 Zn4 Ir1 Ru5'
_cell_volume   491.20379939
_cell_formula_units_Z   1
loop_
 _symmetry_equiv_pos_site_id
 _symmetry_equiv_pos_as_xyz
  1  'x, y, z'
loop_
 _atom_site_type_symbol
 _atom_site_label
 _atom_site_symmetry_multiplicity
 _atom_site_fract_x
 _atom_site_fract_y
 _atom_site_fract_z
 _atom_site_occupancy
  La  La0  1  0.249994  0.689577  0.439570  1
  La  La1  1  0.750007  0.809299  0.059301  1
  La  La2  1  0.442360  0.251733  0.687046  1
  La  La3  1  0.687171  0.438235  0.248523  1
  La  La4  1  0.057645  0.744692  0.809379  1
  La  La5  1  0.812829  0.061350  0.751070  1
  La  La6  1  0.217983  0.220942  0.222545  1
  La  La7  1  0.500498  0.000830  0.280582  1
  La  La8  1  0.282021  0.504566  0.002956  1
  La  La9  1  0.999505  0.280096  0.500343  1
  Zn  Zn10  1  0.499375  0.997990  0.910965  1
  Zn  Zn11  1  0.587850  0.588814  0.587488  1
  Zn  Zn12  1  0.912147  0.499621  0.000953  1
  Zn  Zn13  1  0.000631  0.911593  0.498614  1
  Ir  Ir14  1  0.250004  0.127105  0.877101  1
  Ru  Ru15  1  0.749988  0.372837  0.622840  1
  Ru  Ru16  1  0.876926  0.250231  0.126580  1
  Ru  Ru17  1  0.128890  0.879235  0.250482  1
  Ru  Ru18  1  0.623078  0.749645  0.373309  1
  Ru  Ru19  1  0.371099  0.621611  0.750355  1
