# generated using pymatgen
data_Ho8Sc12Si15As
_symmetry_space_group_name_H-M   'P 1'
_cell_length_a   7.12374267
_cell_length_b   7.35553666
_cell_length_c   13.95077992
_cell_angle_alpha   90.04079985
_cell_angle_beta   88.77130726
_cell_angle_gamma   90.14775448
_symmetry_Int_Tables_number   1
_chemical_formula_structural   Ho8Sc12Si15As
_chemical_formula_sum   'Ho8 Sc12 Si15 As1'
_cell_volume   730.83555707
_cell_formula_units_Z   1
loop_
 _symmetry_equiv_pos_site_id
 _symmetry_equiv_pos_as_xyz
  1  'x, y, z'
loop_
 _atom_site_type_symbol
 _atom_site_label
 _atom_site_symmetry_multiplicity
 _atom_site_fract_x
 _atom_site_fract_y
 _atom_site_fract_z
 _atom_site_occupancy
  Ho  Ho0  1  0.011816  0.176207  0.097213  1
  Ho  Ho1  1  0.988645  0.824348  0.902582  1
  Ho  Ho2  1  0.488830  0.675588  0.902785  1
  Ho  Ho3  1  0.993884  0.821901  0.595688  1
  Ho  Ho4  1  0.511561  0.324915  0.097322  1
  Ho  Ho5  1  0.004287  0.178126  0.403803  1
  Ho  Ho6  1  0.503530  0.321126  0.402121  1
  Ho  Ho7  1  0.501125  0.677711  0.597385  1
  Sc  Sc8  1  0.166160  0.501229  0.749842  1
  Sc  Sc9  1  0.833770  0.498916  0.252935  1
  Sc  Sc10  1  0.334023  0.001171  0.251580  1
  Sc  Sc11  1  0.666358  0.998571  0.748932  1
  Sc  Sc12  1  0.341997  0.170567  0.626505  1
  Sc  Sc13  1  0.658881  0.827792  0.373799  1
  Sc  Sc14  1  0.156759  0.672067  0.377069  1
  Sc  Sc15  1  0.667602  0.823428  0.125554  1
  Sc  Sc16  1  0.840435  0.328902  0.622599  1
  Sc  Sc17  1  0.332045  0.176046  0.874142  1
  Sc  Sc18  1  0.833270  0.322849  0.874539  1
  Sc  Sc19  1  0.166919  0.677143  0.125113  1
  Si  Si20  1  0.037711  0.116278  0.749437  1
  Si  Si21  1  0.962042  0.884087  0.249604  1
  Si  Si22  1  0.458548  0.616652  0.249054  1
  Si  Si23  1  0.540333  0.383566  0.750622  1
  Si  Si24  1  0.289745  0.870337  0.750262  1
  Si  Si25  1  0.711112  0.128261  0.249145  1
  Si  Si26  1  0.209273  0.373160  0.249704  1
  Si  Si27  1  0.792087  0.627450  0.750346  1
  Si  Si28  1  0.810583  0.539964  0.457349  1
  Si  Si29  1  0.329382  0.962269  0.460636  1
  Si  Si30  1  0.842637  0.535146  0.039369  1
  Si  Si31  1  0.670473  0.037826  0.539940  1
  Si  Si32  1  0.157022  0.465471  0.960377  1
  Si  Si33  1  0.656404  0.034528  0.959881  1
  Si  Si34  1  0.343618  0.966084  0.040146  1
  As  As35  1  0.187135  0.460314  0.542620  1
