# generated using pymatgen
data_Nd4Ho12Cd4NiRu3
_symmetry_space_group_name_H-M   'P 1'
_cell_length_a   9.64638509
_cell_length_b   9.71021425
_cell_length_c   9.71021324
_cell_angle_alpha   59.60865802
_cell_angle_beta   59.42624990
_cell_angle_gamma   59.42625455
_symmetry_Int_Tables_number   1
_chemical_formula_structural   Nd4Ho12Cd4NiRu3
_chemical_formula_sum   'Nd4 Ho12 Cd4 Ni1 Ru3'
_cell_volume   635.63474720
_cell_formula_units_Z   1
loop_
 _symmetry_equiv_pos_site_id
 _symmetry_equiv_pos_as_xyz
  1  'x, y, z'
loop_
 _atom_site_type_symbol
 _atom_site_label
 _atom_site_symmetry_multiplicity
 _atom_site_fract_x
 _atom_site_fract_y
 _atom_site_fract_z
 _atom_site_occupancy
  Nd  Nd0  1  0.808833  0.185101  0.818986  1
  Nd  Nd1  1  0.190921  0.808662  0.189544  1
  Nd  Nd2  1  0.808833  0.818986  0.185101  1
  Nd  Nd3  1  0.190921  0.189544  0.808662  1
  Ho  Ho4  1  0.601802  0.595127  0.595127  1
  Ho  Ho5  1  0.599974  0.596266  0.212756  1
  Ho  Ho6  1  0.599974  0.212756  0.596266  1
  Ho  Ho7  1  0.211034  0.596082  0.596082  1
  Ho  Ho8  1  0.062826  0.436008  0.436008  1
  Ho  Ho9  1  0.431774  0.064358  0.064358  1
  Ho  Ho10  1  0.437435  0.061659  0.437497  1
  Ho  Ho11  1  0.060602  0.438862  0.061252  1
  Ho  Ho12  1  0.437435  0.437497  0.061659  1
  Ho  Ho13  1  0.060602  0.061252  0.438862  1
  Ho  Ho14  1  0.193599  0.804674  0.804674  1
  Ho  Ho15  1  0.803403  0.192682  0.192682  1
  Cd  Cd16  1  0.829961  0.828390  0.828390  1
  Cd  Cd17  1  0.827584  0.832499  0.509506  1
  Cd  Cd18  1  0.827584  0.509506  0.832499  1
  Cd  Cd19  1  0.510490  0.827741  0.827741  1
  Ni  Ni20  1  0.827939  0.390452  0.390452  1
  Ru  Ru21  1  0.396726  0.387687  0.387687  1
  Ru  Ru22  1  0.389874  0.395332  0.828876  1
  Ru  Ru23  1  0.389874  0.828876  0.395332  1
