# generated using pymatgen
data_TbGd3Dy2Ta2O14
_symmetry_space_group_name_H-M   'P 1'
_cell_length_a   6.54467504
_cell_length_b   6.52235907
_cell_length_c   7.52912459
_cell_angle_alpha   90.06091249
_cell_angle_beta   90.00404835
_cell_angle_gamma   108.66107662
_symmetry_Int_Tables_number   1
_chemical_formula_structural   TbGd3Dy2Ta2O14
_chemical_formula_sum   'Tb1 Gd3 Dy2 Ta2 O14'
_cell_volume   304.49708700
_cell_formula_units_Z   1
loop_
 _symmetry_equiv_pos_site_id
 _symmetry_equiv_pos_as_xyz
  1  'x, y, z'
loop_
 _atom_site_type_symbol
 _atom_site_label
 _atom_site_symmetry_multiplicity
 _atom_site_fract_x
 _atom_site_fract_y
 _atom_site_fract_z
 _atom_site_occupancy
  Tb  Tb0  1  0.000445  0.536209  0.243138  1
  Gd  Gd1  1  0.466810  0.000709  0.256956  1
  Gd  Gd2  1  0.468657  0.470934  0.999364  1
  Gd  Gd3  1  0.532004  0.530867  0.501267  1
  Dy  Dy4  1  0.999811  0.465193  0.743170  1
  Dy  Dy5  1  0.535243  0.000149  0.757142  1
  Ta  Ta6  1  0.003059  0.002801  0.501214  1
  Ta  Ta7  1  0.997815  0.997368  0.998887  1
  O  O8  1  0.933530  0.068305  0.749934  1
  O  O9  1  0.641540  0.359535  0.749894  1
  O  O10  1  0.307741  0.051924  0.544112  1
  O  O11  1  0.950343  0.691334  0.957778  1
  O  O12  1  0.632156  0.372393  0.249316  1
  O  O13  1  0.922119  0.674062  0.526816  1
  O  O14  1  0.324335  0.079254  0.971142  1
  O  O15  1  0.078382  0.325306  0.026291  1
  O  O16  1  0.673904  0.918628  0.477597  1
  O  O17  1  0.368188  0.630353  0.749923  1
  O  O18  1  0.689178  0.943131  0.036834  1
  O  O19  1  0.051837  0.308794  0.458777  1
  O  O20  1  0.360562  0.638238  0.250409  1
  O  O21  1  0.062340  0.934514  0.250040  1
