# generated using pymatgen
data_LaPrHgPtAu
_symmetry_space_group_name_H-M   'P 1'
_cell_length_a   8.10574800
_cell_length_b   8.10574941
_cell_length_c   3.93392100
_cell_angle_alpha   90.00000000
_cell_angle_beta   90.00000000
_cell_angle_gamma   90.64612734
_symmetry_Int_Tables_number   1
_chemical_formula_structural   LaPrHgPtAu
_chemical_formula_sum   'La2 Pr2 Hg2 Pt2 Au2'
_cell_volume   258.45461396
_cell_formula_units_Z   2
loop_
 _symmetry_equiv_pos_site_id
 _symmetry_equiv_pos_as_xyz
  1  'x, y, z'
loop_
 _atom_site_type_symbol
 _atom_site_label
 _atom_site_symmetry_multiplicity
 _atom_site_fract_x
 _atom_site_fract_y
 _atom_site_fract_z
 _atom_site_occupancy
  La  La0  1  0.683726  0.183726  0.500000  1
  La  La1  1  0.316274  0.816274  0.500000  1
  Pr  Pr2  1  0.165694  0.334306  0.500000  1
  Pr  Pr3  1  0.834306  0.665694  0.500000  1
  Hg  Hg4  1  0.000000  0.000000  0.000000  1
  Hg  Hg5  1  0.500000  0.500000  0.000000  1
  Pt  Pt6  1  0.125997  0.625997  0.000000  1
  Pt  Pt7  1  0.874003  0.374003  0.000000  1
  Au  Au8  1  0.626282  0.873718  0.000000  1
  Au  Au9  1  0.373718  0.126282  0.000000  1
