# generated using pymatgen
data_Y2Hf3Si4
_symmetry_space_group_name_H-M   'P 1'
_cell_length_a   7.28528700
_cell_length_b   7.28528700
_cell_length_c   13.38901000
_cell_angle_alpha   90.00000000
_cell_angle_beta   90.00000000
_cell_angle_gamma   90.00000000
_symmetry_Int_Tables_number   1
_chemical_formula_structural   Y2Hf3Si4
_chemical_formula_sum   'Y8 Hf12 Si16'
_cell_volume   710.62715069
_cell_formula_units_Z   4
loop_
 _symmetry_equiv_pos_site_id
 _symmetry_equiv_pos_as_xyz
  1  'x, y, z'
loop_
 _atom_site_type_symbol
 _atom_site_label
 _atom_site_symmetry_multiplicity
 _atom_site_fract_x
 _atom_site_fract_y
 _atom_site_fract_z
 _atom_site_occupancy
  Y  Y0  1  0.996590  0.343502  0.215179  1
  Y  Y1  1  0.003410  0.656498  0.715179  1
  Y  Y2  1  0.156498  0.496590  0.465179  1
  Y  Y3  1  0.503410  0.843502  0.034821  1
  Y  Y4  1  0.843502  0.503410  0.965179  1
  Y  Y5  1  0.496590  0.156498  0.534821  1
  Y  Y6  1  0.343502  0.996590  0.784821  1
  Y  Y7  1  0.656498  0.003410  0.284821  1
  Hf  Hf8  1  0.174233  0.174233  0.000000  1
  Hf  Hf9  1  0.825767  0.825767  0.500000  1
  Hf  Hf10  1  0.325767  0.674233  0.250000  1
  Hf  Hf11  1  0.674233  0.325767  0.750000  1
  Hf  Hf12  1  0.149717  0.995588  0.374338  1
  Hf  Hf13  1  0.850283  0.004412  0.874338  1
  Hf  Hf14  1  0.504412  0.649717  0.624338  1
  Hf  Hf15  1  0.350283  0.495588  0.875662  1
  Hf  Hf16  1  0.495588  0.350283  0.124338  1
  Hf  Hf17  1  0.649717  0.504412  0.375662  1
  Hf  Hf18  1  0.995588  0.149717  0.625662  1
  Hf  Hf19  1  0.004412  0.850283  0.125662  1
  Si  Si20  1  0.363472  0.295094  0.317141  1
  Si  Si21  1  0.636528  0.704906  0.817141  1
  Si  Si22  1  0.204906  0.863472  0.567141  1
  Si  Si23  1  0.136528  0.795094  0.932859  1
  Si  Si24  1  0.795094  0.136528  0.067141  1
  Si  Si25  1  0.863472  0.204906  0.432859  1
  Si  Si26  1  0.295094  0.363472  0.682859  1
  Si  Si27  1  0.704906  0.636528  0.182859  1
  Si  Si28  1  0.295272  0.048337  0.185542  1
  Si  Si29  1  0.704728  0.951663  0.685542  1
  Si  Si30  1  0.451663  0.795272  0.435542  1
  Si  Si31  1  0.204728  0.548337  0.064458  1
  Si  Si32  1  0.548337  0.204728  0.935542  1
  Si  Si33  1  0.795272  0.451663  0.564458  1
  Si  Si34  1  0.048337  0.295272  0.814458  1
  Si  Si35  1  0.951663  0.704728  0.314458  1
