# generated using pymatgen
data_KPu2CuS4
_symmetry_space_group_name_H-M   'P 1'
_cell_length_a   4.00254900
_cell_length_b   7.10107451
_cell_length_c   13.71038600
_cell_angle_alpha   90.00000000
_cell_angle_beta   90.00000000
_cell_angle_gamma   73.63071992
_symmetry_Int_Tables_number   1
_chemical_formula_structural   KPu2CuS4
_chemical_formula_sum   'K2 Pu4 Cu2 S8'
_cell_volume   373.88637955
_cell_formula_units_Z   2
loop_
 _symmetry_equiv_pos_site_id
 _symmetry_equiv_pos_as_xyz
  1  'x, y, z'
loop_
 _atom_site_type_symbol
 _atom_site_label
 _atom_site_symmetry_multiplicity
 _atom_site_fract_x
 _atom_site_fract_y
 _atom_site_fract_z
 _atom_site_occupancy
  K  K0  1  0.891654  0.216691  0.250000  1
  K  K1  1  0.108345  0.783310  0.750000  1
  Pu  Pu2  1  0.633350  0.733300  0.059393  1
  Pu  Pu3  1  0.633350  0.733300  0.440607  1
  Pu  Pu4  1  0.366649  0.266701  0.559393  1
  Pu  Pu5  1  0.366649  0.266701  0.940607  1
  Cu  Cu6  1  0.162994  0.674012  0.250000  1
  Cu  Cu7  1  0.837005  0.325988  0.750000  1
  S  S8  1  0.000000  0.000000  0.000000  1
  S  S9  1  0.261054  0.477892  0.111071  1
  S  S10  1  0.571627  0.856744  0.250000  1
  S  S11  1  0.261054  0.477892  0.388929  1
  S  S12  1  0.000000  0.000000  0.500000  1
  S  S13  1  0.738945  0.522108  0.611071  1
  S  S14  1  0.428372  0.143256  0.750000  1
  S  S15  1  0.738945  0.522108  0.888929  1
