# generated using pymatgen
data_Rb11LiV4O16
_symmetry_space_group_name_H-M   'P 1'
_cell_length_a   8.30594873
_cell_length_b   8.30610771
_cell_length_c   10.99810224
_cell_angle_alpha   112.18264006
_cell_angle_beta   112.18483277
_cell_angle_gamma   89.99864408
_symmetry_Int_Tables_number   1
_chemical_formula_structural   Rb11LiV4O16
_chemical_formula_sum   'Rb11 Li1 V4 O16'
_cell_volume   641.53458191
_cell_formula_units_Z   1
loop_
 _symmetry_equiv_pos_site_id
 _symmetry_equiv_pos_as_xyz
  1  'x, y, z'
loop_
 _atom_site_type_symbol
 _atom_site_label
 _atom_site_symmetry_multiplicity
 _atom_site_fract_x
 _atom_site_fract_y
 _atom_site_fract_z
 _atom_site_occupancy
  Rb  Rb0  1  0.290385  0.290389  0.580832  1
  Rb  Rb1  1  0.500000  0.999998  0.000000  1
  Rb  Rb2  1  0.249995  0.750004  0.500002  1
  Rb  Rb3  1  0.925971  0.925976  0.241503  1
  Rb  Rb4  1  0.073992  0.684464  0.758469  1
  Rb  Rb5  1  0.709592  0.709571  0.419167  1
  Rb  Rb6  1  0.999992  0.500020  0.000001  1
  Rb  Rb7  1  0.684450  0.074002  0.758468  1
  Rb  Rb8  1  0.315546  0.315543  0.241525  1
  Rb  Rb9  1  0.750000  0.250013  0.500002  1
  Rb  Rb10  1  0.499985  0.499992  0.999992  1
  Li  Li11  1  0.000033  0.000027  0.000032  1
  V  V12  1  0.869128  0.376183  0.245418  1
  V  V13  1  0.130842  0.130868  0.754670  1
  V  V14  1  0.623868  0.623889  0.754654  1
  V  V15  1  0.376251  0.869152  0.245407  1
  O  O16  1  0.408980  0.011336  0.420311  1
  O  O17  1  0.798298  0.798313  0.883120  1
  O  O18  1  0.652573  0.332213  0.225066  1
  O  O19  1  0.332246  0.652572  0.225076  1
  O  O20  1  0.011295  0.408937  0.420233  1
  O  O21  1  0.572507  0.892837  0.225071  1
  O  O22  1  0.347394  0.107140  0.774936  1
  O  O23  1  0.201748  0.915219  0.116954  1
  O  O24  1  0.591103  0.591117  0.579706  1
  O  O25  1  0.084759  0.084773  0.883030  1
  O  O26  1  0.667770  0.427464  0.774903  1
  O  O27  1  0.988590  0.988608  0.579659  1
  O  O28  1  0.892867  0.572545  0.225058  1
  O  O29  1  0.915256  0.201648  0.116893  1
  O  O30  1  0.107129  0.347401  0.774939  1
  O  O31  1  0.427452  0.667785  0.774903  1
