# generated using pymatgen
data_Hf3Co8TcP6
_symmetry_space_group_name_H-M   'P 1'
_cell_length_a   11.90644456
_cell_length_b   11.92636210
_cell_length_c   3.64378100
_cell_angle_alpha   90.00000000
_cell_angle_beta   90.00000000
_cell_angle_gamma   120.05535963
_symmetry_Int_Tables_number   1
_chemical_formula_structural   Hf3Co8TcP6
_chemical_formula_sum   'Hf6 Co16 Tc2 P12'
_cell_volume   447.84780095
_cell_formula_units_Z   2
loop_
 _symmetry_equiv_pos_site_id
 _symmetry_equiv_pos_as_xyz
  1  'x, y, z'
loop_
 _atom_site_type_symbol
 _atom_site_label
 _atom_site_symmetry_multiplicity
 _atom_site_fract_x
 _atom_site_fract_y
 _atom_site_fract_z
 _atom_site_occupancy
  Hf  Hf0  1  0.821356  0.819953  0.500000  1
  Hf  Hf1  1  0.000000  0.174929  0.500000  1
  Hf  Hf2  1  0.334117  0.667025  0.000000  1
  Hf  Hf3  1  0.665883  0.332907  0.000000  1
  Hf  Hf4  1  0.000000  0.556342  0.000000  1
  Hf  Hf5  1  0.178644  0.998597  0.500000  1
  Co  Co6  1  0.625371  0.821133  0.000000  1
  Co  Co7  1  0.374629  0.195761  0.000000  1
  Co  Co8  1  0.000000  0.721840  0.500000  1
  Co  Co9  1  0.281246  0.280954  0.500000  1
  Co  Co10  1  0.870318  0.351680  0.500000  1
  Co  Co11  1  0.718754  0.999707  0.500000  1
  Co  Co12  1  0.816706  0.627570  0.000000  1
  Co  Co13  1  0.183294  0.810864  0.000000  1
  Co  Co14  1  0.358377  0.874370  0.500000  1
  Co  Co15  1  0.129682  0.481362  0.500000  1
  Co  Co16  1  0.641623  0.515993  0.500000  1
  Co  Co17  1  0.000000  0.000708  0.000000  1
  Co  Co18  1  0.514888  0.645693  0.500000  1
  Co  Co19  1  0.485112  0.130806  0.500000  1
  Co  Co20  1  0.195877  0.371584  0.000000  1
  Co  Co21  1  0.804123  0.175707  0.000000  1
  Tc  Tc22  1  0.448203  0.448810  0.000000  1
  Tc  Tc23  1  0.551797  0.000607  0.000000  1
  P  P24  1  0.000000  0.345523  0.000000  1
  P  P25  1  0.824852  0.515944  0.500000  1
  P  P26  1  0.684286  0.165435  0.500000  1
  P  P27  1  0.177088  0.175110  0.000000  1
  P  P28  1  0.640643  0.644582  0.000000  1
  P  P29  1  0.822912  0.998022  0.000000  1
  P  P30  1  0.518493  0.833925  0.500000  1
  P  P31  1  0.175148  0.691090  0.500000  1
  P  P32  1  0.359357  0.003939  0.000000  1
  P  P33  1  0.481507  0.315433  0.500000  1
  P  P34  1  0.000000  0.824947  0.000000  1
  P  P35  1  0.315714  0.481148  0.500000  1
