# generated using pymatgen
data_Tb2Al3Fe14C3
_symmetry_space_group_name_H-M   'P 1'
_cell_length_a   6.52086794
_cell_length_b   6.52097430
_cell_length_c   6.52139877
_cell_angle_alpha   83.53009843
_cell_angle_beta   83.52995662
_cell_angle_gamma   83.52973759
_symmetry_Int_Tables_number   1
_chemical_formula_structural   Tb2Al3Fe14C3
_chemical_formula_sum   'Tb2 Al3 Fe14 C3'
_cell_volume   272.37685999
_cell_formula_units_Z   1
loop_
 _symmetry_equiv_pos_site_id
 _symmetry_equiv_pos_as_xyz
  1  'x, y, z'
loop_
 _atom_site_type_symbol
 _atom_site_label
 _atom_site_symmetry_multiplicity
 _atom_site_fract_x
 _atom_site_fract_y
 _atom_site_fract_z
 _atom_site_occupancy
  Tb  Tb0  1  0.656680  0.656665  0.656663  1
  Tb  Tb1  1  0.343374  0.343350  0.343372  1
  Al  Al2  1  0.999985  0.999943  0.500059  1
  Al  Al3  1  0.500091  0.999983  0.999934  1
  Al  Al4  1  0.999961  0.500033  0.000020  1
  Fe  Fe5  1  0.714316  0.285681  0.000011  1
  Fe  Fe6  1  0.999946  0.714352  0.285660  1
  Fe  Fe7  1  0.285695  0.000028  0.714328  1
  Fe  Fe8  1  0.999987  0.285690  0.714332  1
  Fe  Fe9  1  0.714350  0.999997  0.285661  1
  Fe  Fe10  1  0.285711  0.714281  0.000018  1
  Fe  Fe11  1  0.344739  0.344722  0.852560  1
  Fe  Fe12  1  0.852526  0.344749  0.344754  1
  Fe  Fe13  1  0.344751  0.852597  0.344736  1
  Fe  Fe14  1  0.655273  0.655260  0.147414  1
  Fe  Fe15  1  0.147379  0.655251  0.655255  1
  Fe  Fe16  1  0.655250  0.147456  0.655240  1
  Fe  Fe17  1  0.907256  0.907285  0.907307  1
  Fe  Fe18  1  0.092695  0.092709  0.092694  1
  C  C19  1  0.500016  0.499984  0.000006  1
  C  C20  1  0.000007  0.499987  0.499973  1
  C  C21  1  0.500012  0.999996  0.500005  1
