# generated using pymatgen
data_Rb2Ti2S9
_symmetry_space_group_name_H-M   'P 1'
_cell_length_a   10.26970638
_cell_length_b   10.26970623
_cell_length_c   10.26970670
_cell_angle_alpha   82.48816026
_cell_angle_beta   82.48816299
_cell_angle_gamma   82.48816468
_symmetry_Int_Tables_number   1
_chemical_formula_structural   Rb2Ti2S9
_chemical_formula_sum   'Rb6 Ti6 S27'
_cell_volume   1057.46344299
_cell_formula_units_Z   3
loop_
 _symmetry_equiv_pos_site_id
 _symmetry_equiv_pos_as_xyz
  1  'x, y, z'
loop_
 _atom_site_type_symbol
 _atom_site_label
 _atom_site_symmetry_multiplicity
 _atom_site_fract_x
 _atom_site_fract_y
 _atom_site_fract_z
 _atom_site_occupancy
  Rb  Rb0  1  0.654666  0.654666  0.654666  1
  Rb  Rb1  1  0.437298  0.784078  0.174737  1
  Rb  Rb2  1  0.784078  0.174737  0.437298  1
  Rb  Rb3  1  0.236489  0.236489  0.236489  1
  Rb  Rb4  1  0.174737  0.437298  0.784078  1
  Rb  Rb5  1  0.000134  0.000134  0.000134  1
  Ti  Ti6  1  0.868142  0.527485  0.170724  1
  Ti  Ti7  1  0.995254  0.731152  0.330574  1
  Ti  Ti8  1  0.527485  0.170724  0.868142  1
  Ti  Ti9  1  0.731152  0.330574  0.995254  1
  Ti  Ti10  1  0.330574  0.995254  0.731152  1
  Ti  Ti11  1  0.170724  0.868142  0.527485  1
  S  S12  1  0.916464  0.305296  0.120268  1
  S  S13  1  0.400313  0.895798  0.503614  1
  S  S14  1  0.819050  0.790837  0.195397  1
  S  S15  1  0.703112  0.508669  0.357604  1
  S  S16  1  0.790837  0.195397  0.819050  1
  S  S17  1  0.387370  0.777637  0.838244  1
  S  S18  1  0.177614  0.552441  0.328503  1
  S  S19  1  0.600886  0.150802  0.096888  1
  S  S20  1  0.328503  0.177614  0.552441  1
  S  S21  1  0.014376  0.706788  0.575631  1
  S  S22  1  0.706788  0.575631  0.014376  1
  S  S23  1  0.305296  0.120268  0.916464  1
  S  S24  1  0.508669  0.357604  0.703112  1
  S  S25  1  0.949704  0.888372  0.644334  1
  S  S26  1  0.120268  0.916464  0.305296  1
  S  S27  1  0.357604  0.703112  0.508669  1
  S  S28  1  0.644334  0.949704  0.888372  1
  S  S29  1  0.888372  0.644334  0.949704  1
  S  S30  1  0.150802  0.096888  0.600886  1
  S  S31  1  0.895798  0.503614  0.400313  1
  S  S32  1  0.777637  0.838244  0.387370  1
  S  S33  1  0.195397  0.819050  0.790837  1
  S  S34  1  0.503614  0.400313  0.895798  1
  S  S35  1  0.838244  0.387370  0.777637  1
  S  S36  1  0.575631  0.014376  0.706788  1
  S  S37  1  0.552441  0.328503  0.177614  1
  S  S38  1  0.096888  0.600886  0.150802  1
