# generated using pymatgen
data_Sm3Y(Si3Ni5)4
_symmetry_space_group_name_H-M   'P 1'
_cell_length_a   18.86361317
_cell_length_b   3.82478000
_cell_length_c   6.59064067
_cell_angle_alpha   90.00000000
_cell_angle_beta   90.01907545
_cell_angle_gamma   90.00000000
_symmetry_Int_Tables_number   1
_chemical_formula_structural   Sm3Y(Si3Ni5)4
_chemical_formula_sum   'Sm3 Y1 Si12 Ni20'
_cell_volume   475.50923005
_cell_formula_units_Z   1
loop_
 _symmetry_equiv_pos_site_id
 _symmetry_equiv_pos_as_xyz
  1  'x, y, z'
loop_
 _atom_site_type_symbol
 _atom_site_label
 _atom_site_symmetry_multiplicity
 _atom_site_fract_x
 _atom_site_fract_y
 _atom_site_fract_z
 _atom_site_occupancy
  Sm  Sm0  1  0.643951  0.250000  0.624639  1
  Sm  Sm1  1  0.143188  0.250000  0.875274  1
  Sm  Sm2  1  0.356409  0.750000  0.376115  1
  Y  Y3  1  0.856253  0.750000  0.122306  1
  Si  Si4  1  0.913027  0.250000  0.420888  1
  Si  Si5  1  0.413298  0.250000  0.073017  1
  Si  Si6  1  0.085397  0.750000  0.573418  1
  Si  Si7  1  0.587137  0.750000  0.927491  1
  Si  Si8  1  0.737687  0.250000  0.119440  1
  Si  Si9  1  0.235772  0.250000  0.383353  1
  Si  Si10  1  0.263805  0.750000  0.882764  1
  Si  Si11  1  0.763986  0.750000  0.619204  1
  Si  Si12  1  0.926247  0.250000  0.842361  1
  Si  Si13  1  0.427761  0.250000  0.658426  1
  Si  Si14  1  0.072634  0.750000  0.157961  1
  Si  Si15  1  0.573377  0.750000  0.340667  1
  Ni  Ni16  1  0.801455  0.250000  0.813001  1
  Ni  Ni17  1  0.301255  0.250000  0.689616  1
  Ni  Ni18  1  0.198562  0.750000  0.189409  1
  Ni  Ni19  1  0.699895  0.750000  0.312081  1
  Ni  Ni20  1  0.993767  0.250000  0.134717  1
  Ni  Ni21  1  0.494929  0.250000  0.362836  1
  Ni  Ni22  1  0.004701  0.750000  0.863996  1
  Ni  Ni23  1  0.506122  0.750000  0.636330  1
  Ni  Ni24  1  0.516788  0.250000  0.889482  1
  Ni  Ni25  1  0.014928  0.250000  0.610902  1
  Ni  Ni26  1  0.483680  0.750000  0.111810  1
  Ni  Ni27  1  0.982607  0.750000  0.384658  1
  Ni  Ni28  1  0.616672  0.250000  0.145933  1
  Ni  Ni29  1  0.114840  0.250000  0.354441  1
  Ni  Ni30  1  0.384787  0.750000  0.853452  1
  Ni  Ni31  1  0.884484  0.750000  0.645348  1
  Ni  Ni32  1  0.793150  0.250000  0.428696  1
  Ni  Ni33  1  0.292077  0.250000  0.073409  1
  Ni  Ni34  1  0.206999  0.750000  0.573195  1
  Ni  Ni35  1  0.708371  0.750000  0.929368  1
