# generated using pymatgen
data_Rb7NbIn3As5
_symmetry_space_group_name_H-M   'P 1'
_cell_length_a   8.70896601
_cell_length_b   9.62506884
_cell_length_c   14.55552499
_cell_angle_alpha   85.65412002
_cell_angle_beta   84.23256948
_cell_angle_gamma   86.94009582
_symmetry_Int_Tables_number   1
_chemical_formula_structural   Rb7NbIn3As5
_chemical_formula_sum   'Rb14 Nb2 In6 As10'
_cell_volume   1209.15297151
_cell_formula_units_Z   2
loop_
 _symmetry_equiv_pos_site_id
 _symmetry_equiv_pos_as_xyz
  1  'x, y, z'
loop_
 _atom_site_type_symbol
 _atom_site_label
 _atom_site_symmetry_multiplicity
 _atom_site_fract_x
 _atom_site_fract_y
 _atom_site_fract_z
 _atom_site_occupancy
  Rb  Rb0  1  0.830071  0.365394  0.643537  1
  Rb  Rb1  1  0.816280  0.813432  0.131771  1
  Rb  Rb2  1  0.242443  0.006456  0.467519  1
  Rb  Rb3  1  0.270702  0.255006  0.252736  1
  Rb  Rb4  1  0.742041  0.499036  0.974233  1
  Rb  Rb5  1  0.257959  0.500964  0.025767  1
  Rb  Rb6  1  0.689587  0.081059  0.883496  1
  Rb  Rb7  1  0.757557  0.993544  0.532481  1
  Rb  Rb8  1  0.729298  0.744994  0.747264  1
  Rb  Rb9  1  0.321418  0.336798  0.604766  1
  Rb  Rb10  1  0.169929  0.634606  0.356463  1
  Rb  Rb11  1  0.183720  0.186568  0.868229  1
  Rb  Rb12  1  0.310413  0.918941  0.116504  1
  Rb  Rb13  1  0.678582  0.663202  0.395234  1
  Nb  Nb14  1  0.354462  0.602693  0.773349  1
  Nb  Nb15  1  0.645538  0.397307  0.226651  1
  In  In16  1  0.056949  0.813778  0.871279  1
  In  In17  1  0.943051  0.186222  0.128721  1
  In  In18  1  0.367808  0.951561  0.701716  1
  In  In19  1  0.091784  0.719809  0.620989  1
  In  In20  1  0.908216  0.280191  0.379011  1
  In  In21  1  0.632192  0.048439  0.298284  1
  As  As22  1  0.926607  0.454801  0.209652  1
  As  As23  1  0.617219  0.199051  0.122613  1
  As  As24  1  0.073393  0.545199  0.790348  1
  As  As25  1  0.580210  0.300107  0.392977  1
  As  As26  1  0.419790  0.699893  0.607023  1
  As  As27  1  0.029887  0.996207  0.700569  1
  As  As28  1  0.515709  0.396500  0.810605  1
  As  As29  1  0.484291  0.603500  0.189395  1
  As  As30  1  0.382781  0.800949  0.877387  1
  As  As31  1  0.970113  0.003793  0.299431  1
