# generated using pymatgen
data_Y3TmAlIr
_symmetry_space_group_name_H-M   'P 1'
_cell_length_a   9.53726718
_cell_length_b   9.53726659
_cell_length_c   9.53726800
_cell_angle_alpha   60.00000206
_cell_angle_beta   60.00000409
_cell_angle_gamma   60.00000670
_symmetry_Int_Tables_number   1
_chemical_formula_structural   Y3TmAlIr
_chemical_formula_sum   'Y12 Tm4 Al4 Ir4'
_cell_volume   613.41854667
_cell_formula_units_Z   4
loop_
 _symmetry_equiv_pos_site_id
 _symmetry_equiv_pos_as_xyz
  1  'x, y, z'
loop_
 _atom_site_type_symbol
 _atom_site_label
 _atom_site_symmetry_multiplicity
 _atom_site_fract_x
 _atom_site_fract_y
 _atom_site_fract_z
 _atom_site_occupancy
  Y  Y0  1  0.805352  0.194648  0.194648  1
  Y  Y1  1  0.194648  0.805352  0.805352  1
  Y  Y2  1  0.194648  0.805352  0.194648  1
  Y  Y3  1  0.805352  0.194648  0.805352  1
  Y  Y4  1  0.194648  0.194648  0.805352  1
  Y  Y5  1  0.805352  0.805352  0.194648  1
  Y  Y6  1  0.939435  0.560565  0.560565  1
  Y  Y7  1  0.560565  0.939435  0.939435  1
  Y  Y8  1  0.560565  0.939435  0.560565  1
  Y  Y9  1  0.939435  0.560565  0.939435  1
  Y  Y10  1  0.560565  0.560565  0.939435  1
  Y  Y11  1  0.939435  0.939435  0.560565  1
  Tm  Tm12  1  0.351414  0.351414  0.351414  1
  Tm  Tm13  1  0.351414  0.351414  0.945758  1
  Tm  Tm14  1  0.351414  0.945758  0.351414  1
  Tm  Tm15  1  0.945758  0.351414  0.351414  1
  Al  Al16  1  0.578059  0.578059  0.578059  1
  Al  Al17  1  0.578059  0.578059  0.265823  1
  Al  Al18  1  0.578059  0.265823  0.578059  1
  Al  Al19  1  0.265823  0.578059  0.578059  1
  Ir  Ir20  1  0.143211  0.143211  0.143211  1
  Ir  Ir21  1  0.143211  0.143211  0.570368  1
  Ir  Ir22  1  0.143211  0.570368  0.143211  1
  Ir  Ir23  1  0.570368  0.143211  0.143211  1
