# generated using pymatgen
data_Pr4Tc2O11
_symmetry_space_group_name_H-M   'P 1'
_cell_length_a   5.63774100
_cell_length_b   12.75073300
_cell_length_c   12.75073300
_cell_angle_alpha   90.00000000
_cell_angle_beta   90.00000000
_cell_angle_gamma   90.00000000
_symmetry_Int_Tables_number   1
_chemical_formula_structural   Pr4Tc2O11
_chemical_formula_sum   'Pr16 Tc8 O44'
_cell_volume   916.59065218
_cell_formula_units_Z   4
loop_
 _symmetry_equiv_pos_site_id
 _symmetry_equiv_pos_as_xyz
  1  'x, y, z'
loop_
 _atom_site_type_symbol
 _atom_site_label
 _atom_site_symmetry_multiplicity
 _atom_site_fract_x
 _atom_site_fract_y
 _atom_site_fract_z
 _atom_site_occupancy
  Pr  Pr0  1  0.678642  0.362462  0.054826  1
  Pr  Pr1  1  0.247710  0.866734  0.065553  1
  Pr  Pr2  1  0.752238  0.065487  0.133299  1
  Pr  Pr3  1  0.178530  0.554726  0.137549  1
  Pr  Pr4  1  0.321393  0.945195  0.362474  1
  Pr  Pr5  1  0.747740  0.434453  0.366720  1
  Pr  Pr6  1  0.252286  0.633313  0.434506  1
  Pr  Pr7  1  0.821518  0.137550  0.445293  1
  Pr  Pr8  1  0.821404  0.862459  0.554783  1
  Pr  Pr9  1  0.252221  0.366700  0.565525  1
  Pr  Pr10  1  0.747771  0.565538  0.633217  1
  Pr  Pr11  1  0.321412  0.054780  0.637559  1
  Pr  Pr12  1  0.178506  0.445254  0.862485  1
  Pr  Pr13  1  0.752268  0.934516  0.866661  1
  Pr  Pr14  1  0.247704  0.133258  0.934497  1
  Pr  Pr15  1  0.678519  0.637532  0.945237  1
  Tc  Tc16  1  0.176714  0.271174  0.163424  1
  Tc  Tc17  1  0.676641  0.663433  0.228836  1
  Tc  Tc18  1  0.823357  0.836596  0.271168  1
  Tc  Tc19  1  0.323462  0.228822  0.336596  1
  Tc  Tc20  1  0.323390  0.771255  0.663372  1
  Tc  Tc21  1  0.823376  0.163416  0.728789  1
  Tc  Tc22  1  0.676617  0.336588  0.771142  1
  Tc  Tc23  1  0.176676  0.728837  0.836583  1
  O  O24  1  0.999995  0.999975  0.999992  1
  O  O25  1  0.499993  0.999970  0.999979  1
  O  O26  1  0.254938  0.397018  0.049230  1
  O  O27  1  0.953722  0.218760  0.057526  1
  O  O28  1  0.440284  0.205081  0.093278  1
  O  O29  1  0.754928  0.549229  0.102965  1
  O  O30  1  0.468828  0.706165  0.121065  1
  O  O31  1  0.942304  0.750966  0.159122  1
  O  O32  1  0.559608  0.906751  0.205038  1
  O  O33  1  0.968876  0.378958  0.206169  1
  O  O34  1  0.046374  0.942531  0.218726  1
  O  O35  1  0.057686  0.159185  0.248966  1
  O  O36  1  0.442404  0.340907  0.250930  1
  O  O37  1  0.453768  0.557512  0.281207  1
  O  O38  1  0.531255  0.121059  0.293815  1
  O  O39  1  0.940178  0.593297  0.294922  1
  O  O40  1  0.557585  0.748983  0.340831  1
  O  O41  1  0.031229  0.793790  0.378943  1
  O  O42  1  0.745071  0.950757  0.397072  1
  O  O43  1  0.059760  0.294947  0.406742  1
  O  O44  1  0.546358  0.281249  0.442505  1
  O  O45  1  0.245090  0.102896  0.450766  1
  O  O46  1  0.000002  0.499976  0.499977  1
  O  O47  1  0.500001  0.499982  0.499991  1
  O  O48  1  0.245075  0.897030  0.549243  1
  O  O49  1  0.546348  0.718723  0.557503  1
  O  O50  1  0.059703  0.705042  0.593278  1
  O  O51  1  0.745098  0.049234  0.602998  1
  O  O52  1  0.031180  0.206191  0.621016  1
  O  O53  1  0.557618  0.251008  0.659115  1
  O  O54  1  0.940161  0.406760  0.705098  1
  O  O55  1  0.531155  0.878930  0.706173  1
  O  O56  1  0.453712  0.442504  0.718797  1
  O  O57  1  0.442298  0.659144  0.749005  1
  O  O58  1  0.057576  0.840876  0.750958  1
  O  O59  1  0.046381  0.057511  0.781294  1
  O  O60  1  0.968820  0.621016  0.793826  1
  O  O61  1  0.559653  0.093296  0.794963  1
  O  O62  1  0.942327  0.249048  0.840840  1
  O  O63  1  0.468818  0.293836  0.878921  1
  O  O64  1  0.754928  0.450791  0.897115  1
  O  O65  1  0.440208  0.794902  0.906745  1
  O  O66  1  0.953678  0.781216  0.942468  1
  O  O67  1  0.254931  0.602918  0.950796  1
