# generated using pymatgen
data_Tl4OsRuBr12
_symmetry_space_group_name_H-M   'P 1'
_cell_length_a   7.39351200
_cell_length_b   7.39351200
_cell_length_c   10.45543300
_cell_angle_alpha   90.00000000
_cell_angle_beta   90.00000000
_cell_angle_gamma   90.00000000
_symmetry_Int_Tables_number   1
_chemical_formula_structural   Tl4OsRuBr12
_chemical_formula_sum   'Tl4 Os1 Ru1 Br12'
_cell_volume   571.53599542
_cell_formula_units_Z   1
loop_
 _symmetry_equiv_pos_site_id
 _symmetry_equiv_pos_as_xyz
  1  'x, y, z'
loop_
 _atom_site_type_symbol
 _atom_site_label
 _atom_site_symmetry_multiplicity
 _atom_site_fract_x
 _atom_site_fract_y
 _atom_site_fract_z
 _atom_site_occupancy
  Tl  Tl0  1  0.500000  0.000000  0.745577  1
  Tl  Tl1  1  0.000000  0.500000  0.254423  1
  Tl  Tl2  1  0.500000  0.000000  0.254423  1
  Tl  Tl3  1  0.000000  0.500000  0.745577  1
  Os  Os4  1  0.000000  0.000000  0.000000  1
  Ru  Ru5  1  0.500000  0.500000  0.500000  1
  Br  Br6  1  0.000000  0.000000  0.761455  1
  Br  Br7  1  0.500000  0.500000  0.260555  1
  Br  Br8  1  0.739583  0.739583  0.500000  1
  Br  Br9  1  0.238481  0.238481  0.000000  1
  Br  Br10  1  0.739583  0.260417  0.500000  1
  Br  Br11  1  0.238481  0.761519  0.000000  1
  Br  Br12  1  0.000000  0.000000  0.238545  1
  Br  Br13  1  0.500000  0.500000  0.739445  1
  Br  Br14  1  0.260417  0.260417  0.500000  1
  Br  Br15  1  0.761519  0.761519  0.000000  1
  Br  Br16  1  0.260417  0.739583  0.500000  1
  Br  Br17  1  0.761519  0.238481  0.000000  1
