# generated using pymatgen
data_HfZrV3Rh
_symmetry_space_group_name_H-M   'P 1'
_cell_length_a   5.16372609
_cell_length_b   5.16372622
_cell_length_c   5.23178088
_cell_angle_alpha   60.42936954
_cell_angle_beta   60.42937008
_cell_angle_gamma   60.00000492
_symmetry_Int_Tables_number   1
_chemical_formula_structural   HfZrV3Rh
_chemical_formula_sum   'Hf1 Zr1 V3 Rh1'
_cell_volume   99.27713370
_cell_formula_units_Z   1
loop_
 _symmetry_equiv_pos_site_id
 _symmetry_equiv_pos_as_xyz
  1  'x, y, z'
loop_
 _atom_site_type_symbol
 _atom_site_label
 _atom_site_symmetry_multiplicity
 _atom_site_fract_x
 _atom_site_fract_y
 _atom_site_fract_z
 _atom_site_occupancy
  Hf  Hf0  1  0.250499  0.250499  0.248502  1
  Zr  Zr1  1  0.999319  0.999319  0.002042  1
  V  V2  1  0.625124  0.125017  0.624736  1
  V  V3  1  0.125017  0.625124  0.624736  1
  V  V4  1  0.625124  0.625124  0.624736  1
  Rh  Rh5  1  0.624918  0.624918  0.125248  1
