# generated using pymatgen
data_Sr4TaCoO8
_symmetry_space_group_name_H-M   'P 1'
_cell_length_a   5.51084335
_cell_length_b   5.51084932
_cell_length_c   13.35024888
_cell_angle_alpha   101.89446230
_cell_angle_beta   101.89446406
_cell_angle_gamma   90.03285285
_symmetry_Int_Tables_number   1
_chemical_formula_structural   Sr4TaCoO8
_chemical_formula_sum   'Sr8 Ta2 Co2 O16'
_cell_volume   387.82321822
_cell_formula_units_Z   2
loop_
 _symmetry_equiv_pos_site_id
 _symmetry_equiv_pos_as_xyz
  1  'x, y, z'
loop_
 _atom_site_type_symbol
 _atom_site_label
 _atom_site_symmetry_multiplicity
 _atom_site_fract_x
 _atom_site_fract_y
 _atom_site_fract_z
 _atom_site_occupancy
  Sr  Sr0  1  0.071330  0.572372  0.144188  1
  Sr  Sr1  1  0.573767  0.075123  0.148916  1
  Sr  Sr2  1  0.322390  0.321293  0.644179  1
  Sr  Sr3  1  0.825118  0.823729  0.648894  1
  Sr  Sr4  1  0.678708  0.677610  0.355820  1
  Sr  Sr5  1  0.176272  0.174885  0.351107  1
  Sr  Sr6  1  0.924874  0.426232  0.851085  1
  Sr  Sr7  1  0.427628  0.928668  0.855812  1
  Ta  Ta8  1  0.500030  0.499971  0.000000  1
  Ta  Ta9  1  0.249969  0.750030  0.500000  1
  Co  Co10  1  0.000226  0.999774  0.000000  1
  Co  Co11  1  0.749766  0.250234  0.500000  1
  O  O12  1  0.169347  0.670934  0.340160  1
  O  O13  1  0.670489  0.171531  0.341750  1
  O  O14  1  0.420820  0.419264  0.840139  1
  O  O15  1  0.921396  0.920365  0.841732  1
  O  O16  1  0.580737  0.579182  0.159860  1
  O  O17  1  0.079636  0.078605  0.158269  1
  O  O18  1  0.828468  0.329510  0.658250  1
  O  O19  1  0.329064  0.830652  0.659841  1
  O  O20  1  0.247341  0.246771  0.000026  1
  O  O21  1  0.753229  0.752659  0.999973  1
  O  O22  1  0.502631  0.003210  0.499973  1
  O  O23  1  0.996790  0.497369  0.500027  1
  O  O24  1  0.247343  0.752657  0.000000  1
  O  O25  1  0.753292  0.246709  0.000000  1
  O  O26  1  0.502622  0.497378  0.500000  1
  O  O27  1  0.996717  0.003283  0.500000  1
