# generated using pymatgen
data_Nd5Zr3(Ni4Sb3)4
_symmetry_space_group_name_H-M   'P 1'
_cell_length_a   13.53923100
_cell_length_b   13.53923126
_cell_length_c   4.26971600
_cell_angle_alpha   90.00000000
_cell_angle_beta   90.00000000
_cell_angle_gamma   120.00000182
_symmetry_Int_Tables_number   1
_chemical_formula_structural   Nd5Zr3(Ni4Sb3)4
_chemical_formula_sum   'Nd5 Zr3 Ni16 Sb12'
_cell_volume   677.82505331
_cell_formula_units_Z   1
loop_
 _symmetry_equiv_pos_site_id
 _symmetry_equiv_pos_as_xyz
  1  'x, y, z'
loop_
 _atom_site_type_symbol
 _atom_site_label
 _atom_site_symmetry_multiplicity
 _atom_site_fract_x
 _atom_site_fract_y
 _atom_site_fract_z
 _atom_site_occupancy
  Nd  Nd0  1  0.189996  0.189996  0.500000  1
  Nd  Nd1  1  0.810004  0.000000  0.500000  1
  Nd  Nd2  1  0.000000  0.810004  0.500000  1
  Nd  Nd3  1  0.333333  0.666667  0.000000  1
  Nd  Nd4  1  0.666667  0.333333  0.000000  1
  Zr  Zr5  1  0.580779  0.580779  0.000000  1
  Zr  Zr6  1  0.419221  0.000000  0.000000  1
  Zr  Zr7  1  0.000000  0.419221  0.000000  1
  Ni  Ni8  1  0.722166  0.722166  0.500000  1
  Ni  Ni9  1  0.277834  0.000000  0.500000  1
  Ni  Ni10  1  0.000000  0.277834  0.500000  1
  Ni  Ni11  1  0.183284  0.375828  0.000000  1
  Ni  Ni12  1  0.624172  0.807456  0.000000  1
  Ni  Ni13  1  0.192544  0.816716  0.000000  1
  Ni  Ni14  1  0.807456  0.624172  0.000000  1
  Ni  Ni15  1  0.816716  0.192544  0.000000  1
  Ni  Ni16  1  0.375828  0.183284  0.000000  1
  Ni  Ni17  1  0.372469  0.486347  0.500000  1
  Ni  Ni18  1  0.513653  0.886123  0.500000  1
  Ni  Ni19  1  0.113877  0.627531  0.500000  1
  Ni  Ni20  1  0.886123  0.513653  0.500000  1
  Ni  Ni21  1  0.627531  0.113877  0.500000  1
  Ni  Ni22  1  0.486347  0.372469  0.500000  1
  Ni  Ni23  1  0.000000  0.000000  0.000000  1
  Sb  Sb24  1  0.820853  0.820853  0.000000  1
  Sb  Sb25  1  0.179147  0.000000  0.000000  1
  Sb  Sb26  1  0.000000  0.179147  0.000000  1
  Sb  Sb27  1  0.176600  0.476191  0.500000  1
  Sb  Sb28  1  0.523809  0.700409  0.500000  1
  Sb  Sb29  1  0.299591  0.823400  0.500000  1
  Sb  Sb30  1  0.700409  0.523809  0.500000  1
  Sb  Sb31  1  0.823400  0.299591  0.500000  1
  Sb  Sb32  1  0.476191  0.176600  0.500000  1
  Sb  Sb33  1  0.367604  0.367604  0.000000  1
  Sb  Sb34  1  0.632396  0.000000  0.000000  1
  Sb  Sb35  1  0.000000  0.632396  0.000000  1
