# generated using pymatgen
data_RbPaTeO6
_symmetry_space_group_name_H-M   'P 1'
_cell_length_a   7.76169482
_cell_length_b   7.76169462
_cell_length_c   7.76169483
_cell_angle_alpha   122.66189571
_cell_angle_beta   118.36586440
_cell_angle_gamma   89.15309977
_symmetry_Int_Tables_number   1
_chemical_formula_structural   RbPaTeO6
_chemical_formula_sum   'Rb2 Pa2 Te2 O12'
_cell_volume   327.44524760
_cell_formula_units_Z   2
loop_
 _symmetry_equiv_pos_site_id
 _symmetry_equiv_pos_as_xyz
  1  'x, y, z'
loop_
 _atom_site_type_symbol
 _atom_site_label
 _atom_site_symmetry_multiplicity
 _atom_site_fract_x
 _atom_site_fract_y
 _atom_site_fract_z
 _atom_site_occupancy
  Rb  Rb0  1  0.625499  0.875499  0.750000  1
  Rb  Rb1  1  0.374501  0.124501  0.250000  1
  Pa  Pa2  1  0.500000  0.500000  0.000000  1
  Pa  Pa3  1  0.000000  0.500000  0.500000  1
  Te  Te4  1  0.000000  0.500000  0.000000  1
  Te  Te5  1  0.000000  0.000000  0.500000  1
  O  O6  1  0.062831  0.812831  0.250000  1
  O  O7  1  0.676990  0.426990  0.250000  1
  O  O8  1  0.055842  0.834036  0.626434  1
  O  O9  1  0.707602  0.429409  0.873566  1
  O  O10  1  0.707602  0.834036  0.278194  1
  O  O11  1  0.055842  0.429409  0.221806  1
  O  O12  1  0.937169  0.187169  0.750000  1
  O  O13  1  0.323010  0.573010  0.750000  1
  O  O14  1  0.944158  0.165964  0.373566  1
  O  O15  1  0.292398  0.570591  0.126434  1
  O  O16  1  0.292398  0.165964  0.721806  1
  O  O17  1  0.944158  0.570591  0.778194  1
