# generated using pymatgen
data_Sc12Si12Tc3Rh
_symmetry_space_group_name_H-M   'P 1'
_cell_length_a   3.96040800
_cell_length_b   10.44271261
_cell_length_c   11.81225180
_cell_angle_alpha   90.13912017
_cell_angle_beta   90.00000000
_cell_angle_gamma   90.00000000
_symmetry_Int_Tables_number   1
_chemical_formula_structural   Sc12Si12Tc3Rh
_chemical_formula_sum   'Sc12 Si12 Tc3 Rh1'
_cell_volume   488.52261289
_cell_formula_units_Z   1
loop_
 _symmetry_equiv_pos_site_id
 _symmetry_equiv_pos_as_xyz
  1  'x, y, z'
loop_
 _atom_site_type_symbol
 _atom_site_label
 _atom_site_symmetry_multiplicity
 _atom_site_fract_x
 _atom_site_fract_y
 _atom_site_fract_z
 _atom_site_occupancy
  Sc  Sc0  1  0.250000  0.876674  0.019975  1
  Sc  Sc1  1  0.250000  0.625005  0.517887  1
  Sc  Sc2  1  0.750000  0.124042  0.983612  1
  Sc  Sc3  1  0.750000  0.377563  0.482994  1
  Sc  Sc4  1  0.250000  0.923630  0.603798  1
  Sc  Sc5  1  0.250000  0.577092  0.105597  1
  Sc  Sc6  1  0.750000  0.076839  0.393433  1
  Sc  Sc7  1  0.750000  0.422899  0.892330  1
  Sc  Sc8  1  0.250000  0.661884  0.798044  1
  Sc  Sc9  1  0.250000  0.837194  0.298002  1
  Sc  Sc10  1  0.750000  0.338446  0.201924  1
  Sc  Sc11  1  0.750000  0.156325  0.701602  1
  Si  Si12  1  0.250000  0.016324  0.824445  1
  Si  Si13  1  0.250000  0.482242  0.322744  1
  Si  Si14  1  0.750000  0.981452  0.177257  1
  Si  Si15  1  0.750000  0.521173  0.678026  1
  Si  Si16  1  0.250000  0.249314  0.843651  1
  Si  Si17  1  0.250000  0.247539  0.345292  1
  Si  Si18  1  0.750000  0.747679  0.154475  1
  Si  Si19  1  0.750000  0.753946  0.656500  1
  Si  Si20  1  0.250000  0.192584  0.543923  1
  Si  Si21  1  0.250000  0.307927  0.042768  1
  Si  Si22  1  0.750000  0.808963  0.456621  1
  Si  Si23  1  0.750000  0.692956  0.955481  1
  Tc  Tc24  1  0.250000  0.389216  0.677797  1
  Tc  Tc25  1  0.250000  0.111184  0.176198  1
  Tc  Tc26  1  0.750000  0.612417  0.322816  1
  Rh  Rh27  1  0.750000  0.887491  0.822809  1
