# generated using pymatgen
data_Er7Tm9MgIn3Rh4
_symmetry_space_group_name_H-M   'P 1'
_cell_length_a   9.55449545
_cell_length_b   9.55323818
_cell_length_c   9.55569316
_cell_angle_alpha   60.05221896
_cell_angle_beta   60.05687855
_cell_angle_gamma   59.95154075
_symmetry_Int_Tables_number   1
_chemical_formula_structural   Er7Tm9MgIn3Rh4
_chemical_formula_sum   'Er7 Tm9 Mg1 In3 Rh4'
_cell_volume   617.02616509
_cell_formula_units_Z   1
loop_
 _symmetry_equiv_pos_site_id
 _symmetry_equiv_pos_as_xyz
  1  'x, y, z'
loop_
 _atom_site_type_symbol
 _atom_site_label
 _atom_site_symmetry_multiplicity
 _atom_site_fract_x
 _atom_site_fract_y
 _atom_site_fract_z
 _atom_site_occupancy
  Er  Er0  1  0.061705  0.061750  0.438234  1
  Er  Er1  1  0.435909  0.063980  0.436287  1
  Er  Er2  1  0.061819  0.438115  0.061768  1
  Er  Er3  1  0.047947  0.649467  0.651234  1
  Er  Er4  1  0.435749  0.435459  0.064540  1
  Er  Er5  1  0.649487  0.048110  0.651080  1
  Er  Er6  1  0.188304  0.812001  0.187163  1
  Tm  Tm7  1  0.187369  0.187550  0.811665  1
  Tm  Tm8  1  0.809546  0.809790  0.189745  1
  Tm  Tm9  1  0.438547  0.061588  0.061448  1
  Tm  Tm10  1  0.811959  0.188344  0.186985  1
  Tm  Tm11  1  0.063507  0.436020  0.436775  1
  Tm  Tm12  1  0.810125  0.190319  0.809625  1
  Tm  Tm13  1  0.190277  0.810236  0.809422  1
  Tm  Tm14  1  0.650997  0.650746  0.046138  1
  Tm  Tm15  1  0.650884  0.650742  0.652171  1
  Mg  Mg16  1  0.422829  0.422772  0.422336  1
  In  In17  1  0.748392  0.417568  0.417395  1
  In  In18  1  0.417592  0.748444  0.417260  1
  In  In19  1  0.417545  0.417340  0.748670  1
  Rh  Rh20  1  0.857954  0.858193  0.425860  1
  Rh  Rh21  1  0.857157  0.857354  0.857763  1
  Rh  Rh22  1  0.426201  0.858245  0.858134  1
  Rh  Rh23  1  0.858200  0.425869  0.858302  1
