# generated using pymatgen
data_Hf4InCu3Rh8
_symmetry_space_group_name_H-M   'P 1'
_cell_length_a   5.88294180
_cell_length_b   5.88482955
_cell_length_c   7.16633502
_cell_angle_alpha   90.00617319
_cell_angle_beta   90.00077416
_cell_angle_gamma   89.91466688
_symmetry_Int_Tables_number   1
_chemical_formula_structural   Hf4InCu3Rh8
_chemical_formula_sum   'Hf4 In1 Cu3 Rh8'
_cell_volume   248.09902821
_cell_formula_units_Z   1
loop_
 _symmetry_equiv_pos_site_id
 _symmetry_equiv_pos_as_xyz
  1  'x, y, z'
loop_
 _atom_site_type_symbol
 _atom_site_label
 _atom_site_symmetry_multiplicity
 _atom_site_fract_x
 _atom_site_fract_y
 _atom_site_fract_z
 _atom_site_occupancy
  Hf  Hf0  1  0.750003  0.250001  0.999967  1
  Hf  Hf1  1  0.249995  0.750010  0.999979  1
  Hf  Hf2  1  0.250000  0.749996  0.500018  1
  Hf  Hf3  1  0.749996  0.250007  0.500025  1
  In  In4  1  0.250004  0.250000  0.500012  1
  Cu  Cu5  1  0.250007  0.249996  0.000006  1
  Cu  Cu6  1  0.749997  0.750000  0.999983  1
  Cu  Cu7  1  0.750002  0.750001  0.500005  1
  Rh  Rh8  1  0.996529  0.996292  0.247324  1
  Rh  Rh9  1  0.996464  0.503772  0.247516  1
  Rh  Rh10  1  0.503478  0.503704  0.247323  1
  Rh  Rh11  1  0.503517  0.996259  0.247501  1
  Rh  Rh12  1  0.503557  0.996207  0.752483  1
  Rh  Rh13  1  0.503477  0.503720  0.752678  1
  Rh  Rh14  1  0.996469  0.503755  0.752504  1
  Rh  Rh15  1  0.996508  0.996281  0.752676  1
