# generated using pymatgen
data_La16In3HgRh4
_symmetry_space_group_name_H-M   'P 1'
_cell_length_a   10.08862905
_cell_length_b   10.15331489
_cell_length_c   10.15331400
_cell_angle_alpha   60.00000289
_cell_angle_beta   59.78767608
_cell_angle_gamma   59.78767487
_symmetry_Int_Tables_number   1
_chemical_formula_structural   La16In3HgRh4
_chemical_formula_sum   'La16 In3 Hg1 Rh4'
_cell_volume   733.04659848
_cell_formula_units_Z   1
loop_
 _symmetry_equiv_pos_site_id
 _symmetry_equiv_pos_as_xyz
  1  'x, y, z'
loop_
 _atom_site_type_symbol
 _atom_site_label
 _atom_site_symmetry_multiplicity
 _atom_site_fract_x
 _atom_site_fract_y
 _atom_site_fract_z
 _atom_site_occupancy
  La  La0  1  0.349655  0.347201  0.347201  1
  La  La1  1  0.349655  0.347201  0.955944  1
  La  La2  1  0.349655  0.955944  0.347201  1
  La  La3  1  0.956828  0.347724  0.347724  1
  La  La4  1  0.808656  0.192103  0.192103  1
  La  La5  1  0.191444  0.808921  0.808921  1
  La  La6  1  0.191444  0.808920  0.190715  1
  La  La7  1  0.808656  0.192104  0.807137  1
  La  La8  1  0.191444  0.190715  0.808921  1
  La  La9  1  0.808655  0.807137  0.192104  1
  La  La10  1  0.939450  0.561491  0.561491  1
  La  La11  1  0.563651  0.937482  0.937482  1
  La  La12  1  0.563651  0.937482  0.561385  1
  La  La13  1  0.939450  0.561491  0.937569  1
  La  La14  1  0.563651  0.561385  0.937482  1
  La  La15  1  0.939450  0.937569  0.561491  1
  In  In16  1  0.578182  0.579757  0.579757  1
  In  In17  1  0.578182  0.579757  0.262306  1
  In  In18  1  0.578182  0.262306  0.579757  1
  Hg  Hg19  1  0.253003  0.582333  0.582333  1
  Rh  Rh20  1  0.140158  0.141120  0.141120  1
  Rh  Rh21  1  0.140158  0.141120  0.577603  1
  Rh  Rh22  1  0.140158  0.577603  0.141120  1
  Rh  Rh23  1  0.576588  0.141138  0.141138  1
