# generated using pymatgen
data_Nd3Er2(Ni2Sn5)2
_symmetry_space_group_name_H-M   'P 1'
_cell_length_a   13.89013700
_cell_length_b   13.89013700
_cell_length_c   4.51094400
_cell_angle_alpha   90.00000000
_cell_angle_beta   90.00000000
_cell_angle_gamma   90.00000000
_symmetry_Int_Tables_number   1
_chemical_formula_structural   Nd3Er2(Ni2Sn5)2
_chemical_formula_sum   'Nd6 Er4 Ni8 Sn20'
_cell_volume   870.32306701
_cell_formula_units_Z   2
loop_
 _symmetry_equiv_pos_site_id
 _symmetry_equiv_pos_as_xyz
  1  'x, y, z'
loop_
 _atom_site_type_symbol
 _atom_site_label
 _atom_site_symmetry_multiplicity
 _atom_site_fract_x
 _atom_site_fract_y
 _atom_site_fract_z
 _atom_site_occupancy
  Nd  Nd0  1  0.000000  0.000000  0.000000  1
  Nd  Nd1  1  0.500000  0.500000  0.000000  1
  Nd  Nd2  1  0.892170  0.607830  0.500000  1
  Nd  Nd3  1  0.107830  0.392170  0.500000  1
  Nd  Nd4  1  0.392170  0.892170  0.500000  1
  Nd  Nd5  1  0.607830  0.107830  0.500000  1
  Er  Er6  1  0.180742  0.680742  0.500000  1
  Er  Er7  1  0.819258  0.319258  0.500000  1
  Er  Er8  1  0.680742  0.819258  0.500000  1
  Er  Er9  1  0.319258  0.180742  0.500000  1
  Ni  Ni10  1  0.255893  0.534730  0.000000  1
  Ni  Ni11  1  0.744107  0.465270  0.000000  1
  Ni  Ni12  1  0.755893  0.965270  0.000000  1
  Ni  Ni13  1  0.244107  0.034730  0.000000  1
  Ni  Ni14  1  0.465270  0.255893  0.000000  1
  Ni  Ni15  1  0.534730  0.744107  0.000000  1
  Ni  Ni16  1  0.034730  0.755893  0.000000  1
  Ni  Ni17  1  0.965270  0.244107  0.000000  1
  Sn  Sn18  1  0.349811  0.700288  0.000000  1
  Sn  Sn19  1  0.650189  0.299712  0.000000  1
  Sn  Sn20  1  0.849811  0.799712  0.000000  1
  Sn  Sn21  1  0.150189  0.200288  0.000000  1
  Sn  Sn22  1  0.299712  0.349811  0.000000  1
  Sn  Sn23  1  0.700288  0.650189  0.000000  1
  Sn  Sn24  1  0.200288  0.849811  0.000000  1
  Sn  Sn25  1  0.799712  0.150189  0.000000  1
  Sn  Sn26  1  0.333116  0.508647  0.500000  1
  Sn  Sn27  1  0.666884  0.491353  0.500000  1
  Sn  Sn28  1  0.833116  0.991353  0.500000  1
  Sn  Sn29  1  0.166884  0.008647  0.500000  1
  Sn  Sn30  1  0.491353  0.333116  0.500000  1
  Sn  Sn31  1  0.508647  0.666884  0.500000  1
  Sn  Sn32  1  0.008647  0.833116  0.500000  1
  Sn  Sn33  1  0.991353  0.166884  0.500000  1
  Sn  Sn34  1  0.073075  0.573075  0.000000  1
  Sn  Sn35  1  0.926925  0.426925  0.000000  1
  Sn  Sn36  1  0.573075  0.926925  0.000000  1
  Sn  Sn37  1  0.426925  0.073075  0.000000  1
