# generated using pymatgen
data_LiY4Co4(P4Rh5)3
_symmetry_space_group_name_H-M   'P 1'
_cell_length_a   3.84990200
_cell_length_b   10.74134702
_cell_length_c   12.44503303
_cell_angle_alpha   90.00772675
_cell_angle_beta   90.00000000
_cell_angle_gamma   90.00000000
_symmetry_Int_Tables_number   1
_chemical_formula_structural   LiY4Co4(P4Rh5)3
_chemical_formula_sum   'Li1 Y4 Co4 P12 Rh15'
_cell_volume   514.64110624
_cell_formula_units_Z   1
loop_
 _symmetry_equiv_pos_site_id
 _symmetry_equiv_pos_as_xyz
  1  'x, y, z'
loop_
 _atom_site_type_symbol
 _atom_site_label
 _atom_site_symmetry_multiplicity
 _atom_site_fract_x
 _atom_site_fract_y
 _atom_site_fract_z
 _atom_site_occupancy
  Li  Li0  1  0.250000  0.794980  0.487076  1
  Y  Y1  1  0.250000  0.916169  0.208152  1
  Y  Y2  1  0.750000  0.083608  0.792378  1
  Y  Y3  1  0.750000  0.419958  0.293612  1
  Y  Y4  1  0.250000  0.583787  0.708258  1
  Co  Co5  1  0.250000  0.036270  0.434860  1
  Co  Co6  1  0.750000  0.963274  0.563844  1
  Co  Co7  1  0.750000  0.535222  0.064794  1
  Co  Co8  1  0.250000  0.464188  0.933025  1
  P  P9  1  0.250000  0.073437  0.606741  1
  P  P10  1  0.750000  0.925719  0.391164  1
  P  P11  1  0.750000  0.575532  0.893515  1
  P  P12  1  0.250000  0.423931  0.104722  1
  P  P13  1  0.250000  0.229858  0.370976  1
  P  P14  1  0.750000  0.769522  0.631385  1
  P  P15  1  0.750000  0.727141  0.128911  1
  P  P16  1  0.250000  0.271485  0.872427  1
  P  P17  1  0.250000  0.900509  0.887349  1
  P  P18  1  0.750000  0.099477  0.112848  1
  P  P19  1  0.750000  0.401683  0.610291  1
  P  P20  1  0.250000  0.601387  0.389305  1
  Rh  Rh21  1  0.750000  0.210456  0.516836  1
  Rh  Rh22  1  0.750000  0.282500  0.010830  1
  Rh  Rh23  1  0.250000  0.716491  0.987779  1
  Rh  Rh24  1  0.250000  0.091171  0.980263  1
  Rh  Rh25  1  0.750000  0.907574  0.021721  1
  Rh  Rh26  1  0.750000  0.593985  0.518375  1
  Rh  Rh27  1  0.250000  0.405239  0.481631  1
  Rh  Rh28  1  0.250000  0.269583  0.679321  1
  Rh  Rh29  1  0.750000  0.726563  0.321955  1
  Rh  Rh30  1  0.750000  0.773980  0.824220  1
  Rh  Rh31  1  0.250000  0.227496  0.176421  1
  Rh  Rh32  1  0.250000  0.612634  0.196739  1
  Rh  Rh33  1  0.750000  0.386731  0.799935  1
  Rh  Rh34  1  0.750000  0.117048  0.302875  1
  Rh  Rh35  1  0.250000  0.881410  0.695469  1
