# generated using pymatgen
data_Ba6Sr2HoUS12
_symmetry_space_group_name_H-M   'P 1'
_cell_length_a   8.63538382
_cell_length_b   8.63538310
_cell_length_c   8.63538469
_cell_angle_alpha   90.94225767
_cell_angle_beta   90.94225498
_cell_angle_gamma   90.94225213
_symmetry_Int_Tables_number   1
_chemical_formula_structural   Ba6Sr2HoUS12
_chemical_formula_sum   'Ba6 Sr2 Ho1 U1 S12'
_cell_volume   643.67519184
_cell_formula_units_Z   1
loop_
 _symmetry_equiv_pos_site_id
 _symmetry_equiv_pos_as_xyz
  1  'x, y, z'
loop_
 _atom_site_type_symbol
 _atom_site_label
 _atom_site_symmetry_multiplicity
 _atom_site_fract_x
 _atom_site_fract_y
 _atom_site_fract_z
 _atom_site_occupancy
  Ba  Ba0  1  0.872147  0.620505  0.258524  1
  Ba  Ba1  1  0.258524  0.872147  0.620505  1
  Ba  Ba2  1  0.620505  0.258524  0.872147  1
  Ba  Ba3  1  0.741476  0.127853  0.379495  1
  Ba  Ba4  1  0.379495  0.741476  0.127853  1
  Ba  Ba5  1  0.127853  0.379495  0.741476  1
  Sr  Sr6  1  0.254956  0.254956  0.254956  1
  Sr  Sr7  1  0.745044  0.745044  0.745044  1
  Ho  Ho8  1  0.500000  0.500000  0.500000  1
  U  U9  1  0.000000  0.000000  0.000000  1
  S  S10  1  0.201332  0.556117  0.413534  1
  S  S11  1  0.413534  0.201332  0.556117  1
  S  S12  1  0.556117  0.413534  0.201332  1
  S  S13  1  0.923732  0.049907  0.709377  1
  S  S14  1  0.709377  0.923732  0.049907  1
  S  S15  1  0.049907  0.709377  0.923732  1
  S  S16  1  0.798668  0.443883  0.586466  1
  S  S17  1  0.586466  0.798668  0.443883  1
  S  S18  1  0.443883  0.586466  0.798668  1
  S  S19  1  0.076268  0.950093  0.290623  1
  S  S20  1  0.290623  0.076268  0.950093  1
  S  S21  1  0.950093  0.290623  0.076268  1
