# generated using pymatgen
data_Tb3DyTmIr2
_symmetry_space_group_name_H-M   'P 1'
_cell_length_a   6.49478893
_cell_length_b   7.20683523
_cell_length_c   8.53970363
_cell_angle_alpha   96.52213873
_cell_angle_beta   112.35042159
_cell_angle_gamma   89.99999840
_symmetry_Int_Tables_number   1
_chemical_formula_structural   Tb3DyTmIr2
_chemical_formula_sum   'Tb6 Dy2 Tm2 Ir4'
_cell_volume   366.88965248
_cell_formula_units_Z   2
loop_
 _symmetry_equiv_pos_site_id
 _symmetry_equiv_pos_as_xyz
  1  'x, y, z'
loop_
 _atom_site_type_symbol
 _atom_site_label
 _atom_site_symmetry_multiplicity
 _atom_site_fract_x
 _atom_site_fract_y
 _atom_site_fract_z
 _atom_site_occupancy
  Tb  Tb0  1  0.970963  0.918908  0.181743  1
  Tb  Tb1  1  0.789218  0.581092  0.818257  1
  Tb  Tb2  1  0.029039  0.081389  0.818228  1
  Tb  Tb3  1  0.210811  0.418611  0.181772  1
  Tb  Tb4  1  0.652925  0.816723  0.439899  1
  Tb  Tb5  1  0.213026  0.683277  0.560101  1
  Dy  Dy6  1  0.347184  0.183413  0.560322  1
  Dy  Dy7  1  0.786862  0.316587  0.439678  1
  Tm  Tm8  1  0.429549  0.750000  0.000000  1
  Tm  Tm9  1  0.570501  0.250000  0.000000  1
  Ir  Ir10  1  0.821127  0.572116  0.216990  1
  Ir  Ir11  1  0.604137  0.927884  0.783010  1
  Ir  Ir12  1  0.178692  0.427427  0.782723  1
  Ir  Ir13  1  0.395968  0.072573  0.217277  1
