# generated using pymatgen
data_TbCe(Be12Ni)2
_symmetry_space_group_name_H-M   'P 1'
_cell_length_a   7.28287199
_cell_length_b   7.33425241
_cell_length_c   7.25463568
_cell_angle_alpha   59.89647891
_cell_angle_beta   59.84551381
_cell_angle_gamma   59.51030379
_symmetry_Int_Tables_number   1
_chemical_formula_structural   TbCe(Be12Ni)2
_chemical_formula_sum   'Tb1 Ce1 Be24 Ni2'
_cell_volume   272.44731498
_cell_formula_units_Z   1
loop_
 _symmetry_equiv_pos_site_id
 _symmetry_equiv_pos_as_xyz
  1  'x, y, z'
loop_
 _atom_site_type_symbol
 _atom_site_label
 _atom_site_symmetry_multiplicity
 _atom_site_fract_x
 _atom_site_fract_y
 _atom_site_fract_z
 _atom_site_occupancy
  Tb  Tb0  1  0.500435  0.499538  0.500482  1
  Ce  Ce1  1  0.998074  0.001888  0.998106  1
  Be  Be2  1  0.316900  0.539340  0.182813  1
  Be  Be3  1  0.182885  0.960912  0.316896  1
  Be  Be4  1  0.041898  0.685753  0.457567  1
  Be  Be5  1  0.457574  0.814772  0.041880  1
  Be  Be6  1  0.683574  0.035229  0.815912  1
  Be  Be7  1  0.815833  0.465273  0.683631  1
  Be  Be8  1  0.956751  0.545214  0.311483  1
  Be  Be9  1  0.542952  0.953116  0.190023  1
  Be  Be10  1  0.190081  0.313913  0.542939  1
  Be  Be11  1  0.311487  0.186562  0.956792  1
  Be  Be12  1  0.461383  0.034347  0.686684  1
  Be  Be13  1  0.038402  0.464839  0.813900  1
  Be  Be14  1  0.813892  0.682874  0.038372  1
  Be  Be15  1  0.686652  0.817657  0.461348  1
  Be  Be16  1  0.312277  0.957620  0.543087  1
  Be  Be17  1  0.187561  0.542657  0.956468  1
  Be  Be18  1  0.543126  0.187082  0.312206  1
  Be  Be19  1  0.956423  0.313244  0.187581  1
  Be  Be20  1  0.687248  0.461837  0.038572  1
  Be  Be21  1  0.814021  0.038093  0.461348  1
  Be  Be22  1  0.038599  0.812273  0.687300  1
  Be  Be23  1  0.461282  0.686571  0.814020  1
  Be  Be24  1  0.250112  0.249908  0.250112  1
  Be  Be25  1  0.749528  0.750453  0.749512  1
  Ni  Ni26  1  0.548905  0.308189  0.952116  1
  Ni  Ni27  1  0.952144  0.190844  0.548852  1
