# generated using pymatgen
data_LuZnCdNiPt2
_symmetry_space_group_name_H-M   'P 1'
_cell_length_a   5.01687252
_cell_length_b   5.26701169
_cell_length_c   5.26701227
_cell_angle_alpha   62.87024014
_cell_angle_beta   60.15661241
_cell_angle_gamma   60.15661586
_symmetry_Int_Tables_number   1
_chemical_formula_structural   LuZnCdNiPt2
_chemical_formula_sum   'Lu1 Zn1 Cd1 Ni1 Pt2'
_cell_volume   100.61433534
_cell_formula_units_Z   1
loop_
 _symmetry_equiv_pos_site_id
 _symmetry_equiv_pos_as_xyz
  1  'x, y, z'
loop_
 _atom_site_type_symbol
 _atom_site_label
 _atom_site_symmetry_multiplicity
 _atom_site_fract_x
 _atom_site_fract_y
 _atom_site_fract_z
 _atom_site_occupancy
  Lu  Lu0  1  0.256010  0.247448  0.247448  1
  Zn  Zn1  1  0.121124  0.627829  0.627829  1
  Cd  Cd2  1  0.005430  0.994091  0.994091  1
  Ni  Ni3  1  0.623132  0.627114  0.627114  1
  Pt  Pt4  1  0.622152  0.626772  0.126747  1
  Pt  Pt5  1  0.622152  0.126747  0.626772  1
