# generated using pymatgen
data_Th2Fe9P7Ru3
_symmetry_space_group_name_H-M   'P 1'
_cell_length_a   9.10855357
_cell_length_b   9.10805631
_cell_length_c   3.76033900
_cell_angle_alpha   90.00000000
_cell_angle_beta   90.00000000
_cell_angle_gamma   120.01029654
_symmetry_Int_Tables_number   1
_chemical_formula_structural   Th2Fe9P7Ru3
_chemical_formula_sum   'Th2 Fe9 P7 Ru3'
_cell_volume   270.13924699
_cell_formula_units_Z   1
loop_
 _symmetry_equiv_pos_site_id
 _symmetry_equiv_pos_as_xyz
  1  'x, y, z'
loop_
 _atom_site_type_symbol
 _atom_site_label
 _atom_site_symmetry_multiplicity
 _atom_site_fract_x
 _atom_site_fract_y
 _atom_site_fract_z
 _atom_site_occupancy
  Th  Th0  1  0.333517  0.666831  0.000000  1
  Th  Th1  1  0.999791  0.999876  0.500000  1
  Fe  Fe2  1  0.034001  0.272127  0.000000  1
  Fe  Fe3  1  0.727996  0.761926  0.000000  1
  Fe  Fe4  1  0.237868  0.965982  0.000000  1
  Fe  Fe5  1  0.544487  0.059681  0.000000  1
  Fe  Fe6  1  0.940264  0.484898  0.000000  1
  Fe  Fe7  1  0.515321  0.455346  0.000000  1
  Fe  Fe8  1  0.611434  0.896237  0.500000  1
  Fe  Fe9  1  0.103653  0.715058  0.500000  1
  Fe  Fe10  1  0.285012  0.388750  0.500000  1
  P  P11  1  0.766816  0.026010  0.000000  1
  P  P12  1  0.973853  0.740633  0.000000  1
  P  P13  1  0.259250  0.233297  0.000000  1
  P  P14  1  0.373206  0.932272  0.500000  1
  P  P15  1  0.067735  0.441140  0.500000  1
  P  P16  1  0.559103  0.626681  0.500000  1
  P  P17  1  0.666617  0.333196  0.000000  1
  Ru  Ru18  1  0.784572  0.233838  0.500000  1
  Ru  Ru19  1  0.766253  0.550792  0.500000  1
  Ru  Ru20  1  0.449250  0.215432  0.500000  1
