# generated using pymatgen
data_La16Nd4BiPb15
_symmetry_space_group_name_H-M   'P 1'
_cell_length_a   8.57978855
_cell_length_b   8.69654372
_cell_length_c   16.56205500
_cell_angle_alpha   90.04184913
_cell_angle_beta   90.12842462
_cell_angle_gamma   90.04248653
_symmetry_Int_Tables_number   1
_chemical_formula_structural   La16Nd4BiPb15
_chemical_formula_sum   'La16 Nd4 Bi1 Pb15'
_cell_volume   1235.76578143
_cell_formula_units_Z   1
loop_
 _symmetry_equiv_pos_site_id
 _symmetry_equiv_pos_as_xyz
  1  'x, y, z'
loop_
 _atom_site_type_symbol
 _atom_site_label
 _atom_site_symmetry_multiplicity
 _atom_site_fract_x
 _atom_site_fract_y
 _atom_site_fract_z
 _atom_site_occupancy
  La  La0  1  0.377306  0.842014  0.880867  1
  La  La1  1  0.875573  0.656488  0.618964  1
  La  La2  1  0.624359  0.156092  0.381153  1
  La  La3  1  0.122682  0.344920  0.119047  1
  La  La4  1  0.626455  0.157970  0.118411  1
  La  La5  1  0.124863  0.343392  0.380809  1
  La  La6  1  0.375654  0.844056  0.618844  1
  La  La7  1  0.876148  0.656771  0.881037  1
  La  La8  1  0.535627  0.324423  0.898658  1
  La  La9  1  0.033898  0.177379  0.600311  1
  La  La10  1  0.466667  0.677018  0.399734  1
  La  La11  1  0.962644  0.822215  0.101145  1
  La  La12  1  0.465789  0.675284  0.100715  1
  La  La13  1  0.966266  0.822826  0.399708  1
  La  La14  1  0.533725  0.322417  0.600297  1
  La  La15  1  0.032293  0.178037  0.898482  1
  Nd  Nd16  1  0.209226  0.502710  0.749434  1
  Nd  Nd17  1  0.708790  0.996985  0.749738  1
  Nd  Nd18  1  0.790432  0.497291  0.250722  1
  Nd  Nd19  1  0.290951  0.002632  0.252389  1
  Bi  Bi20  1  0.280047  0.029928  0.046764  1
  Pb  Pb21  1  0.781430  0.468845  0.453987  1
  Pb  Pb22  1  0.718955  0.968714  0.546139  1
  Pb  Pb23  1  0.219622  0.529677  0.954068  1
  Pb  Pb24  1  0.720693  0.969328  0.953988  1
  Pb  Pb25  1  0.218541  0.531081  0.546037  1
  Pb  Pb26  1  0.281322  0.031099  0.454034  1
  Pb  Pb27  1  0.780987  0.470275  0.046190  1
  Pb  Pb28  1  0.571245  0.624551  0.749689  1
  Pb  Pb29  1  0.071992  0.875321  0.750507  1
  Pb  Pb30  1  0.429008  0.375232  0.249198  1
  Pb  Pb31  1  0.928318  0.124476  0.249595  1
  Pb  Pb32  1  0.342114  0.152025  0.750203  1
  Pb  Pb33  1  0.842355  0.348064  0.749706  1
  Pb  Pb34  1  0.657083  0.847904  0.249715  1
  Pb  Pb35  1  0.156945  0.652561  0.249715  1
