# generated using pymatgen
data_Dy6Al24GaFe2Os5
_symmetry_space_group_name_H-M   'P 1'
_cell_length_a   8.87624300
_cell_length_b   8.81068186
_cell_length_c   9.45974063
_cell_angle_alpha   89.94204979
_cell_angle_beta   90.00000000
_cell_angle_gamma   120.24644502
_symmetry_Int_Tables_number   1
_chemical_formula_structural   Dy6Al24GaFe2Os5
_chemical_formula_sum   'Dy6 Al24 Ga1 Fe2 Os5'
_cell_volume   639.09349633
_cell_formula_units_Z   1
loop_
 _symmetry_equiv_pos_site_id
 _symmetry_equiv_pos_as_xyz
  1  'x, y, z'
loop_
 _atom_site_type_symbol
 _atom_site_label
 _atom_site_symmetry_multiplicity
 _atom_site_fract_x
 _atom_site_fract_y
 _atom_site_fract_z
 _atom_site_occupancy
  Dy  Dy0  1  0.194860  0.389720  0.254848  1
  Dy  Dy1  1  0.805140  0.610280  0.745152  1
  Dy  Dy2  1  0.613480  0.805026  0.246931  1
  Dy  Dy3  1  0.386520  0.194974  0.753069  1
  Dy  Dy4  1  0.191545  0.805026  0.246931  1
  Dy  Dy5  1  0.808455  0.194974  0.753069  1
  Al  Al6  1  0.327959  0.655921  0.017879  1
  Al  Al7  1  0.672041  0.344079  0.982121  1
  Al  Al8  1  0.666398  0.332796  0.516095  1
  Al  Al9  1  0.333602  0.667204  0.483905  1
  Al  Al10  1  0.159392  0.318786  0.575258  1
  Al  Al11  1  0.840608  0.681214  0.424742  1
  Al  Al12  1  0.681758  0.841490  0.573153  1
  Al  Al13  1  0.840371  0.680741  0.076962  1
  Al  Al14  1  0.318242  0.158510  0.426847  1
  Al  Al15  1  0.159629  0.319259  0.923038  1
  Al  Al16  1  0.159730  0.841490  0.573153  1
  Al  Al17  1  0.312287  0.167968  0.080676  1
  Al  Al18  1  0.840270  0.158510  0.426847  1
  Al  Al19  1  0.687713  0.832032  0.919324  1
  Al  Al20  1  0.855683  0.167968  0.080676  1
  Al  Al21  1  0.144317  0.832032  0.919324  1
  Al  Al22  1  0.564603  0.129206  0.256518  1
  Al  Al23  1  0.435397  0.870794  0.743482  1
  Al  Al24  1  0.877796  0.438926  0.249277  1
  Al  Al25  1  0.122204  0.561074  0.750723  1
  Al  Al26  1  0.561130  0.438926  0.249277  1
  Al  Al27  1  0.438870  0.561074  0.750723  1
  Al  Al28  1  0.998595  0.997189  0.251583  1
  Al  Al29  1  0.001405  0.002811  0.748417  1
  Ga  Ga30  1  0.500000  0.000000  0.000000  1
  Fe  Fe31  1  0.000000  0.000000  0.000000  1
  Fe  Fe32  1  0.000000  0.000000  0.500000  1
  Os  Os33  1  0.000000  0.500000  0.000000  1
  Os  Os34  1  0.500000  0.000000  0.500000  1
  Os  Os35  1  0.500000  0.500000  0.000000  1
  Os  Os36  1  0.000000  0.500000  0.500000  1
  Os  Os37  1  0.500000  0.500000  0.500000  1
