# generated using pymatgen
data_Sm5Ho3(Si3Au)4
_symmetry_space_group_name_H-M   'P 1'
_cell_length_a   8.23162400
_cell_length_b   8.23162357
_cell_length_c   8.37456600
_cell_angle_alpha   90.00000000
_cell_angle_beta   90.00000000
_cell_angle_gamma   120.00000173
_symmetry_Int_Tables_number   1
_chemical_formula_structural   Sm5Ho3(Si3Au)4
_chemical_formula_sum   'Sm5 Ho3 Si12 Au4'
_cell_volume   491.43259731
_cell_formula_units_Z   1
loop_
 _symmetry_equiv_pos_site_id
 _symmetry_equiv_pos_as_xyz
  1  'x, y, z'
loop_
 _atom_site_type_symbol
 _atom_site_label
 _atom_site_symmetry_multiplicity
 _atom_site_fract_x
 _atom_site_fract_y
 _atom_site_fract_z
 _atom_site_occupancy
  Sm  Sm0  1  0.000000  0.000000  0.250000  1
  Sm  Sm1  1  0.000000  0.000000  0.750000  1
  Sm  Sm2  1  0.500792  0.499208  0.250000  1
  Sm  Sm3  1  0.500792  0.001584  0.250000  1
  Sm  Sm4  1  0.998416  0.499208  0.250000  1
  Ho  Ho5  1  0.498818  0.501182  0.750000  1
  Ho  Ho6  1  0.498818  0.997635  0.750000  1
  Ho  Ho7  1  0.002365  0.501182  0.750000  1
  Si  Si8  1  0.164252  0.835748  0.502333  1
  Si  Si9  1  0.164252  0.328504  0.502333  1
  Si  Si10  1  0.671496  0.835748  0.502333  1
  Si  Si11  1  0.835670  0.164330  0.500543  1
  Si  Si12  1  0.835670  0.671341  0.500543  1
  Si  Si13  1  0.328659  0.164330  0.500543  1
  Si  Si14  1  0.835670  0.164330  0.999457  1
  Si  Si15  1  0.835670  0.671341  0.999457  1
  Si  Si16  1  0.328659  0.164330  0.999457  1
  Si  Si17  1  0.164252  0.835748  0.997667  1
  Si  Si18  1  0.164252  0.328504  0.997667  1
  Si  Si19  1  0.671496  0.835748  0.997667  1
  Au  Au20  1  0.333333  0.666667  0.507818  1
  Au  Au21  1  0.666667  0.333333  0.515945  1
  Au  Au22  1  0.666667  0.333333  0.984055  1
  Au  Au23  1  0.333333  0.666667  0.992182  1
