# generated using pymatgen
data_Ho(BPt4)2
_symmetry_space_group_name_H-M   'P 1'
_cell_length_a   6.17963555
_cell_length_b   6.17963620
_cell_length_c   8.98325954
_cell_angle_alpha   54.83380575
_cell_angle_beta   54.83380184
_cell_angle_gamma   37.52894537
_symmetry_Int_Tables_number   1
_chemical_formula_structural   Ho(BPt4)2
_chemical_formula_sum   'Ho1 B2 Pt8'
_cell_volume   165.86736707
_cell_formula_units_Z   1
loop_
 _symmetry_equiv_pos_site_id
 _symmetry_equiv_pos_as_xyz
  1  'x, y, z'
loop_
 _atom_site_type_symbol
 _atom_site_label
 _atom_site_symmetry_multiplicity
 _atom_site_fract_x
 _atom_site_fract_y
 _atom_site_fract_z
 _atom_site_occupancy
  Ho  Ho0  1  0.500000  0.500000  0.500000  1
  B  B1  1  0.051883  0.051883  0.709824  1
  B  B2  1  0.948117  0.948117  0.290176  1
  Pt  Pt3  1  0.222351  0.222351  0.423648  1
  Pt  Pt4  1  0.827811  0.827811  0.837292  1
  Pt  Pt5  1  0.172189  0.172189  0.162708  1
  Pt  Pt6  1  0.155578  0.155578  0.848652  1
  Pt  Pt7  1  0.480427  0.480427  0.855606  1
  Pt  Pt8  1  0.519573  0.519573  0.144394  1
  Pt  Pt9  1  0.777649  0.777649  0.576352  1
  Pt  Pt10  1  0.844422  0.844422  0.151348  1
