# generated using pymatgen
data_YbPr2Ga9Pd2
_symmetry_space_group_name_H-M   'P 1'
_cell_length_a   8.29038856
_cell_length_b   8.29038847
_cell_length_c   8.29038799
_cell_angle_alpha   149.48776693
_cell_angle_beta   109.63312960
_cell_angle_gamma   78.60820458
_symmetry_Int_Tables_number   1
_chemical_formula_structural   YbPr2Ga9Pd2
_chemical_formula_sum   'Yb1 Pr2 Ga9 Pd2'
_cell_volume   267.39792876
_cell_formula_units_Z   1
loop_
 _symmetry_equiv_pos_site_id
 _symmetry_equiv_pos_as_xyz
  1  'x, y, z'
loop_
 _atom_site_type_symbol
 _atom_site_label
 _atom_site_symmetry_multiplicity
 _atom_site_fract_x
 _atom_site_fract_y
 _atom_site_fract_z
 _atom_site_occupancy
  Yb  Yb0  1  0.802698  0.802698  0.000000  1
  Pr  Pr1  1  0.501008  0.501008  0.000000  1
  Pr  Pr2  1  0.199237  0.199237  0.000000  1
  Ga  Ga3  1  0.076543  0.360389  0.716154  1
  Ga  Ga4  1  0.916972  0.637151  0.279820  1
  Ga  Ga5  1  0.644236  0.360389  0.283846  1
  Ga  Ga6  1  0.357330  0.637151  0.720180  1
  Ga  Ga7  1  0.796017  0.159987  0.636030  1
  Ga  Ga8  1  0.209068  0.844711  0.364357  1
  Ga  Ga9  1  0.523956  0.159987  0.363970  1
  Ga  Ga10  1  0.480354  0.844711  0.635643  1
  Ga  Ga11  1  0.998758  0.498758  0.500000  1
  Pd  Pd12  1  0.812794  0.996912  0.815882  1
  Pd  Pd13  1  0.181030  0.996912  0.184118  1
