# generated using pymatgen
data_Ta4MoOsW2
_symmetry_space_group_name_H-M   'P 1'
_cell_length_a   6.45963500
_cell_length_b   6.46183300
_cell_length_c   6.45646800
_cell_angle_alpha   89.99996452
_cell_angle_beta   90.00000000
_cell_angle_gamma   90.00000000
_symmetry_Int_Tables_number   1
_chemical_formula_structural   Ta4MoOsW2
_chemical_formula_sum   'Ta8 Mo2 Os2 W4'
_cell_volume   269.49996416
_cell_formula_units_Z   2
loop_
 _symmetry_equiv_pos_site_id
 _symmetry_equiv_pos_as_xyz
  1  'x, y, z'
loop_
 _atom_site_type_symbol
 _atom_site_label
 _atom_site_symmetry_multiplicity
 _atom_site_fract_x
 _atom_site_fract_y
 _atom_site_fract_z
 _atom_site_occupancy
  Ta  Ta0  1  0.499767  0.999993  0.249990  1
  Ta  Ta1  1  0.499765  0.500020  0.249987  1
  Ta  Ta2  1  0.999766  0.000007  0.250008  1
  Ta  Ta3  1  0.999764  0.499980  0.250011  1
  Ta  Ta4  1  0.000229  0.999993  0.749985  1
  Ta  Ta5  1  0.000231  0.500020  0.749986  1
  Ta  Ta6  1  0.500229  0.000007  0.750015  1
  Ta  Ta7  1  0.500231  0.499980  0.750014  1
  Mo  Mo8  1  0.749992  0.250000  0.000105  1
  Mo  Mo9  1  0.249992  0.750000  0.499897  1
  Os  Os10  1  0.750017  0.250000  0.500098  1
  Os  Os11  1  0.250017  0.750000  0.999902  1
  W  W12  1  0.249998  0.250000  0.000083  1
  W  W13  1  0.749998  0.750000  0.499917  1
  W  W14  1  0.250003  0.250000  0.500092  1
  W  W15  1  0.750004  0.750000  0.999909  1
