# generated using pymatgen
data_Nd4Ga18PdRu4Pt
_symmetry_space_group_name_H-M   'P 1'
_cell_length_a   7.63438105
_cell_length_b   7.63438105
_cell_length_c   9.78677326
_cell_angle_alpha   89.93999897
_cell_angle_beta   89.93999869
_cell_angle_gamma   119.35502966
_symmetry_Int_Tables_number   1
_chemical_formula_structural   Nd4Ga18PdRu4Pt
_chemical_formula_sum   'Nd4 Ga18 Pd1 Ru4 Pt1'
_cell_volume   497.16769724
_cell_formula_units_Z   1
loop_
 _symmetry_equiv_pos_site_id
 _symmetry_equiv_pos_as_xyz
  1  'x, y, z'
loop_
 _atom_site_type_symbol
 _atom_site_label
 _atom_site_symmetry_multiplicity
 _atom_site_fract_x
 _atom_site_fract_y
 _atom_site_fract_z
 _atom_site_occupancy
  Nd  Nd0  1  0.997077  0.672172  0.249598  1
  Nd  Nd1  1  0.002923  0.327828  0.750402  1
  Nd  Nd2  1  0.672172  0.997077  0.249598  1
  Nd  Nd3  1  0.327828  0.002923  0.750402  1
  Ga  Ga4  1  0.137222  0.137222  0.250274  1
  Ga  Ga5  1  0.862778  0.862778  0.749726  1
  Ga  Ga6  1  0.005342  0.341589  0.074803  1
  Ga  Ga7  1  0.994658  0.658411  0.925197  1
  Ga  Ga8  1  0.994944  0.658880  0.574606  1
  Ga  Ga9  1  0.341120  0.005056  0.425394  1
  Ga  Ga10  1  0.005056  0.341120  0.425394  1
  Ga  Ga11  1  0.658880  0.994944  0.574606  1
  Ga  Ga12  1  0.658411  0.994658  0.925197  1
  Ga  Ga13  1  0.341589  0.005342  0.074803  1
  Ga  Ga14  1  0.343537  0.343537  0.560091  1
  Ga  Ga15  1  0.656463  0.656463  0.439909  1
  Ga  Ga16  1  0.657633  0.657633  0.060193  1
  Ga  Ga17  1  0.342367  0.342367  0.939807  1
  Ga  Ga18  1  0.334471  0.548008  0.250032  1
  Ga  Ga19  1  0.665529  0.451992  0.749968  1
  Ga  Ga20  1  0.548008  0.334471  0.250032  1
  Ga  Ga21  1  0.451992  0.665529  0.749968  1
  Pd  Pd22  1  0.000000  0.000000  0.500000  1
  Ru  Ru23  1  0.672441  0.327559  0.000000  1
  Ru  Ru24  1  0.327559  0.672441  0.000000  1
  Ru  Ru25  1  0.327281  0.672719  0.500000  1
  Ru  Ru26  1  0.672719  0.327281  0.500000  1
  Pt  Pt27  1  0.000000  0.000000  0.000000  1
