# generated using pymatgen
data_Tb3DyCd2Cu3Ru
_symmetry_space_group_name_H-M   'P 1'
_cell_length_a   7.51741836
_cell_length_b   7.51864265
_cell_length_c   3.81413300
_cell_angle_alpha   90.00000000
_cell_angle_beta   90.00000000
_cell_angle_gamma   89.48816044
_symmetry_Int_Tables_number   1
_chemical_formula_structural   Tb3DyCd2Cu3Ru
_chemical_formula_sum   'Tb3 Dy1 Cd2 Cu3 Ru1'
_cell_volume   215.56917915
_cell_formula_units_Z   1
loop_
 _symmetry_equiv_pos_site_id
 _symmetry_equiv_pos_as_xyz
  1  'x, y, z'
loop_
 _atom_site_type_symbol
 _atom_site_label
 _atom_site_symmetry_multiplicity
 _atom_site_fract_x
 _atom_site_fract_y
 _atom_site_fract_z
 _atom_site_occupancy
  Tb  Tb0  1  0.672018  0.171810  0.500000  1
  Tb  Tb1  1  0.313737  0.813790  0.500000  1
  Tb  Tb2  1  0.182265  0.340099  0.500000  1
  Dy  Dy3  1  0.840317  0.682255  0.500000  1
  Cd  Cd4  1  0.999286  0.006496  0.000000  1
  Cd  Cd5  1  0.507171  0.499819  0.000000  1
  Cu  Cu6  1  0.874708  0.375871  0.000000  1
  Cu  Cu7  1  0.616549  0.876161  0.000000  1
  Cu  Cu8  1  0.376835  0.115937  0.000000  1
  Ru  Ru9  1  0.117112  0.617761  0.000000  1
