# generated using pymatgen
data_Nd5Fe3(P3Ru4)4
_symmetry_space_group_name_H-M   'P 1'
_cell_length_a   12.61642300
_cell_length_b   12.61642254
_cell_length_c   3.93274300
_cell_angle_alpha   90.00000000
_cell_angle_beta   90.00000000
_cell_angle_gamma   120.00000383
_symmetry_Int_Tables_number   1
_chemical_formula_structural   Nd5Fe3(P3Ru4)4
_chemical_formula_sum   'Nd5 Fe3 P12 Ru16'
_cell_volume   542.12401821
_cell_formula_units_Z   1
loop_
 _symmetry_equiv_pos_site_id
 _symmetry_equiv_pos_as_xyz
  1  'x, y, z'
loop_
 _atom_site_type_symbol
 _atom_site_label
 _atom_site_symmetry_multiplicity
 _atom_site_fract_x
 _atom_site_fract_y
 _atom_site_fract_z
 _atom_site_occupancy
  Nd  Nd0  1  0.000000  0.182307  0.500000  1
  Nd  Nd1  1  0.817693  0.817693  0.500000  1
  Nd  Nd2  1  0.182307  0.000000  0.500000  1
  Nd  Nd3  1  0.666667  0.333333  0.000000  1
  Nd  Nd4  1  0.333333  0.666667  0.000000  1
  Fe  Fe5  1  0.000000  0.714741  0.500000  1
  Fe  Fe6  1  0.285259  0.285259  0.500000  1
  Fe  Fe7  1  0.714741  0.000000  0.500000  1
  P  P8  1  0.000000  0.810219  0.000000  1
  P  P9  1  0.189781  0.189781  0.000000  1
  P  P10  1  0.810219  0.000000  0.000000  1
  P  P11  1  0.690379  0.161794  0.500000  1
  P  P12  1  0.838206  0.528585  0.500000  1
  P  P13  1  0.471415  0.309621  0.500000  1
  P  P14  1  0.161794  0.690379  0.500000  1
  P  P15  1  0.528585  0.838206  0.500000  1
  P  P16  1  0.309621  0.471415  0.500000  1
  P  P17  1  0.000000  0.375613  0.000000  1
  P  P18  1  0.624387  0.624387  0.000000  1
  P  P19  1  0.375613  0.000000  0.000000  1
  Ru  Ru20  1  0.000000  0.558092  0.000000  1
  Ru  Ru21  1  0.441908  0.441908  0.000000  1
  Ru  Ru22  1  0.558092  0.000000  0.000000  1
  Ru  Ru23  1  0.805049  0.181645  0.000000  1
  Ru  Ru24  1  0.818355  0.623404  0.000000  1
  Ru  Ru25  1  0.376596  0.194951  0.000000  1
  Ru  Ru26  1  0.181645  0.805049  0.000000  1
  Ru  Ru27  1  0.623404  0.818355  0.000000  1
  Ru  Ru28  1  0.194951  0.376596  0.000000  1
  Ru  Ru29  1  0.875308  0.363998  0.500000  1
  Ru  Ru30  1  0.636002  0.511310  0.500000  1
  Ru  Ru31  1  0.488690  0.124692  0.500000  1
  Ru  Ru32  1  0.363998  0.875308  0.500000  1
  Ru  Ru33  1  0.511310  0.636002  0.500000  1
  Ru  Ru34  1  0.124692  0.488690  0.500000  1
  Ru  Ru35  1  0.000000  0.000000  0.000000  1
