# generated using pymatgen
data_Tm2Mg2As6Ru7
_symmetry_space_group_name_H-M   'P 1'
_cell_length_a   7.18482333
_cell_length_b   7.04992584
_cell_length_c   7.04992771
_cell_angle_alpha   108.65359934
_cell_angle_beta   109.49303746
_cell_angle_gamma   109.49301979
_symmetry_Int_Tables_number   1
_chemical_formula_structural   Tm2Mg2As6Ru7
_chemical_formula_sum   'Tm2 Mg2 As6 Ru7'
_cell_volume   277.47271215
_cell_formula_units_Z   1
loop_
 _symmetry_equiv_pos_site_id
 _symmetry_equiv_pos_as_xyz
  1  'x, y, z'
loop_
 _atom_site_type_symbol
 _atom_site_label
 _atom_site_symmetry_multiplicity
 _atom_site_fract_x
 _atom_site_fract_y
 _atom_site_fract_z
 _atom_site_occupancy
  Tm  Tm0  1  0.000000  0.000000  0.500000  1
  Tm  Tm1  1  0.000000  0.500000  0.000000  1
  Mg  Mg2  1  0.500000  0.000000  0.000000  1
  Mg  Mg3  1  0.500000  0.500000  0.500000  1
  As  As4  1  0.314183  0.003290  0.310893  1
  As  As5  1  0.000000  0.311044  0.311044  1
  As  As6  1  0.000000  0.688956  0.688956  1
  As  As7  1  0.314183  0.310893  0.003290  1
  As  As8  1  0.685817  0.689107  0.996710  1
  As  As9  1  0.685817  0.996710  0.689107  1
  Ru  Ru10  1  0.742407  0.492730  0.249678  1
  Ru  Ru11  1  0.500000  0.750000  0.250000  1
  Ru  Ru12  1  0.500000  0.250000  0.750000  1
  Ru  Ru13  1  0.742407  0.249678  0.492730  1
  Ru  Ru14  1  0.257593  0.750322  0.507270  1
  Ru  Ru15  1  0.257593  0.507270  0.750322  1
  Ru  Ru16  1  0.000000  0.000000  0.000000  1
