# generated using pymatgen
data_Tb2ThNiIr8
_symmetry_space_group_name_H-M   'P 1'
_cell_length_a   5.33129222
_cell_length_b   5.33129061
_cell_length_c   9.20358480
_cell_angle_alpha   73.16411000
_cell_angle_beta   73.16411692
_cell_angle_gamma   60.00001033
_symmetry_Int_Tables_number   1
_chemical_formula_structural   Tb2ThNiIr8
_chemical_formula_sum   'Tb2 Th1 Ni1 Ir8'
_cell_volume   213.49911683
_cell_formula_units_Z   1
loop_
 _symmetry_equiv_pos_site_id
 _symmetry_equiv_pos_as_xyz
  1  'x, y, z'
loop_
 _atom_site_type_symbol
 _atom_site_label
 _atom_site_symmetry_multiplicity
 _atom_site_fract_x
 _atom_site_fract_y
 _atom_site_fract_z
 _atom_site_occupancy
  Tb  Tb0  1  0.141459  0.141459  0.575624  1
  Tb  Tb1  1  0.859980  0.859980  0.420058  1
  Th  Th2  1  0.000094  0.000094  0.999717  1
  Ni  Ni3  1  0.666517  0.666517  0.000450  1
  Ir  Ir4  1  0.077097  0.583749  0.755402  1
  Ir  Ir5  1  0.583749  0.583749  0.755402  1
  Ir  Ir6  1  0.583749  0.077097  0.755402  1
  Ir  Ir7  1  0.914829  0.420327  0.244518  1
  Ir  Ir8  1  0.420327  0.420327  0.244518  1
  Ir  Ir9  1  0.420327  0.914829  0.244518  1
  Ir  Ir10  1  0.332736  0.332736  0.001789  1
  Ir  Ir11  1  0.499132  0.499132  0.502603  1
