# generated using pymatgen
data_Lu9ScZn3NiSb2
_symmetry_space_group_name_H-M   'P 1'
_cell_length_a   8.30003259
_cell_length_b   8.30003241
_cell_length_c   8.37739632
_cell_angle_alpha   124.23615231
_cell_angle_beta   123.93951879
_cell_angle_gamma   82.45119307
_symmetry_Int_Tables_number   1
_chemical_formula_structural   Lu9ScZn3NiSb2
_chemical_formula_sum   'Lu9 Sc1 Zn3 Ni1 Sb2'
_cell_volume   381.52572859
_cell_formula_units_Z   1
loop_
 _symmetry_equiv_pos_site_id
 _symmetry_equiv_pos_as_xyz
  1  'x, y, z'
loop_
 _atom_site_type_symbol
 _atom_site_label
 _atom_site_symmetry_multiplicity
 _atom_site_fract_x
 _atom_site_fract_y
 _atom_site_fract_z
 _atom_site_occupancy
  Lu  Lu0  1  0.498924  0.496384  0.995308  1
  Lu  Lu1  1  0.788728  0.297652  0.801567  1
  Lu  Lu2  1  0.200733  0.718947  0.201105  1
  Lu  Lu3  1  0.482158  0.000372  0.201105  1
  Lu  Lu4  1  0.303980  0.466198  0.495027  1
  Lu  Lu5  1  0.028829  0.191046  0.495027  1
  Lu  Lu6  1  0.503915  0.012839  0.801567  1
  Lu  Lu7  1  0.705179  0.514933  0.502087  1
  Lu  Lu8  1  0.987153  0.796907  0.502087  1
  Sc  Sc9  1  0.999843  0.997932  0.997775  1
  Zn  Zn10  1  0.136871  0.640673  0.777546  1
  Zn  Zn11  1  0.864124  0.358618  0.222740  1
  Zn  Zn12  1  0.634939  0.867473  0.502412  1
  Ni  Ni13  1  0.374321  0.131741  0.506063  1
  Sb  Sb14  1  0.242734  0.251726  0.999293  1
  Sb  Sb15  1  0.747567  0.756559  0.999293  1
