# generated using pymatgen
data_Hf9Ta(ReO)3
_symmetry_space_group_name_H-M   'P 1'
_cell_length_a   8.56546900
_cell_length_b   8.56546947
_cell_length_c   8.49399700
_cell_angle_alpha   90.00000000
_cell_angle_beta   90.00000000
_cell_angle_gamma   120.00000206
_symmetry_Int_Tables_number   1
_chemical_formula_structural   Hf9Ta(ReO)3
_chemical_formula_sum   'Hf18 Ta2 Re6 O6'
_cell_volume   539.69083741
_cell_formula_units_Z   2
loop_
 _symmetry_equiv_pos_site_id
 _symmetry_equiv_pos_as_xyz
  1  'x, y, z'
loop_
 _atom_site_type_symbol
 _atom_site_label
 _atom_site_symmetry_multiplicity
 _atom_site_fract_x
 _atom_site_fract_y
 _atom_site_fract_z
 _atom_site_occupancy
  Hf  Hf0  1  0.453167  0.906333  0.250000  1
  Hf  Hf1  1  0.546833  0.093667  0.750000  1
  Hf  Hf2  1  0.093667  0.546833  0.250000  1
  Hf  Hf3  1  0.906333  0.453167  0.750000  1
  Hf  Hf4  1  0.453167  0.546833  0.250000  1
  Hf  Hf5  1  0.546833  0.453167  0.750000  1
  Hf  Hf6  1  0.203134  0.406269  0.563497  1
  Hf  Hf7  1  0.796866  0.593731  0.436503  1
  Hf  Hf8  1  0.593731  0.796866  0.563497  1
  Hf  Hf9  1  0.796866  0.593731  0.063497  1
  Hf  Hf10  1  0.406269  0.203134  0.436503  1
  Hf  Hf11  1  0.203134  0.406269  0.936503  1
  Hf  Hf12  1  0.203134  0.796866  0.563497  1
  Hf  Hf13  1  0.406269  0.203134  0.063497  1
  Hf  Hf14  1  0.796866  0.203134  0.436503  1
  Hf  Hf15  1  0.593731  0.796866  0.936503  1
  Hf  Hf16  1  0.796866  0.203134  0.063497  1
  Hf  Hf17  1  0.203134  0.796866  0.936503  1
  Ta  Ta18  1  0.000000  0.000000  0.000000  1
  Ta  Ta19  1  0.000000  0.000000  0.500000  1
  Re  Re20  1  0.113468  0.226936  0.250000  1
  Re  Re21  1  0.886532  0.773064  0.750000  1
  Re  Re22  1  0.773064  0.886532  0.250000  1
  Re  Re23  1  0.226936  0.113468  0.750000  1
  Re  Re24  1  0.113468  0.886532  0.250000  1
  Re  Re25  1  0.886532  0.113468  0.750000  1
  O  O26  1  0.500000  0.000000  0.000000  1
  O  O27  1  0.000000  0.500000  0.000000  1
  O  O28  1  0.500000  0.000000  0.500000  1
  O  O29  1  0.500000  0.500000  0.000000  1
  O  O30  1  0.000000  0.500000  0.500000  1
  O  O31  1  0.500000  0.500000  0.500000  1
