# generated using pymatgen
data_Yb(ScNi6)2
_symmetry_space_group_name_H-M   'P 1'
_cell_length_a   4.74049465
_cell_length_b   4.75545286
_cell_length_c   10.05871580
_cell_angle_alpha   85.29533847
_cell_angle_beta   80.52851103
_cell_angle_gamma   60.10399739
_symmetry_Int_Tables_number   1
_chemical_formula_structural   Yb(ScNi6)2
_chemical_formula_sum   'Yb1 Sc2 Ni12'
_cell_volume   193.90172719
_cell_formula_units_Z   1
loop_
 _symmetry_equiv_pos_site_id
 _symmetry_equiv_pos_as_xyz
  1  'x, y, z'
loop_
 _atom_site_type_symbol
 _atom_site_label
 _atom_site_symmetry_multiplicity
 _atom_site_fract_x
 _atom_site_fract_y
 _atom_site_fract_z
 _atom_site_occupancy
  Yb  Yb0  1  0.000000  0.000000  0.000000  1
  Sc  Sc1  1  0.872187  0.000000  0.355838  1
  Sc  Sc2  1  0.127813  0.000000  0.644162  1
  Ni  Ni3  1  0.332964  0.334072  0.000000  1
  Ni  Ni4  1  0.667036  0.665928  0.000000  1
  Ni  Ni5  1  0.427331  0.000000  0.201830  1
  Ni  Ni6  1  0.572669  0.000000  0.798170  1
  Ni  Ni7  1  0.930242  0.501588  0.201569  1
  Ni  Ni8  1  0.431830  0.498412  0.201569  1
  Ni  Ni9  1  0.069758  0.498412  0.798431  1
  Ni  Ni10  1  0.568170  0.501588  0.798431  1
  Ni  Ni11  1  0.191663  0.333336  0.407467  1
  Ni  Ni12  1  0.524999  0.666664  0.407467  1
  Ni  Ni13  1  0.808337  0.666664  0.592533  1
  Ni  Ni14  1  0.475001  0.333336  0.592533  1
