# generated using pymatgen
data_Li5Dy5(P6Ru7)2
_symmetry_space_group_name_H-M   'P 1'
_cell_length_a   12.82994800
_cell_length_b   12.64425976
_cell_length_c   3.94970600
_cell_angle_alpha   90.00000000
_cell_angle_beta   90.00000000
_cell_angle_gamma   119.89720630
_symmetry_Int_Tables_number   1
_chemical_formula_structural   Li5Dy5(P6Ru7)2
_chemical_formula_sum   'Li5 Dy5 P12 Ru14'
_cell_volume   555.47258002
_cell_formula_units_Z   1
loop_
 _symmetry_equiv_pos_site_id
 _symmetry_equiv_pos_as_xyz
  1  'x, y, z'
loop_
 _atom_site_type_symbol
 _atom_site_label
 _atom_site_symmetry_multiplicity
 _atom_site_fract_x
 _atom_site_fract_y
 _atom_site_fract_z
 _atom_site_occupancy
  Li  Li0  1  0.512096  0.884913  0.000000  1
  Li  Li1  1  0.106018  0.619292  0.000000  1
  Li  Li2  1  0.991073  0.437878  0.500000  1
  Li  Li3  1  0.561417  0.560636  0.500000  1
  Li  Li4  1  0.447721  0.008761  0.500000  1
  Dy  Dy5  1  0.332698  0.663083  0.500000  1
  Dy  Dy6  1  0.664685  0.331814  0.500000  1
  Dy  Dy7  1  0.997047  0.819894  0.000000  1
  Dy  Dy8  1  0.182207  0.179159  0.000000  1
  Dy  Dy9  1  0.822800  0.003746  0.000000  1
  P  P10  1  0.986252  0.629057  0.500000  1
  P  P11  1  0.372421  0.366524  0.500000  1
  P  P12  1  0.640690  0.010404  0.500000  1
  P  P13  1  0.520273  0.698228  0.000000  1
  P  P14  1  0.282704  0.807256  0.000000  1
  P  P15  1  0.187977  0.476191  0.000000  1
  P  P16  1  0.481704  0.168875  0.000000  1
  P  P17  1  0.693853  0.520734  0.000000  1
  P  P18  1  0.829798  0.310053  0.000000  1
  P  P19  1  0.003067  0.190673  0.500000  1
  P  P20  1  0.811415  0.818095  0.500000  1
  P  P21  1  0.187329  0.996916  0.500000  1
  Ru  Ru22  1  0.376445  0.490949  0.000000  1
  Ru  Ru23  1  0.491589  0.362878  0.000000  1
  Ru  Ru24  1  0.877129  0.517671  0.000000  1
  Ru  Ru25  1  0.640587  0.121643  0.000000  1
  Ru  Ru26  1  0.006058  0.290108  0.000000  1
  Ru  Ru27  1  0.714515  0.722552  0.000000  1
  Ru  Ru28  1  0.284123  0.993891  0.000000  1
  Ru  Ru29  1  0.611890  0.806565  0.500000  1
  Ru  Ru30  1  0.188607  0.804404  0.500000  1
  Ru  Ru31  1  0.192353  0.381333  0.500000  1
  Ru  Ru32  1  0.379207  0.181189  0.500000  1
  Ru  Ru33  1  0.797083  0.621122  0.500000  1
  Ru  Ru34  1  0.822309  0.200832  0.500000  1
  Ru  Ru35  1  0.002857  0.002677  0.500000  1
