# generated using pymatgen
data_Dy3Hf5Pt4
_symmetry_space_group_name_H-M   'P 1'
_cell_length_a   4.63659100
_cell_length_b   6.96576243
_cell_length_c   8.19048766
_cell_angle_alpha   90.23894196
_cell_angle_beta   90.00000000
_cell_angle_gamma   90.00000000
_symmetry_Int_Tables_number   1
_chemical_formula_structural   Dy3Hf5Pt4
_chemical_formula_sum   'Dy3 Hf5 Pt4'
_cell_volume   264.52908548
_cell_formula_units_Z   1
loop_
 _symmetry_equiv_pos_site_id
 _symmetry_equiv_pos_as_xyz
  1  'x, y, z'
loop_
 _atom_site_type_symbol
 _atom_site_label
 _atom_site_symmetry_multiplicity
 _atom_site_fract_x
 _atom_site_fract_y
 _atom_site_fract_z
 _atom_site_occupancy
  Dy  Dy0  1  0.250000  0.516756  0.181900  1
  Dy  Dy1  1  0.750000  0.986568  0.676002  1
  Dy  Dy2  1  0.750000  0.485312  0.819129  1
  Hf  Hf3  1  0.250000  0.148810  0.926623  1
  Hf  Hf4  1  0.250000  0.652013  0.577805  1
  Hf  Hf5  1  0.750000  0.855862  0.083573  1
  Hf  Hf6  1  0.750000  0.345533  0.419006  1
  Hf  Hf7  1  0.250000  0.012743  0.327607  1
  Pt  Pt8  1  0.250000  0.261705  0.587006  1
  Pt  Pt9  1  0.250000  0.769808  0.905424  1
  Pt  Pt10  1  0.750000  0.733674  0.400240  1
  Pt  Pt11  1  0.750000  0.231216  0.095684  1
