# generated using pymatgen
data_Dy8MnCr(OsC4)2
_symmetry_space_group_name_H-M   'P 1'
_cell_length_a   5.08302100
_cell_length_b   6.44738629
_cell_length_c   9.77122854
_cell_angle_alpha   90.28839468
_cell_angle_beta   90.00000000
_cell_angle_gamma   90.00000000
_symmetry_Int_Tables_number   1
_chemical_formula_structural   Dy8MnCr(OsC4)2
_chemical_formula_sum   'Dy8 Mn1 Cr1 Os2 C8'
_cell_volume   320.22059847
_cell_formula_units_Z   1
loop_
 _symmetry_equiv_pos_site_id
 _symmetry_equiv_pos_as_xyz
  1  'x, y, z'
loop_
 _atom_site_type_symbol
 _atom_site_label
 _atom_site_symmetry_multiplicity
 _atom_site_fract_x
 _atom_site_fract_y
 _atom_site_fract_z
 _atom_site_occupancy
  Dy  Dy0  1  0.250000  0.684149  0.556420  1
  Dy  Dy1  1  0.750000  0.316105  0.442332  1
  Dy  Dy2  1  0.750000  0.819574  0.053064  1
  Dy  Dy3  1  0.250000  0.182039  0.946579  1
  Dy  Dy4  1  0.250000  0.526663  0.215095  1
  Dy  Dy5  1  0.750000  0.472459  0.781255  1
  Dy  Dy6  1  0.750000  0.973387  0.713997  1
  Dy  Dy7  1  0.250000  0.025056  0.285165  1
  Mn  Mn8  1  0.750000  0.271593  0.139856  1
  Cr  Cr9  1  0.250000  0.727724  0.862451  1
  Os  Os10  1  0.750000  0.773057  0.359847  1
  Os  Os11  1  0.250000  0.226795  0.638271  1
  C  C12  1  0.250000  0.467041  0.764389  1
  C  C13  1  0.750000  0.530282  0.236377  1
  C  C14  1  0.750000  0.044632  0.254884  1
  C  C15  1  0.250000  0.956817  0.745133  1
  C  C16  1  0.250000  0.813498  0.041296  1
  C  C17  1  0.750000  0.189136  0.964855  1
  C  C18  1  0.750000  0.679102  0.547662  1
  C  C19  1  0.250000  0.320889  0.451073  1
