# generated using pymatgen
data_PaBe12Co
_symmetry_space_group_name_H-M   'P 1'
_cell_length_a   7.24290046
_cell_length_b   7.34381434
_cell_length_c   7.21212232
_cell_angle_alpha   59.67328942
_cell_angle_beta   59.65266407
_cell_angle_gamma   59.25963760
_symmetry_Int_Tables_number   1
_chemical_formula_structural   PaBe12Co
_chemical_formula_sum   'Pa2 Be24 Co2'
_cell_volume   268.34079450
_cell_formula_units_Z   2
loop_
 _symmetry_equiv_pos_site_id
 _symmetry_equiv_pos_as_xyz
  1  'x, y, z'
loop_
 _atom_site_type_symbol
 _atom_site_label
 _atom_site_symmetry_multiplicity
 _atom_site_fract_x
 _atom_site_fract_y
 _atom_site_fract_z
 _atom_site_occupancy
  Pa  Pa0  1  0.241294  0.258706  0.241294  1
  Pa  Pa1  1  0.758706  0.741294  0.758706  1
  Be  Be2  1  0.500000  0.500000  0.500000  1
  Be  Be3  1  0.000000  0.000000  0.000000  1
  Be  Be4  1  0.568385  0.786137  0.431615  1
  Be  Be5  1  0.431615  0.213863  0.568385  1
  Be  Be6  1  0.298850  0.939364  0.701150  1
  Be  Be7  1  0.701150  0.060636  0.298850  1
  Be  Be8  1  0.932987  0.280440  0.067013  1
  Be  Be9  1  0.067013  0.719560  0.932987  1
  Be  Be10  1  0.206202  0.799232  0.558199  1
  Be  Be11  1  0.793798  0.200768  0.441801  1
  Be  Be12  1  0.441801  0.563632  0.793798  1
  Be  Be13  1  0.558199  0.436368  0.206202  1
  Be  Be14  1  0.709575  0.283238  0.938127  1
  Be  Be15  1  0.290425  0.716762  0.061873  1
  Be  Be16  1  0.061873  0.930939  0.290425  1
  Be  Be17  1  0.938127  0.069061  0.709575  1
  Be  Be18  1  0.558680  0.207289  0.794776  1
  Be  Be19  1  0.441320  0.792711  0.205224  1
  Be  Be20  1  0.794776  0.439256  0.558680  1
  Be  Be21  1  0.205224  0.560744  0.441320  1
  Be  Be22  1  0.937893  0.710763  0.289626  1
  Be  Be23  1  0.062107  0.289237  0.710374  1
  Be  Be24  1  0.289626  0.061717  0.937893  1
  Be  Be25  1  0.710374  0.938283  0.062107  1
  Co  Co26  1  0.807039  0.554142  0.192961  1
  Co  Co27  1  0.192961  0.445858  0.807039  1
