# generated using pymatgen
data_RbMnCoS3
_symmetry_space_group_name_H-M   'P 1'
_cell_length_a   7.55912153
_cell_length_b   7.55912072
_cell_length_c   5.27705800
_cell_angle_alpha   89.14454733
_cell_angle_beta   90.85546016
_cell_angle_gamma   103.92189280
_symmetry_Int_Tables_number   1
_chemical_formula_structural   RbMnCoS3
_chemical_formula_sum   'Rb2 Mn2 Co2 S6'
_cell_volume   292.62251175
_cell_formula_units_Z   2
loop_
 _symmetry_equiv_pos_site_id
 _symmetry_equiv_pos_as_xyz
  1  'x, y, z'
loop_
 _atom_site_type_symbol
 _atom_site_label
 _atom_site_symmetry_multiplicity
 _atom_site_fract_x
 _atom_site_fract_y
 _atom_site_fract_z
 _atom_site_occupancy
  Rb  Rb0  1  0.178017  0.821982  0.240994  1
  Rb  Rb1  1  0.821985  0.178014  0.759028  1
  Mn  Mn2  1  0.360458  0.360463  0.499984  1
  Mn  Mn3  1  0.639537  0.639542  0.499984  1
  Co  Co4  1  0.360018  0.360014  0.000008  1
  Co  Co5  1  0.639986  0.639982  0.000008  1
  S  S6  1  0.128000  0.332677  0.251037  1
  S  S7  1  0.604737  0.395263  0.258538  1
  S  S8  1  0.667323  0.872000  0.251037  1
  S  S9  1  0.332677  0.128007  0.748957  1
  S  S10  1  0.395268  0.604732  0.741467  1
  S  S11  1  0.871993  0.667323  0.748957  1
