# generated using pymatgen
data_NaHoSiO4
_symmetry_space_group_name_H-M   'P 1'
_cell_length_a   5.17486300
_cell_length_b   6.44863500
_cell_length_c   11.21128800
_cell_angle_alpha   90.00000000
_cell_angle_beta   90.00000000
_cell_angle_gamma   90.00000000
_symmetry_Int_Tables_number   1
_chemical_formula_structural   NaHoSiO4
_chemical_formula_sum   'Na4 Ho4 Si4 O16'
_cell_volume   374.12967943
_cell_formula_units_Z   4
loop_
 _symmetry_equiv_pos_site_id
 _symmetry_equiv_pos_as_xyz
  1  'x, y, z'
loop_
 _atom_site_type_symbol
 _atom_site_label
 _atom_site_symmetry_multiplicity
 _atom_site_fract_x
 _atom_site_fract_y
 _atom_site_fract_z
 _atom_site_occupancy
  Na  Na0  1  0.500000  0.500000  0.000000  1
  Na  Na1  1  0.500000  0.000000  0.000000  1
  Na  Na2  1  0.000000  0.000000  0.500000  1
  Na  Na3  1  0.000000  0.500000  0.500000  1
  Ho  Ho4  1  0.498274  0.250000  0.279912  1
  Ho  Ho5  1  0.501726  0.750000  0.720088  1
  Ho  Ho6  1  0.001726  0.250000  0.779912  1
  Ho  Ho7  1  0.998274  0.750000  0.220088  1
  Si  Si8  1  0.560948  0.750000  0.400000  1
  Si  Si9  1  0.939052  0.750000  0.900000  1
  Si  Si10  1  0.439052  0.250000  0.600000  1
  Si  Si11  1  0.060948  0.250000  0.100000  1
  O  O12  1  0.748163  0.250000  0.113690  1
  O  O13  1  0.251837  0.750000  0.886310  1
  O  O14  1  0.751837  0.250000  0.613690  1
  O  O15  1  0.248163  0.750000  0.386310  1
  O  O16  1  0.834089  0.750000  0.037948  1
  O  O17  1  0.165911  0.250000  0.962052  1
  O  O18  1  0.665911  0.750000  0.537948  1
  O  O19  1  0.334089  0.250000  0.462052  1
  O  O20  1  0.701280  0.551544  0.328005  1
  O  O21  1  0.298720  0.051544  0.671995  1
  O  O22  1  0.798720  0.551544  0.828005  1
  O  O23  1  0.201280  0.051544  0.171995  1
  O  O24  1  0.201280  0.448456  0.171995  1
  O  O25  1  0.798720  0.948456  0.828005  1
  O  O26  1  0.298720  0.448456  0.671995  1
  O  O27  1  0.701280  0.948456  0.328005  1
