# generated using pymatgen
data_DyYAs4O9
_symmetry_space_group_name_H-M   'P 1'
_cell_length_a   6.76474653
_cell_length_b   7.56431327
_cell_length_c   9.83573449
_cell_angle_alpha   94.97436520
_cell_angle_beta   104.17407685
_cell_angle_gamma   104.70666796
_symmetry_Int_Tables_number   1
_chemical_formula_structural   DyYAs4O9
_chemical_formula_sum   'Dy2 Y2 As8 O18'
_cell_volume   466.00615894
_cell_formula_units_Z   2
loop_
 _symmetry_equiv_pos_site_id
 _symmetry_equiv_pos_as_xyz
  1  'x, y, z'
loop_
 _atom_site_type_symbol
 _atom_site_label
 _atom_site_symmetry_multiplicity
 _atom_site_fract_x
 _atom_site_fract_y
 _atom_site_fract_z
 _atom_site_occupancy
  Dy  Dy0  1  0.721037  0.530204  0.409509  1
  Dy  Dy1  1  0.278963  0.469796  0.590491  1
  Y  Y2  1  0.243976  0.939577  0.615385  1
  Y  Y3  1  0.756024  0.060423  0.384615  1
  As  As4  1  0.681512  0.774841  0.077889  1
  As  As5  1  0.318488  0.225159  0.922111  1
  As  As6  1  0.171857  0.752753  0.912519  1
  As  As7  1  0.828143  0.247247  0.087481  1
  As  As8  1  0.743973  0.915654  0.709379  1
  As  As9  1  0.256027  0.084346  0.290621  1
  As  As10  1  0.809293  0.350804  0.701308  1
  As  As11  1  0.190707  0.649196  0.298692  1
  O  O12  1  0.722436  0.749382  0.258147  1
  O  O13  1  0.277564  0.250618  0.741853  1
  O  O14  1  0.316121  0.978693  0.870481  1
  O  O15  1  0.683879  0.021307  0.129519  1
  O  O16  1  0.607741  0.323981  0.985537  1
  O  O17  1  0.392259  0.676019  0.014463  1
  O  O18  1  0.128472  0.646382  0.738000  1
  O  O19  1  0.871528  0.353618  0.262000  1
  O  O20  1  0.846260  0.874326  0.559244  1
  O  O21  1  0.153740  0.125674  0.440756  1
  O  O22  1  0.484268  0.768313  0.666507  1
  O  O23  1  0.515732  0.231687  0.333493  1
  O  O24  1  0.372551  0.534113  0.379429  1
  O  O25  1  0.627449  0.465887  0.620571  1
  O  O26  1  0.089408  0.669246  0.453340  1
  O  O27  1  0.910592  0.330754  0.546660  1
  O  O28  1  0.375945  0.899041  0.358896  1
  O  O29  1  0.624055  0.100959  0.641104  1
