# generated using pymatgen
data_Ho4(AgPd3)3
_symmetry_space_group_name_H-M   'P 1'
_cell_length_a   7.19093320
_cell_length_b   7.19133829
_cell_length_c   7.19093494
_cell_angle_alpha   107.95119278
_cell_angle_beta   108.09377398
_cell_angle_gamma   112.40688199
_symmetry_Int_Tables_number   1
_chemical_formula_structural   Ho4(AgPd3)3
_chemical_formula_sum   'Ho4 Ag3 Pd9'
_cell_volume   285.69936046
_cell_formula_units_Z   1
loop_
 _symmetry_equiv_pos_site_id
 _symmetry_equiv_pos_as_xyz
  1  'x, y, z'
loop_
 _atom_site_type_symbol
 _atom_site_label
 _atom_site_symmetry_multiplicity
 _atom_site_fract_x
 _atom_site_fract_y
 _atom_site_fract_z
 _atom_site_occupancy
  Ho  Ho0  1  0.244214  0.244168  0.488411  1
  Ho  Ho1  1  0.755786  0.755832  0.511589  1
  Ho  Ho2  1  0.244241  0.755832  0.000046  1
  Ho  Ho3  1  0.755759  0.244168  0.999954  1
  Ag  Ag4  1  0.500000  0.000000  0.500000  1
  Ag  Ag5  1  0.000000  0.500000  0.500000  1
  Ag  Ag6  1  0.500000  0.500000  0.000000  1
  Pd  Pd7  1  0.501576  0.252576  0.248991  1
  Pd  Pd8  1  0.498424  0.747424  0.751009  1
  Pd  Pd9  1  0.003585  0.252576  0.751002  1
  Pd  Pd10  1  0.252546  0.003565  0.751019  1
  Pd  Pd11  1  0.996415  0.747424  0.248998  1
  Pd  Pd12  1  0.747454  0.996435  0.248981  1
  Pd  Pd13  1  0.252549  0.501538  0.248987  1
  Pd  Pd14  1  0.747451  0.498462  0.751013  1
  Pd  Pd15  1  0.000000  0.000000  0.000000  1
