# generated using pymatgen
data_Ca3U(NbN3)2
_symmetry_space_group_name_H-M   'P 1'
_cell_length_a   5.69473135
_cell_length_b   5.69473112
_cell_length_c   5.91425082
_cell_angle_alpha   99.23478199
_cell_angle_beta   99.23478205
_cell_angle_gamma   120.02265270
_symmetry_Int_Tables_number   1
_chemical_formula_structural   Ca3U(NbN3)2
_chemical_formula_sum   'Ca3 U1 Nb2 N6'
_cell_volume   157.27255877
_cell_formula_units_Z   1
loop_
 _symmetry_equiv_pos_site_id
 _symmetry_equiv_pos_as_xyz
  1  'x, y, z'
loop_
 _atom_site_type_symbol
 _atom_site_label
 _atom_site_symmetry_multiplicity
 _atom_site_fract_x
 _atom_site_fract_y
 _atom_site_fract_z
 _atom_site_occupancy
  Ca  Ca0  1  0.829770  0.170230  0.500000  1
  Ca  Ca1  1  0.170230  0.829770  0.500000  1
  Ca  Ca2  1  0.500000  0.500000  0.500000  1
  U  U3  1  0.000000  0.000000  0.000000  1
  Nb  Nb4  1  0.333394  0.666606  0.000000  1
  Nb  Nb5  1  0.666606  0.333394  0.000000  1
  N  N6  1  0.401997  0.070825  0.214925  1
  N  N7  1  0.929175  0.598003  0.785075  1
  N  N8  1  0.598003  0.929175  0.785075  1
  N  N9  1  0.070825  0.401997  0.214925  1
  N  N10  1  0.740645  0.740645  0.213401  1
  N  N11  1  0.259355  0.259355  0.786599  1
