# generated using pymatgen
data_TbEr3PI6
_symmetry_space_group_name_H-M   'P 1'
_cell_length_a   4.14914800
_cell_length_b   13.81184747
_cell_length_c   14.54478383
_cell_angle_alpha   90.10227568
_cell_angle_beta   90.00000000
_cell_angle_gamma   90.00000000
_symmetry_Int_Tables_number   1
_chemical_formula_structural   TbEr3PI6
_chemical_formula_sum   'Tb2 Er6 P2 I12'
_cell_volume   833.52240659
_cell_formula_units_Z   2
loop_
 _symmetry_equiv_pos_site_id
 _symmetry_equiv_pos_as_xyz
  1  'x, y, z'
loop_
 _atom_site_type_symbol
 _atom_site_label
 _atom_site_symmetry_multiplicity
 _atom_site_fract_x
 _atom_site_fract_y
 _atom_site_fract_z
 _atom_site_occupancy
  Tb  Tb0  1  0.000000  0.608815  0.926664  1
  Tb  Tb1  1  0.000000  0.391185  0.073336  1
  Er  Er2  1  0.500000  0.112372  0.351234  1
  Er  Er3  1  0.500000  0.887628  0.648766  1
  Er  Er4  1  0.500000  0.612726  0.149003  1
  Er  Er5  1  0.500000  0.387274  0.850997  1
  Er  Er6  1  0.000000  0.106366  0.571440  1
  Er  Er7  1  0.000000  0.893634  0.428560  1
  P  P8  1  0.500000  0.000000  0.500000  1
  P  P9  1  0.500000  0.500000  0.000000  1
  I  I10  1  0.500000  0.243576  0.164396  1
  I  I11  1  0.500000  0.756424  0.835604  1
  I  I12  1  0.500000  0.747932  0.338556  1
  I  I13  1  0.500000  0.252068  0.661444  1
  I  I14  1  0.000000  0.258265  0.416019  1
  I  I15  1  0.000000  0.741735  0.583981  1
  I  I16  1  0.000000  0.759937  0.086403  1
  I  I17  1  0.000000  0.240063  0.913597  1
  I  I18  1  0.000000  0.999455  0.241743  1
  I  I19  1  0.000000  0.000545  0.758257  1
  I  I20  1  0.000000  0.501661  0.260844  1
  I  I21  1  0.000000  0.498339  0.739156  1
