# generated using pymatgen
data_Tb8HfSc9(Si8Ag)2
_symmetry_space_group_name_H-M   'P 1'
_cell_length_a   7.39048325
_cell_length_b   7.39809306
_cell_length_c   13.29119243
_cell_angle_alpha   89.92913544
_cell_angle_beta   89.90164906
_cell_angle_gamma   89.84431309
_symmetry_Int_Tables_number   1
_chemical_formula_structural   Tb8HfSc9(Si8Ag)2
_chemical_formula_sum   'Tb8 Hf1 Sc9 Si16 Ag2'
_cell_volume   726.69805897
_cell_formula_units_Z   1
loop_
 _symmetry_equiv_pos_site_id
 _symmetry_equiv_pos_as_xyz
  1  'x, y, z'
loop_
 _atom_site_type_symbol
 _atom_site_label
 _atom_site_symmetry_multiplicity
 _atom_site_fract_x
 _atom_site_fract_y
 _atom_site_fract_z
 _atom_site_occupancy
  Tb  Tb0  1  0.998068  0.348535  0.210856  1
  Tb  Tb1  1  0.001382  0.651318  0.711168  1
  Tb  Tb2  1  0.145473  0.503022  0.464710  1
  Tb  Tb3  1  0.497116  0.853801  0.034819  1
  Tb  Tb4  1  0.853364  0.499155  0.965648  1
  Tb  Tb5  1  0.502150  0.145500  0.534909  1
  Tb  Tb6  1  0.348900  0.998024  0.788959  1
  Tb  Tb7  1  0.651521  0.002234  0.288688  1
  Hf  Hf8  1  0.001527  0.864401  0.121701  1
  Sc  Sc9  1  0.320077  0.680494  0.250052  1
  Sc  Sc10  1  0.680535  0.319501  0.749836  1
  Sc  Sc11  1  0.135178  0.999729  0.378632  1
  Sc  Sc12  1  0.864118  0.999178  0.879213  1
  Sc  Sc13  1  0.506393  0.645217  0.624796  1
  Sc  Sc14  1  0.355020  0.493261  0.875898  1
  Sc  Sc15  1  0.493119  0.355530  0.124554  1
  Sc  Sc16  1  0.644648  0.506063  0.374476  1
  Sc  Sc17  1  0.000125  0.135316  0.621230  1
  Si  Si18  1  0.355383  0.293423  0.317438  1
  Si  Si19  1  0.642965  0.707010  0.818018  1
  Si  Si20  1  0.224311  0.863435  0.572358  1
  Si  Si21  1  0.135782  0.776497  0.929057  1
  Si  Si22  1  0.776664  0.134392  0.074446  1
  Si  Si23  1  0.863412  0.224379  0.427672  1
  Si  Si24  1  0.293046  0.356315  0.682517  1
  Si  Si25  1  0.709870  0.644377  0.179913  1
  Si  Si26  1  0.290889  0.056001  0.190210  1
  Si  Si27  1  0.708024  0.941569  0.691434  1
  Si  Si28  1  0.432092  0.789711  0.435824  1
  Si  Si29  1  0.209020  0.570024  0.064785  1
  Si  Si30  1  0.568992  0.210086  0.936242  1
  Si  Si31  1  0.789040  0.431545  0.563672  1
  Si  Si32  1  0.058485  0.292110  0.808958  1
  Si  Si33  1  0.943784  0.708351  0.307561  1
  Ag  Ag34  1  0.179489  0.179433  0.999814  1
  Ag  Ag35  1  0.820040  0.821062  0.499938  1
