# generated using pymatgen
data_Yb6Dy2Cu3Si12Pd
_symmetry_space_group_name_H-M   'P 1'
_cell_length_a   8.11857500
_cell_length_b   8.11857422
_cell_length_c   8.15986200
_cell_angle_alpha   90.00000000
_cell_angle_beta   90.00000000
_cell_angle_gamma   120.00000726
_symmetry_Int_Tables_number   1
_chemical_formula_structural   Yb6Dy2Cu3Si12Pd
_chemical_formula_sum   'Yb6 Dy2 Cu3 Si12 Pd1'
_cell_volume   465.77158059
_cell_formula_units_Z   1
loop_
 _symmetry_equiv_pos_site_id
 _symmetry_equiv_pos_as_xyz
  1  'x, y, z'
loop_
 _atom_site_type_symbol
 _atom_site_label
 _atom_site_symmetry_multiplicity
 _atom_site_fract_x
 _atom_site_fract_y
 _atom_site_fract_z
 _atom_site_occupancy
  Yb  Yb0  1  0.499563  0.999126  0.251513  1
  Yb  Yb1  1  0.499835  0.999669  0.748531  1
  Yb  Yb2  1  0.000874  0.500437  0.251513  1
  Yb  Yb3  1  0.000331  0.500165  0.748531  1
  Yb  Yb4  1  0.499563  0.500437  0.251513  1
  Yb  Yb5  1  0.499835  0.500165  0.748531  1
  Dy  Dy6  1  0.000000  0.000000  0.250140  1
  Dy  Dy7  1  0.000000  0.000000  0.749801  1
  Cu  Cu8  1  0.333333  0.666667  0.999572  1
  Cu  Cu9  1  0.666667  0.333333  0.000640  1
  Cu  Cu10  1  0.666667  0.333333  0.499260  1
  Si  Si11  1  0.166911  0.333821  0.999628  1
  Si  Si12  1  0.833560  0.667119  0.000364  1
  Si  Si13  1  0.666179  0.833089  0.999628  1
  Si  Si14  1  0.833893  0.667785  0.500270  1
  Si  Si15  1  0.332881  0.166440  0.000364  1
  Si  Si16  1  0.164323  0.328645  0.499632  1
  Si  Si17  1  0.166911  0.833089  0.999628  1
  Si  Si18  1  0.332215  0.166107  0.500270  1
  Si  Si19  1  0.833560  0.166440  0.000364  1
  Si  Si20  1  0.671355  0.835677  0.499632  1
  Si  Si21  1  0.833893  0.166107  0.500270  1
  Si  Si22  1  0.164323  0.835677  0.499632  1
  Pd  Pd23  1  0.333333  0.666667  0.500772  1
