# generated using pymatgen
data_Nd2AlIrI
_symmetry_space_group_name_H-M   'P 1'
_cell_length_a   4.32319700
_cell_length_b   4.32319551
_cell_length_c   17.50801700
_cell_angle_alpha   90.00000000
_cell_angle_beta   90.00000000
_cell_angle_gamma   120.00000372
_symmetry_Int_Tables_number   1
_chemical_formula_structural   Nd2AlIrI
_chemical_formula_sum   'Nd4 Al2 Ir2 I2'
_cell_volume   283.38540393
_cell_formula_units_Z   2
loop_
 _symmetry_equiv_pos_site_id
 _symmetry_equiv_pos_as_xyz
  1  'x, y, z'
loop_
 _atom_site_type_symbol
 _atom_site_label
 _atom_site_symmetry_multiplicity
 _atom_site_fract_x
 _atom_site_fract_y
 _atom_site_fract_z
 _atom_site_occupancy
  Nd  Nd0  1  0.000000  0.000000  0.394338  1
  Nd  Nd1  1  0.000000  0.000000  0.894338  1
  Nd  Nd2  1  0.000000  0.000000  0.608439  1
  Nd  Nd3  1  0.000000  0.000000  0.108439  1
  Al  Al4  1  0.333333  0.666667  0.502561  1
  Al  Al5  1  0.666667  0.333333  0.002561  1
  Ir  Ir6  1  0.666667  0.333333  0.496532  1
  Ir  Ir7  1  0.333333  0.666667  0.996532  1
  I  I8  1  0.333333  0.666667  0.248131  1
  I  I9  1  0.666667  0.333333  0.748131  1
