# generated using pymatgen
data_Tb3Tl2CdAg2Ir
_symmetry_space_group_name_H-M   'P 1'
_cell_length_a   7.91143900
_cell_length_b   7.86730258
_cell_length_c   3.86681200
_cell_angle_alpha   90.00000000
_cell_angle_beta   90.00000000
_cell_angle_gamma   119.96783671
_symmetry_Int_Tables_number   1
_chemical_formula_structural   Tb3Tl2CdAg2Ir
_chemical_formula_sum   'Tb3 Tl2 Cd1 Ag2 Ir1'
_cell_volume   208.49982279
_cell_formula_units_Z   1
loop_
 _symmetry_equiv_pos_site_id
 _symmetry_equiv_pos_as_xyz
  1  'x, y, z'
loop_
 _atom_site_type_symbol
 _atom_site_label
 _atom_site_symmetry_multiplicity
 _atom_site_fract_x
 _atom_site_fract_y
 _atom_site_fract_z
 _atom_site_occupancy
  Tb  Tb0  1  0.572301  0.969677  0.000000  1
  Tb  Tb1  1  0.036141  0.611078  0.000000  1
  Tb  Tb2  1  0.392140  0.422877  0.000000  1
  Tl  Tl3  1  0.991134  0.264585  0.500000  1
  Tl  Tl4  1  0.734929  0.727216  0.500000  1
  Cd  Cd5  1  0.271644  0.007413  0.500000  1
  Ag  Ag6  1  0.661913  0.328423  0.500000  1
  Ag  Ag7  1  0.006299  0.000151  0.000000  1
  Ir  Ir8  1  0.333499  0.668580  0.500000  1
