# generated using pymatgen
data_Ba4Lu2InReO12
_symmetry_space_group_name_H-M   'P 1'
_cell_length_a   7.39608966
_cell_length_b   7.39608916
_cell_length_c   7.39609023
_cell_angle_alpha   110.19676816
_cell_angle_beta   110.19676682
_cell_angle_gamma   108.02967075
_symmetry_Int_Tables_number   1
_chemical_formula_structural   Ba4Lu2InReO12
_chemical_formula_sum   'Ba4 Lu2 In1 Re1 O12'
_cell_volume   311.29993304
_cell_formula_units_Z   1
loop_
 _symmetry_equiv_pos_site_id
 _symmetry_equiv_pos_as_xyz
  1  'x, y, z'
loop_
 _atom_site_type_symbol
 _atom_site_label
 _atom_site_symmetry_multiplicity
 _atom_site_fract_x
 _atom_site_fract_y
 _atom_site_fract_z
 _atom_site_occupancy
  Ba  Ba0  1  0.000000  0.500000  0.000000  1
  Ba  Ba1  1  0.500000  0.000000  0.000000  1
  Ba  Ba2  1  0.000000  0.000000  0.500000  1
  Ba  Ba3  1  0.500000  0.500000  0.500000  1
  Lu  Lu4  1  0.500000  0.000000  0.500000  1
  Lu  Lu5  1  0.000000  0.500000  0.500000  1
  In  In6  1  0.500000  0.500000  0.000000  1
  Re  Re7  1  0.000000  0.000000  0.000000  1
  O  O8  1  0.250000  0.750000  0.500000  1
  O  O9  1  0.773879  0.000000  0.773879  1
  O  O10  1  0.000000  0.773879  0.773879  1
  O  O11  1  0.000000  0.226121  0.226121  1
  O  O12  1  0.218292  0.218292  0.000000  1
  O  O13  1  0.226121  0.000000  0.226121  1
  O  O14  1  0.781708  0.781708  0.000000  1
  O  O15  1  0.750000  0.250000  0.500000  1
  O  O16  1  0.500000  0.251255  0.751255  1
  O  O17  1  0.500000  0.748745  0.248745  1
  O  O18  1  0.251255  0.500000  0.751255  1
  O  O19  1  0.748745  0.500000  0.248745  1
