# generated using pymatgen
data_HfZrTiMo3
_symmetry_space_group_name_H-M   'P 1'
_cell_length_a   5.32061187
_cell_length_b   5.32061148
_cell_length_c   5.42898351
_cell_angle_alpha   60.65815594
_cell_angle_beta   60.65815602
_cell_angle_gamma   60.00000061
_symmetry_Int_Tables_number   1
_chemical_formula_structural   HfZrTiMo3
_chemical_formula_sum   'Hf1 Zr1 Ti1 Mo3'
_cell_volume   109.74282607
_cell_formula_units_Z   1
loop_
 _symmetry_equiv_pos_site_id
 _symmetry_equiv_pos_as_xyz
  1  'x, y, z'
loop_
 _atom_site_type_symbol
 _atom_site_label
 _atom_site_symmetry_multiplicity
 _atom_site_fract_x
 _atom_site_fract_y
 _atom_site_fract_z
 _atom_site_occupancy
  Hf  Hf0  1  0.249312  0.249312  0.252063  1
  Zr  Zr1  1  0.000555  0.000555  0.998336  1
  Ti  Ti2  1  0.625087  0.625087  0.124738  1
  Mo  Mo3  1  0.624889  0.125267  0.624954  1
  Mo  Mo4  1  0.125267  0.624889  0.624954  1
  Mo  Mo5  1  0.624889  0.624889  0.624954  1
