# generated using pymatgen
data_Li4Pr2ThSi4
_symmetry_space_group_name_H-M   'P 1'
_cell_length_a   4.43021390
_cell_length_b   6.77444724
_cell_length_c   8.35476190
_cell_angle_alpha   113.91771535
_cell_angle_beta   105.37474649
_cell_angle_gamma   89.99999818
_symmetry_Int_Tables_number   1
_chemical_formula_structural   Li4Pr2ThSi4
_chemical_formula_sum   'Li4 Pr2 Th1 Si4'
_cell_volume   219.36073616
_cell_formula_units_Z   1
loop_
 _symmetry_equiv_pos_site_id
 _symmetry_equiv_pos_as_xyz
  1  'x, y, z'
loop_
 _atom_site_type_symbol
 _atom_site_label
 _atom_site_symmetry_multiplicity
 _atom_site_fract_x
 _atom_site_fract_y
 _atom_site_fract_z
 _atom_site_occupancy
  Li  Li0  1  0.670376  0.980076  0.340750  1
  Li  Li1  1  0.329624  0.019924  0.659250  1
  Li  Li2  1  0.329624  0.639327  0.659250  1
  Li  Li3  1  0.670376  0.360673  0.340750  1
  Pr  Pr4  1  0.132217  0.632217  0.264436  1
  Pr  Pr5  1  0.867783  0.367783  0.735564  1
  Th  Th6  1  0.000000  0.000000  0.000000  1
  Si  Si7  1  0.500000  0.680388  0.000000  1
  Si  Si8  1  0.500000  0.319612  0.000000  1
  Si  Si9  1  0.789585  0.789585  0.579168  1
  Si  Si10  1  0.210415  0.210415  0.420832  1
