# generated using pymatgen
data_FeMoH2
_symmetry_space_group_name_H-M   'P 1'
_cell_length_a   4.68847808
_cell_length_b   4.68847679
_cell_length_c   2.75499400
_cell_angle_alpha   90.00000000
_cell_angle_beta   90.00000000
_cell_angle_gamma   98.97854997
_symmetry_Int_Tables_number   1
_chemical_formula_structural   FeMoH2
_chemical_formula_sum   'Fe2 Mo2 H4'
_cell_volume   59.81773501
_cell_formula_units_Z   2
loop_
 _symmetry_equiv_pos_site_id
 _symmetry_equiv_pos_as_xyz
  1  'x, y, z'
loop_
 _atom_site_type_symbol
 _atom_site_label
 _atom_site_symmetry_multiplicity
 _atom_site_fract_x
 _atom_site_fract_y
 _atom_site_fract_z
 _atom_site_occupancy
  Fe  Fe0  1  0.298118  0.298118  0.000000  1
  Fe  Fe1  1  0.701882  0.701882  0.000000  1
  Mo  Mo2  1  0.211901  0.788099  0.500000  1
  Mo  Mo3  1  0.788099  0.211901  0.500000  1
  H  H4  1  0.500000  0.000000  0.000000  1
  H  H5  1  0.000000  0.000000  0.000000  1
  H  H6  1  0.000000  0.500000  0.000000  1
  H  H7  1  0.500000  0.500000  0.500000  1
