# generated using pymatgen
data_Sr3ThHgPb11
_symmetry_space_group_name_H-M   'P 1'
_cell_length_a   10.13011900
_cell_length_b   7.04597508
_cell_length_c   6.99740651
_cell_angle_alpha   89.87742683
_cell_angle_beta   90.00000000
_cell_angle_gamma   90.00000000
_symmetry_Int_Tables_number   1
_chemical_formula_structural   Sr3ThHgPb11
_chemical_formula_sum   'Sr3 Th1 Hg1 Pb11'
_cell_volume   499.44970544
_cell_formula_units_Z   1
loop_
 _symmetry_equiv_pos_site_id
 _symmetry_equiv_pos_as_xyz
  1  'x, y, z'
loop_
 _atom_site_type_symbol
 _atom_site_label
 _atom_site_symmetry_multiplicity
 _atom_site_fract_x
 _atom_site_fract_y
 _atom_site_fract_z
 _atom_site_occupancy
  Sr  Sr0  1  0.250000  0.499275  0.503634  1
  Sr  Sr1  1  0.750000  0.997189  0.001428  1
  Sr  Sr2  1  0.750000  0.505513  0.498220  1
  Th  Th3  1  0.250000  0.003894  0.002064  1
  Hg  Hg4  1  0.750000  0.492960  0.997730  1
  Pb  Pb5  1  0.000947  0.242735  0.746525  1
  Pb  Pb6  1  0.498941  0.250199  0.246482  1
  Pb  Pb7  1  0.497942  0.752194  0.247522  1
  Pb  Pb8  1  0.000923  0.751075  0.755173  1
  Pb  Pb9  1  0.002058  0.752194  0.247522  1
  Pb  Pb10  1  0.499077  0.751075  0.755173  1
  Pb  Pb11  1  0.499053  0.242735  0.746525  1
  Pb  Pb12  1  0.001059  0.250199  0.246482  1
  Pb  Pb13  1  0.250000  0.998130  0.501649  1
  Pb  Pb14  1  0.250000  0.506088  0.003157  1
  Pb  Pb15  1  0.750000  0.004543  0.500711  1
