# generated using pymatgen
data_Er3Zn2Cd3Sn
_symmetry_space_group_name_H-M   'P 1'
_cell_length_a   7.47898500
_cell_length_b   7.47898625
_cell_length_c   4.26117100
_cell_angle_alpha   90.00000000
_cell_angle_beta   90.00000000
_cell_angle_gamma   120.00000894
_symmetry_Int_Tables_number   1
_chemical_formula_structural   Er3Zn2Cd3Sn
_chemical_formula_sum   'Er3 Zn2 Cd3 Sn1'
_cell_volume   206.41675767
_cell_formula_units_Z   1
loop_
 _symmetry_equiv_pos_site_id
 _symmetry_equiv_pos_as_xyz
  1  'x, y, z'
loop_
 _atom_site_type_symbol
 _atom_site_label
 _atom_site_symmetry_multiplicity
 _atom_site_fract_x
 _atom_site_fract_y
 _atom_site_fract_z
 _atom_site_occupancy
  Er  Er0  1  0.590048  0.013411  0.000000  1
  Er  Er1  1  0.986589  0.576637  0.000000  1
  Er  Er2  1  0.423363  0.409952  0.000000  1
  Zn  Zn3  1  0.666667  0.333333  0.500000  1
  Zn  Zn4  1  0.000000  0.000000  0.000000  1
  Cd  Cd5  1  0.255445  0.016929  0.500000  1
  Cd  Cd6  1  0.983071  0.238516  0.500000  1
  Cd  Cd7  1  0.761484  0.744555  0.500000  1
  Sn  Sn8  1  0.333333  0.666667  0.500000  1
