# generated using pymatgen
data_YTm9Si5Sn
_symmetry_space_group_name_H-M   'P 1'
_cell_length_a   8.42822723
_cell_length_b   8.42822613
_cell_length_c   6.28483700
_cell_angle_alpha   90.00000000
_cell_angle_beta   90.00000000
_cell_angle_gamma   120.24350398
_symmetry_Int_Tables_number   1
_chemical_formula_structural   YTm9Si5Sn
_chemical_formula_sum   'Y1 Tm9 Si5 Sn1'
_cell_volume   385.67918038
_cell_formula_units_Z   1
loop_
 _symmetry_equiv_pos_site_id
 _symmetry_equiv_pos_as_xyz
  1  'x, y, z'
loop_
 _atom_site_type_symbol
 _atom_site_label
 _atom_site_symmetry_multiplicity
 _atom_site_fract_x
 _atom_site_fract_y
 _atom_site_fract_z
 _atom_site_occupancy
  Y  Y0  1  0.240306  0.240306  0.750000  1
  Tm  Tm1  1  0.673955  0.331568  0.502890  1
  Tm  Tm2  1  0.331568  0.673955  0.502890  1
  Tm  Tm3  1  0.331568  0.673955  0.997110  1
  Tm  Tm4  1  0.673955  0.331568  0.997110  1
  Tm  Tm5  1  0.765937  0.765937  0.250000  1
  Tm  Tm6  1  0.240082  0.989108  0.250000  1
  Tm  Tm7  1  0.989108  0.240082  0.250000  1
  Tm  Tm8  1  0.756174  0.998493  0.750000  1
  Tm  Tm9  1  0.998493  0.756174  0.750000  1
  Si  Si10  1  0.604171  0.998610  0.250000  1
  Si  Si11  1  0.998610  0.604171  0.250000  1
  Si  Si12  1  0.606132  0.606132  0.750000  1
  Si  Si13  1  0.394146  0.000790  0.750000  1
  Si  Si14  1  0.000790  0.394146  0.750000  1
  Sn  Sn15  1  0.395007  0.395007  0.250000  1
