# generated using pymatgen
data_Y3CdIn3CuPd
_symmetry_space_group_name_H-M   'P 1'
_cell_length_a   7.80962800
_cell_length_b   7.80962952
_cell_length_c   3.89428900
_cell_angle_alpha   90.00000000
_cell_angle_beta   90.00000000
_cell_angle_gamma   119.99999355
_symmetry_Int_Tables_number   1
_chemical_formula_structural   Y3CdIn3CuPd
_chemical_formula_sum   'Y3 Cd1 In3 Cu1 Pd1'
_cell_volume   205.69304970
_cell_formula_units_Z   1
loop_
 _symmetry_equiv_pos_site_id
 _symmetry_equiv_pos_as_xyz
  1  'x, y, z'
loop_
 _atom_site_type_symbol
 _atom_site_label
 _atom_site_symmetry_multiplicity
 _atom_site_fract_x
 _atom_site_fract_y
 _atom_site_fract_z
 _atom_site_occupancy
  Y  Y0  1  0.391021  0.978966  0.500000  1
  Y  Y1  1  0.021034  0.412054  0.500000  1
  Y  Y2  1  0.587946  0.608979  0.500000  1
  Cd  Cd3  1  0.666667  0.333333  0.000000  1
  In  In4  1  0.750262  0.999519  0.000000  1
  In  In5  1  0.000481  0.750743  0.000000  1
  In  In6  1  0.249257  0.249738  0.000000  1
  Cu  Cu7  1  0.000000  0.000000  0.500000  1
  Pd  Pd8  1  0.333333  0.666667  0.000000  1
