# generated using pymatgen
data_Hf2TiGa3
_symmetry_space_group_name_H-M   'P 1'
_cell_length_a   5.53389300
_cell_length_b   8.48371300
_cell_length_c   9.06572600
_cell_angle_alpha   90.00000000
_cell_angle_beta   90.00000000
_cell_angle_gamma   90.00000000
_symmetry_Int_Tables_number   1
_chemical_formula_structural   Hf2TiGa3
_chemical_formula_sum   'Hf8 Ti4 Ga12'
_cell_volume   425.61734148
_cell_formula_units_Z   4
loop_
 _symmetry_equiv_pos_site_id
 _symmetry_equiv_pos_as_xyz
  1  'x, y, z'
loop_
 _atom_site_type_symbol
 _atom_site_label
 _atom_site_symmetry_multiplicity
 _atom_site_fract_x
 _atom_site_fract_y
 _atom_site_fract_z
 _atom_site_occupancy
  Hf  Hf0  1  0.750000  0.472893  0.617954  1
  Hf  Hf1  1  0.250000  0.527107  0.382046  1
  Hf  Hf2  1  0.750000  0.972893  0.382046  1
  Hf  Hf3  1  0.250000  0.027107  0.617954  1
  Hf  Hf4  1  0.750000  0.362342  0.187450  1
  Hf  Hf5  1  0.250000  0.637658  0.812550  1
  Hf  Hf6  1  0.750000  0.862342  0.812550  1
  Hf  Hf7  1  0.250000  0.137658  0.187450  1
  Ti  Ti8  1  0.000000  0.750000  0.109900  1
  Ti  Ti9  1  0.500000  0.250000  0.890100  1
  Ti  Ti10  1  0.000000  0.250000  0.890100  1
  Ti  Ti11  1  0.500000  0.750000  0.109900  1
  Ga  Ga12  1  0.000000  0.750000  0.566392  1
  Ga  Ga13  1  0.500000  0.250000  0.433608  1
  Ga  Ga14  1  0.000000  0.250000  0.433608  1
  Ga  Ga15  1  0.500000  0.750000  0.566392  1
  Ga  Ga16  1  0.750000  0.045834  0.080694  1
  Ga  Ga17  1  0.250000  0.954166  0.919306  1
  Ga  Ga18  1  0.750000  0.545834  0.919306  1
  Ga  Ga19  1  0.250000  0.454166  0.080694  1
  Ga  Ga20  1  0.750000  0.135546  0.659609  1
  Ga  Ga21  1  0.250000  0.864454  0.340391  1
  Ga  Ga22  1  0.750000  0.635546  0.340391  1
  Ga  Ga23  1  0.250000  0.364454  0.659609  1
