# generated using pymatgen
data_Sm5Y2Ho(Si3Rh)4
_symmetry_space_group_name_H-M   'P 1'
_cell_length_a   8.21741831
_cell_length_b   8.22135674
_cell_length_c   8.07655300
_cell_angle_alpha   90.00000000
_cell_angle_beta   90.00000000
_cell_angle_gamma   120.01585245
_symmetry_Int_Tables_number   1
_chemical_formula_structural   Sm5Y2Ho(Si3Rh)4
_chemical_formula_sum   'Sm5 Y2 Ho1 Si12 Rh4'
_cell_volume   472.46122503
_cell_formula_units_Z   1
loop_
 _symmetry_equiv_pos_site_id
 _symmetry_equiv_pos_as_xyz
  1  'x, y, z'
loop_
 _atom_site_type_symbol
 _atom_site_label
 _atom_site_symmetry_multiplicity
 _atom_site_fract_x
 _atom_site_fract_y
 _atom_site_fract_z
 _atom_site_occupancy
  Sm  Sm0  1  0.000006  0.000003  0.250000  1
  Sm  Sm1  1  0.000019  0.000010  0.750000  1
  Sm  Sm2  1  0.507188  0.492804  0.250000  1
  Sm  Sm3  1  0.507188  0.014385  0.250000  1
  Sm  Sm4  1  0.985621  0.492811  0.250000  1
  Y  Y5  1  0.491445  0.508490  0.750000  1
  Y  Y6  1  0.491445  0.982956  0.750000  1
  Ho  Ho7  1  0.016748  0.508374  0.750000  1
  Si  Si8  1  0.166803  0.832967  0.504530  1
  Si  Si9  1  0.166803  0.333836  0.504530  1
  Si  Si10  1  0.666233  0.833116  0.504378  1
  Si  Si11  1  0.832332  0.167870  0.503020  1
  Si  Si12  1  0.832332  0.664464  0.503020  1
  Si  Si13  1  0.335481  0.167741  0.502908  1
  Si  Si14  1  0.832332  0.167870  0.996980  1
  Si  Si15  1  0.832332  0.664464  0.996980  1
  Si  Si16  1  0.335481  0.167741  0.997092  1
  Si  Si17  1  0.166803  0.832967  0.995470  1
  Si  Si18  1  0.166803  0.333836  0.995470  1
  Si  Si19  1  0.666233  0.833116  0.995622  1
  Rh  Rh20  1  0.333108  0.666555  0.477875  1
  Rh  Rh21  1  0.667074  0.333537  0.541919  1
  Rh  Rh22  1  0.667074  0.333537  0.958081  1
  Rh  Rh23  1  0.333108  0.666555  0.022125  1
