# generated using pymatgen
data_Th2P7(IrRu)6
_symmetry_space_group_name_H-M   'P 1'
_cell_length_a   9.67765714
_cell_length_b   9.67794358
_cell_length_c   3.92343100
_cell_angle_alpha   90.00000000
_cell_angle_beta   90.00000000
_cell_angle_gamma   119.99019575
_symmetry_Int_Tables_number   1
_chemical_formula_structural   Th2P7(IrRu)6
_chemical_formula_sum   'Th2 P7 Ir6 Ru6'
_cell_volume   318.26792002
_cell_formula_units_Z   1
loop_
 _symmetry_equiv_pos_site_id
 _symmetry_equiv_pos_as_xyz
  1  'x, y, z'
loop_
 _atom_site_type_symbol
 _atom_site_label
 _atom_site_symmetry_multiplicity
 _atom_site_fract_x
 _atom_site_fract_y
 _atom_site_fract_z
 _atom_site_occupancy
  Th  Th0  1  0.333381  0.666747  0.000000  1
  Th  Th1  1  0.999986  0.999958  0.500000  1
  P  P2  1  0.780216  0.048855  0.000000  1
  P  P3  1  0.951126  0.731264  0.000000  1
  P  P4  1  0.268603  0.219741  0.000000  1
  P  P5  1  0.381530  0.936469  0.500000  1
  P  P6  1  0.063655  0.445162  0.500000  1
  P  P7  1  0.554889  0.618517  0.500000  1
  P  P8  1  0.666704  0.333486  0.000000  1
  Ir  Ir9  1  0.049265  0.266114  0.000000  1
  Ir  Ir10  1  0.733880  0.783059  0.000000  1
  Ir  Ir11  1  0.216870  0.950776  0.000000  1
  Ir  Ir12  1  0.598994  0.883653  0.500000  1
  Ir  Ir13  1  0.116325  0.715298  0.500000  1
  Ir  Ir14  1  0.284709  0.401107  0.500000  1
  Ru  Ru15  1  0.547067  0.063272  0.000000  1
  Ru  Ru16  1  0.936838  0.483811  0.000000  1
  Ru  Ru17  1  0.516025  0.452942  0.000000  1
  Ru  Ru18  1  0.815999  0.214300  0.500000  1
  Ru  Ru19  1  0.785508  0.601261  0.500000  1
  Ru  Ru20  1  0.398430  0.184210  0.500000  1
