# generated using pymatgen
data_DyPa(Al3Rh)3
_symmetry_space_group_name_H-M   'P 1'
_cell_length_a   7.60298470
_cell_length_b   7.60282373
_cell_length_c   9.39526200
_cell_angle_alpha   90.00000000
_cell_angle_beta   90.00000000
_cell_angle_gamma   119.65268479
_symmetry_Int_Tables_number   1
_chemical_formula_structural   DyPa(Al3Rh)3
_chemical_formula_sum   'Dy2 Pa2 Al18 Rh6'
_cell_volume   471.96292714
_cell_formula_units_Z   2
loop_
 _symmetry_equiv_pos_site_id
 _symmetry_equiv_pos_as_xyz
  1  'x, y, z'
loop_
 _atom_site_type_symbol
 _atom_site_label
 _atom_site_symmetry_multiplicity
 _atom_site_fract_x
 _atom_site_fract_y
 _atom_site_fract_z
 _atom_site_occupancy
  Dy  Dy0  1  0.669364  0.993815  0.750000  1
  Dy  Dy1  1  0.330636  0.006185  0.250000  1
  Pa  Pa2  1  0.996910  0.670198  0.750000  1
  Pa  Pa3  1  0.003090  0.329802  0.250000  1
  Al  Al4  1  0.129211  0.126124  0.750000  1
  Al  Al5  1  0.870789  0.873876  0.250000  1
  Al  Al6  1  0.000330  0.331769  0.577190  1
  Al  Al7  1  0.999670  0.668231  0.422810  1
  Al  Al8  1  0.999670  0.668231  0.077190  1
  Al  Al9  1  0.337459  0.002782  0.925240  1
  Al  Al10  1  0.000330  0.331769  0.922810  1
  Al  Al11  1  0.662541  0.997218  0.074760  1
  Al  Al12  1  0.662541  0.997218  0.425240  1
  Al  Al13  1  0.337459  0.002782  0.574760  1
  Al  Al14  1  0.334979  0.333259  0.053474  1
  Al  Al15  1  0.665021  0.666741  0.946526  1
  Al  Al16  1  0.665021  0.666741  0.553474  1
  Al  Al17  1  0.334979  0.333259  0.446526  1
  Al  Al18  1  0.339415  0.548040  0.750000  1
  Al  Al19  1  0.660585  0.451960  0.250000  1
  Al  Al20  1  0.548868  0.341097  0.750000  1
  Al  Al21  1  0.451132  0.658903  0.250000  1
  Rh  Rh22  1  0.675356  0.329595  0.499755  1
  Rh  Rh23  1  0.324644  0.670405  0.500245  1
  Rh  Rh24  1  0.324644  0.670405  0.999755  1
  Rh  Rh25  1  0.675356  0.329595  0.000245  1
  Rh  Rh26  1  0.000000  0.000000  0.500000  1
  Rh  Rh27  1  0.000000  0.000000  0.000000  1
