# generated using pymatgen
data_La8Yb7Tm5Si16
_symmetry_space_group_name_H-M   'P 1'
_cell_length_a   7.84811882
_cell_length_b   7.84991756
_cell_length_c   14.40688000
_cell_angle_alpha   89.69461249
_cell_angle_beta   89.82688120
_cell_angle_gamma   89.93407354
_symmetry_Int_Tables_number   1
_chemical_formula_structural   La8Yb7Tm5Si16
_chemical_formula_sum   'La8 Yb7 Tm5 Si16'
_cell_volume   887.54866138
_cell_formula_units_Z   1
loop_
 _symmetry_equiv_pos_site_id
 _symmetry_equiv_pos_as_xyz
  1  'x, y, z'
loop_
 _atom_site_type_symbol
 _atom_site_label
 _atom_site_symmetry_multiplicity
 _atom_site_fract_x
 _atom_site_fract_y
 _atom_site_fract_z
 _atom_site_occupancy
  La  La0  1  0.991492  0.641797  0.040709  1
  La  La1  1  0.006160  0.359680  0.542547  1
  La  La2  1  0.643104  0.992927  0.958392  1
  La  La3  1  0.142121  0.509214  0.790806  1
  La  La4  1  0.861175  0.490749  0.290446  1
  La  La5  1  0.506495  0.140351  0.208501  1
  La  La6  1  0.491763  0.857895  0.709392  1
  La  La7  1  0.358086  0.009716  0.460171  1
  Yb  Yb8  1  0.364085  0.495481  0.377627  1
  Yb  Yb9  1  0.863100  0.005394  0.374661  1
  Yb  Yb10  1  0.994366  0.137254  0.123861  1
  Yb  Yb11  1  0.681500  0.684842  0.498539  1
  Yb  Yb12  1  0.817964  0.182087  0.750445  1
  Yb  Yb13  1  0.179784  0.818495  0.250892  1
  Yb  Yb14  1  0.313117  0.315323  0.999676  1
  Tm  Tm15  1  0.004970  0.861518  0.629027  1
  Tm  Tm16  1  0.637227  0.503665  0.874554  1
  Tm  Tm17  1  0.496971  0.362399  0.626657  1
  Tm  Tm18  1  0.503817  0.637203  0.121266  1
  Tm  Tm19  1  0.139393  0.994268  0.872226  1
  Si  Si20  1  0.072909  0.709986  0.447663  1
  Si  Si21  1  0.925396  0.294850  0.938384  1
  Si  Si22  1  0.707662  0.072727  0.562256  1
  Si  Si23  1  0.211706  0.431523  0.190305  1
  Si  Si24  1  0.789944  0.572754  0.691686  1
  Si  Si25  1  0.427904  0.209615  0.808640  1
  Si  Si26  1  0.570972  0.788851  0.303974  1
  Si  Si27  1  0.294460  0.922743  0.055013  1
  Si  Si28  1  0.850530  0.788281  0.813159  1
  Si  Si29  1  0.156941  0.212339  0.309282  1
  Si  Si30  1  0.784454  0.841645  0.185345  1
  Si  Si31  1  0.286075  0.649459  0.568506  1
  Si  Si32  1  0.705696  0.351509  0.058242  1
  Si  Si33  1  0.654426  0.290639  0.444516  1
  Si  Si34  1  0.353164  0.711887  0.934781  1
  Si  Si35  1  0.211074  0.150940  0.687855  1
