# generated using pymatgen
data_Zr2CdCuRh
_symmetry_space_group_name_H-M   'P 1'
_cell_length_a   7.47052100
_cell_length_b   7.42484700
_cell_length_c   3.45508400
_cell_angle_alpha   90.00000000
_cell_angle_beta   90.00000000
_cell_angle_gamma   90.00000000
_symmetry_Int_Tables_number   1
_chemical_formula_structural   Zr2CdCuRh
_chemical_formula_sum   'Zr4 Cd2 Cu2 Rh2'
_cell_volume   191.64478690
_cell_formula_units_Z   2
loop_
 _symmetry_equiv_pos_site_id
 _symmetry_equiv_pos_as_xyz
  1  'x, y, z'
loop_
 _atom_site_type_symbol
 _atom_site_label
 _atom_site_symmetry_multiplicity
 _atom_site_fract_x
 _atom_site_fract_y
 _atom_site_fract_z
 _atom_site_occupancy
  Zr  Zr0  1  0.665363  0.178720  0.500001  1
  Zr  Zr1  1  0.165363  0.321280  0.500001  1
  Zr  Zr2  1  0.830652  0.658676  0.500001  1
  Zr  Zr3  1  0.330653  0.841323  0.500001  1
  Cd  Cd4  1  0.994054  0.992746  0.000000  1
  Cd  Cd5  1  0.494053  0.507253  0.000000  1
  Cu  Cu6  1  0.130312  0.628907  0.000000  1
  Cu  Cu7  1  0.630311  0.871092  0.000000  1
  Rh  Rh8  1  0.379618  0.122099  0.000000  1
  Rh  Rh9  1  0.879617  0.377902  0.000000  1
