# generated using pymatgen
data_HfNb5(ZnIr2)6
_symmetry_space_group_name_H-M   'P 1'
_cell_length_a   4.14510106
_cell_length_b   7.14673500
_cell_length_c   12.46233219
_cell_angle_alpha   90.00000000
_cell_angle_beta   89.98020954
_cell_angle_gamma   90.00000000
_symmetry_Int_Tables_number   1
_chemical_formula_structural   HfNb5(ZnIr2)6
_chemical_formula_sum   'Hf1 Nb5 Zn6 Ir12'
_cell_volume   369.18334442
_cell_formula_units_Z   1
loop_
 _symmetry_equiv_pos_site_id
 _symmetry_equiv_pos_as_xyz
  1  'x, y, z'
loop_
 _atom_site_type_symbol
 _atom_site_label
 _atom_site_symmetry_multiplicity
 _atom_site_fract_x
 _atom_site_fract_y
 _atom_site_fract_z
 _atom_site_occupancy
  Hf  Hf0  1  0.500135  0.500001  0.833322  1
  Nb  Nb1  1  0.999994  0.000000  0.001645  1
  Nb  Nb2  1  0.499897  0.500001  0.166361  1
  Nb  Nb3  1  0.999873  0.000000  0.333384  1
  Nb  Nb4  1  0.499976  0.500001  0.500328  1
  Nb  Nb5  1  0.000127  0.000000  0.664975  1
  Zn  Zn6  1  0.000030  0.500001  0.000802  1
  Zn  Zn7  1  0.499871  0.000000  0.169311  1
  Zn  Zn8  1  0.999857  0.500001  0.333317  1
  Zn  Zn9  1  0.499972  0.000000  0.497352  1
  Zn  Zn10  1  0.000126  0.500001  0.665895  1
  Zn  Zn11  1  0.500146  0.000000  0.833335  1
  Ir  Ir12  1  0.499991  0.245975  0.002565  1
  Ir  Ir13  1  0.499991  0.754025  0.002565  1
  Ir  Ir14  1  0.999897  0.250385  0.167572  1
  Ir  Ir15  1  0.999897  0.749615  0.167572  1
  Ir  Ir16  1  0.499887  0.252801  0.333386  1
  Ir  Ir17  1  0.499887  0.747198  0.333386  1
  Ir  Ir18  1  0.999984  0.250448  0.499128  1
  Ir  Ir19  1  0.999984  0.749551  0.499128  1
  Ir  Ir20  1  0.500115  0.245999  0.664042  1
  Ir  Ir21  1  0.500115  0.754000  0.664042  1
  Ir  Ir22  1  0.000123  0.242652  0.833295  1
  Ir  Ir23  1  0.000123  0.757348  0.833295  1
