# generated using pymatgen
data_YErI18
_symmetry_space_group_name_H-M   'P 1'
_cell_length_a   10.41887618
_cell_length_b   10.43746485
_cell_length_c   10.42580872
_cell_angle_alpha   89.07327148
_cell_angle_beta   89.16765434
_cell_angle_gamma   89.02947385
_symmetry_Int_Tables_number   1
_chemical_formula_structural   YErI18
_chemical_formula_sum   'Y1 Er1 I18'
_cell_volume   1133.34568751
_cell_formula_units_Z   1
loop_
 _symmetry_equiv_pos_site_id
 _symmetry_equiv_pos_as_xyz
  1  'x, y, z'
loop_
 _atom_site_type_symbol
 _atom_site_label
 _atom_site_symmetry_multiplicity
 _atom_site_fract_x
 _atom_site_fract_y
 _atom_site_fract_z
 _atom_site_occupancy
  Y  Y0  1  0.000000  0.000000  0.000000  1
  Er  Er1  1  0.500000  0.500000  0.500000  1
  I  I2  1  0.788695  0.464489  0.505385  1
  I  I3  1  0.504176  0.788057  0.464156  1
  I  I4  1  0.464563  0.505198  0.788514  1
  I  I5  1  0.211305  0.535511  0.494615  1
  I  I6  1  0.495824  0.211943  0.535844  1
  I  I7  1  0.535437  0.494802  0.211486  1
  I  I8  1  0.895704  0.373597  0.751552  1
  I  I9  1  0.750037  0.894585  0.373569  1
  I  I10  1  0.373799  0.750564  0.895774  1
  I  I11  1  0.104296  0.626403  0.248448  1
  I  I12  1  0.249963  0.105415  0.626431  1
  I  I13  1  0.626201  0.249436  0.104226  1
  I  I14  1  0.013798  0.975490  0.708675  1
  I  I15  1  0.708647  0.013846  0.973495  1
  I  I16  1  0.973823  0.709053  0.012149  1
  I  I17  1  0.986202  0.024510  0.291325  1
  I  I18  1  0.291353  0.986154  0.026505  1
  I  I19  1  0.026177  0.290947  0.987851  1
