# generated using pymatgen
data_Pr12Ir3AuBr12
_symmetry_space_group_name_H-M   'P 1'
_cell_length_a   10.65897947
_cell_length_b   10.65898034
_cell_length_c   10.65898027
_cell_angle_alpha   109.81139137
_cell_angle_beta   109.81139036
_cell_angle_gamma   109.81139155
_symmetry_Int_Tables_number   1
_chemical_formula_structural   Pr12Ir3AuBr12
_chemical_formula_sum   'Pr12 Ir3 Au1 Br12'
_cell_volume   920.30608333
_cell_formula_units_Z   1
loop_
 _symmetry_equiv_pos_site_id
 _symmetry_equiv_pos_as_xyz
  1  'x, y, z'
loop_
 _atom_site_type_symbol
 _atom_site_label
 _atom_site_symmetry_multiplicity
 _atom_site_fract_x
 _atom_site_fract_y
 _atom_site_fract_z
 _atom_site_occupancy
  Pr  Pr0  1  0.472131  0.493498  0.230868  1
  Pr  Pr1  1  0.750000  0.233836  0.266164  1
  Pr  Pr2  1  0.750000  0.014346  0.485654  1
  Pr  Pr3  1  0.230868  0.472131  0.493498  1
  Pr  Pr4  1  0.266164  0.750000  0.233836  1
  Pr  Pr5  1  0.027869  0.269132  0.006502  1
  Pr  Pr6  1  0.006502  0.027869  0.269132  1
  Pr  Pr7  1  0.485654  0.750000  0.014346  1
  Pr  Pr8  1  0.493498  0.230868  0.472131  1
  Pr  Pr9  1  0.014346  0.485654  0.750000  1
  Pr  Pr10  1  0.269132  0.006502  0.027869  1
  Pr  Pr11  1  0.233836  0.266164  0.750000  1
  Ir  Ir12  1  0.500737  0.999263  0.250000  1
  Ir  Ir13  1  0.999263  0.250000  0.500737  1
  Ir  Ir14  1  0.250000  0.500737  0.999263  1
  Au  Au15  1  0.250000  0.250000  0.250000  1
  Br  Br16  1  0.250000  0.755330  0.744670  1
  Br  Br17  1  0.506855  0.502594  0.752362  1
  Br  Br18  1  0.993145  0.747638  0.997406  1
  Br  Br19  1  0.744670  0.250000  0.755330  1
  Br  Br20  1  0.997406  0.993145  0.747638  1
  Br  Br21  1  0.250000  0.997729  0.502271  1
  Br  Br22  1  0.752362  0.506855  0.502594  1
  Br  Br23  1  0.502271  0.250000  0.997729  1
  Br  Br24  1  0.755330  0.744670  0.250000  1
  Br  Br25  1  0.747638  0.997406  0.993145  1
  Br  Br26  1  0.997729  0.502271  0.250000  1
  Br  Br27  1  0.502594  0.752362  0.506855  1
