# generated using pymatgen
data_Tb4FeTc7
_symmetry_space_group_name_H-M   'P 1'
_cell_length_a   5.43973859
_cell_length_b   5.26472610
_cell_length_c   8.81334600
_cell_angle_alpha   90.00000000
_cell_angle_beta   90.00000000
_cell_angle_gamma   118.94132969
_symmetry_Int_Tables_number   1
_chemical_formula_structural   Tb4FeTc7
_chemical_formula_sum   'Tb4 Fe1 Tc7'
_cell_volume   220.88188577
_cell_formula_units_Z   1
loop_
 _symmetry_equiv_pos_site_id
 _symmetry_equiv_pos_as_xyz
  1  'x, y, z'
loop_
 _atom_site_type_symbol
 _atom_site_label
 _atom_site_symmetry_multiplicity
 _atom_site_fract_x
 _atom_site_fract_y
 _atom_site_fract_z
 _atom_site_occupancy
  Tb  Tb0  1  0.332757  0.666379  0.438759  1
  Tb  Tb1  1  0.669858  0.334929  0.563552  1
  Tb  Tb2  1  0.669858  0.334929  0.936448  1
  Tb  Tb3  1  0.332757  0.666379  0.061241  1
  Fe  Fe4  1  0.657227  0.828613  0.750000  1
  Tc  Tc5  1  0.005456  0.002728  0.506172  1
  Tc  Tc6  1  0.005456  0.002728  0.993828  1
  Tc  Tc7  1  0.829857  0.171390  0.250000  1
  Tc  Tc8  1  0.829857  0.658466  0.250000  1
  Tc  Tc9  1  0.338154  0.169077  0.250000  1
  Tc  Tc10  1  0.164382  0.824138  0.750000  1
  Tc  Tc11  1  0.164382  0.340244  0.750000  1
