# generated using pymatgen
data_LiZr2BIr3Rh2
_symmetry_space_group_name_H-M   'P 1'
_cell_length_a   5.68892510
_cell_length_b   5.68892516
_cell_length_c   5.80309780
_cell_angle_alpha   59.40757560
_cell_angle_beta   59.40757324
_cell_angle_gamma   61.18362679
_symmetry_Int_Tables_number   1
_chemical_formula_structural   LiZr2BIr3Rh2
_chemical_formula_sum   'Li1 Zr2 B1 Ir3 Rh2'
_cell_volume   132.71488438
_cell_formula_units_Z   1
loop_
 _symmetry_equiv_pos_site_id
 _symmetry_equiv_pos_as_xyz
  1  'x, y, z'
loop_
 _atom_site_type_symbol
 _atom_site_label
 _atom_site_symmetry_multiplicity
 _atom_site_fract_x
 _atom_site_fract_y
 _atom_site_fract_z
 _atom_site_occupancy
  Li  Li0  1  0.726541  0.726541  0.272826  1
  Zr  Zr1  1  0.749421  0.749421  0.749313  1
  Zr  Zr2  1  0.250031  0.250031  0.251863  1
  B  B3  1  0.003697  0.003697  0.996646  1
  Ir  Ir4  1  0.265799  0.265799  0.732778  1
  Ir  Ir5  1  0.745194  0.255126  0.745671  1
  Ir  Ir6  1  0.255126  0.745194  0.745671  1
  Rh  Rh7  1  0.255450  0.748742  0.252616  1
  Rh  Rh8  1  0.748742  0.255450  0.252616  1
