# generated using pymatgen
data_Nb6Al4Ni2CN
_symmetry_space_group_name_H-M   'P 1'
_cell_length_a   8.24194004
_cell_length_b   8.24191652
_cell_length_c   8.26230200
_cell_angle_alpha   59.91955316
_cell_angle_beta   59.91953782
_cell_angle_gamma   59.88149908
_symmetry_Int_Tables_number   1
_chemical_formula_structural   Nb6Al4Ni2CN
_chemical_formula_sum   'Nb12 Al8 Ni4 C2 N2'
_cell_volume   396.02720485
_cell_formula_units_Z   2
loop_
 _symmetry_equiv_pos_site_id
 _symmetry_equiv_pos_as_xyz
  1  'x, y, z'
loop_
 _atom_site_type_symbol
 _atom_site_label
 _atom_site_symmetry_multiplicity
 _atom_site_fract_x
 _atom_site_fract_y
 _atom_site_fract_z
 _atom_site_occupancy
  Nb  Nb0  1  0.813257  0.813257  0.186742  1
  Nb  Nb1  1  0.186482  0.186487  0.813516  1
  Nb  Nb2  1  0.812024  0.189154  0.813550  1
  Nb  Nb3  1  0.189156  0.812024  0.185276  1
  Nb  Nb4  1  0.189154  0.812022  0.813548  1
  Nb  Nb5  1  0.812026  0.189156  0.185272  1
  Nb  Nb6  1  0.436743  0.436743  0.063258  1
  Nb  Nb7  1  0.063518  0.063513  0.436484  1
  Nb  Nb8  1  0.437976  0.060846  0.436450  1
  Nb  Nb9  1  0.060844  0.437976  0.064724  1
  Nb  Nb10  1  0.060846  0.437978  0.436452  1
  Nb  Nb11  1  0.437974  0.060844  0.064728  1
  Al  Al12  1  0.747280  0.417127  0.417790  1
  Al  Al13  1  0.417126  0.747281  0.417791  1
  Al  Al14  1  0.417212  0.417213  0.747508  1
  Al  Al15  1  0.417217  0.417218  0.418059  1
  Al  Al16  1  0.502720  0.832873  0.832210  1
  Al  Al17  1  0.832874  0.502719  0.832209  1
  Al  Al18  1  0.832788  0.832787  0.502492  1
  Al  Al19  1  0.832783  0.832782  0.831941  1
  Ni  Ni20  1  0.125000  0.625000  0.625000  1
  Ni  Ni21  1  0.625000  0.125000  0.625000  1
  Ni  Ni22  1  0.625000  0.625000  0.125000  1
  Ni  Ni23  1  0.625000  0.625000  0.625000  1
  C  C24  1  0.125000  0.125000  0.625000  1
  C  C25  1  0.125000  0.125000  0.125000  1
  N  N26  1  0.625000  0.125000  0.125000  1
  N  N27  1  0.125000  0.625000  0.125000  1
