# generated using pymatgen
data_Y2Er8InSb5
_symmetry_space_group_name_H-M   'P 1'
_cell_length_a   8.91917900
_cell_length_b   8.90175603
_cell_length_c   6.34747900
_cell_angle_alpha   90.00000000
_cell_angle_beta   90.00000000
_cell_angle_gamma   120.06476278
_symmetry_Int_Tables_number   1
_chemical_formula_structural   Y2Er8InSb5
_chemical_formula_sum   'Y2 Er8 In1 Sb5'
_cell_volume   436.16286217
_cell_formula_units_Z   1
loop_
 _symmetry_equiv_pos_site_id
 _symmetry_equiv_pos_as_xyz
  1  'x, y, z'
loop_
 _atom_site_type_symbol
 _atom_site_label
 _atom_site_symmetry_multiplicity
 _atom_site_fract_x
 _atom_site_fract_y
 _atom_site_fract_z
 _atom_site_occupancy
  Y  Y0  1  0.998386  0.244341  0.250000  1
  Y  Y1  1  0.754045  0.755659  0.250000  1
  Er  Er2  1  0.004033  0.759326  0.750000  1
  Er  Er3  1  0.756800  0.000000  0.750000  1
  Er  Er4  1  0.244707  0.240674  0.750000  1
  Er  Er5  1  0.242887  0.000000  0.250000  1
  Er  Er6  1  0.333719  0.668728  0.499345  1
  Er  Er7  1  0.664992  0.331272  0.000655  1
  Er  Er8  1  0.664992  0.331272  0.499345  1
  Er  Er9  1  0.333719  0.668728  0.000655  1
  In  In10  1  0.394717  0.000000  0.750000  1
  Sb  Sb11  1  0.389216  0.390055  0.250000  1
  Sb  Sb12  1  0.999161  0.609945  0.250000  1
  Sb  Sb13  1  0.000813  0.390404  0.750000  1
  Sb  Sb14  1  0.610408  0.609596  0.750000  1
  Sb  Sb15  1  0.607401  0.000000  0.250000  1
