# generated using pymatgen
data_Ca2In5Pd4
_symmetry_space_group_name_H-M   'P 1'
_cell_length_a   4.55494800
_cell_length_b   9.67417192
_cell_length_c   10.94575810
_cell_angle_alpha   77.45870361
_cell_angle_beta   90.00000000
_cell_angle_gamma   90.00000000
_symmetry_Int_Tables_number   1
_chemical_formula_structural   Ca2In5Pd4
_chemical_formula_sum   'Ca4 In10 Pd8'
_cell_volume   470.82018131
_cell_formula_units_Z   2
loop_
 _symmetry_equiv_pos_site_id
 _symmetry_equiv_pos_as_xyz
  1  'x, y, z'
loop_
 _atom_site_type_symbol
 _atom_site_label
 _atom_site_symmetry_multiplicity
 _atom_site_fract_x
 _atom_site_fract_y
 _atom_site_fract_z
 _atom_site_occupancy
  Ca  Ca0  1  0.250000  0.326612  0.700498  1
  Ca  Ca1  1  0.750000  0.673388  0.299502  1
  Ca  Ca2  1  0.250000  0.223936  0.111789  1
  Ca  Ca3  1  0.750000  0.776064  0.888211  1
  In  In4  1  0.750000  0.082561  0.653170  1
  In  In5  1  0.250000  0.833859  0.651128  1
  In  In6  1  0.750000  0.427259  0.923771  1
  In  In7  1  0.750000  0.166141  0.348872  1
  In  In8  1  0.750000  0.592342  0.640251  1
  In  In9  1  0.250000  0.888857  0.071959  1
  In  In10  1  0.250000  0.572741  0.076229  1
  In  In11  1  0.250000  0.917439  0.346830  1
  In  In12  1  0.750000  0.111143  0.928041  1
  In  In13  1  0.250000  0.407658  0.359749  1
  Pd  Pd14  1  0.250000  0.015874  0.814978  1
  Pd  Pd15  1  0.250000  0.122871  0.505251  1
  Pd  Pd16  1  0.750000  0.424170  0.183850  1
  Pd  Pd17  1  0.750000  0.877129  0.494749  1
  Pd  Pd18  1  0.750000  0.984126  0.185022  1
  Pd  Pd19  1  0.750000  0.372041  0.505832  1
  Pd  Pd20  1  0.250000  0.575830  0.816150  1
  Pd  Pd21  1  0.250000  0.627959  0.494168  1
