# generated using pymatgen
data_YErCo9As7Ru3
_symmetry_space_group_name_H-M   'P 1'
_cell_length_a   3.81113400
_cell_length_b   9.37516024
_cell_length_c   9.37516000
_cell_angle_alpha   119.99999916
_cell_angle_beta   90.00000000
_cell_angle_gamma   90.00000000
_symmetry_Int_Tables_number   1
_chemical_formula_structural   YErCo9As7Ru3
_chemical_formula_sum   'Y1 Er1 Co9 As7 Ru3'
_cell_volume   290.09633489
_cell_formula_units_Z   1
loop_
 _symmetry_equiv_pos_site_id
 _symmetry_equiv_pos_as_xyz
  1  'x, y, z'
loop_
 _atom_site_type_symbol
 _atom_site_label
 _atom_site_symmetry_multiplicity
 _atom_site_fract_x
 _atom_site_fract_y
 _atom_site_fract_z
 _atom_site_occupancy
  Y  Y0  1  0.500000  0.333333  0.666667  1
  Er  Er1  1  0.000000  0.666667  0.333333  1
  Co  Co2  1  0.000000  0.569060  0.941052  1
  Co  Co3  1  0.000000  0.371991  0.430940  1
  Co  Co4  1  0.000000  0.058948  0.628009  1
  Co  Co5  1  0.000000  0.875915  0.158357  1
  Co  Co6  1  0.000000  0.282442  0.124085  1
  Co  Co7  1  0.000000  0.841643  0.717558  1
  Co  Co8  1  0.500000  0.946368  0.382970  1
  Co  Co9  1  0.500000  0.436601  0.053632  1
  Co  Co10  1  0.500000  0.617030  0.563399  1
  As  As11  1  0.000000  0.000000  0.000000  1
  As  As12  1  0.500000  0.708176  0.117669  1
  As  As13  1  0.500000  0.409493  0.291824  1
  As  As14  1  0.500000  0.882331  0.590507  1
  As  As15  1  0.000000  0.588019  0.701501  1
  As  As16  1  0.000000  0.113483  0.411981  1
  As  As17  1  0.000000  0.298499  0.886517  1
  Ru  Ru18  1  0.500000  0.780339  0.900171  1
  Ru  Ru19  1  0.500000  0.119832  0.219661  1
  Ru  Ru20  1  0.500000  0.099829  0.880168  1
