# generated using pymatgen
data_La12PrSmRh6
_symmetry_space_group_name_H-M   'P 1'
_cell_length_a   6.59267007
_cell_length_b   10.20169972
_cell_length_c   10.16268138
_cell_angle_alpha   120.12919495
_cell_angle_beta   89.91982455
_cell_angle_gamma   89.99860040
_symmetry_Int_Tables_number   1
_chemical_formula_structural   La12PrSmRh6
_chemical_formula_sum   'La12 Pr1 Sm1 Rh6'
_cell_volume   591.16046194
_cell_formula_units_Z   1
loop_
 _symmetry_equiv_pos_site_id
 _symmetry_equiv_pos_as_xyz
  1  'x, y, z'
loop_
 _atom_site_type_symbol
 _atom_site_label
 _atom_site_symmetry_multiplicity
 _atom_site_fract_x
 _atom_site_fract_y
 _atom_site_fract_z
 _atom_site_occupancy
  La  La0  1  0.972264  0.666101  0.332157  1
  La  La1  1  0.237951  0.125887  0.874349  1
  La  La2  1  0.237926  0.748529  0.874350  1
  La  La3  1  0.239853  0.125305  0.250571  1
  La  La4  1  0.738035  0.874277  0.124586  1
  La  La5  1  0.738011  0.250299  0.124567  1
  La  La6  1  0.737415  0.875918  0.751881  1
  La  La7  1  0.436409  0.538391  0.462438  1
  La  La8  1  0.436416  0.924033  0.462409  1
  La  La9  1  0.437890  0.538061  0.076168  1
  La  La10  1  0.934928  0.461530  0.540409  1
  La  La11  1  0.934947  0.078841  0.540459  1
  Pr  Pr12  1  0.939992  0.460687  0.921387  1
  Sm  Sm13  1  0.472600  0.334441  0.668878  1
  Rh  Rh14  1  0.200914  0.812942  0.187506  1
  Rh  Rh15  1  0.200920  0.374560  0.187546  1
  Rh  Rh16  1  0.196325  0.812339  0.624641  1
  Rh  Rh17  1  0.696774  0.183210  0.810206  1
  Rh  Rh18  1  0.696819  0.627022  0.810217  1
  Rh  Rh19  1  0.699613  0.187625  0.375275  1
