# generated using pymatgen
data_LiY6Er10Cd3(PdPt)2
_symmetry_space_group_name_H-M   'P 1'
_cell_length_a   9.64153466
_cell_length_b   9.64154529
_cell_length_c   9.63294800
_cell_angle_alpha   60.02941710
_cell_angle_beta   60.02952474
_cell_angle_gamma   60.07003712
_symmetry_Int_Tables_number   1
_chemical_formula_structural   LiY6Er10Cd3(PdPt)2
_chemical_formula_sum   'Li1 Y6 Er10 Cd3 Pd2 Pt2'
_cell_volume   633.81118181
_cell_formula_units_Z   1
loop_
 _symmetry_equiv_pos_site_id
 _symmetry_equiv_pos_as_xyz
  1  'x, y, z'
loop_
 _atom_site_type_symbol
 _atom_site_label
 _atom_site_symmetry_multiplicity
 _atom_site_fract_x
 _atom_site_fract_y
 _atom_site_fract_z
 _atom_site_occupancy
  Li  Li0  1  0.572245  0.572246  0.575529  1
  Y  Y1  1  0.937330  0.564012  0.563429  1
  Y  Y2  1  0.564350  0.936544  0.935629  1
  Y  Y3  1  0.564116  0.937154  0.563468  1
  Y  Y4  1  0.936423  0.564439  0.935654  1
  Y  Y5  1  0.564964  0.564934  0.936613  1
  Y  Y6  1  0.936228  0.936335  0.564367  1
  Er  Er7  1  0.354127  0.354130  0.348875  1
  Er  Er8  1  0.351314  0.351352  0.948390  1
  Er  Er9  1  0.356293  0.938700  0.351230  1
  Er  Er10  1  0.938807  0.356279  0.351231  1
  Er  Er11  1  0.809577  0.190456  0.190327  1
  Er  Er12  1  0.187960  0.812576  0.812714  1
  Er  Er13  1  0.190286  0.809643  0.190419  1
  Er  Er14  1  0.812686  0.188007  0.812639  1
  Er  Er15  1  0.191250  0.191427  0.809456  1
  Er  Er16  1  0.813695  0.813593  0.186035  1
  Cd  Cd17  1  0.582008  0.581960  0.255691  1
  Cd  Cd18  1  0.580873  0.255472  0.583363  1
  Cd  Cd19  1  0.255259  0.580867  0.583483  1
  Pd  Pd20  1  0.143603  0.143514  0.146311  1
  Pd  Pd21  1  0.144502  0.144404  0.565541  1
  Pt  Pt22  1  0.141860  0.570171  0.144844  1
  Pt  Pt23  1  0.570241  0.141784  0.144758  1
