# generated using pymatgen
data_Lu2Mn3Co9P7
_symmetry_space_group_name_H-M   'P 1'
_cell_length_a   8.97328300
_cell_length_b   8.97263600
_cell_length_c   3.59040700
_cell_angle_alpha   90.00000000
_cell_angle_beta   90.00000000
_cell_angle_gamma   120.00435746
_symmetry_Int_Tables_number   1
_chemical_formula_structural   Lu2Mn3Co9P7
_chemical_formula_sum   'Lu2 Mn3 Co9 P7'
_cell_volume   250.33793019
_cell_formula_units_Z   1
loop_
 _symmetry_equiv_pos_site_id
 _symmetry_equiv_pos_as_xyz
  1  'x, y, z'
loop_
 _atom_site_type_symbol
 _atom_site_label
 _atom_site_symmetry_multiplicity
 _atom_site_fract_x
 _atom_site_fract_y
 _atom_site_fract_z
 _atom_site_occupancy
  Lu  Lu0  1  0.666746  0.333222  0.000000  1
  Lu  Lu1  1  0.000090  0.000123  0.500000  1
  Mn  Mn2  1  0.556508  0.766525  0.500000  1
  Mn  Mn3  1  0.233310  0.789592  0.500000  1
  Mn  Mn4  1  0.210131  0.444470  0.500000  1
  Co  Co5  1  0.767529  0.728844  0.000000  1
  Co  Co6  1  0.271074  0.038623  0.000000  1
  Co  Co7  1  0.961446  0.232483  0.000000  1
  Co  Co8  1  0.492794  0.944715  0.000000  1
  Co  Co9  1  0.055183  0.547882  0.000000  1
  Co  Co10  1  0.452017  0.507204  0.000000  1
  Co  Co11  1  0.718121  0.104213  0.500000  1
  Co  Co12  1  0.895668  0.613815  0.500000  1
  Co  Co13  1  0.385991  0.281723  0.500000  1
  P  P14  1  0.448089  0.071227  0.500000  1
  P  P15  1  0.928821  0.376903  0.500000  1
  P  P16  1  0.623109  0.551760  0.500000  1
  P  P17  1  0.744705  0.963166  0.000000  1
  P  P18  1  0.036923  0.781594  0.000000  1
  P  P19  1  0.218472  0.255335  0.000000  1
  P  P20  1  0.333271  0.666583  0.000000  1
