# generated using pymatgen
data_DyHf3Si4W
_symmetry_space_group_name_H-M   'P 1'
_cell_length_a   7.05063600
_cell_length_b   7.05063600
_cell_length_c   12.87412300
_cell_angle_alpha   90.00000000
_cell_angle_beta   90.00000000
_cell_angle_gamma   90.00000000
_symmetry_Int_Tables_number   1
_chemical_formula_structural   DyHf3Si4W
_chemical_formula_sum   'Dy4 Hf12 Si16 W4'
_cell_volume   639.99155360
_cell_formula_units_Z   4
loop_
 _symmetry_equiv_pos_site_id
 _symmetry_equiv_pos_as_xyz
  1  'x, y, z'
loop_
 _atom_site_type_symbol
 _atom_site_label
 _atom_site_symmetry_multiplicity
 _atom_site_fract_x
 _atom_site_fract_y
 _atom_site_fract_z
 _atom_site_occupancy
  Dy  Dy0  1  0.495330  0.156747  0.532348  1
  Dy  Dy1  1  0.504670  0.843253  0.032348  1
  Dy  Dy2  1  0.656747  0.004670  0.282348  1
  Dy  Dy3  1  0.343253  0.995330  0.782348  1
  Hf  Hf4  1  0.847078  0.498844  0.968613  1
  Hf  Hf5  1  0.152922  0.501156  0.468613  1
  Hf  Hf6  1  0.998844  0.652922  0.718613  1
  Hf  Hf7  1  0.001156  0.347078  0.218613  1
  Hf  Hf8  1  0.493408  0.355840  0.124927  1
  Hf  Hf9  1  0.506592  0.644160  0.624927  1
  Hf  Hf10  1  0.855840  0.006592  0.874927  1
  Hf  Hf11  1  0.144160  0.993408  0.374927  1
  Hf  Hf12  1  0.645890  0.502930  0.374697  1
  Hf  Hf13  1  0.354110  0.497070  0.874697  1
  Hf  Hf14  1  0.002930  0.854110  0.124697  1
  Hf  Hf15  1  0.997070  0.145890  0.624697  1
  Si  Si16  1  0.803866  0.151147  0.069957  1
  Si  Si17  1  0.196134  0.848853  0.569957  1
  Si  Si18  1  0.651147  0.696134  0.819957  1
  Si  Si19  1  0.348853  0.303866  0.319957  1
  Si  Si20  1  0.864098  0.209625  0.429466  1
  Si  Si21  1  0.135902  0.790375  0.929466  1
  Si  Si22  1  0.709625  0.635902  0.179466  1
  Si  Si23  1  0.290375  0.364098  0.679466  1
  Si  Si24  1  0.552377  0.206236  0.933362  1
  Si  Si25  1  0.447623  0.793764  0.433362  1
  Si  Si26  1  0.706236  0.947623  0.683362  1
  Si  Si27  1  0.293764  0.052377  0.183362  1
  Si  Si28  1  0.805371  0.454992  0.566453  1
  Si  Si29  1  0.194629  0.545008  0.066453  1
  Si  Si30  1  0.954992  0.694629  0.316453  1
  Si  Si31  1  0.045008  0.305371  0.816453  1
  W  W32  1  0.680092  0.330141  0.750176  1
  W  W33  1  0.319908  0.669859  0.250176  1
  W  W34  1  0.830141  0.819908  0.500176  1
  W  W35  1  0.169859  0.180092  0.000176  1
