# generated using pymatgen
data_Ba4Nd7ErSe16
_symmetry_space_group_name_H-M   'P 1'
_cell_length_a   4.32549600
_cell_length_b   13.06422661
_cell_length_c   15.55298243
_cell_angle_alpha   89.85455239
_cell_angle_beta   90.00000000
_cell_angle_gamma   90.00000000
_symmetry_Int_Tables_number   1
_chemical_formula_structural   Ba4Nd7ErSe16
_chemical_formula_sum   'Ba4 Nd7 Er1 Se16'
_cell_volume   878.88469496
_cell_formula_units_Z   1
loop_
 _symmetry_equiv_pos_site_id
 _symmetry_equiv_pos_as_xyz
  1  'x, y, z'
loop_
 _atom_site_type_symbol
 _atom_site_label
 _atom_site_symmetry_multiplicity
 _atom_site_fract_x
 _atom_site_fract_y
 _atom_site_fract_z
 _atom_site_occupancy
  Ba  Ba0  1  0.250000  0.758355  0.337479  1
  Ba  Ba1  1  0.250000  0.257229  0.165387  1
  Ba  Ba2  1  0.750000  0.240454  0.660537  1
  Ba  Ba3  1  0.750000  0.742517  0.836391  1
  Nd  Nd4  1  0.250000  0.428996  0.392111  1
  Nd  Nd5  1  0.250000  0.933587  0.111154  1
  Nd  Nd6  1  0.750000  0.568323  0.608353  1
  Nd  Nd7  1  0.750000  0.068598  0.891816  1
  Nd  Nd8  1  0.250000  0.419839  0.899597  1
  Nd  Nd9  1  0.250000  0.922610  0.598330  1
  Nd  Nd10  1  0.750000  0.579485  0.100714  1
  Er  Er11  1  0.750000  0.078486  0.398679  1
  Se  Se12  1  0.250000  0.206993  0.827131  1
  Se  Se13  1  0.250000  0.708333  0.670176  1
  Se  Se14  1  0.750000  0.793201  0.172609  1
  Se  Se15  1  0.750000  0.286637  0.332002  1
  Se  Se16  1  0.250000  0.129180  0.518851  1
  Se  Se17  1  0.250000  0.629685  0.973690  1
  Se  Se18  1  0.750000  0.875934  0.470284  1
  Se  Se19  1  0.750000  0.369954  0.026838  1
  Se  Se20  1  0.250000  0.522208  0.217708  1
  Se  Se21  1  0.250000  0.026371  0.287916  1
  Se  Se22  1  0.750000  0.476233  0.782826  1
  Se  Se23  1  0.750000  0.977119  0.716264  1
  Se  Se24  1  0.250000  0.414753  0.579957  1
  Se  Se25  1  0.250000  0.915289  0.922369  1
  Se  Se26  1  0.750000  0.583939  0.420423  1
  Se  Se27  1  0.750000  0.085695  0.080410  1
