# generated using pymatgen
data_Na3In(SiP)12
_symmetry_space_group_name_H-M   'P 1'
_cell_length_a   3.50803500
_cell_length_b   9.87997067
_cell_length_c   18.07615164
_cell_angle_alpha   89.45373209
_cell_angle_beta   90.00000000
_cell_angle_gamma   90.00000000
_symmetry_Int_Tables_number   1
_chemical_formula_structural   Na3In(SiP)12
_chemical_formula_sum   'Na3 In1 Si12 P12'
_cell_volume   626.47797913
_cell_formula_units_Z   1
loop_
 _symmetry_equiv_pos_site_id
 _symmetry_equiv_pos_as_xyz
  1  'x, y, z'
loop_
 _atom_site_type_symbol
 _atom_site_label
 _atom_site_symmetry_multiplicity
 _atom_site_fract_x
 _atom_site_fract_y
 _atom_site_fract_z
 _atom_site_occupancy
  Na  Na0  1  0.000000  0.678208  0.697801  1
  Na  Na1  1  0.000000  0.178567  0.801567  1
  Na  Na2  1  0.000000  0.821326  0.196363  1
  In  In3  1  0.000000  0.323531  0.300233  1
  Si  Si4  1  0.500000  0.401603  0.037529  1
  Si  Si5  1  0.500000  0.597427  0.963335  1
  Si  Si6  1  0.500000  0.096499  0.540605  1
  Si  Si7  1  0.500000  0.904974  0.464998  1
  Si  Si8  1  0.000000  0.113194  0.012820  1
  Si  Si9  1  0.000000  0.885216  0.983319  1
  Si  Si10  1  0.000000  0.385445  0.516946  1
  Si  Si11  1  0.000000  0.613445  0.483558  1
  Si  Si12  1  0.000000  0.170891  0.137519  1
  Si  Si13  1  0.000000  0.821739  0.859047  1
  Si  Si14  1  0.000000  0.322187  0.642120  1
  Si  Si15  1  0.000000  0.685624  0.359220  1
  P  P16  1  0.500000  0.099336  0.204404  1
  P  P17  1  0.500000  0.889618  0.791277  1
  P  P18  1  0.500000  0.388780  0.709812  1
  P  P19  1  0.500000  0.624105  0.290024  1
  P  P20  1  0.500000  0.280804  0.461095  1
  P  P21  1  0.500000  0.715690  0.541349  1
  P  P22  1  0.500000  0.219969  0.956996  1
  P  P23  1  0.500000  0.781849  0.041342  1
  P  P24  1  0.000000  0.403373  0.117327  1
  P  P25  1  0.000000  0.591283  0.883849  1
  P  P26  1  0.000000  0.091147  0.620053  1
  P  P27  1  0.000000  0.914168  0.385491  1
