# generated using pymatgen
data_Y19ScCd6TcRu
_symmetry_space_group_name_H-M   'P 1'
_cell_length_a   9.57409500
_cell_length_b   9.57409433
_cell_length_c   9.90810400
_cell_angle_alpha   90.00000000
_cell_angle_beta   90.00000000
_cell_angle_gamma   119.99999887
_symmetry_Int_Tables_number   1
_chemical_formula_structural   Y19ScCd6TcRu
_chemical_formula_sum   'Y19 Sc1 Cd6 Tc1 Ru1'
_cell_volume   786.53241846
_cell_formula_units_Z   1
loop_
 _symmetry_equiv_pos_site_id
 _symmetry_equiv_pos_as_xyz
  1  'x, y, z'
loop_
 _atom_site_type_symbol
 _atom_site_label
 _atom_site_symmetry_multiplicity
 _atom_site_fract_x
 _atom_site_fract_y
 _atom_site_fract_z
 _atom_site_occupancy
  Y  Y0  1  0.000000  0.000000  0.999737  1
  Y  Y1  1  0.208216  0.791784  0.441544  1
  Y  Y2  1  0.208216  0.416433  0.441544  1
  Y  Y3  1  0.583567  0.791784  0.441544  1
  Y  Y4  1  0.791752  0.208248  0.558960  1
  Y  Y5  1  0.791752  0.583502  0.558960  1
  Y  Y6  1  0.416498  0.208248  0.558960  1
  Y  Y7  1  0.789772  0.210228  0.941364  1
  Y  Y8  1  0.789772  0.579542  0.941364  1
  Y  Y9  1  0.420458  0.210228  0.941364  1
  Y  Y10  1  0.210104  0.789896  0.058116  1
  Y  Y11  1  0.210104  0.420207  0.058116  1
  Y  Y12  1  0.579793  0.789896  0.058116  1
  Y  Y13  1  0.540045  0.459955  0.249891  1
  Y  Y14  1  0.540045  0.080090  0.249891  1
  Y  Y15  1  0.919910  0.459955  0.249891  1
  Y  Y16  1  0.458811  0.541189  0.750120  1
  Y  Y17  1  0.458811  0.917623  0.750120  1
  Y  Y18  1  0.082377  0.541189  0.750120  1
  Sc  Sc19  1  0.000000  0.000000  0.500491  1
  Cd  Cd20  1  0.887489  0.112511  0.254601  1
  Cd  Cd21  1  0.887489  0.774979  0.254601  1
  Cd  Cd22  1  0.225021  0.112511  0.254601  1
  Cd  Cd23  1  0.112310  0.887690  0.745381  1
  Cd  Cd24  1  0.112310  0.224620  0.745381  1
  Cd  Cd25  1  0.775380  0.887690  0.745381  1
  Tc  Tc26  1  0.333333  0.666667  0.250389  1
  Ru  Ru27  1  0.666667  0.333333  0.749450  1
