# generated using pymatgen
data_Yb5Pr(Co7C2)2
_symmetry_space_group_name_H-M   'P 1'
_cell_length_a   5.06622300
_cell_length_b   5.06622217
_cell_length_c   13.65469100
_cell_angle_alpha   90.00000000
_cell_angle_beta   90.00000000
_cell_angle_gamma   120.00002498
_symmetry_Int_Tables_number   1
_chemical_formula_structural   Yb5Pr(Co7C2)2
_chemical_formula_sum   'Yb5 Pr1 Co14 C4'
_cell_volume   303.51554061
_cell_formula_units_Z   1
loop_
 _symmetry_equiv_pos_site_id
 _symmetry_equiv_pos_as_xyz
  1  'x, y, z'
loop_
 _atom_site_type_symbol
 _atom_site_label
 _atom_site_symmetry_multiplicity
 _atom_site_fract_x
 _atom_site_fract_y
 _atom_site_fract_z
 _atom_site_occupancy
  Yb  Yb0  1  0.333333  0.666667  0.461071  1
  Yb  Yb1  1  0.333333  0.666667  0.034919  1
  Yb  Yb2  1  0.666667  0.333333  0.756197  1
  Yb  Yb3  1  0.666667  0.333333  0.965662  1
  Yb  Yb4  1  0.333333  0.666667  0.247678  1
  Pr  Pr5  1  0.666667  0.333333  0.535960  1
  Co  Co6  1  0.163647  0.327295  0.659222  1
  Co  Co7  1  0.325793  0.162897  0.340522  1
  Co  Co8  1  0.331448  0.165724  0.152092  1
  Co  Co9  1  0.165321  0.834679  0.847877  1
  Co  Co10  1  0.837103  0.674207  0.340522  1
  Co  Co11  1  0.834276  0.165724  0.152092  1
  Co  Co12  1  0.672705  0.836353  0.659222  1
  Co  Co13  1  0.669357  0.834679  0.847877  1
  Co  Co14  1  0.163647  0.836353  0.659222  1
  Co  Co15  1  0.834276  0.668552  0.152092  1
  Co  Co16  1  0.000000  0.000000  0.001393  1
  Co  Co17  1  0.165321  0.330643  0.847877  1
  Co  Co18  1  0.837103  0.162897  0.340522  1
  Co  Co19  1  0.000000  0.000000  0.497876  1
  C  C20  1  0.666667  0.333333  0.248996  1
  C  C21  1  0.000000  0.000000  0.753528  1
  C  C22  1  0.333333  0.666667  0.751737  1
  C  C23  1  0.000000  0.000000  0.245846  1
