# generated using pymatgen
data_Rb2AsP3Ru4
_symmetry_space_group_name_H-M   'P 1'
_cell_length_a   7.27166621
_cell_length_b   7.27166542
_cell_length_c   5.79474700
_cell_angle_alpha   90.00000000
_cell_angle_beta   90.00000000
_cell_angle_gamma   133.02033680
_symmetry_Int_Tables_number   1
_chemical_formula_structural   Rb2AsP3Ru4
_chemical_formula_sum   'Rb2 As1 P3 Ru4'
_cell_volume   224.01957453
_cell_formula_units_Z   1
loop_
 _symmetry_equiv_pos_site_id
 _symmetry_equiv_pos_as_xyz
  1  'x, y, z'
loop_
 _atom_site_type_symbol
 _atom_site_label
 _atom_site_symmetry_multiplicity
 _atom_site_fract_x
 _atom_site_fract_y
 _atom_site_fract_z
 _atom_site_occupancy
  Rb  Rb0  1  0.497301  0.502699  0.500000  1
  Rb  Rb1  1  0.996644  0.003356  0.000000  1
  As  As2  1  0.152908  0.847092  0.500000  1
  P  P3  1  0.672370  0.327630  0.000000  1
  P  P4  1  0.331103  0.668897  0.000000  1
  P  P5  1  0.830944  0.169056  0.500000  1
  Ru  Ru6  1  0.502967  0.000650  0.248274  1
  Ru  Ru7  1  0.999350  0.497033  0.751726  1
  Ru  Ru8  1  0.999350  0.497033  0.248274  1
  Ru  Ru9  1  0.502967  0.000650  0.751726  1
