# generated using pymatgen
data_YbIr4Pb3O14
_symmetry_space_group_name_H-M   'P 1'
_cell_length_a   7.32463340
_cell_length_b   7.29977675
_cell_length_c   7.29977700
_cell_angle_alpha   60.00000340
_cell_angle_beta   60.11219839
_cell_angle_gamma   60.11219745
_symmetry_Int_Tables_number   1
_chemical_formula_structural   YbIr4Pb3O14
_chemical_formula_sum   'Yb1 Ir4 Pb3 O14'
_cell_volume   276.45503698
_cell_formula_units_Z   1
loop_
 _symmetry_equiv_pos_site_id
 _symmetry_equiv_pos_as_xyz
  1  'x, y, z'
loop_
 _atom_site_type_symbol
 _atom_site_label
 _atom_site_symmetry_multiplicity
 _atom_site_fract_x
 _atom_site_fract_y
 _atom_site_fract_z
 _atom_site_occupancy
  Yb  Yb0  1  0.625000  0.125000  0.125000  1
  Ir  Ir1  1  0.125000  0.625000  0.625000  1
  Ir  Ir2  1  0.625000  0.125000  0.625000  1
  Ir  Ir3  1  0.625000  0.625000  0.125000  1
  Ir  Ir4  1  0.625000  0.625000  0.625000  1
  Pb  Pb5  1  0.125000  0.625000  0.125000  1
  Pb  Pb6  1  0.125000  0.125000  0.625000  1
  Pb  Pb7  1  0.125000  0.125000  0.125000  1
  O  O8  1  0.707142  0.698659  0.297100  1
  O  O9  1  0.294342  0.295731  0.704964  1
  O  O10  1  0.707142  0.297100  0.698659  1
  O  O11  1  0.294342  0.704964  0.295731  1
  O  O12  1  0.294342  0.704964  0.704964  1
  O  O13  1  0.707142  0.297100  0.297100  1
  O  O14  1  0.542858  0.551341  0.952900  1
  O  O15  1  0.955658  0.954269  0.545036  1
  O  O16  1  0.542858  0.952900  0.551341  1
  O  O17  1  0.955658  0.545036  0.954269  1
  O  O18  1  0.955658  0.545036  0.545036  1
  O  O19  1  0.542858  0.952900  0.952900  1
  O  O20  1  0.256241  0.247920  0.247920  1
  O  O21  1  0.993759  0.002080  0.002080  1
