# generated using pymatgen
data_Yb15Th5Pt16
_symmetry_space_group_name_H-M   'P 1'
_cell_length_a   7.60082380
_cell_length_b   7.68668572
_cell_length_c   14.79201365
_cell_angle_alpha   90.04564233
_cell_angle_beta   90.12721725
_cell_angle_gamma   89.94547974
_symmetry_Int_Tables_number   1
_chemical_formula_structural   Yb15Th5Pt16
_chemical_formula_sum   'Yb15 Th5 Pt16'
_cell_volume   864.22273021
_cell_formula_units_Z   1
loop_
 _symmetry_equiv_pos_site_id
 _symmetry_equiv_pos_as_xyz
  1  'x, y, z'
loop_
 _atom_site_type_symbol
 _atom_site_label
 _atom_site_symmetry_multiplicity
 _atom_site_fract_x
 _atom_site_fract_y
 _atom_site_fract_z
 _atom_site_occupancy
  Yb  Yb0  1  0.851353  0.664908  0.120303  1
  Yb  Yb1  1  0.649786  0.165214  0.878546  1
  Yb  Yb2  1  0.146971  0.335124  0.622387  1
  Yb  Yb3  1  0.493326  0.673294  0.600114  1
  Yb  Yb4  1  0.991274  0.822847  0.905003  1
  Yb  Yb5  1  0.510401  0.321821  0.092335  1
  Yb  Yb6  1  0.002484  0.182193  0.406027  1
  Yb  Yb7  1  0.502994  0.320860  0.402943  1
  Yb  Yb8  1  0.998140  0.184696  0.094075  1
  Yb  Yb9  1  0.499567  0.682667  0.901305  1
  Yb  Yb10  1  0.997832  0.815134  0.600098  1
  Yb  Yb11  1  0.808329  0.514512  0.750726  1
  Yb  Yb12  1  0.308577  0.985692  0.750706  1
  Yb  Yb13  1  0.188810  0.479250  0.246498  1
  Yb  Yb14  1  0.697586  0.018134  0.247269  1
  Th  Th15  1  0.650230  0.159800  0.623589  1
  Th  Th16  1  0.148538  0.340635  0.876548  1
  Th  Th17  1  0.350677  0.840322  0.120428  1
  Th  Th18  1  0.851868  0.659000  0.377195  1
  Th  Th19  1  0.349626  0.836806  0.379745  1
  Pt  Pt20  1  0.691472  0.958457  0.458245  1
  Pt  Pt21  1  0.195569  0.538296  0.040702  1
  Pt  Pt22  1  0.304474  0.040406  0.958647  1
  Pt  Pt23  1  0.806275  0.458453  0.540760  1
  Pt  Pt24  1  0.318012  0.030830  0.543890  1
  Pt  Pt25  1  0.826753  0.465739  0.955035  1
  Pt  Pt26  1  0.674219  0.966683  0.045136  1
  Pt  Pt27  1  0.180147  0.539621  0.456161  1
  Pt  Pt28  1  0.447305  0.375344  0.745961  1
  Pt  Pt29  1  0.948108  0.120616  0.753064  1
  Pt  Pt30  1  0.547937  0.623264  0.250878  1
  Pt  Pt31  1  0.054830  0.878483  0.254156  1
  Pt  Pt32  1  0.679621  0.866382  0.746486  1
  Pt  Pt33  1  0.179939  0.633213  0.754736  1
  Pt  Pt34  1  0.328628  0.131220  0.248262  1
  Pt  Pt35  1  0.818338  0.370083  0.252040  1
