# generated using pymatgen
data_KTb(AgO2)4
_symmetry_space_group_name_H-M   'P 1'
_cell_length_a   6.71398114
_cell_length_b   6.71398149
_cell_length_c   6.71398100
_cell_angle_alpha   124.90702583
_cell_angle_beta   124.90702791
_cell_angle_gamma   81.69208678
_symmetry_Int_Tables_number   1
_chemical_formula_structural   KTb(AgO2)4
_chemical_formula_sum   'K1 Tb1 Ag4 O8'
_cell_volume   195.86440833
_cell_formula_units_Z   1
loop_
 _symmetry_equiv_pos_site_id
 _symmetry_equiv_pos_as_xyz
  1  'x, y, z'
loop_
 _atom_site_type_symbol
 _atom_site_label
 _atom_site_symmetry_multiplicity
 _atom_site_fract_x
 _atom_site_fract_y
 _atom_site_fract_z
 _atom_site_occupancy
  K  K0  1  0.000000  0.000000  0.000000  1
  Tb  Tb1  1  0.750000  0.250000  0.500000  1
  Ag  Ag2  1  0.870595  0.605727  0.226762  1
  Ag  Ag3  1  0.378966  0.643833  0.773238  1
  Ag  Ag4  1  0.356167  0.129405  0.735131  1
  Ag  Ag5  1  0.394273  0.621034  0.264869  1
  O  O6  1  0.443342  0.853956  0.182306  1
  O  O7  1  0.671651  0.261039  0.817694  1
  O  O8  1  0.385524  0.425364  0.405199  1
  O  O9  1  0.020165  0.980326  0.594801  1
  O  O10  1  0.019674  0.614476  0.039840  1
  O  O11  1  0.574636  0.979835  0.960160  1
  O  O12  1  0.146044  0.328349  0.589387  1
  O  O13  1  0.738961  0.556658  0.410613  1
