# generated using pymatgen
data_FeAsI8
_symmetry_space_group_name_H-M   'P 1'
_cell_length_a   11.63321300
_cell_length_b   11.22301200
_cell_length_c   16.44081900
_cell_angle_alpha   90.00000000
_cell_angle_beta   90.00000000
_cell_angle_gamma   90.00000000
_symmetry_Int_Tables_number   1
_chemical_formula_structural   FeAsI8
_chemical_formula_sum   'Fe4 As4 I32'
_cell_volume   2146.50821715
_cell_formula_units_Z   4
loop_
 _symmetry_equiv_pos_site_id
 _symmetry_equiv_pos_as_xyz
  1  'x, y, z'
loop_
 _atom_site_type_symbol
 _atom_site_label
 _atom_site_symmetry_multiplicity
 _atom_site_fract_x
 _atom_site_fract_y
 _atom_site_fract_z
 _atom_site_occupancy
  Fe  Fe0  1  0.429496  0.506849  0.164305  1
  Fe  Fe1  1  0.929496  0.993151  0.164305  1
  Fe  Fe2  1  0.070504  0.006849  0.664305  1
  Fe  Fe3  1  0.570503  0.493151  0.664305  1
  As  As4  1  0.037687  0.514118  0.448688  1
  As  As5  1  0.537686  0.985883  0.448688  1
  As  As6  1  0.462314  0.014117  0.948687  1
  As  As7  1  0.962314  0.485883  0.948687  1
  I  I8  1  0.966394  0.046257  0.014118  1
  I  I9  1  0.466394  0.453743  0.014118  1
  I  I10  1  0.594044  0.064123  0.073272  1
  I  I11  1  0.094045  0.435878  0.073272  1
  I  I12  1  0.352744  0.721622  0.170230  1
  I  I13  1  0.852744  0.778378  0.170230  1
  I  I14  1  0.772417  0.136105  0.215954  1
  I  I15  1  0.272418  0.363894  0.215954  1
  I  I16  1  0.106004  0.016766  0.249682  1
  I  I17  1  0.606005  0.483234  0.249682  1
  I  I18  1  0.967018  0.637414  0.323351  1
  I  I19  1  0.467019  0.862587  0.323351  1
  I  I20  1  0.508790  0.206513  0.413598  1
  I  I21  1  0.008790  0.293487  0.413598  1
  I  I22  1  0.256795  0.536038  0.480271  1
  I  I23  1  0.756794  0.963963  0.480271  1
  I  I24  1  0.533606  0.546257  0.514118  1
  I  I25  1  0.033606  0.953743  0.514118  1
  I  I26  1  0.905956  0.564123  0.573272  1
  I  I27  1  0.405955  0.935877  0.573272  1
  I  I28  1  0.147255  0.221622  0.670229  1
  I  I29  1  0.647255  0.278379  0.670229  1
  I  I30  1  0.727582  0.636106  0.715954  1
  I  I31  1  0.227582  0.863894  0.715954  1
  I  I32  1  0.393996  0.516766  0.749682  1
  I  I33  1  0.893996  0.983235  0.749682  1
  I  I34  1  0.532983  0.137413  0.823352  1
  I  I35  1  0.032982  0.362587  0.823352  1
  I  I36  1  0.991211  0.706514  0.913598  1
  I  I37  1  0.491211  0.793487  0.913598  1
  I  I38  1  0.243205  0.036037  0.980272  1
  I  I39  1  0.743206  0.463963  0.980272  1
