# generated using pymatgen
data_U2InSnI12
_symmetry_space_group_name_H-M   'P 1'
_cell_length_a   8.05409369
_cell_length_b   8.05409384
_cell_length_c   14.94261500
_cell_angle_alpha   83.92570365
_cell_angle_beta   83.92569639
_cell_angle_gamma   119.82911131
_symmetry_Int_Tables_number   1
_chemical_formula_structural   U2InSnI12
_chemical_formula_sum   'U2 In1 Sn1 I12'
_cell_volume   821.93545230
_cell_formula_units_Z   1
loop_
 _symmetry_equiv_pos_site_id
 _symmetry_equiv_pos_as_xyz
  1  'x, y, z'
loop_
 _atom_site_type_symbol
 _atom_site_label
 _atom_site_symmetry_multiplicity
 _atom_site_fract_x
 _atom_site_fract_y
 _atom_site_fract_z
 _atom_site_occupancy
  U  U0  1  0.418663  0.581337  0.250000  1
  U  U1  1  0.581548  0.418452  0.750000  1
  In  In2  1  0.084868  0.915132  0.250000  1
  Sn  Sn3  1  0.916448  0.083552  0.750000  1
  I  I4  1  0.308589  0.451393  0.634570  1
  I  I5  1  0.460420  0.325872  0.134244  1
  I  I6  1  0.216183  0.067982  0.867803  1
  I  I7  1  0.078716  0.237164  0.367303  1
  I  I8  1  0.170533  0.632200  0.132580  1
  I  I9  1  0.641277  0.162633  0.632765  1
  I  I10  1  0.367800  0.829467  0.367420  1
  I  I11  1  0.837367  0.358723  0.867235  1
  I  I12  1  0.762836  0.921284  0.132697  1
  I  I13  1  0.932018  0.783817  0.632197  1
  I  I14  1  0.548607  0.691411  0.865430  1
  I  I15  1  0.674128  0.539580  0.365756  1
