# generated using pymatgen
data_Y20Cd6IrPd
_symmetry_space_group_name_H-M   'P 1'
_cell_length_a   9.74573800
_cell_length_b   9.74573741
_cell_length_c   9.79752100
_cell_angle_alpha   90.00000000
_cell_angle_beta   90.00000000
_cell_angle_gamma   120.00000202
_symmetry_Int_Tables_number   1
_chemical_formula_structural   Y20Cd6IrPd
_chemical_formula_sum   'Y20 Cd6 Ir1 Pd1'
_cell_volume   805.89092083
_cell_formula_units_Z   1
loop_
 _symmetry_equiv_pos_site_id
 _symmetry_equiv_pos_as_xyz
  1  'x, y, z'
loop_
 _atom_site_type_symbol
 _atom_site_label
 _atom_site_symmetry_multiplicity
 _atom_site_fract_x
 _atom_site_fract_y
 _atom_site_fract_z
 _atom_site_occupancy
  Y  Y0  1  0.209043  0.790957  0.939251  1
  Y  Y1  1  0.209043  0.418087  0.939251  1
  Y  Y2  1  0.581913  0.790957  0.939251  1
  Y  Y3  1  0.792557  0.207443  0.058556  1
  Y  Y4  1  0.792557  0.585115  0.058556  1
  Y  Y5  1  0.414885  0.207443  0.058556  1
  Y  Y6  1  0.792557  0.207443  0.441444  1
  Y  Y7  1  0.792557  0.585115  0.441444  1
  Y  Y8  1  0.414885  0.207443  0.441444  1
  Y  Y9  1  0.209043  0.790957  0.560749  1
  Y  Y10  1  0.209043  0.418087  0.560749  1
  Y  Y11  1  0.581913  0.790957  0.560749  1
  Y  Y12  1  0.541681  0.458319  0.750000  1
  Y  Y13  1  0.541681  0.083362  0.750000  1
  Y  Y14  1  0.916638  0.458319  0.750000  1
  Y  Y15  1  0.456847  0.543153  0.250000  1
  Y  Y16  1  0.456847  0.913695  0.250000  1
  Y  Y17  1  0.086305  0.543153  0.250000  1
  Y  Y18  1  0.000000  0.000000  0.000182  1
  Y  Y19  1  0.000000  0.000000  0.499818  1
  Cd  Cd20  1  0.884279  0.115721  0.750000  1
  Cd  Cd21  1  0.884279  0.768558  0.750000  1
  Cd  Cd22  1  0.231442  0.115721  0.750000  1
  Cd  Cd23  1  0.115748  0.884252  0.250000  1
  Cd  Cd24  1  0.115748  0.231495  0.250000  1
  Cd  Cd25  1  0.768505  0.884252  0.250000  1
  Ir  Ir26  1  0.333333  0.666667  0.750000  1
  Pd  Pd27  1  0.666667  0.333333  0.250000  1
