# generated using pymatgen
data_Li8Nd8InSb7
_symmetry_space_group_name_H-M   'P 1'
_cell_length_a   9.59679800
_cell_length_b   9.59679898
_cell_length_c   7.41373100
_cell_angle_alpha   90.00000000
_cell_angle_beta   90.00000000
_cell_angle_gamma   119.99999661
_symmetry_Int_Tables_number   1
_chemical_formula_structural   Li8Nd8InSb7
_chemical_formula_sum   'Li8 Nd8 In1 Sb7'
_cell_volume   591.31680585
_cell_formula_units_Z   1
loop_
 _symmetry_equiv_pos_site_id
 _symmetry_equiv_pos_as_xyz
  1  'x, y, z'
loop_
 _atom_site_type_symbol
 _atom_site_label
 _atom_site_symmetry_multiplicity
 _atom_site_fract_x
 _atom_site_fract_y
 _atom_site_fract_z
 _atom_site_occupancy
  Li  Li0  1  0.166865  0.333731  0.268505  1
  Li  Li1  1  0.166865  0.833135  0.268505  1
  Li  Li2  1  0.666269  0.833135  0.268505  1
  Li  Li3  1  0.833124  0.666248  0.769118  1
  Li  Li4  1  0.833124  0.166876  0.769118  1
  Li  Li5  1  0.333752  0.166876  0.769118  1
  Li  Li6  1  0.333333  0.666667  0.692927  1
  Li  Li7  1  0.666667  0.333333  0.197022  1
  Nd  Nd8  1  0.508884  0.017770  0.496941  1
  Nd  Nd9  1  0.508884  0.491116  0.496941  1
  Nd  Nd10  1  0.982230  0.491116  0.496941  1
  Nd  Nd11  1  0.494035  0.988069  0.993446  1
  Nd  Nd12  1  0.494035  0.505965  0.993446  1
  Nd  Nd13  1  0.011931  0.505965  0.993446  1
  Nd  Nd14  1  0.000000  0.000000  0.502836  1
  Nd  Nd15  1  0.000000  0.000000  0.000534  1
  In  In16  1  0.666667  0.333333  0.760382  1
  Sb  Sb17  1  0.166341  0.332682  0.741015  1
  Sb  Sb18  1  0.166341  0.833659  0.741015  1
  Sb  Sb19  1  0.667318  0.833659  0.741015  1
  Sb  Sb20  1  0.833284  0.666568  0.240247  1
  Sb  Sb21  1  0.833284  0.166716  0.240247  1
  Sb  Sb22  1  0.333432  0.166716  0.240247  1
  Sb  Sb23  1  0.333333  0.666667  0.260457  1
