# generated using pymatgen
data_Cr21IrRuC6
_symmetry_space_group_name_H-M   'P 1'
_cell_length_a   7.49954656
_cell_length_b   7.49954561
_cell_length_c   7.49954700
_cell_angle_alpha   59.99999830
_cell_angle_beta   60.00000247
_cell_angle_gamma   59.99999492
_symmetry_Int_Tables_number   1
_chemical_formula_structural   Cr21IrRuC6
_chemical_formula_sum   'Cr21 Ir1 Ru1 C6'
_cell_volume   298.25654035
_cell_formula_units_Z   1
loop_
 _symmetry_equiv_pos_site_id
 _symmetry_equiv_pos_as_xyz
  1  'x, y, z'
loop_
 _atom_site_type_symbol
 _atom_site_label
 _atom_site_symmetry_multiplicity
 _atom_site_fract_x
 _atom_site_fract_y
 _atom_site_fract_z
 _atom_site_occupancy
  Cr  Cr0  1  0.000000  0.000000  0.000000  1
  Cr  Cr1  1  0.614595  0.614595  0.156215  1
  Cr  Cr2  1  0.614595  0.156215  0.614595  1
  Cr  Cr3  1  0.156215  0.614595  0.614595  1
  Cr  Cr4  1  0.614595  0.614595  0.614595  1
  Cr  Cr5  1  0.382832  0.382832  0.851506  1
  Cr  Cr6  1  0.382832  0.851506  0.382832  1
  Cr  Cr7  1  0.851506  0.382832  0.382832  1
  Cr  Cr8  1  0.382832  0.382832  0.382832  1
  Cr  Cr9  1  0.999747  0.999747  0.337694  1
  Cr  Cr10  1  0.662812  0.999747  0.337694  1
  Cr  Cr11  1  0.999747  0.662812  0.337694  1
  Cr  Cr12  1  0.662812  0.337694  0.999747  1
  Cr  Cr13  1  0.999747  0.337694  0.999747  1
  Cr  Cr14  1  0.999747  0.337694  0.662812  1
  Cr  Cr15  1  0.337694  0.662812  0.999747  1
  Cr  Cr16  1  0.337694  0.999747  0.662812  1
  Cr  Cr17  1  0.337694  0.999747  0.999747  1
  Cr  Cr18  1  0.999747  0.999747  0.662812  1
  Cr  Cr19  1  0.999747  0.662812  0.999747  1
  Cr  Cr20  1  0.662812  0.999747  0.999747  1
  Ir  Ir21  1  0.750000  0.750000  0.750000  1
  Ru  Ru22  1  0.250000  0.250000  0.250000  1
  C  C23  1  0.723896  0.723896  0.276104  1
  C  C24  1  0.276104  0.723896  0.276104  1
  C  C25  1  0.723896  0.276104  0.276104  1
  C  C26  1  0.276104  0.276104  0.723896  1
  C  C27  1  0.723896  0.276104  0.723896  1
  C  C28  1  0.276104  0.723896  0.723896  1
