# generated using pymatgen
data_Ac2AuO5
_symmetry_space_group_name_H-M   'P 1'
_cell_length_a   9.10225200
_cell_length_b   9.10225200
_cell_length_c   6.35277300
_cell_angle_alpha   90.00000000
_cell_angle_beta   90.00000000
_cell_angle_gamma   90.00000000
_symmetry_Int_Tables_number   1
_chemical_formula_structural   Ac2AuO5
_chemical_formula_sum   'Ac8 Au4 O20'
_cell_volume   526.33354164
_cell_formula_units_Z   4
loop_
 _symmetry_equiv_pos_site_id
 _symmetry_equiv_pos_as_xyz
  1  'x, y, z'
loop_
 _atom_site_type_symbol
 _atom_site_label
 _atom_site_symmetry_multiplicity
 _atom_site_fract_x
 _atom_site_fract_y
 _atom_site_fract_z
 _atom_site_occupancy
  Ac  Ac0  1  0.349839  0.650161  0.250000  1
  Ac  Ac1  1  0.849839  0.150161  0.750000  1
  Ac  Ac2  1  0.650161  0.650161  0.750000  1
  Ac  Ac3  1  0.650161  0.349839  0.250000  1
  Ac  Ac4  1  0.849839  0.849839  0.250000  1
  Ac  Ac5  1  0.150161  0.849839  0.750000  1
  Ac  Ac6  1  0.349839  0.349839  0.750000  1
  Ac  Ac7  1  0.150161  0.150161  0.250000  1
  Au  Au8  1  0.500000  0.000000  0.401787  1
  Au  Au9  1  0.500000  0.000000  0.901787  1
  Au  Au10  1  0.000000  0.500000  0.098213  1
  Au  Au11  1  0.000000  0.500000  0.598213  1
  O  O12  1  0.084643  0.295597  0.603156  1
  O  O13  1  0.915357  0.295597  0.103156  1
  O  O14  1  0.915357  0.704403  0.603156  1
  O  O15  1  0.704403  0.915357  0.896844  1
  O  O16  1  0.204403  0.584643  0.603156  1
  O  O17  1  0.415357  0.795597  0.896844  1
  O  O18  1  0.415357  0.204403  0.396844  1
  O  O19  1  0.795597  0.584643  0.103156  1
  O  O20  1  0.295597  0.915357  0.396844  1
  O  O21  1  0.584643  0.204403  0.896844  1
  O  O22  1  0.500000  0.500000  0.000000  1
  O  O23  1  0.500000  0.500000  0.500000  1
  O  O24  1  0.795597  0.415357  0.603156  1
  O  O25  1  0.084643  0.704403  0.103156  1
  O  O26  1  0.295597  0.084643  0.896844  1
  O  O27  1  0.584643  0.795597  0.396844  1
  O  O28  1  0.204403  0.415357  0.103156  1
  O  O29  1  0.000000  0.000000  0.000000  1
  O  O30  1  0.000000  0.000000  0.500000  1
  O  O31  1  0.704403  0.084643  0.396844  1
