# generated using pymatgen
data_Fe2Co3Si7(Mo6C)2
_symmetry_space_group_name_H-M   'P 1'
_cell_length_a   7.75232214
_cell_length_b   7.75232243
_cell_length_c   7.75480818
_cell_angle_alpha   60.22935028
_cell_angle_beta   60.22934978
_cell_angle_gamma   60.18875702
_symmetry_Int_Tables_number   1
_chemical_formula_structural   Fe2Co3Si7(Mo6C)2
_chemical_formula_sum   'Fe2 Co3 Si7 Mo12 C2'
_cell_volume   331.15898921
_cell_formula_units_Z   1
loop_
 _symmetry_equiv_pos_site_id
 _symmetry_equiv_pos_as_xyz
  1  'x, y, z'
loop_
 _atom_site_type_symbol
 _atom_site_label
 _atom_site_symmetry_multiplicity
 _atom_site_fract_x
 _atom_site_fract_y
 _atom_site_fract_z
 _atom_site_occupancy
  Fe  Fe0  1  0.832354  0.832354  0.835969  1
  Fe  Fe1  1  0.619086  0.619086  0.135595  1
  Co  Co2  1  0.619309  0.137417  0.619794  1
  Co  Co3  1  0.137417  0.619309  0.619794  1
  Co  Co4  1  0.627035  0.627035  0.626665  1
  Si  Si5  1  0.415678  0.415678  0.755079  1
  Si  Si6  1  0.415899  0.754364  0.414559  1
  Si  Si7  1  0.754364  0.415899  0.414559  1
  Si  Si8  1  0.412778  0.412778  0.415228  1
  Si  Si9  1  0.836561  0.836561  0.503317  1
  Si  Si10  1  0.836957  0.503179  0.835316  1
  Si  Si11  1  0.503179  0.836957  0.835316  1
  Mo  Mo12  1  0.054820  0.054820  0.444850  1
  Mo  Mo13  1  0.443279  0.055135  0.441809  1
  Mo  Mo14  1  0.055135  0.443279  0.441809  1
  Mo  Mo15  1  0.443550  0.443550  0.054257  1
  Mo  Mo16  1  0.054563  0.446494  0.053264  1
  Mo  Mo17  1  0.446494  0.054563  0.053264  1
  Mo  Mo18  1  0.190892  0.190892  0.810200  1
  Mo  Mo19  1  0.808166  0.185902  0.808654  1
  Mo  Mo20  1  0.185902  0.808166  0.808654  1
  Mo  Mo21  1  0.807867  0.807867  0.186516  1
  Mo  Mo22  1  0.192207  0.806387  0.192404  1
  Mo  Mo23  1  0.806387  0.192207  0.192404  1
  C  C24  1  0.250069  0.250069  0.248973  1
  C  C25  1  0.000047  0.000047  0.001750  1
