# generated using pymatgen
data_Cs2Li3FeO4
_symmetry_space_group_name_H-M   'P 1'
_cell_length_a   5.11259052
_cell_length_b   8.28571266
_cell_length_c   8.28568311
_cell_angle_alpha   93.31810830
_cell_angle_beta   107.97241992
_cell_angle_gamma   107.97248743
_symmetry_Int_Tables_number   1
_chemical_formula_structural   Cs2Li3FeO4
_chemical_formula_sum   'Cs4 Li6 Fe2 O8'
_cell_volume   312.99704387
_cell_formula_units_Z   2
loop_
 _symmetry_equiv_pos_site_id
 _symmetry_equiv_pos_as_xyz
  1  'x, y, z'
loop_
 _atom_site_type_symbol
 _atom_site_label
 _atom_site_symmetry_multiplicity
 _atom_site_fract_x
 _atom_site_fract_y
 _atom_site_fract_z
 _atom_site_occupancy
  Cs  Cs0  1  0.390142  0.128107  0.128107  1
  Cs  Cs1  1  0.133904  0.371883  0.371882  1
  Cs  Cs2  1  0.866096  0.628117  0.628118  1
  Cs  Cs3  1  0.609859  0.871893  0.871893  1
  Li  Li4  1  0.259209  0.509195  0.009213  1
  Li  Li5  1  0.500000  0.750000  0.249998  1
  Li  Li6  1  0.740790  0.990785  0.490804  1
  Li  Li7  1  0.259210  0.009214  0.509195  1
  Li  Li8  1  0.500000  0.249999  0.750001  1
  Li  Li9  1  0.740791  0.490804  0.990786  1
  Fe  Fe10  1  0.000019  0.750052  0.249966  1
  Fe  Fe11  1  0.999981  0.249947  0.750033  1
  O  O12  1  0.116962  0.705102  0.057448  1
  O  O13  1  0.645532  0.557445  0.205098  1
  O  O14  1  0.883044  0.942556  0.294901  1
  O  O15  1  0.354475  0.794903  0.442558  1
  O  O16  1  0.645525  0.205098  0.557443  1
  O  O17  1  0.116956  0.057445  0.705100  1
  O  O18  1  0.354468  0.442556  0.794903  1
  O  O19  1  0.883038  0.294899  0.942553  1
