# generated using pymatgen
data_Li2Dy7Y(Sc5Si8)2
_symmetry_space_group_name_H-M   'P 1'
_cell_length_a   7.00677443
_cell_length_b   7.40419824
_cell_length_c   14.01531704
_cell_angle_alpha   90.00157413
_cell_angle_beta   90.00033192
_cell_angle_gamma   89.96535768
_symmetry_Int_Tables_number   1
_chemical_formula_structural   Li2Dy7Y(Sc5Si8)2
_chemical_formula_sum   'Li2 Dy7 Y1 Sc10 Si16'
_cell_volume   727.10816499
_cell_formula_units_Z   1
loop_
 _symmetry_equiv_pos_site_id
 _symmetry_equiv_pos_as_xyz
  1  'x, y, z'
loop_
 _atom_site_type_symbol
 _atom_site_label
 _atom_site_symmetry_multiplicity
 _atom_site_fract_x
 _atom_site_fract_y
 _atom_site_fract_z
 _atom_site_occupancy
  Li  Li0  1  0.158983  0.504077  0.750007  1
  Li  Li1  1  0.841079  0.495930  0.250021  1
  Dy  Dy2  1  0.989880  0.816531  0.901134  1
  Dy  Dy3  1  0.484157  0.674331  0.901985  1
  Dy  Dy4  1  0.989882  0.816583  0.598754  1
  Dy  Dy5  1  0.515775  0.325715  0.097999  1
  Dy  Dy6  1  0.010177  0.183407  0.401302  1
  Dy  Dy7  1  0.515900  0.325661  0.402076  1
  Dy  Dy8  1  0.484145  0.674319  0.598003  1
  Y  Y9  1  0.009867  0.183619  0.098700  1
  Sc  Sc10  1  0.340445  0.002202  0.249992  1
  Sc  Sc11  1  0.659541  0.997743  0.750049  1
  Sc  Sc12  1  0.326911  0.182167  0.625899  1
  Sc  Sc13  1  0.673021  0.817716  0.374172  1
  Sc  Sc14  1  0.166173  0.674874  0.373350  1
  Sc  Sc15  1  0.672981  0.817738  0.125887  1
  Sc  Sc16  1  0.833925  0.325198  0.626736  1
  Sc  Sc17  1  0.326856  0.182205  0.874144  1
  Sc  Sc18  1  0.833902  0.325193  0.873225  1
  Sc  Sc19  1  0.166164  0.674866  0.126616  1
  Si  Si20  1  0.030215  0.103932  0.750012  1
  Si  Si21  1  0.969734  0.895841  0.250140  1
  Si  Si22  1  0.464708  0.613734  0.249978  1
  Si  Si23  1  0.535357  0.386166  0.750005  1
  Si  Si24  1  0.288272  0.882376  0.749977  1
  Si  Si25  1  0.711616  0.117495  0.250066  1
  Si  Si26  1  0.220491  0.373718  0.250208  1
  Si  Si27  1  0.779693  0.626408  0.749969  1
  Si  Si28  1  0.159196  0.461015  0.533311  1
  Si  Si29  1  0.840877  0.538923  0.466758  1
  Si  Si30  1  0.343449  0.966661  0.461339  1
  Si  Si31  1  0.840561  0.539331  0.033068  1
  Si  Si32  1  0.656594  0.033321  0.538736  1
  Si  Si33  1  0.159150  0.461251  0.966546  1
  Si  Si34  1  0.656613  0.033312  0.961208  1
  Si  Si35  1  0.343715  0.966441  0.038624  1
