# generated using pymatgen
data_Ho8Al2IrPt
_symmetry_space_group_name_H-M   'P 1'
_cell_length_a   9.52900320
_cell_length_b   9.52900486
_cell_length_c   9.48335100
_cell_angle_alpha   60.15835677
_cell_angle_beta   60.15835105
_cell_angle_gamma   60.39104860
_symmetry_Int_Tables_number   1
_chemical_formula_structural   Ho8Al2IrPt
_chemical_formula_sum   'Ho16 Al4 Ir2 Pt2'
_cell_volume   612.13953865
_cell_formula_units_Z   2
loop_
 _symmetry_equiv_pos_site_id
 _symmetry_equiv_pos_as_xyz
  1  'x, y, z'
loop_
 _atom_site_type_symbol
 _atom_site_label
 _atom_site_symmetry_multiplicity
 _atom_site_fract_x
 _atom_site_fract_y
 _atom_site_fract_z
 _atom_site_occupancy
  Ho  Ho0  1  0.602932  0.602932  0.598212  1
  Ho  Ho1  1  0.602932  0.602932  0.195926  1
  Ho  Ho2  1  0.607820  0.186311  0.602934  1
  Ho  Ho3  1  0.186311  0.607820  0.602934  1
  Ho  Ho4  1  0.053184  0.445068  0.442547  1
  Ho  Ho5  1  0.445068  0.053184  0.059202  1
  Ho  Ho6  1  0.445068  0.053184  0.442547  1
  Ho  Ho7  1  0.053184  0.445068  0.059202  1
  Ho  Ho8  1  0.444562  0.444562  0.055438  1
  Ho  Ho9  1  0.057313  0.057313  0.442687  1
  Ho  Ho10  1  0.188049  0.814934  0.810142  1
  Ho  Ho11  1  0.814934  0.188049  0.186875  1
  Ho  Ho12  1  0.814934  0.188049  0.810142  1
  Ho  Ho13  1  0.188049  0.814934  0.186875  1
  Ho  Ho14  1  0.813315  0.813315  0.186685  1
  Ho  Ho15  1  0.188062  0.188062  0.811938  1
  Al  Al16  1  0.827497  0.827497  0.828317  1
  Al  Al17  1  0.827497  0.827497  0.516689  1
  Al  Al18  1  0.826297  0.517633  0.828035  1
  Al  Al19  1  0.517633  0.826297  0.828035  1
  Ir  Ir20  1  0.389487  0.823357  0.393579  1
  Ir  Ir21  1  0.823357  0.389487  0.393579  1
  Pt  Pt22  1  0.391257  0.391257  0.396087  1
  Pt  Pt23  1  0.391257  0.391257  0.821398  1
