# generated using pymatgen
data_Pr2Nd4TaNbO14
_symmetry_space_group_name_H-M   'P 1'
_cell_length_a   6.68956320
_cell_length_b   6.68956391
_cell_length_c   7.77744615
_cell_angle_alpha   89.98138193
_cell_angle_beta   90.01862171
_cell_angle_gamma   109.59558859
_symmetry_Int_Tables_number   1
_chemical_formula_structural   Pr2Nd4TaNbO14
_chemical_formula_sum   'Pr2 Nd4 Ta1 Nb1 O14'
_cell_volume   327.88522089
_cell_formula_units_Z   1
loop_
 _symmetry_equiv_pos_site_id
 _symmetry_equiv_pos_as_xyz
  1  'x, y, z'
loop_
 _atom_site_type_symbol
 _atom_site_label
 _atom_site_symmetry_multiplicity
 _atom_site_fract_x
 _atom_site_fract_y
 _atom_site_fract_z
 _atom_site_occupancy
  Pr  Pr0  1  0.500000  0.500000  0.500000  1
  Pr  Pr1  1  0.500000  0.500000  0.000000  1
  Nd  Nd2  1  0.999412  0.535529  0.249550  1
  Nd  Nd3  1  0.000588  0.464471  0.750450  1
  Nd  Nd4  1  0.535529  0.999412  0.750450  1
  Nd  Nd5  1  0.464471  0.000588  0.249550  1
  Ta  Ta6  1  0.000000  0.000000  0.000000  1
  Nb  Nb7  1  0.000000  0.000000  0.500000  1
  O  O8  1  0.942183  0.057817  0.751581  1
  O  O9  1  0.057817  0.942183  0.248419  1
  O  O10  1  0.363805  0.636195  0.250023  1
  O  O11  1  0.636195  0.363805  0.749977  1
  O  O12  1  0.369313  0.630687  0.749959  1
  O  O13  1  0.630687  0.369313  0.250041  1
  O  O14  1  0.313230  0.068135  0.970314  1
  O  O15  1  0.685311  0.931233  0.470714  1
  O  O16  1  0.314689  0.068767  0.529286  1
  O  O17  1  0.686770  0.931865  0.029686  1
  O  O18  1  0.068767  0.314689  0.470714  1
  O  O19  1  0.931865  0.686770  0.970314  1
  O  O20  1  0.931233  0.685311  0.529286  1
  O  O21  1  0.068135  0.313230  0.029686  1
