# generated using pymatgen
data_TbSm5C2Br11
_symmetry_space_group_name_H-M   'P 1'
_cell_length_a   9.18364487
_cell_length_b   10.27954924
_cell_length_c   14.30138500
_cell_angle_alpha   88.42559819
_cell_angle_beta   104.00444454
_cell_angle_gamma   109.78372724
_symmetry_Int_Tables_number   1
_chemical_formula_structural   TbSm5C2Br11
_chemical_formula_sum   'Tb2 Sm10 C4 Br22'
_cell_volume   1230.46340756
_cell_formula_units_Z   2
loop_
 _symmetry_equiv_pos_site_id
 _symmetry_equiv_pos_as_xyz
  1  'x, y, z'
loop_
 _atom_site_type_symbol
 _atom_site_label
 _atom_site_symmetry_multiplicity
 _atom_site_fract_x
 _atom_site_fract_y
 _atom_site_fract_z
 _atom_site_occupancy
  Tb  Tb0  1  0.376278  0.470326  0.120287  1
  Tb  Tb1  1  0.623722  0.529674  0.879713  1
  Sm  Sm2  1  0.415345  0.787025  0.269294  1
  Sm  Sm3  1  0.584655  0.212975  0.730706  1
  Sm  Sm4  1  0.627507  0.568258  0.373191  1
  Sm  Sm5  1  0.372493  0.431742  0.626809  1
  Sm  Sm6  1  0.843717  0.642136  0.198343  1
  Sm  Sm7  1  0.156283  0.357864  0.801657  1
  Sm  Sm8  1  0.630475  0.856798  0.090767  1
  Sm  Sm9  1  0.369525  0.143202  0.909233  1
  Sm  Sm10  1  0.869613  0.959950  0.348865  1
  Sm  Sm11  1  0.130387  0.040050  0.651135  1
  C  C12  1  0.432765  0.345816  0.797425  1
  C  C13  1  0.567235  0.654184  0.202575  1
  C  C14  1  0.313591  0.230398  0.740628  1
  C  C15  1  0.686409  0.769602  0.259372  1
  Br  Br16  1  0.386936  0.309110  0.277076  1
  Br  Br17  1  0.613064  0.690890  0.722924  1
  Br  Br18  1  0.127781  0.561081  0.149925  1
  Br  Br19  1  0.872219  0.438919  0.850075  1
  Br  Br20  1  0.621609  0.380003  0.063075  1
  Br  Br21  1  0.378391  0.619997  0.936925  1
  Br  Br22  1  0.121526  0.209871  0.480782  1
  Br  Br23  1  0.878474  0.790129  0.519218  1
  Br  Br24  1  0.615723  0.032801  0.388788  1
  Br  Br25  1  0.384277  0.967199  0.611212  1
  Br  Br26  1  0.125791  0.865815  0.302465  1
  Br  Br27  1  0.874209  0.134185  0.697535  1
  Br  Br28  1  0.132680  0.536377  0.650200  1
  Br  Br29  1  0.867320  0.463623  0.349800  1
  Br  Br30  1  0.620111  0.374514  0.560380  1
  Br  Br31  1  0.379889  0.625486  0.439620  1
  Br  Br32  1  0.142763  0.223618  0.985124  1
  Br  Br33  1  0.857237  0.776382  0.014876  1
  Br  Br34  1  0.624730  0.045516  0.900874  1
  Br  Br35  1  0.375270  0.954484  0.099126  1
  Br  Br36  1  0.128832  0.888534  0.823187  1
  Br  Br37  1  0.871168  0.111466  0.176813  1
