# generated using pymatgen
data_Dy2Lu4FeBi2
_symmetry_space_group_name_H-M   'P 1'
_cell_length_a   8.20901428
_cell_length_b   8.20901444
_cell_length_c   4.15244900
_cell_angle_alpha   90.00000000
_cell_angle_beta   90.00000000
_cell_angle_gamma   120.16273514
_symmetry_Int_Tables_number   1
_chemical_formula_structural   Dy2Lu4FeBi2
_chemical_formula_sum   'Dy2 Lu4 Fe1 Bi2'
_cell_volume   241.93709610
_cell_formula_units_Z   1
loop_
 _symmetry_equiv_pos_site_id
 _symmetry_equiv_pos_as_xyz
  1  'x, y, z'
loop_
 _atom_site_type_symbol
 _atom_site_label
 _atom_site_symmetry_multiplicity
 _atom_site_fract_x
 _atom_site_fract_y
 _atom_site_fract_z
 _atom_site_occupancy
  Dy  Dy0  1  0.613319  0.999624  0.000000  1
  Dy  Dy1  1  0.999624  0.613319  0.000000  1
  Lu  Lu2  1  0.229860  0.001190  0.500000  1
  Lu  Lu3  1  0.001190  0.229860  0.500000  1
  Lu  Lu4  1  0.770888  0.770888  0.500000  1
  Lu  Lu5  1  0.384055  0.384055  0.000000  1
  Fe  Fe6  1  0.002748  0.002748  0.000000  1
  Bi  Bi7  1  0.333219  0.665097  0.500000  1
  Bi  Bi8  1  0.665097  0.333219  0.500000  1
