# generated using pymatgen
data_CeDySbO2
_symmetry_space_group_name_H-M   'P 1'
_cell_length_a   6.96880153
_cell_length_b   6.96880120
_cell_length_c   6.96880247
_cell_angle_alpha   147.14001244
_cell_angle_beta   147.14001105
_cell_angle_gamma   47.15652173
_symmetry_Int_Tables_number   1
_chemical_formula_structural   CeDySbO2
_chemical_formula_sum   'Ce1 Dy1 Sb1 O2'
_cell_volume   99.25821201
_cell_formula_units_Z   1
loop_
 _symmetry_equiv_pos_site_id
 _symmetry_equiv_pos_as_xyz
  1  'x, y, z'
loop_
 _atom_site_type_symbol
 _atom_site_label
 _atom_site_symmetry_multiplicity
 _atom_site_fract_x
 _atom_site_fract_y
 _atom_site_fract_z
 _atom_site_occupancy
  Ce  Ce0  1  0.342061  0.342061  0.000000  1
  Dy  Dy1  1  0.660123  0.660123  0.000000  1
  Sb  Sb2  1  0.999939  0.999939  0.000000  1
  O  O3  1  0.748938  0.248938  0.500000  1
  O  O4  1  0.248938  0.748938  0.500000  1
