# generated using pymatgen
data_LiTb5(P2Ru3)6
_symmetry_space_group_name_H-M   'P 1'
_cell_length_a   12.63735106
_cell_length_b   12.63735133
_cell_length_c   3.98025500
_cell_angle_alpha   90.00000000
_cell_angle_beta   90.00000000
_cell_angle_gamma   121.01604882
_symmetry_Int_Tables_number   1
_chemical_formula_structural   LiTb5(P2Ru3)6
_chemical_formula_sum   'Li1 Tb5 P12 Ru18'
_cell_volume   544.77288644
_cell_formula_units_Z   1
loop_
 _symmetry_equiv_pos_site_id
 _symmetry_equiv_pos_as_xyz
  1  'x, y, z'
loop_
 _atom_site_type_symbol
 _atom_site_label
 _atom_site_symmetry_multiplicity
 _atom_site_fract_x
 _atom_site_fract_y
 _atom_site_fract_z
 _atom_site_occupancy
  Li  Li0  1  0.561818  0.561818  0.000000  1
  Tb  Tb1  1  0.182044  0.182044  0.500000  1
  Tb  Tb2  1  0.815754  0.998312  0.500000  1
  Tb  Tb3  1  0.998312  0.815754  0.500000  1
  Tb  Tb4  1  0.328691  0.669757  0.000000  1
  Tb  Tb5  1  0.669757  0.328691  0.000000  1
  P  P6  1  0.806719  0.806719  0.000000  1
  P  P7  1  0.183279  0.001646  0.000000  1
  P  P8  1  0.001646  0.183279  0.000000  1
  P  P9  1  0.173107  0.480787  0.500000  1
  P  P10  1  0.518544  0.700049  0.500000  1
  P  P11  1  0.306124  0.833574  0.500000  1
  P  P12  1  0.700049  0.518544  0.500000  1
  P  P13  1  0.833574  0.306124  0.500000  1
  P  P14  1  0.480787  0.173107  0.500000  1
  P  P15  1  0.367909  0.367909  0.000000  1
  P  P16  1  0.624949  0.999483  0.000000  1
  P  P17  1  0.999483  0.624949  0.000000  1
  Ru  Ru18  1  0.445062  0.001825  0.000000  1
  Ru  Ru19  1  0.001825  0.445062  0.000000  1
  Ru  Ru20  1  0.709567  0.709567  0.500000  1
  Ru  Ru21  1  0.283310  0.003150  0.500000  1
  Ru  Ru22  1  0.003150  0.283310  0.500000  1
  Ru  Ru23  1  0.187012  0.380692  0.000000  1
  Ru  Ru24  1  0.618463  0.806027  0.000000  1
  Ru  Ru25  1  0.188741  0.816858  0.000000  1
  Ru  Ru26  1  0.806027  0.618463  0.000000  1
  Ru  Ru27  1  0.816858  0.188741  0.000000  1
  Ru  Ru28  1  0.380692  0.187012  0.000000  1
  Ru  Ru29  1  0.368464  0.491625  0.500000  1
  Ru  Ru30  1  0.508528  0.878520  0.500000  1
  Ru  Ru31  1  0.128509  0.635858  0.500000  1
  Ru  Ru32  1  0.878520  0.508528  0.500000  1
  Ru  Ru33  1  0.635858  0.128509  0.500000  1
  Ru  Ru34  1  0.491625  0.368464  0.500000  1
  Ru  Ru35  1  0.995244  0.995244  0.000000  1
