# generated using pymatgen
data_Dy5Nb3Co12(P3Ru)4
_symmetry_space_group_name_H-M   'P 1'
_cell_length_a   12.32369289
_cell_length_b   12.34258936
_cell_length_c   3.72383500
_cell_angle_alpha   90.00000000
_cell_angle_beta   90.00000000
_cell_angle_gamma   119.83988613
_symmetry_Int_Tables_number   1
_chemical_formula_structural   Dy5Nb3Co12(P3Ru)4
_chemical_formula_sum   'Dy5 Nb3 Co12 P12 Ru4'
_cell_volume   491.32249260
_cell_formula_units_Z   1
loop_
 _symmetry_equiv_pos_site_id
 _symmetry_equiv_pos_as_xyz
  1  'x, y, z'
loop_
 _atom_site_type_symbol
 _atom_site_label
 _atom_site_symmetry_multiplicity
 _atom_site_fract_x
 _atom_site_fract_y
 _atom_site_fract_z
 _atom_site_occupancy
  Dy  Dy0  1  0.665993  0.332783  0.000000  1
  Dy  Dy1  1  0.335778  0.666782  0.000000  1
  Dy  Dy2  1  0.182256  0.181421  0.500000  1
  Dy  Dy3  1  0.819205  0.000502  0.500000  1
  Dy  Dy4  1  0.999113  0.818399  0.500000  1
  Nb  Nb5  1  0.556723  0.561948  0.000000  1
  Nb  Nb6  1  0.439539  0.997603  0.000000  1
  Nb  Nb7  1  0.001840  0.437824  0.000000  1
  Co  Co8  1  0.829078  0.196346  0.000000  1
  Co  Co9  1  0.800581  0.631591  0.000000  1
  Co  Co10  1  0.369157  0.171113  0.000000  1
  Co  Co11  1  0.197149  0.827134  0.000000  1
  Co  Co12  1  0.626855  0.805359  0.000000  1
  Co  Co13  1  0.178627  0.372047  0.000000  1
  Co  Co14  1  0.517932  0.870206  0.500000  1
  Co  Co15  1  0.354479  0.485158  0.500000  1
  Co  Co16  1  0.718542  0.723097  0.500000  1
  Co  Co17  1  0.278905  0.998695  0.500000  1
  Co  Co18  1  0.003428  0.279365  0.500000  1
  Co  Co19  1  0.999991  0.999340  0.000000  1
  P  P20  1  0.353901  0.356973  0.000000  1
  P  P21  1  0.643277  0.996418  0.000000  1
  P  P22  1  0.000061  0.644076  0.000000  1
  P  P23  1  0.835430  0.311160  0.500000  1
  P  P24  1  0.685112  0.523974  0.500000  1
  P  P25  1  0.476191  0.163979  0.500000  1
  P  P26  1  0.316222  0.835521  0.500000  1
  P  P27  1  0.520739  0.690825  0.500000  1
  P  P28  1  0.170207  0.477032  0.500000  1
  P  P29  1  0.819974  0.822156  0.000000  1
  P  P30  1  0.178566  0.999274  0.000000  1
  P  P31  1  0.001760  0.178641  0.000000  1
  Ru  Ru32  1  0.646930  0.121940  0.500000  1
  Ru  Ru33  1  0.872145  0.520740  0.500000  1
  Ru  Ru34  1  0.474566  0.353177  0.500000  1
  Ru  Ru35  1  0.129748  0.647404  0.500000  1
