# generated using pymatgen
data_SrZr(Si7Ir3)2
_symmetry_space_group_name_H-M   'P 1'
_cell_length_a   8.06171859
_cell_length_b   8.06171964
_cell_length_c   8.06171831
_cell_angle_alpha   56.48743034
_cell_angle_beta   56.48742263
_cell_angle_gamma   56.48742822
_symmetry_Int_Tables_number   1
_chemical_formula_structural   SrZr(Si7Ir3)2
_chemical_formula_sum   'Sr1 Zr1 Si14 Ir6'
_cell_volume   340.40213935
_cell_formula_units_Z   1
loop_
 _symmetry_equiv_pos_site_id
 _symmetry_equiv_pos_as_xyz
  1  'x, y, z'
loop_
 _atom_site_type_symbol
 _atom_site_label
 _atom_site_symmetry_multiplicity
 _atom_site_fract_x
 _atom_site_fract_y
 _atom_site_fract_z
 _atom_site_occupancy
  Sr  Sr0  1  0.000000  0.000000  0.000000  1
  Zr  Zr1  1  0.500000  0.500000  0.500000  1
  Si  Si2  1  0.066213  0.850096  0.672076  1
  Si  Si3  1  0.672076  0.066213  0.850096  1
  Si  Si4  1  0.850096  0.672076  0.066213  1
  Si  Si5  1  0.174796  0.350606  0.561191  1
  Si  Si6  1  0.561191  0.174796  0.350606  1
  Si  Si7  1  0.350606  0.561191  0.174796  1
  Si  Si8  1  0.933787  0.149904  0.327924  1
  Si  Si9  1  0.327924  0.933787  0.149904  1
  Si  Si10  1  0.149904  0.327924  0.933787  1
  Si  Si11  1  0.825204  0.649394  0.438809  1
  Si  Si12  1  0.438809  0.825204  0.649394  1
  Si  Si13  1  0.649394  0.438809  0.825204  1
  Si  Si14  1  0.750805  0.750805  0.750805  1
  Si  Si15  1  0.249195  0.249195  0.249195  1
  Ir  Ir16  1  0.076148  0.743311  0.435305  1
  Ir  Ir17  1  0.435305  0.076148  0.743311  1
  Ir  Ir18  1  0.743311  0.435305  0.076148  1
  Ir  Ir19  1  0.923852  0.256689  0.564695  1
  Ir  Ir20  1  0.564695  0.923852  0.256689  1
  Ir  Ir21  1  0.256689  0.564695  0.923852  1
