# generated using pymatgen
data_RbNb4VO13
_symmetry_space_group_name_H-M   'P 1'
_cell_length_a   7.52270821
_cell_length_b   7.52270862
_cell_length_c   10.29071200
_cell_angle_alpha   90.00000000
_cell_angle_beta   90.00000000
_cell_angle_gamma   91.36852712
_symmetry_Int_Tables_number   1
_chemical_formula_structural   RbNb4VO13
_chemical_formula_sum   'Rb2 Nb8 V2 O26'
_cell_volume   582.19702990
_cell_formula_units_Z   2
loop_
 _symmetry_equiv_pos_site_id
 _symmetry_equiv_pos_as_xyz
  1  'x, y, z'
loop_
 _atom_site_type_symbol
 _atom_site_label
 _atom_site_symmetry_multiplicity
 _atom_site_fract_x
 _atom_site_fract_y
 _atom_site_fract_z
 _atom_site_occupancy
  Rb  Rb0  1  0.439108  0.439108  0.443862  1
  Rb  Rb1  1  0.560892  0.560892  0.943862  1
  Nb  Nb2  1  0.556505  0.896530  0.253550  1
  Nb  Nb3  1  0.103470  0.443495  0.753550  1
  Nb  Nb4  1  0.443495  0.103470  0.753550  1
  Nb  Nb5  1  0.896530  0.556505  0.253550  1
  Nb  Nb6  1  0.174254  0.833085  0.502526  1
  Nb  Nb7  1  0.166915  0.825746  0.002526  1
  Nb  Nb8  1  0.833085  0.174254  0.502526  1
  Nb  Nb9  1  0.825746  0.166915  0.002526  1
  V  V10  1  0.164178  0.164178  0.247236  1
  V  V11  1  0.835822  0.835822  0.747236  1
  O  O12  1  0.660123  0.660123  0.250409  1
  O  O13  1  0.339877  0.339877  0.750409  1
  O  O14  1  0.388766  0.129447  0.251653  1
  O  O15  1  0.870553  0.611234  0.751653  1
  O  O16  1  0.611234  0.870553  0.751653  1
  O  O17  1  0.129447  0.388766  0.251653  1
  O  O18  1  0.803393  0.359535  0.384479  1
  O  O19  1  0.641234  0.196468  0.612139  1
  O  O20  1  0.803532  0.358766  0.112139  1
  O  O21  1  0.640465  0.196607  0.884479  1
  O  O22  1  0.196468  0.641234  0.612139  1
  O  O23  1  0.359535  0.803393  0.384479  1
  O  O24  1  0.196607  0.640465  0.884479  1
  O  O25  1  0.358766  0.803532  0.112139  1
  O  O26  1  0.070167  0.070167  0.390858  1
  O  O27  1  0.931875  0.931875  0.604225  1
  O  O28  1  0.068125  0.068125  0.104225  1
  O  O29  1  0.929833  0.929833  0.890858  1
  O  O30  1  0.694509  0.994758  0.386492  1
  O  O31  1  0.009668  0.308792  0.611065  1
  O  O32  1  0.691208  0.990332  0.111065  1
  O  O33  1  0.005242  0.305491  0.886492  1
  O  O34  1  0.308792  0.009668  0.611065  1
  O  O35  1  0.994758  0.694509  0.386492  1
  O  O36  1  0.305491  0.005242  0.886492  1
  O  O37  1  0.990332  0.691208  0.111065  1
