# generated using pymatgen
data_Lu(ZnAg)6
_symmetry_space_group_name_H-M   'P 1'
_cell_length_a   7.03743484
_cell_length_b   7.03743484
_cell_length_c   7.03743441
_cell_angle_alpha   98.05813174
_cell_angle_beta   97.75228364
_cell_angle_gamma   136.46317547
_symmetry_Int_Tables_number   1
_chemical_formula_structural   Lu(ZnAg)6
_chemical_formula_sum   'Lu1 Zn6 Ag6'
_cell_volume   222.95551431
_cell_formula_units_Z   1
loop_
 _symmetry_equiv_pos_site_id
 _symmetry_equiv_pos_as_xyz
  1  'x, y, z'
loop_
 _atom_site_type_symbol
 _atom_site_label
 _atom_site_symmetry_multiplicity
 _atom_site_fract_x
 _atom_site_fract_y
 _atom_site_fract_z
 _atom_site_occupancy
  Lu  Lu0  1  0.000000  0.000000  0.000000  1
  Zn  Zn1  1  0.000000  0.000000  0.500000  1
  Zn  Zn2  1  0.500000  0.500000  0.500000  1
  Zn  Zn3  1  0.500000  0.000000  0.000000  1
  Zn  Zn4  1  0.000000  0.500000  0.000000  1
  Zn  Zn5  1  0.725803  0.500000  0.225803  1
  Zn  Zn6  1  0.274197  0.500000  0.774197  1
  Ag  Ag7  1  0.000000  0.344308  0.344308  1
  Ag  Ag8  1  0.000000  0.655692  0.655692  1
  Ag  Ag9  1  0.656010  0.000000  0.656010  1
  Ag  Ag10  1  0.343990  0.000000  0.343990  1
  Ag  Ag11  1  0.500000  0.306449  0.806449  1
  Ag  Ag12  1  0.500000  0.693551  0.193551  1
