# generated using pymatgen
data_Sc3Sn3IrRh2
_symmetry_space_group_name_H-M   'P 1'
_cell_length_a   7.53711700
_cell_length_b   7.53711606
_cell_length_c   7.02376800
_cell_angle_alpha   90.00000000
_cell_angle_beta   90.00000000
_cell_angle_gamma   119.99999972
_symmetry_Int_Tables_number   1
_chemical_formula_structural   Sc3Sn3IrRh2
_chemical_formula_sum   'Sc6 Sn6 Ir2 Rh4'
_cell_volume   345.55028134
_cell_formula_units_Z   2
loop_
 _symmetry_equiv_pos_site_id
 _symmetry_equiv_pos_as_xyz
  1  'x, y, z'
loop_
 _atom_site_type_symbol
 _atom_site_label
 _atom_site_symmetry_multiplicity
 _atom_site_fract_x
 _atom_site_fract_y
 _atom_site_fract_z
 _atom_site_occupancy
  Sc  Sc0  1  0.001614  0.399206  0.745600  1
  Sc  Sc1  1  0.600794  0.602407  0.745600  1
  Sc  Sc2  1  0.397593  0.998386  0.745600  1
  Sc  Sc3  1  0.998386  0.397593  0.254400  1
  Sc  Sc4  1  0.602407  0.600794  0.254400  1
  Sc  Sc5  1  0.399206  0.001614  0.254400  1
  Sn  Sn6  1  0.266174  0.266174  0.500000  1
  Sn  Sn7  1  0.000000  0.733826  0.500000  1
  Sn  Sn8  1  0.000000  0.719111  0.000000  1
  Sn  Sn9  1  0.733826  0.000000  0.500000  1
  Sn  Sn10  1  0.719111  0.000000  0.000000  1
  Sn  Sn11  1  0.280889  0.280889  0.000000  1
  Ir  Ir12  1  0.333333  0.666667  0.497223  1
  Ir  Ir13  1  0.666667  0.333333  0.502777  1
  Rh  Rh14  1  0.333333  0.666667  0.003737  1
  Rh  Rh15  1  0.000000  0.000000  0.766339  1
  Rh  Rh16  1  0.000000  0.000000  0.233661  1
  Rh  Rh17  1  0.666667  0.333333  0.996263  1
