# generated using pymatgen
data_Ho15ErIn5Co2Hg
_symmetry_space_group_name_H-M   'P 1'
_cell_length_a   10.30539600
_cell_length_b   10.32027964
_cell_length_c   7.01692798
_cell_angle_alpha   90.03277884
_cell_angle_beta   90.00000000
_cell_angle_gamma   119.95229833
_symmetry_Int_Tables_number   1
_chemical_formula_structural   Ho15ErIn5Co2Hg
_chemical_formula_sum   'Ho15 Er1 In5 Co2 Hg1'
_cell_volume   646.60976539
_cell_formula_units_Z   1
loop_
 _symmetry_equiv_pos_site_id
 _symmetry_equiv_pos_as_xyz
  1  'x, y, z'
loop_
 _atom_site_type_symbol
 _atom_site_label
 _atom_site_symmetry_multiplicity
 _atom_site_fract_x
 _atom_site_fract_y
 _atom_site_fract_z
 _atom_site_occupancy
  Ho  Ho0  1  0.534448  0.068897  0.792854  1
  Ho  Ho1  1  0.926830  0.468151  0.792923  1
  Ho  Ho2  1  0.541321  0.468151  0.792923  1
  Ho  Ho3  1  0.464270  0.928540  0.288601  1
  Ho  Ho4  1  0.072877  0.534631  0.293492  1
  Ho  Ho5  1  0.461754  0.534631  0.293492  1
  Ho  Ho6  1  0.821907  0.643813  0.483263  1
  Ho  Ho7  1  0.357454  0.178443  0.499046  1
  Ho  Ho8  1  0.820990  0.178443  0.499046  1
  Ho  Ho9  1  0.178240  0.356480  0.996099  1
  Ho  Ho10  1  0.648411  0.819815  0.001550  1
  Ho  Ho11  1  0.171404  0.819815  0.001550  1
  Ho  Ho12  1  0.668022  0.336045  0.179490  1
  Ho  Ho13  1  0.333811  0.667623  0.683308  1
  Ho  Ho14  1  0.999045  0.998089  0.778340  1
  Er  Er15  1  0.001618  0.003236  0.279570  1
  In  In16  1  0.325767  0.162530  0.039577  1
  In  In17  1  0.836762  0.162530  0.039577  1
  In  In18  1  0.162241  0.324481  0.542024  1
  In  In19  1  0.674542  0.837370  0.539742  1
  In  In20  1  0.162830  0.837370  0.539742  1
  Co  Co21  1  0.666865  0.333730  0.566758  1
  Co  Co22  1  0.333416  0.666834  0.066475  1
  Hg  Hg23  1  0.835175  0.670353  0.046465  1
