# generated using pymatgen
data_LiLa6(HoPt3)2
_symmetry_space_group_name_H-M   'P 1'
_cell_length_a   7.78366025
_cell_length_b   7.78366047
_cell_length_c   7.78366100
_cell_angle_alpha   69.41203853
_cell_angle_beta   69.41204578
_cell_angle_gamma   69.41204007
_symmetry_Int_Tables_number   1
_chemical_formula_structural   LiLa6(HoPt3)2
_chemical_formula_sum   'Li1 La6 Ho2 Pt6'
_cell_volume   399.03304751
_cell_formula_units_Z   1
loop_
 _symmetry_equiv_pos_site_id
 _symmetry_equiv_pos_as_xyz
  1  'x, y, z'
loop_
 _atom_site_type_symbol
 _atom_site_label
 _atom_site_symmetry_multiplicity
 _atom_site_fract_x
 _atom_site_fract_y
 _atom_site_fract_z
 _atom_site_occupancy
  Li  Li0  1  0.000000  0.000000  0.000000  1
  La  La1  1  0.316047  0.611371  0.860834  1
  La  La2  1  0.860834  0.316047  0.611371  1
  La  La3  1  0.611371  0.860834  0.316047  1
  La  La4  1  0.683953  0.388629  0.139166  1
  La  La5  1  0.139166  0.683953  0.388629  1
  La  La6  1  0.388629  0.139166  0.683953  1
  Ho  Ho7  1  0.819145  0.819145  0.819145  1
  Ho  Ho8  1  0.180855  0.180855  0.180855  1
  Pt  Pt9  1  0.177430  0.956439  0.572380  1
  Pt  Pt10  1  0.572380  0.177430  0.956439  1
  Pt  Pt11  1  0.956439  0.572380  0.177430  1
  Pt  Pt12  1  0.822570  0.043561  0.427620  1
  Pt  Pt13  1  0.427620  0.822570  0.043561  1
  Pt  Pt14  1  0.043561  0.427620  0.822570  1
