# generated using pymatgen
data_LiNd2(TmSi2)2
_symmetry_space_group_name_H-M   'P 1'
_cell_length_a   7.70261000
_cell_length_b   7.70261000
_cell_length_c   13.73313200
_cell_angle_alpha   90.00000000
_cell_angle_beta   90.00000000
_cell_angle_gamma   90.00000000
_symmetry_Int_Tables_number   1
_chemical_formula_structural   LiNd2(TmSi2)2
_chemical_formula_sum   'Li4 Nd8 Tm8 Si16'
_cell_volume   814.78947934
_cell_formula_units_Z   4
loop_
 _symmetry_equiv_pos_site_id
 _symmetry_equiv_pos_as_xyz
  1  'x, y, z'
loop_
 _atom_site_type_symbol
 _atom_site_label
 _atom_site_symmetry_multiplicity
 _atom_site_fract_x
 _atom_site_fract_y
 _atom_site_fract_z
 _atom_site_occupancy
  Li  Li0  1  0.314586  0.314586  0.500000  1
  Li  Li1  1  0.185414  0.814586  0.750000  1
  Li  Li2  1  0.814586  0.185414  0.250000  1
  Li  Li3  1  0.685414  0.685414  0.000000  1
  Nd  Nd4  1  0.637995  0.999069  0.458879  1
  Nd  Nd5  1  0.362005  0.000931  0.958879  1
  Nd  Nd6  1  0.999069  0.637995  0.541121  1
  Nd  Nd7  1  0.499069  0.862005  0.208879  1
  Nd  Nd8  1  0.500931  0.137995  0.708879  1
  Nd  Nd9  1  0.862005  0.499069  0.791121  1
  Nd  Nd10  1  0.137995  0.500931  0.291121  1
  Nd  Nd11  1  0.000931  0.362005  0.041121  1
  Tm  Tm12  1  0.504331  0.367406  0.124268  1
  Tm  Tm13  1  0.004331  0.132594  0.625732  1
  Tm  Tm14  1  0.867406  0.995669  0.874268  1
  Tm  Tm15  1  0.132594  0.004331  0.374268  1
  Tm  Tm16  1  0.495669  0.632594  0.624268  1
  Tm  Tm17  1  0.367406  0.504331  0.875732  1
  Tm  Tm18  1  0.632594  0.495669  0.375732  1
  Tm  Tm19  1  0.995669  0.867406  0.125732  1
  Si  Si20  1  0.289362  0.924176  0.559709  1
  Si  Si21  1  0.710638  0.075824  0.059709  1
  Si  Si22  1  0.924176  0.289362  0.440291  1
  Si  Si23  1  0.424176  0.210638  0.309709  1
  Si  Si24  1  0.575824  0.789362  0.809709  1
  Si  Si25  1  0.210638  0.424176  0.690291  1
  Si  Si26  1  0.789362  0.575824  0.190291  1
  Si  Si27  1  0.075824  0.710638  0.940291  1
  Si  Si28  1  0.784528  0.851440  0.682195  1
  Si  Si29  1  0.215472  0.148560  0.182195  1
  Si  Si30  1  0.851440  0.784528  0.317805  1
  Si  Si31  1  0.351440  0.715472  0.432195  1
  Si  Si32  1  0.648560  0.284528  0.932195  1
  Si  Si33  1  0.715472  0.351440  0.567805  1
  Si  Si34  1  0.284528  0.648560  0.067805  1
  Si  Si35  1  0.148560  0.215472  0.817805  1
