# generated using pymatgen
data_KRb5TbHoF12
_symmetry_space_group_name_H-M   'P 1'
_cell_length_a   6.83810685
_cell_length_b   6.60693084
_cell_length_c   11.46544153
_cell_angle_alpha   55.28486063
_cell_angle_beta   90.02726405
_cell_angle_gamma   90.18134284
_symmetry_Int_Tables_number   1
_chemical_formula_structural   KRb5TbHoF12
_chemical_formula_sum   'K1 Rb5 Tb1 Ho1 F12'
_cell_volume   425.78672562
_cell_formula_units_Z   1
loop_
 _symmetry_equiv_pos_site_id
 _symmetry_equiv_pos_as_xyz
  1  'x, y, z'
loop_
 _atom_site_type_symbol
 _atom_site_label
 _atom_site_symmetry_multiplicity
 _atom_site_fract_x
 _atom_site_fract_y
 _atom_site_fract_z
 _atom_site_occupancy
  K  K0  1  0.000000  0.500000  0.500000  1
  Rb  Rb1  1  0.500000  0.500000  0.000000  1
  Rb  Rb2  1  0.048821  0.735107  0.751819  1
  Rb  Rb3  1  0.951179  0.264893  0.248181  1
  Rb  Rb4  1  0.550347  0.267485  0.746197  1
  Rb  Rb5  1  0.449653  0.732515  0.253803  1
  Tb  Tb6  1  0.500000  0.000000  0.500000  1
  Ho  Ho7  1  0.000000  0.000000  0.000000  1
  F  F8  1  0.765762  0.767646  0.561252  1
  F  F9  1  0.234238  0.232354  0.438748  1
  F  F10  1  0.264424  0.225937  0.937401  1
  F  F11  1  0.735576  0.774063  0.062599  1
  F  F12  1  0.451169  0.883578  0.719870  1
  F  F13  1  0.548831  0.116422  0.280130  1
  F  F14  1  0.953377  0.121607  0.779513  1
  F  F15  1  0.046623  0.878393  0.220487  1
  F  F16  1  0.320818  0.683337  0.544256  1
  F  F17  1  0.679182  0.316663  0.455744  1
  F  F18  1  0.829570  0.315569  0.954427  1
  F  F19  1  0.170430  0.684431  0.045573  1
