# generated using pymatgen
data_Y10Pb6C
_symmetry_space_group_name_H-M   'P 1'
_cell_length_a   9.07691000
_cell_length_b   9.07691117
_cell_length_c   6.70016500
_cell_angle_alpha   90.00000000
_cell_angle_beta   90.00000000
_cell_angle_gamma   119.99999573
_symmetry_Int_Tables_number   1
_chemical_formula_structural   Y10Pb6C
_chemical_formula_sum   'Y10 Pb6 C1'
_cell_volume   478.07084910
_cell_formula_units_Z   1
loop_
 _symmetry_equiv_pos_site_id
 _symmetry_equiv_pos_as_xyz
  1  'x, y, z'
loop_
 _atom_site_type_symbol
 _atom_site_label
 _atom_site_symmetry_multiplicity
 _atom_site_fract_x
 _atom_site_fract_y
 _atom_site_fract_z
 _atom_site_occupancy
  Y  Y0  1  0.333333  0.666667  0.500000  1
  Y  Y1  1  0.666667  0.333333  0.500000  1
  Y  Y2  1  0.666667  0.333333  0.000000  1
  Y  Y3  1  0.333333  0.666667  0.000000  1
  Y  Y4  1  0.000000  0.774275  0.278140  1
  Y  Y5  1  0.225725  0.225725  0.278140  1
  Y  Y6  1  0.774275  0.000000  0.278140  1
  Y  Y7  1  0.000000  0.225725  0.721860  1
  Y  Y8  1  0.774275  0.774275  0.721860  1
  Y  Y9  1  0.225725  0.000000  0.721860  1
  Pb  Pb10  1  0.000000  0.399524  0.250386  1
  Pb  Pb11  1  0.600476  0.600476  0.250386  1
  Pb  Pb12  1  0.399524  0.000000  0.250386  1
  Pb  Pb13  1  0.000000  0.600476  0.749614  1
  Pb  Pb14  1  0.399524  0.399524  0.749614  1
  Pb  Pb15  1  0.600476  0.000000  0.749614  1
  C  C16  1  0.000000  0.000000  0.500000  1
