# generated using pymatgen
data_Dy3In2GaNiPt2
_symmetry_space_group_name_H-M   'P 1'
_cell_length_a   7.57773120
_cell_length_b   7.57773028
_cell_length_c   3.73665300
_cell_angle_alpha   90.00000000
_cell_angle_beta   90.00000000
_cell_angle_gamma   119.63141182
_symmetry_Int_Tables_number   1
_chemical_formula_structural   Dy3In2GaNiPt2
_chemical_formula_sum   'Dy3 In2 Ga1 Ni1 Pt2'
_cell_volume   186.50600415
_cell_formula_units_Z   1
loop_
 _symmetry_equiv_pos_site_id
 _symmetry_equiv_pos_as_xyz
  1  'x, y, z'
loop_
 _atom_site_type_symbol
 _atom_site_label
 _atom_site_symmetry_multiplicity
 _atom_site_fract_x
 _atom_site_fract_y
 _atom_site_fract_z
 _atom_site_occupancy
  Dy  Dy0  1  0.428744  0.428744  0.500000  1
  Dy  Dy1  1  0.593784  0.994791  0.500000  1
  Dy  Dy2  1  0.994791  0.593784  0.500000  1
  In  In3  1  0.005921  0.247364  0.000000  1
  In  In4  1  0.247364  0.005921  0.000000  1
  Ga  Ga5  1  0.751239  0.751239  0.000000  1
  Ni  Ni6  1  0.969201  0.969201  0.500000  1
  Pt  Pt7  1  0.670065  0.338891  0.000000  1
  Pt  Pt8  1  0.338891  0.670065  0.000000  1
