# generated using pymatgen
data_Th10Sn3Ge2Bi3
_symmetry_space_group_name_H-M   'P 1'
_cell_length_a   9.65230700
_cell_length_b   9.65230669
_cell_length_c   6.55655000
_cell_angle_alpha   90.00000000
_cell_angle_beta   90.00000000
_cell_angle_gamma   119.99999763
_symmetry_Int_Tables_number   1
_chemical_formula_structural   Th10Sn3Ge2Bi3
_chemical_formula_sum   'Th10 Sn3 Ge2 Bi3'
_cell_volume   529.01533177
_cell_formula_units_Z   1
loop_
 _symmetry_equiv_pos_site_id
 _symmetry_equiv_pos_as_xyz
  1  'x, y, z'
loop_
 _atom_site_type_symbol
 _atom_site_label
 _atom_site_symmetry_multiplicity
 _atom_site_fract_x
 _atom_site_fract_y
 _atom_site_fract_z
 _atom_site_occupancy
  Th  Th0  1  0.000000  0.737171  0.750000  1
  Th  Th1  1  0.262829  0.262829  0.750000  1
  Th  Th2  1  0.333333  0.666667  0.495566  1
  Th  Th3  1  0.666667  0.333333  0.495566  1
  Th  Th4  1  0.737300  0.737300  0.250000  1
  Th  Th5  1  0.737171  0.000000  0.750000  1
  Th  Th6  1  0.000000  0.262700  0.250000  1
  Th  Th7  1  0.262700  0.000000  0.250000  1
  Th  Th8  1  0.333333  0.666667  0.004434  1
  Th  Th9  1  0.666667  0.333333  0.004434  1
  Sn  Sn10  1  0.613391  0.000000  0.250000  1
  Sn  Sn11  1  0.386609  0.386609  0.250000  1
  Sn  Sn12  1  0.000000  0.613391  0.250000  1
  Ge  Ge13  1  0.000000  0.000000  0.998112  1
  Ge  Ge14  1  0.000000  0.000000  0.501888  1
  Bi  Bi15  1  0.611779  0.611779  0.750000  1
  Bi  Bi16  1  0.000000  0.388221  0.750000  1
  Bi  Bi17  1  0.388221  0.000000  0.750000  1
