# generated using pymatgen
data_Tb2Eu2SiNi13
_symmetry_space_group_name_H-M   'P 1'
_cell_length_a   4.91846844
_cell_length_b   4.99016395
_cell_length_c   12.47313100
_cell_angle_alpha   78.46091744
_cell_angle_beta   78.65963009
_cell_angle_gamma   59.51662355
_symmetry_Int_Tables_number   1
_chemical_formula_structural   Tb2Eu2SiNi13
_chemical_formula_sum   'Tb2 Eu2 Si1 Ni13'
_cell_volume   256.84510130
_cell_formula_units_Z   1
loop_
 _symmetry_equiv_pos_site_id
 _symmetry_equiv_pos_as_xyz
  1  'x, y, z'
loop_
 _atom_site_type_symbol
 _atom_site_label
 _atom_site_symmetry_multiplicity
 _atom_site_fract_x
 _atom_site_fract_y
 _atom_site_fract_z
 _atom_site_occupancy
  Tb  Tb0  1  0.947554  0.947077  0.158290  1
  Tb  Tb1  1  0.052446  0.052923  0.841710  1
  Eu  Eu2  1  0.851175  0.851543  0.445739  1
  Eu  Eu3  1  0.148825  0.148457  0.554261  1
  Si  Si4  1  0.000000  0.500000  0.000000  1
  Ni  Ni5  1  0.500000  0.500000  0.500000  1
  Ni  Ni6  1  0.733070  0.714283  0.838365  1
  Ni  Ni7  1  0.266930  0.285717  0.161635  1
  Ni  Ni8  1  0.627939  0.605882  0.160296  1
  Ni  Ni9  1  0.372061  0.394118  0.839704  1
  Ni  Ni10  1  0.500000  0.000000  0.000000  1
  Ni  Ni11  1  0.500000  0.500000  0.000000  1
  Ni  Ni12  1  0.393865  0.394224  0.321265  1
  Ni  Ni13  1  0.891676  0.391316  0.325694  1
  Ni  Ni14  1  0.393865  0.890648  0.321265  1
  Ni  Ni15  1  0.606135  0.605776  0.678735  1
  Ni  Ni16  1  0.108324  0.608684  0.674306  1
  Ni  Ni17  1  0.606135  0.109352  0.678735  1
