# generated using pymatgen
data_Er5Fe18CoP12
_symmetry_space_group_name_H-M   'P 1'
_cell_length_a   11.93554500
_cell_length_b   11.93554596
_cell_length_c   3.69040000
_cell_angle_alpha   90.00000000
_cell_angle_beta   90.00000000
_cell_angle_gamma   120.00000011
_symmetry_Int_Tables_number   1
_chemical_formula_structural   Er5Fe18CoP12
_chemical_formula_sum   'Er5 Fe18 Co1 P12'
_cell_volume   455.29052974
_cell_formula_units_Z   1
loop_
 _symmetry_equiv_pos_site_id
 _symmetry_equiv_pos_as_xyz
  1  'x, y, z'
loop_
 _atom_site_type_symbol
 _atom_site_label
 _atom_site_symmetry_multiplicity
 _atom_site_fract_x
 _atom_site_fract_y
 _atom_site_fract_z
 _atom_site_occupancy
  Er  Er0  1  0.666667  0.333333  0.000000  1
  Er  Er1  1  0.333333  0.666667  0.000000  1
  Er  Er2  1  0.184488  0.184488  0.500000  1
  Er  Er3  1  0.815512  0.000000  0.500000  1
  Er  Er4  1  0.000000  0.815512  0.500000  1
  Fe  Fe5  1  0.818330  0.197809  0.000000  1
  Fe  Fe6  1  0.802191  0.620520  0.000000  1
  Fe  Fe7  1  0.379480  0.181670  0.000000  1
  Fe  Fe8  1  0.197809  0.818330  0.000000  1
  Fe  Fe9  1  0.620520  0.802191  0.000000  1
  Fe  Fe10  1  0.181670  0.379480  0.000000  1
  Fe  Fe11  1  0.557159  0.557159  0.000000  1
  Fe  Fe12  1  0.442841  0.000000  0.000000  1
  Fe  Fe13  1  0.000000  0.442841  0.000000  1
  Fe  Fe14  1  0.639585  0.122140  0.500000  1
  Fe  Fe15  1  0.877860  0.517446  0.500000  1
  Fe  Fe16  1  0.482554  0.360415  0.500000  1
  Fe  Fe17  1  0.122140  0.639585  0.500000  1
  Fe  Fe18  1  0.517446  0.877860  0.500000  1
  Fe  Fe19  1  0.360415  0.482554  0.500000  1
  Fe  Fe20  1  0.715151  0.715151  0.500000  1
  Fe  Fe21  1  0.284849  0.000000  0.500000  1
  Fe  Fe22  1  0.000000  0.284849  0.500000  1
  Co  Co23  1  0.000000  0.000000  0.000000  1
  P  P24  1  0.370280  0.370280  0.000000  1
  P  P25  1  0.629720  0.000000  0.000000  1
  P  P26  1  0.000000  0.629720  0.000000  1
  P  P27  1  0.833684  0.312456  0.500000  1
  P  P28  1  0.687544  0.521228  0.500000  1
  P  P29  1  0.478772  0.166316  0.500000  1
  P  P30  1  0.312456  0.833684  0.500000  1
  P  P31  1  0.521228  0.687544  0.500000  1
  P  P32  1  0.166316  0.478772  0.500000  1
  P  P33  1  0.815582  0.815582  0.000000  1
  P  P34  1  0.184418  0.000000  0.000000  1
  P  P35  1  0.000000  0.184418  0.000000  1
