# generated using pymatgen
data_LaNd(Cu3Pt2)2
_symmetry_space_group_name_H-M   'P 1'
_cell_length_a   4.08536200
_cell_length_b   5.23150139
_cell_length_c   9.38697712
_cell_angle_alpha   94.38856980
_cell_angle_beta   90.00000000
_cell_angle_gamma   90.00000000
_symmetry_Int_Tables_number   1
_chemical_formula_structural   LaNd(Cu3Pt2)2
_chemical_formula_sum   'La1 Nd1 Cu6 Pt4'
_cell_volume   200.03566959
_cell_formula_units_Z   1
loop_
 _symmetry_equiv_pos_site_id
 _symmetry_equiv_pos_as_xyz
  1  'x, y, z'
loop_
 _atom_site_type_symbol
 _atom_site_label
 _atom_site_symmetry_multiplicity
 _atom_site_fract_x
 _atom_site_fract_y
 _atom_site_fract_z
 _atom_site_occupancy
  La  La0  1  0.000000  0.000000  0.000000  1
  Nd  Nd1  1  0.000000  0.500000  0.500000  1
  Cu  Cu2  1  0.000000  0.986652  0.330288  1
  Cu  Cu3  1  0.000000  0.485951  0.827100  1
  Cu  Cu4  1  0.000000  0.514049  0.172900  1
  Cu  Cu5  1  0.000000  0.013348  0.669712  1
  Cu  Cu6  1  0.500000  0.749880  0.251158  1
  Cu  Cu7  1  0.500000  0.250120  0.748842  1
  Pt  Pt8  1  0.500000  0.000000  0.500000  1
  Pt  Pt9  1  0.500000  0.500000  0.000000  1
  Pt  Pt10  1  0.500000  0.251515  0.251875  1
  Pt  Pt11  1  0.500000  0.748485  0.748125  1
