# generated using pymatgen
data_Y8Re(B8Ru)3
_symmetry_space_group_name_H-M   'P 1'
_cell_length_a   3.67630100
_cell_length_b   9.17041937
_cell_length_c   11.56146579
_cell_angle_alpha   89.87589773
_cell_angle_beta   90.00000000
_cell_angle_gamma   90.00000000
_symmetry_Int_Tables_number   1
_chemical_formula_structural   Y8Re(B8Ru)3
_chemical_formula_sum   'Y8 Re1 B24 Ru3'
_cell_volume   389.77334736
_cell_formula_units_Z   1
loop_
 _symmetry_equiv_pos_site_id
 _symmetry_equiv_pos_as_xyz
  1  'x, y, z'
loop_
 _atom_site_type_symbol
 _atom_site_label
 _atom_site_symmetry_multiplicity
 _atom_site_fract_x
 _atom_site_fract_y
 _atom_site_fract_z
 _atom_site_occupancy
  Y  Y0  1  0.000000  0.823553  0.085172  1
  Y  Y1  1  0.000000  0.179489  0.911953  1
  Y  Y2  1  0.000000  0.322859  0.416300  1
  Y  Y3  1  0.000000  0.676215  0.586620  1
  Y  Y4  1  0.000000  0.443058  0.128773  1
  Y  Y5  1  0.000000  0.556714  0.872458  1
  Y  Y6  1  0.000000  0.942361  0.371479  1
  Y  Y7  1  0.000000  0.056188  0.627581  1
  Re  Re8  1  0.000000  0.362549  0.678548  1
  B  B9  1  0.500000  0.053898  0.066895  1
  B  B10  1  0.500000  0.946520  0.932570  1
  B  B11  1  0.500000  0.553583  0.432368  1
  B  B12  1  0.500000  0.447218  0.566960  1
  B  B13  1  0.500000  0.247647  0.080655  1
  B  B14  1  0.500000  0.752766  0.919644  1
  B  B15  1  0.500000  0.747299  0.419063  1
  B  B16  1  0.500000  0.252019  0.580806  1
  B  B17  1  0.500000  0.289857  0.233854  1
  B  B18  1  0.500000  0.709665  0.767080  1
  B  B19  1  0.500000  0.790340  0.266070  1
  B  B20  1  0.500000  0.208685  0.733817  1
  B  B21  1  0.500000  0.130830  0.314299  1
  B  B22  1  0.500000  0.868302  0.685982  1
  B  B23  1  0.500000  0.631731  0.185449  1
  B  B24  1  0.500000  0.368750  0.814353  1
  B  B25  1  0.500000  0.483493  0.287521  1
  B  B26  1  0.500000  0.517836  0.712758  1
  B  B27  1  0.500000  0.983349  0.211921  1
  B  B28  1  0.500000  0.016576  0.787344  1
  B  B29  1  0.500000  0.106414  0.469558  1
  B  B30  1  0.500000  0.891346  0.529569  1
  B  B31  1  0.500000  0.608482  0.030575  1
  B  B32  1  0.500000  0.392514  0.970883  1
  Ru  Ru33  1  0.000000  0.137340  0.178819  1
  Ru  Ru34  1  0.000000  0.862925  0.821544  1
  Ru  Ru35  1  0.000000  0.637630  0.320761  1
