# generated using pymatgen
data_CaPrHo5IrBr12
_symmetry_space_group_name_H-M   'P 1'
_cell_length_a   9.31633150
_cell_length_b   9.32641380
_cell_length_c   9.35773676
_cell_angle_alpha   106.65222350
_cell_angle_beta   106.51259580
_cell_angle_gamma   107.45265472
_symmetry_Int_Tables_number   1
_chemical_formula_structural   CaPrHo5IrBr12
_chemical_formula_sum   'Ca1 Pr1 Ho5 Ir1 Br12'
_cell_volume   679.43652321
_cell_formula_units_Z   1
loop_
 _symmetry_equiv_pos_site_id
 _symmetry_equiv_pos_as_xyz
  1  'x, y, z'
loop_
 _atom_site_type_symbol
 _atom_site_label
 _atom_site_symmetry_multiplicity
 _atom_site_fract_x
 _atom_site_fract_y
 _atom_site_fract_z
 _atom_site_occupancy
  Ca  Ca0  1  0.499518  0.501922  0.497063  1
  Pr  Pr1  1  0.894852  0.685430  0.978303  1
  Ho  Ho2  1  0.101591  0.299935  0.022583  1
  Ho  Ho3  1  0.314604  0.024117  0.105896  1
  Ho  Ho4  1  0.024636  0.106556  0.313487  1
  Ho  Ho5  1  0.977143  0.899154  0.689895  1
  Ho  Ho6  1  0.685487  0.972969  0.894888  1
  Ir  Ir7  1  0.000387  0.998813  0.002177  1
  Br  Br8  1  0.230826  0.682853  0.076299  1
  Br  Br9  1  0.452975  0.372891  0.155683  1
  Br  Br10  1  0.678032  0.072570  0.215876  1
  Br  Br11  1  0.930719  0.793187  0.334291  1
  Br  Br12  1  0.155199  0.451859  0.369651  1
  Br  Br13  1  0.374455  0.159328  0.453655  1
  Br  Br14  1  0.626872  0.846039  0.548236  1
  Br  Br15  1  0.841540  0.548662  0.615204  1
  Br  Br16  1  0.074037  0.218873  0.682708  1
  Br  Br17  1  0.323189  0.931139  0.786088  1
  Br  Br18  1  0.532228  0.625234  0.833199  1
  Br  Br19  1  0.781714  0.308473  0.924821  1
