# generated using pymatgen
data_Dy3GeS2
_symmetry_space_group_name_H-M   'P 1'
_cell_length_a   6.93803735
_cell_length_b   6.93803718
_cell_length_c   6.93803649
_cell_angle_alpha   146.28945295
_cell_angle_beta   131.93342703
_cell_angle_gamma   59.99214643
_symmetry_Int_Tables_number   1
_chemical_formula_structural   Dy3GeS2
_chemical_formula_sum   'Dy3 Ge1 S2'
_cell_volume   136.62434168
_cell_formula_units_Z   1
loop_
 _symmetry_equiv_pos_site_id
 _symmetry_equiv_pos_as_xyz
  1  'x, y, z'
loop_
 _atom_site_type_symbol
 _atom_site_label
 _atom_site_symmetry_multiplicity
 _atom_site_fract_x
 _atom_site_fract_y
 _atom_site_fract_z
 _atom_site_occupancy
  Dy  Dy0  1  0.833809  0.333809  0.500000  1
  Dy  Dy1  1  0.500000  0.000000  0.500000  1
  Dy  Dy2  1  0.166191  0.666191  0.500000  1
  Ge  Ge3  1  0.000000  0.000000  0.000000  1
  S  S4  1  0.666568  0.666568  0.000000  1
  S  S5  1  0.333432  0.333432  0.000000  1
