# generated using pymatgen
data_Tb2Ni11P7W
_symmetry_space_group_name_H-M   'P 1'
_cell_length_a   9.09979965
_cell_length_b   9.12714941
_cell_length_c   3.69477800
_cell_angle_alpha   90.00000000
_cell_angle_beta   90.00000000
_cell_angle_gamma   120.23204369
_symmetry_Int_Tables_number   1
_chemical_formula_structural   Tb2Ni11P7W
_chemical_formula_sum   'Tb2 Ni11 P7 W1'
_cell_volume   265.13419046
_cell_formula_units_Z   1
loop_
 _symmetry_equiv_pos_site_id
 _symmetry_equiv_pos_as_xyz
  1  'x, y, z'
loop_
 _atom_site_type_symbol
 _atom_site_label
 _atom_site_symmetry_multiplicity
 _atom_site_fract_x
 _atom_site_fract_y
 _atom_site_fract_z
 _atom_site_occupancy
  Tb  Tb0  1  0.000955  0.003567  0.000000  1
  Tb  Tb1  1  0.333502  0.667971  0.500000  1
  Ni  Ni2  1  0.297601  0.396684  0.000000  1
  Ni  Ni3  1  0.099997  0.705302  0.000000  1
  Ni  Ni4  1  0.541365  0.434155  0.500000  1
  Ni  Ni5  1  0.390140  0.178533  0.000000  1
  Ni  Ni6  1  0.788372  0.613933  0.000000  1
  Ni  Ni7  1  0.818465  0.205210  0.000000  1
  Ni  Ni8  1  0.236122  0.950004  0.500000  1
  Ni  Ni9  1  0.050795  0.280876  0.500000  1
  Ni  Ni10  1  0.717313  0.766366  0.500000  1
  Ni  Ni11  1  0.571061  0.115834  0.500000  1
  Ni  Ni12  1  0.606726  0.896232  0.000000  1
  P  P13  1  0.662930  0.331572  0.000000  1
  P  P14  1  0.076684  0.443378  0.000000  1
  P  P15  1  0.263320  0.221060  0.500000  1
  P  P16  1  0.776921  0.040812  0.500000  1
  P  P17  1  0.961618  0.743628  0.500000  1
  P  P18  1  0.554114  0.629040  0.000000  1
  P  P19  1  0.374986  0.927037  0.000000  1
  W  W20  1  0.877013  0.448807  0.500000  1
