# generated using pymatgen
data_Lu5Tc3(P3Ir4)4
_symmetry_space_group_name_H-M   'P 1'
_cell_length_a   12.63093400
_cell_length_b   12.63093424
_cell_length_c   3.96000800
_cell_angle_alpha   90.00000000
_cell_angle_beta   90.00000000
_cell_angle_gamma   119.99999936
_symmetry_Int_Tables_number   1
_chemical_formula_structural   Lu5Tc3(P3Ir4)4
_chemical_formula_sum   'Lu5 Tc3 P12 Ir16'
_cell_volume   547.13895659
_cell_formula_units_Z   1
loop_
 _symmetry_equiv_pos_site_id
 _symmetry_equiv_pos_as_xyz
  1  'x, y, z'
loop_
 _atom_site_type_symbol
 _atom_site_label
 _atom_site_symmetry_multiplicity
 _atom_site_fract_x
 _atom_site_fract_y
 _atom_site_fract_z
 _atom_site_occupancy
  Lu  Lu0  1  0.333333  0.666667  0.000000  1
  Lu  Lu1  1  0.666667  0.333333  0.000000  1
  Lu  Lu2  1  0.820081  0.000000  0.500000  1
  Lu  Lu3  1  0.000000  0.820081  0.500000  1
  Lu  Lu4  1  0.179919  0.179919  0.500000  1
  Tc  Tc5  1  0.455453  0.000000  0.000000  1
  Tc  Tc6  1  0.000000  0.455453  0.000000  1
  Tc  Tc7  1  0.544547  0.544547  0.000000  1
  P  P8  1  0.175359  0.000000  0.000000  1
  P  P9  1  0.000000  0.175359  0.000000  1
  P  P10  1  0.824641  0.824641  0.000000  1
  P  P11  1  0.169400  0.484962  0.500000  1
  P  P12  1  0.515038  0.684437  0.500000  1
  P  P13  1  0.315563  0.830600  0.500000  1
  P  P14  1  0.684437  0.515038  0.500000  1
  P  P15  1  0.830600  0.315563  0.500000  1
  P  P16  1  0.484962  0.169400  0.500000  1
  P  P17  1  0.640141  0.000000  0.000000  1
  P  P18  1  0.000000  0.640141  0.000000  1
  P  P19  1  0.359859  0.359859  0.000000  1
  Ir  Ir20  1  0.357177  0.490611  0.500000  1
  Ir  Ir21  1  0.509389  0.866566  0.500000  1
  Ir  Ir22  1  0.133434  0.642823  0.500000  1
  Ir  Ir23  1  0.866566  0.509389  0.500000  1
  Ir  Ir24  1  0.642823  0.133434  0.500000  1
  Ir  Ir25  1  0.490611  0.357177  0.500000  1
  Ir  Ir26  1  0.178963  0.370509  0.000000  1
  Ir  Ir27  1  0.629491  0.808455  0.000000  1
  Ir  Ir28  1  0.191545  0.821037  0.000000  1
  Ir  Ir29  1  0.808455  0.629491  0.000000  1
  Ir  Ir30  1  0.821037  0.191545  0.000000  1
  Ir  Ir31  1  0.370509  0.178963  0.000000  1
  Ir  Ir32  1  0.290873  0.000000  0.500000  1
  Ir  Ir33  1  0.000000  0.290873  0.500000  1
  Ir  Ir34  1  0.709127  0.709127  0.500000  1
  Ir  Ir35  1  0.000000  0.000000  0.000000  1
