# generated using pymatgen
data_Pr3NdP6N13
_symmetry_space_group_name_H-M   'P 1'
_cell_length_a   7.46177258
_cell_length_b   7.46177199
_cell_length_c   7.46177300
_cell_angle_alpha   109.13151245
_cell_angle_beta   109.13151086
_cell_angle_gamma   109.13152036
_symmetry_Int_Tables_number   1
_chemical_formula_structural   Pr3NdP6N13
_chemical_formula_sum   'Pr3 Nd1 P6 N13'
_cell_volume   323.77887667
_cell_formula_units_Z   1
loop_
 _symmetry_equiv_pos_site_id
 _symmetry_equiv_pos_as_xyz
  1  'x, y, z'
loop_
 _atom_site_type_symbol
 _atom_site_label
 _atom_site_symmetry_multiplicity
 _atom_site_fract_x
 _atom_site_fract_y
 _atom_site_fract_z
 _atom_site_occupancy
  Pr  Pr0  1  0.703275  0.002355  0.002355  1
  Pr  Pr1  1  0.002355  0.002355  0.703275  1
  Pr  Pr2  1  0.002355  0.703275  0.002355  1
  Nd  Nd3  1  0.357105  0.357105  0.357105  1
  P  P4  1  0.238499  0.751169  0.497661  1
  P  P5  1  0.751169  0.238499  0.497661  1
  P  P6  1  0.751169  0.497661  0.238499  1
  P  P7  1  0.238499  0.497661  0.751169  1
  P  P8  1  0.497661  0.751169  0.238499  1
  P  P9  1  0.497661  0.238499  0.751169  1
  N  N10  1  0.060300  0.060300  0.060300  1
  N  N11  1  0.713318  0.307812  0.307812  1
  N  N12  1  0.307812  0.713318  0.307812  1
  N  N13  1  0.253381  0.574743  0.574743  1
  N  N14  1  0.574743  0.574743  0.253381  1
  N  N15  1  0.380405  0.713055  0.990610  1
  N  N16  1  0.990610  0.713055  0.380405  1
  N  N17  1  0.574743  0.253381  0.574743  1
  N  N18  1  0.713055  0.990610  0.380405  1
  N  N19  1  0.380405  0.990610  0.713055  1
  N  N20  1  0.713055  0.380405  0.990610  1
  N  N21  1  0.307812  0.307812  0.713318  1
  N  N22  1  0.990610  0.380405  0.713055  1
