# generated using pymatgen
data_Ho9Lu3ZnInCo4
_symmetry_space_group_name_H-M   'P 1'
_cell_length_a   8.24855768
_cell_length_b   8.24495771
_cell_length_c   8.24855882
_cell_angle_alpha   111.62063764
_cell_angle_beta   110.19935041
_cell_angle_gamma   106.65085371
_symmetry_Int_Tables_number   1
_chemical_formula_structural   Ho9Lu3ZnInCo4
_chemical_formula_sum   'Ho9 Lu3 Zn1 In1 Co4'
_cell_volume   430.89413909
_cell_formula_units_Z   1
loop_
 _symmetry_equiv_pos_site_id
 _symmetry_equiv_pos_as_xyz
  1  'x, y, z'
loop_
 _atom_site_type_symbol
 _atom_site_label
 _atom_site_symmetry_multiplicity
 _atom_site_fract_x
 _atom_site_fract_y
 _atom_site_fract_z
 _atom_site_occupancy
  Ho  Ho0  1  0.683903  0.988740  0.304836  1
  Ho  Ho1  1  0.186750  0.287568  0.472791  1
  Ho  Ho2  1  0.814914  0.711916  0.528004  1
  Ho  Ho3  1  0.183913  0.711916  0.897002  1
  Ho  Ho4  1  0.814776  0.287568  0.100819  1
  Ho  Ho5  1  0.427321  0.225452  0.202920  1
  Ho  Ho6  1  0.570695  0.774607  0.795380  1
  Ho  Ho7  1  0.022533  0.225452  0.798131  1
  Ho  Ho8  1  0.979226  0.774607  0.203912  1
  Lu  Lu9  1  0.316681  0.622537  0.305856  1
  Lu  Lu10  1  0.683685  0.378262  0.694577  1
  Lu  Lu11  1  0.316302  0.010865  0.694564  1
  Zn  Zn12  1  0.999273  0.998540  0.999267  1
  In  In13  1  0.499315  0.498009  0.998693  1
  Co  Co14  1  0.114708  0.614147  0.499440  1
  Co  Co15  1  0.887594  0.387759  0.500165  1
  Co  Co16  1  0.374440  0.001028  0.377057  1
  Co  Co17  1  0.623971  0.001028  0.626588  1
