# generated using pymatgen
data_TbThSi3Ag
_symmetry_space_group_name_H-M   'P 1'
_cell_length_a   4.10744267
_cell_length_b   4.22659736
_cell_length_c   7.79622336
_cell_angle_alpha   74.27223747
_cell_angle_beta   74.72660150
_cell_angle_gamma   89.99999705
_symmetry_Int_Tables_number   1
_chemical_formula_structural   TbThSi3Ag
_chemical_formula_sum   'Tb1 Th1 Si3 Ag1'
_cell_volume   125.30545799
_cell_formula_units_Z   1
loop_
 _symmetry_equiv_pos_site_id
 _symmetry_equiv_pos_as_xyz
  1  'x, y, z'
loop_
 _atom_site_type_symbol
 _atom_site_label
 _atom_site_symmetry_multiplicity
 _atom_site_fract_x
 _atom_site_fract_y
 _atom_site_fract_z
 _atom_site_occupancy
  Tb  Tb0  1  0.135196  0.385196  0.729608  1
  Th  Th1  1  0.867740  0.617740  0.264522  1
  Si  Si2  1  0.292233  0.042233  0.415534  1
  Si  Si3  1  0.454376  0.204376  0.091247  1
  Si  Si4  1  0.708807  0.958807  0.582383  1
  Ag  Ag5  1  0.541648  0.791648  0.916707  1
