# generated using pymatgen
data_Rb2InF5
_symmetry_space_group_name_H-M   'P 1'
_cell_length_a   7.70423724
_cell_length_b   7.70423774
_cell_length_c   7.95411769
_cell_angle_alpha   64.35912275
_cell_angle_beta   64.35912073
_cell_angle_gamma   47.71046212
_symmetry_Int_Tables_number   1
_chemical_formula_structural   Rb2InF5
_chemical_formula_sum   'Rb4 In2 F10'
_cell_volume   307.68446966
_cell_formula_units_Z   2
loop_
 _symmetry_equiv_pos_site_id
 _symmetry_equiv_pos_as_xyz
  1  'x, y, z'
loop_
 _atom_site_type_symbol
 _atom_site_label
 _atom_site_symmetry_multiplicity
 _atom_site_fract_x
 _atom_site_fract_y
 _atom_site_fract_z
 _atom_site_occupancy
  Rb  Rb0  1  0.476590  0.476590  0.247159  1
  Rb  Rb1  1  0.523410  0.523410  0.752841  1
  Rb  Rb2  1  0.166503  0.166503  0.225093  1
  Rb  Rb3  1  0.833497  0.833497  0.774907  1
  In  In4  1  0.188856  0.188856  0.716880  1
  In  In5  1  0.811144  0.811144  0.283120  1
  F  F6  1  0.000000  0.500000  0.500000  1
  F  F7  1  0.500000  0.000000  0.500000  1
  F  F8  1  0.056320  0.056320  0.667145  1
  F  F9  1  0.943680  0.943680  0.332855  1
  F  F10  1  0.345181  0.345181  0.687347  1
  F  F11  1  0.654819  0.654819  0.312653  1
  F  F12  1  0.892672  0.384718  0.917760  1
  F  F13  1  0.384718  0.892672  0.917760  1
  F  F14  1  0.107328  0.615282  0.082240  1
  F  F15  1  0.615282  0.107328  0.082240  1
