# generated using pymatgen
data_Tb5PrTi2(Al11Ru4)2
_symmetry_space_group_name_H-M   'P 1'
_cell_length_a   8.87792851
_cell_length_b   8.87792767
_cell_length_c   9.58881828
_cell_angle_alpha   90.05093342
_cell_angle_beta   89.94906526
_cell_angle_gamma   119.71405677
_symmetry_Int_Tables_number   1
_chemical_formula_structural   Tb5PrTi2(Al11Ru4)2
_chemical_formula_sum   'Tb5 Pr1 Ti2 Al22 Ru8'
_cell_volume   656.39141878
_cell_formula_units_Z   1
loop_
 _symmetry_equiv_pos_site_id
 _symmetry_equiv_pos_as_xyz
  1  'x, y, z'
loop_
 _atom_site_type_symbol
 _atom_site_label
 _atom_site_symmetry_multiplicity
 _atom_site_fract_x
 _atom_site_fract_y
 _atom_site_fract_z
 _atom_site_occupancy
  Tb  Tb0  1  0.192796  0.386374  0.251202  1
  Tb  Tb1  1  0.807809  0.614768  0.748621  1
  Tb  Tb2  1  0.613626  0.807204  0.251202  1
  Tb  Tb3  1  0.385232  0.192191  0.748621  1
  Tb  Tb4  1  0.192834  0.807166  0.251154  1
  Pr  Pr5  1  0.808213  0.191787  0.749320  1
  Ti  Ti6  1  0.333261  0.666739  0.995433  1
  Ti  Ti7  1  0.666207  0.333793  0.006738  1
  Al  Al8  1  0.666407  0.333593  0.515651  1
  Al  Al9  1  0.332691  0.667309  0.480951  1
  Al  Al10  1  0.164075  0.324746  0.574923  1
  Al  Al11  1  0.838027  0.677206  0.422869  1
  Al  Al12  1  0.675254  0.835925  0.574923  1
  Al  Al13  1  0.841318  0.682157  0.077447  1
  Al  Al14  1  0.322794  0.161973  0.422869  1
  Al  Al15  1  0.161058  0.318799  0.924636  1
  Al  Al16  1  0.161953  0.838047  0.575128  1
  Al  Al17  1  0.317843  0.158682  0.077447  1
  Al  Al18  1  0.837960  0.162040  0.421321  1
  Al  Al19  1  0.681201  0.838942  0.924636  1
  Al  Al20  1  0.840895  0.159105  0.080000  1
  Al  Al21  1  0.159023  0.840977  0.924426  1
  Al  Al22  1  0.559958  0.121369  0.253165  1
  Al  Al23  1  0.436805  0.876303  0.746758  1
  Al  Al24  1  0.878631  0.440042  0.253165  1
  Al  Al25  1  0.123697  0.563195  0.746758  1
  Al  Al26  1  0.560459  0.439541  0.252995  1
  Al  Al27  1  0.439483  0.560517  0.746774  1
  Al  Al28  1  0.999872  0.000128  0.250787  1
  Al  Al29  1  0.002162  0.997838  0.749303  1
  Ru  Ru30  1  0.498412  0.998839  0.001277  1
  Ru  Ru31  1  0.001161  0.501588  0.001277  1
  Ru  Ru32  1  0.498678  0.999497  0.499259  1
  Ru  Ru33  1  0.500155  0.499845  0.000310  1
  Ru  Ru34  1  0.000503  0.501322  0.499259  1
  Ru  Ru35  1  0.499794  0.500206  0.499245  1
  Ru  Ru36  1  0.999871  0.000129  0.000122  1
  Ru  Ru37  1  0.999880  0.000120  0.500030  1
