# generated using pymatgen
data_Ho5Lu3(Ga3Pd)4
_symmetry_space_group_name_H-M   'P 1'
_cell_length_a   8.83455900
_cell_length_b   8.83455996
_cell_length_c   6.97838100
_cell_angle_alpha   90.00000000
_cell_angle_beta   90.00000000
_cell_angle_gamma   120.00061423
_symmetry_Int_Tables_number   1
_chemical_formula_structural   Ho5Lu3(Ga3Pd)4
_chemical_formula_sum   'Ho5 Lu3 Ga12 Pd4'
_cell_volume   471.68538355
_cell_formula_units_Z   1
loop_
 _symmetry_equiv_pos_site_id
 _symmetry_equiv_pos_as_xyz
  1  'x, y, z'
loop_
 _atom_site_type_symbol
 _atom_site_label
 _atom_site_symmetry_multiplicity
 _atom_site_fract_x
 _atom_site_fract_y
 _atom_site_fract_z
 _atom_site_occupancy
  Ho  Ho0  1  0.000033  0.999967  0.250000  1
  Ho  Ho1  1  0.999964  0.000036  0.750000  1
  Ho  Ho2  1  0.518567  0.037171  0.250000  1
  Ho  Ho3  1  0.518500  0.481500  0.250000  1
  Ho  Ho4  1  0.962829  0.481433  0.250000  1
  Lu  Lu5  1  0.480738  0.961430  0.750000  1
  Lu  Lu6  1  0.480819  0.519181  0.750000  1
  Lu  Lu7  1  0.038570  0.519262  0.750000  1
  Ga  Ga8  1  0.167038  0.334160  0.043702  1
  Ga  Ga9  1  0.167133  0.832867  0.456370  1
  Ga  Ga10  1  0.665840  0.832962  0.456298  1
  Ga  Ga11  1  0.665840  0.832962  0.043702  1
  Ga  Ga12  1  0.167133  0.832867  0.043630  1
  Ga  Ga13  1  0.832577  0.665086  0.953379  1
  Ga  Ga14  1  0.832484  0.167516  0.953414  1
  Ga  Ga15  1  0.334914  0.167423  0.953379  1
  Ga  Ga16  1  0.167038  0.334160  0.456298  1
  Ga  Ga17  1  0.334914  0.167423  0.546621  1
  Ga  Ga18  1  0.832577  0.665086  0.546621  1
  Ga  Ga19  1  0.832484  0.167516  0.546586  1
  Pd  Pd20  1  0.333370  0.666630  0.025914  1
  Pd  Pd21  1  0.333370  0.666630  0.474086  1
  Pd  Pd22  1  0.666634  0.333366  0.964633  1
  Pd  Pd23  1  0.666634  0.333366  0.535367  1
