# generated using pymatgen
data_Nd8Ti3Si16Mo9
_symmetry_space_group_name_H-M   'P 1'
_cell_length_a   7.03101991
_cell_length_b   7.03101972
_cell_length_c   13.08052107
_cell_angle_alpha   89.97692318
_cell_angle_beta   90.02307882
_cell_angle_gamma   89.87183702
_symmetry_Int_Tables_number   1
_chemical_formula_structural   Nd8Ti3Si16Mo9
_chemical_formula_sum   'Nd8 Ti3 Si16 Mo9'
_cell_volume   646.63697091
_cell_formula_units_Z   1
loop_
 _symmetry_equiv_pos_site_id
 _symmetry_equiv_pos_as_xyz
  1  'x, y, z'
loop_
 _atom_site_type_symbol
 _atom_site_label
 _atom_site_symmetry_multiplicity
 _atom_site_fract_x
 _atom_site_fract_y
 _atom_site_fract_z
 _atom_site_occupancy
  Nd  Nd0  1  0.337525  0.004632  0.468376  1
  Nd  Nd1  1  0.494263  0.836648  0.718912  1
  Nd  Nd2  1  0.501941  0.163750  0.217338  1
  Nd  Nd3  1  0.836648  0.494263  0.281088  1
  Nd  Nd4  1  0.163750  0.501941  0.782662  1
  Nd  Nd5  1  0.661666  0.996355  0.968641  1
  Nd  Nd6  1  0.004632  0.337525  0.531624  1
  Nd  Nd7  1  0.996355  0.661666  0.031359  1
  Ti  Ti8  1  0.172514  0.830606  0.248044  1
  Ti  Ti9  1  0.830606  0.172514  0.751956  1
  Ti  Ti10  1  0.669752  0.669752  0.500000  1
  Si  Si11  1  0.197493  0.124014  0.687540  1
  Si  Si12  1  0.379716  0.692361  0.938513  1
  Si  Si13  1  0.623865  0.302200  0.437769  1
  Si  Si14  1  0.692361  0.379716  0.061487  1
  Si  Si15  1  0.302200  0.623865  0.562231  1
  Si  Si16  1  0.799772  0.876818  0.188145  1
  Si  Si17  1  0.124014  0.197493  0.312460  1
  Si  Si18  1  0.876818  0.799772  0.811855  1
  Si  Si19  1  0.283929  0.964878  0.061055  1
  Si  Si20  1  0.539720  0.787103  0.313547  1
  Si  Si21  1  0.458628  0.214497  0.814800  1
  Si  Si22  1  0.787103  0.539720  0.686453  1
  Si  Si23  1  0.214497  0.458628  0.185200  1
  Si  Si24  1  0.714505  0.040938  0.563628  1
  Si  Si25  1  0.964878  0.283929  0.938945  1
  Si  Si26  1  0.040938  0.714505  0.436372  1
  Mo  Mo27  1  0.331426  0.331426  0.000000  1
  Mo  Mo28  1  0.157967  0.005369  0.873650  1
  Mo  Mo29  1  0.490321  0.668159  0.127061  1
  Mo  Mo30  1  0.509268  0.338511  0.625823  1
  Mo  Mo31  1  0.668159  0.490321  0.872939  1
  Mo  Mo32  1  0.338511  0.509268  0.374177  1
  Mo  Mo33  1  0.838684  0.990205  0.375490  1
  Mo  Mo34  1  0.005369  0.157967  0.126350  1
  Mo  Mo35  1  0.990205  0.838684  0.624510  1
