# generated using pymatgen
data_Zr6Al16CoIrPt5
_symmetry_space_group_name_H-M   'P 1'
_cell_length_a   8.75736052
_cell_length_b   8.74192427
_cell_length_c   8.74192451
_cell_angle_alpha   60.15902059
_cell_angle_beta   59.94156495
_cell_angle_gamma   59.94157261
_symmetry_Int_Tables_number   1
_chemical_formula_structural   Zr6Al16CoIrPt5
_chemical_formula_sum   'Zr6 Al16 Co1 Ir1 Pt5'
_cell_volume   473.37627164
_cell_formula_units_Z   1
loop_
 _symmetry_equiv_pos_site_id
 _symmetry_equiv_pos_as_xyz
  1  'x, y, z'
loop_
 _atom_site_type_symbol
 _atom_site_label
 _atom_site_symmetry_multiplicity
 _atom_site_fract_x
 _atom_site_fract_y
 _atom_site_fract_z
 _atom_site_occupancy
  Zr  Zr0  1  0.688336  0.686329  0.313671  1
  Zr  Zr1  1  0.311664  0.686329  0.313671  1
  Zr  Zr2  1  0.687801  0.312199  0.312199  1
  Zr  Zr3  1  0.311664  0.313671  0.686329  1
  Zr  Zr4  1  0.688336  0.313671  0.686329  1
  Zr  Zr5  1  0.312199  0.687801  0.687801  1
  Al  Al6  1  0.885241  0.871009  0.358509  1
  Al  Al7  1  0.885241  0.358509  0.871009  1
  Al  Al8  1  0.357170  0.880202  0.880202  1
  Al  Al9  1  0.882426  0.880202  0.880202  1
  Al  Al10  1  0.114759  0.128991  0.641491  1
  Al  Al11  1  0.114759  0.641491  0.128991  1
  Al  Al12  1  0.642830  0.119798  0.119798  1
  Al  Al13  1  0.117574  0.119798  0.119798  1
  Al  Al14  1  0.664340  0.663645  0.007674  1
  Al  Al15  1  0.664340  0.007674  0.663645  1
  Al  Al16  1  0.006201  0.659600  0.659600  1
  Al  Al17  1  0.674597  0.659600  0.659600  1
  Al  Al18  1  0.335660  0.336355  0.992326  1
  Al  Al19  1  0.335660  0.992326  0.336355  1
  Al  Al20  1  0.993799  0.340400  0.340400  1
  Al  Al21  1  0.325403  0.340400  0.340400  1
  Co  Co22  1  0.000000  0.500000  0.500000  1
  Ir  Ir23  1  0.000000  0.000000  0.000000  1
  Pt  Pt24  1  0.000000  0.000000  0.500000  1
  Pt  Pt25  1  0.500000  0.000000  0.500000  1
  Pt  Pt26  1  0.500000  0.500000  0.000000  1
  Pt  Pt27  1  0.000000  0.500000  0.000000  1
  Pt  Pt28  1  0.500000  0.000000  0.000000  1
