# generated using pymatgen
data_NaLa2(CoP)6
_symmetry_space_group_name_H-M   'P 1'
_cell_length_a   8.21916076
_cell_length_b   8.21915935
_cell_length_c   6.24572128
_cell_angle_alpha   69.03568368
_cell_angle_beta   69.03568815
_cell_angle_gamma   37.55762306
_symmetry_Int_Tables_number   1
_chemical_formula_structural   NaLa2(CoP)6
_chemical_formula_sum   'Na1 La2 Co6 P6'
_cell_volume   238.11768061
_cell_formula_units_Z   1
loop_
 _symmetry_equiv_pos_site_id
 _symmetry_equiv_pos_as_xyz
  1  'x, y, z'
loop_
 _atom_site_type_symbol
 _atom_site_label
 _atom_site_symmetry_multiplicity
 _atom_site_fract_x
 _atom_site_fract_y
 _atom_site_fract_z
 _atom_site_occupancy
  Na  Na0  1  0.000000  0.000000  0.000000  1
  La  La1  1  0.659644  0.659644  0.680556  1
  La  La2  1  0.340356  0.340356  0.319444  1
  Co  Co3  1  0.082052  0.584767  0.833825  1
  Co  Co4  1  0.415233  0.917948  0.166175  1
  Co  Co5  1  0.753162  0.246838  0.500000  1
  Co  Co6  1  0.246838  0.753162  0.500000  1
  Co  Co7  1  0.584767  0.082052  0.833825  1
  Co  Co8  1  0.917948  0.415233  0.166175  1
  P  P9  1  0.880944  0.880944  0.526753  1
  P  P10  1  0.217232  0.217232  0.858081  1
  P  P11  1  0.549734  0.549734  0.199140  1
  P  P12  1  0.450266  0.450266  0.800860  1
  P  P13  1  0.782768  0.782768  0.141919  1
  P  P14  1  0.119056  0.119056  0.473247  1
