# generated using pymatgen
data_HoHfSn2IrRh
_symmetry_space_group_name_H-M   'P 1'
_cell_length_a   7.46532200
_cell_length_b   7.46532293
_cell_length_c   7.51270100
_cell_angle_alpha   90.00000000
_cell_angle_beta   90.00000000
_cell_angle_gamma   120.00000473
_symmetry_Int_Tables_number   1
_chemical_formula_structural   HoHfSn2IrRh
_chemical_formula_sum   'Ho3 Hf3 Sn6 Ir3 Rh3'
_cell_volume   362.59671021
_cell_formula_units_Z   3
loop_
 _symmetry_equiv_pos_site_id
 _symmetry_equiv_pos_as_xyz
  1  'x, y, z'
loop_
 _atom_site_type_symbol
 _atom_site_label
 _atom_site_symmetry_multiplicity
 _atom_site_fract_x
 _atom_site_fract_y
 _atom_site_fract_z
 _atom_site_occupancy
  Ho  Ho0  1  0.000454  0.406868  0.749584  1
  Ho  Ho1  1  0.593132  0.593586  0.749584  1
  Ho  Ho2  1  0.406414  0.999546  0.749584  1
  Hf  Hf3  1  0.998541  0.392864  0.250314  1
  Hf  Hf4  1  0.607136  0.605676  0.250314  1
  Hf  Hf5  1  0.394324  0.001459  0.250314  1
  Sn  Sn6  1  0.265421  0.266746  0.493876  1
  Sn  Sn7  1  0.001325  0.734579  0.493876  1
  Sn  Sn8  1  0.000239  0.733701  0.006068  1
  Sn  Sn9  1  0.733254  0.998675  0.493876  1
  Sn  Sn10  1  0.733462  0.999761  0.006068  1
  Sn  Sn11  1  0.266299  0.266538  0.006068  1
  Ir  Ir12  1  0.333333  0.666667  0.460150  1
  Ir  Ir13  1  0.666667  0.333333  0.464053  1
  Ir  Ir14  1  0.333333  0.666667  0.039440  1
  Rh  Rh15  1  0.000000  0.000000  0.749723  1
  Rh  Rh16  1  0.000000  0.000000  0.250328  1
  Rh  Rh17  1  0.666667  0.333333  0.036782  1
