# generated using pymatgen
data_CeNdAlSnRh2
_symmetry_space_group_name_H-M   'P 1'
_cell_length_a   4.25322700
_cell_length_b   7.38571900
_cell_length_c   16.37398000
_cell_angle_alpha   90.00000000
_cell_angle_beta   90.00000000
_cell_angle_gamma   90.00000000
_symmetry_Int_Tables_number   1
_chemical_formula_structural   CeNdAlSnRh2
_chemical_formula_sum   'Ce4 Nd4 Al4 Sn4 Rh8'
_cell_volume   514.35811734
_cell_formula_units_Z   4
loop_
 _symmetry_equiv_pos_site_id
 _symmetry_equiv_pos_as_xyz
  1  'x, y, z'
loop_
 _atom_site_type_symbol
 _atom_site_label
 _atom_site_symmetry_multiplicity
 _atom_site_fract_x
 _atom_site_fract_y
 _atom_site_fract_z
 _atom_site_occupancy
  Ce  Ce0  1  0.250000  0.043674  0.785322  1
  Ce  Ce1  1  0.750000  0.956326  0.214678  1
  Ce  Ce2  1  0.250000  0.543674  0.714678  1
  Ce  Ce3  1  0.750000  0.456326  0.285322  1
  Nd  Nd4  1  0.250000  0.169972  0.559645  1
  Nd  Nd5  1  0.750000  0.830028  0.440355  1
  Nd  Nd6  1  0.250000  0.669972  0.940355  1
  Nd  Nd7  1  0.750000  0.330028  0.059645  1
  Al  Al8  1  0.250000  0.005791  0.060635  1
  Al  Al9  1  0.750000  0.994209  0.939365  1
  Al  Al10  1  0.250000  0.505791  0.439365  1
  Al  Al11  1  0.750000  0.494209  0.560635  1
  Sn  Sn12  1  0.250000  0.121596  0.350117  1
  Sn  Sn13  1  0.750000  0.878404  0.649883  1
  Sn  Sn14  1  0.250000  0.621596  0.149883  1
  Sn  Sn15  1  0.750000  0.378404  0.850117  1
  Rh  Rh16  1  0.750000  0.293311  0.427837  1
  Rh  Rh17  1  0.250000  0.706689  0.572163  1
  Rh  Rh18  1  0.750000  0.793311  0.072163  1
  Rh  Rh19  1  0.250000  0.206689  0.927837  1
  Rh  Rh20  1  0.750000  0.765584  0.816434  1
  Rh  Rh21  1  0.250000  0.234416  0.183566  1
  Rh  Rh22  1  0.750000  0.265584  0.683566  1
  Rh  Rh23  1  0.250000  0.734416  0.316434  1
