# generated using pymatgen
data_HoCd2Ni7B2
_symmetry_space_group_name_H-M   'P 1'
_cell_length_a   4.96943065
_cell_length_b   4.96679599
_cell_length_c   14.03662900
_cell_angle_alpha   90.00000000
_cell_angle_beta   90.00000000
_cell_angle_gamma   120.04653354
_symmetry_Int_Tables_number   1
_chemical_formula_structural   HoCd2Ni7B2
_chemical_formula_sum   'Ho2 Cd4 Ni14 B4'
_cell_volume   299.89731384
_cell_formula_units_Z   2
loop_
 _symmetry_equiv_pos_site_id
 _symmetry_equiv_pos_as_xyz
  1  'x, y, z'
loop_
 _atom_site_type_symbol
 _atom_site_label
 _atom_site_symmetry_multiplicity
 _atom_site_fract_x
 _atom_site_fract_y
 _atom_site_fract_z
 _atom_site_occupancy
  Ho  Ho0  1  0.666534  0.333874  0.750000  1
  Ho  Ho1  1  0.333466  0.666126  0.250000  1
  Cd  Cd2  1  0.333315  0.666666  0.470933  1
  Cd  Cd3  1  0.666685  0.333334  0.970933  1
  Cd  Cd4  1  0.666685  0.333334  0.529067  1
  Cd  Cd5  1  0.333315  0.666666  0.029067  1
  Ni  Ni6  1  0.832711  0.165209  0.353242  1
  Ni  Ni7  1  0.834826  0.667958  0.353533  1
  Ni  Ni8  1  0.000000  0.000000  0.000000  1
  Ni  Ni9  1  0.000000  0.000000  0.500000  1
  Ni  Ni10  1  0.834826  0.667958  0.146467  1
  Ni  Ni11  1  0.167289  0.834791  0.646758  1
  Ni  Ni12  1  0.669103  0.835302  0.646812  1
  Ni  Ni13  1  0.330897  0.164698  0.146812  1
  Ni  Ni14  1  0.832711  0.165209  0.146758  1
  Ni  Ni15  1  0.165174  0.332042  0.853533  1
  Ni  Ni16  1  0.167289  0.834791  0.853242  1
  Ni  Ni17  1  0.165174  0.332042  0.646467  1
  Ni  Ni18  1  0.669103  0.835302  0.853188  1
  Ni  Ni19  1  0.330897  0.164698  0.353188  1
  B  B20  1  0.666610  0.333520  0.250000  1
  B  B21  1  0.333390  0.666480  0.750000  1
  B  B22  1  0.000348  0.000326  0.750000  1
  B  B23  1  0.999652  0.999674  0.250000  1
