# generated using pymatgen
data_CsBe3H7
_symmetry_space_group_name_H-M   'P 1'
_cell_length_a   4.57694252
_cell_length_b   4.37280574
_cell_length_c   7.97635636
_cell_angle_alpha   77.19779903
_cell_angle_beta   113.17950070
_cell_angle_gamma   78.40607328
_symmetry_Int_Tables_number   1
_chemical_formula_structural   CsBe3H7
_chemical_formula_sum   'Cs1 Be3 H7'
_cell_volume   135.50748963
_cell_formula_units_Z   1
loop_
 _symmetry_equiv_pos_site_id
 _symmetry_equiv_pos_as_xyz
  1  'x, y, z'
loop_
 _atom_site_type_symbol
 _atom_site_label
 _atom_site_symmetry_multiplicity
 _atom_site_fract_x
 _atom_site_fract_y
 _atom_site_fract_z
 _atom_site_occupancy
  Cs  Cs0  1  0.396496  0.072229  0.478837  1
  Be  Be1  1  0.635252  0.909141  0.094293  1
  Be  Be2  1  0.111305  0.794856  0.002430  1
  Be  Be3  1  0.111299  0.322115  0.828691  1
  H  H4  1  0.745595  0.044698  0.240226  1
  H  H5  1  0.951600  0.150316  0.923009  1
  H  H6  1  0.077883  0.651261  0.851522  1
  H  H7  1  0.457245  0.686158  0.147431  1
  H  H8  1  0.921496  0.675514  0.096452  1
  H  H9  1  0.940373  0.395641  0.626947  1
  H  H10  1  0.454230  0.136895  0.895574  1
