# generated using pymatgen
data_Pr8ZnSi7Br6
_symmetry_space_group_name_H-M   'P 1'
_cell_length_a   11.92768116
_cell_length_b   11.92768055
_cell_length_c   12.32951199
_cell_angle_alpha   83.12879817
_cell_angle_beta   83.12879782
_cell_angle_gamma   20.05324307
_symmetry_Int_Tables_number   1
_chemical_formula_structural   Pr8ZnSi7Br6
_chemical_formula_sum   'Pr8 Zn1 Si7 Br6'
_cell_volume   597.01835224
_cell_formula_units_Z   1
loop_
 _symmetry_equiv_pos_site_id
 _symmetry_equiv_pos_as_xyz
  1  'x, y, z'
loop_
 _atom_site_type_symbol
 _atom_site_label
 _atom_site_symmetry_multiplicity
 _atom_site_fract_x
 _atom_site_fract_y
 _atom_site_fract_z
 _atom_site_occupancy
  Pr  Pr0  1  0.497329  0.497329  0.161719  1
  Pr  Pr1  1  0.919422  0.919422  0.445989  1
  Pr  Pr2  1  0.349980  0.349980  0.030986  1
  Pr  Pr3  1  0.078146  0.078146  0.562395  1
  Pr  Pr4  1  0.650459  0.650459  0.969524  1
  Pr  Pr5  1  0.645778  0.645778  0.291655  1
  Pr  Pr6  1  0.355700  0.355700  0.706173  1
  Pr  Pr7  1  0.502062  0.502062  0.833344  1
  Zn  Zn8  1  0.527368  0.527368  0.409535  1
  Si  Si9  1  0.044669  0.044669  0.315015  1
  Si  Si10  1  0.052438  0.052438  0.982386  1
  Si  Si11  1  0.475987  0.475987  0.585285  1
  Si  Si12  1  0.897809  0.897809  0.861779  1
  Si  Si13  1  0.947478  0.947478  0.015198  1
  Si  Si14  1  0.955093  0.955093  0.681770  1
  Si  Si15  1  0.100562  0.100562  0.138690  1
  Br  Br16  1  0.243794  0.243794  0.875778  1
  Br  Br17  1  0.757150  0.757150  0.125181  1
  Br  Br18  1  0.798782  0.798782  0.576479  1
  Br  Br19  1  0.372436  0.372436  0.286520  1
  Br  Br20  1  0.198629  0.198629  0.425892  1
  Br  Br21  1  0.628928  0.628928  0.718708  1
