# generated using pymatgen
data_Ba4CaMn(PO4)4
_symmetry_space_group_name_H-M   'P 1'
_cell_length_a   5.43016075
_cell_length_b   9.17507700
_cell_length_c   16.63919972
_cell_angle_alpha   90.00030656
_cell_angle_beta   90.12821199
_cell_angle_gamma   89.99894721
_symmetry_Int_Tables_number   1
_chemical_formula_structural   Ba4CaMn(PO4)4
_chemical_formula_sum   'Ba8 Ca2 Mn2 P8 O32'
_cell_volume   828.99851201
_cell_formula_units_Z   2
loop_
 _symmetry_equiv_pos_site_id
 _symmetry_equiv_pos_as_xyz
  1  'x, y, z'
loop_
 _atom_site_type_symbol
 _atom_site_label
 _atom_site_symmetry_multiplicity
 _atom_site_fract_x
 _atom_site_fract_y
 _atom_site_fract_z
 _atom_site_occupancy
  Ba  Ba0  1  0.229477  0.659415  0.773190  1
  Ba  Ba1  1  0.270511  0.159414  0.726812  1
  Ba  Ba2  1  0.761447  0.343081  0.230504  1
  Ba  Ba3  1  0.738562  0.843068  0.269492  1
  Ba  Ba4  1  0.798497  0.199989  0.475731  1
  Ba  Ba5  1  0.701496  0.699993  0.024271  1
  Ba  Ba6  1  0.204309  0.796732  0.518804  1
  Ba  Ba7  1  0.295677  0.296735  0.981195  1
  Ca  Ca8  1  0.763559  0.016329  0.864458  1
  Ca  Ca9  1  0.736432  0.516330  0.635540  1
  Mn  Mn10  1  0.268228  0.481616  0.363052  1
  Mn  Mn11  1  0.231903  0.981691  0.136928  1
  P  P12  1  0.745508  0.902284  0.658756  1
  P  P13  1  0.754481  0.402283  0.841241  1
  P  P14  1  0.258230  0.103537  0.336129  1
  P  P15  1  0.241759  0.603547  0.163873  1
  P  P16  1  0.241853  0.898971  0.924889  1
  P  P17  1  0.738394  0.596127  0.418405  1
  P  P18  1  0.761633  0.096120  0.081594  1
  P  P19  1  0.258135  0.398968  0.575112  1
  O  O20  1  0.838534  0.003088  0.728336  1
  O  O21  1  0.661452  0.503089  0.771664  1
  O  O22  1  0.161446  0.011179  0.263400  1
  O  O23  1  0.338545  0.511178  0.236598  1
  O  O24  1  0.458707  0.888750  0.664838  1
  O  O25  1  0.041283  0.388749  0.835161  1
  O  O26  1  0.545490  0.111542  0.333235  1
  O  O27  1  0.954497  0.611535  0.166765  1
  O  O28  1  0.870898  0.750059  0.668563  1
  O  O29  1  0.629092  0.250058  0.831436  1
  O  O30  1  0.142248  0.260115  0.330304  1
  O  O31  1  0.357749  0.760117  0.169700  1
  O  O32  1  0.821735  0.966189  0.575906  1
  O  O33  1  0.678253  0.466188  0.924093  1
  O  O34  1  0.170722  0.031428  0.415925  1
  O  O35  1  0.329271  0.531421  0.084082  1
  O  O36  1  0.469971  0.830923  0.881946  1
  O  O37  1  0.030021  0.330923  0.618060  1
  O  O38  1  0.524634  0.146601  0.127341  1
  O  O39  1  0.975395  0.646582  0.372655  1
  O  O40  1  0.786977  0.603414  0.509152  1
  O  O41  1  0.713006  0.103418  0.990851  1
  O  O42  1  0.211411  0.400876  0.484126  1
  O  O43  1  0.288574  0.900886  0.015874  1
  O  O44  1  0.518488  0.697051  0.395304  1
  O  O45  1  0.981510  0.197060  0.104696  1
  O  O46  1  0.197658  0.054374  0.888495  1
  O  O47  1  0.010689  0.806300  0.902797  1
  O  O48  1  0.668341  0.440002  0.387942  1
  O  O49  1  0.831678  0.940004  0.112064  1
  O  O50  1  0.302332  0.554374  0.611508  1
  O  O51  1  0.489304  0.306297  0.597208  1
