# generated using pymatgen
data_Yb2Pa(InPt)3
_symmetry_space_group_name_H-M   'P 1'
_cell_length_a   7.75904700
_cell_length_b   7.63237549
_cell_length_c   3.93573100
_cell_angle_alpha   90.00000000
_cell_angle_beta   90.00000000
_cell_angle_gamma   120.55055117
_symmetry_Int_Tables_number   1
_chemical_formula_structural   Yb2Pa(InPt)3
_chemical_formula_sum   'Yb2 Pa1 In3 Pt3'
_cell_volume   200.71876398
_cell_formula_units_Z   1
loop_
 _symmetry_equiv_pos_site_id
 _symmetry_equiv_pos_as_xyz
  1  'x, y, z'
loop_
 _atom_site_type_symbol
 _atom_site_label
 _atom_site_symmetry_multiplicity
 _atom_site_fract_x
 _atom_site_fract_y
 _atom_site_fract_z
 _atom_site_occupancy
  Yb  Yb0  1  0.996745  0.403349  0.000000  1
  Yb  Yb1  1  0.593396  0.596651  0.000000  1
  Pa  Pa2  1  0.412789  0.000000  0.000000  1
  In  In3  1  0.756529  0.000000  0.500000  1
  In  In4  1  0.982981  0.722922  0.500000  1
  In  In5  1  0.260058  0.277078  0.500000  1
  Pt  Pt6  1  0.336016  0.695797  0.500000  1
  Pt  Pt7  1  0.640220  0.304203  0.500000  1
  Pt  Pt8  1  0.021267  0.000000  0.000000  1
