# generated using pymatgen
data_Nd3ErMo4F28
_symmetry_space_group_name_H-M   'P 1'
_cell_length_a   5.75497902
_cell_length_b   9.24855755
_cell_length_c   12.43220300
_cell_angle_alpha   62.30724453
_cell_angle_beta   89.84149251
_cell_angle_gamma   89.99461907
_symmetry_Int_Tables_number   1
_chemical_formula_structural   Nd3ErMo4F28
_chemical_formula_sum   'Nd3 Er1 Mo4 F28'
_cell_volume   585.90742547
_cell_formula_units_Z   1
loop_
 _symmetry_equiv_pos_site_id
 _symmetry_equiv_pos_as_xyz
  1  'x, y, z'
loop_
 _atom_site_type_symbol
 _atom_site_label
 _atom_site_symmetry_multiplicity
 _atom_site_fract_x
 _atom_site_fract_y
 _atom_site_fract_z
 _atom_site_occupancy
  Nd  Nd0  1  0.757132  0.808888  0.766175  1
  Nd  Nd1  1  0.257007  0.189040  0.733832  1
  Nd  Nd2  1  0.244430  0.184153  0.233866  1
  Er  Er3  1  0.741233  0.811217  0.266195  1
  Mo  Mo4  1  0.753456  0.268494  0.959562  1
  Mo  Mo5  1  0.256461  0.726731  0.538228  1
  Mo  Mo6  1  0.242496  0.728335  0.048438  1
  Mo  Mo7  1  0.745358  0.278351  0.454514  1
  F  F8  1  0.457992  0.710596  0.923762  1
  F  F9  1  0.956247  0.295231  0.579939  1
  F  F10  1  0.549496  0.291356  0.080173  1
  F  F11  1  0.049156  0.709290  0.418150  1
  F  F12  1  0.457807  0.283267  0.542448  1
  F  F13  1  0.962888  0.720923  0.956762  1
  F  F14  1  0.550894  0.724127  0.443191  1
  F  F15  1  0.047361  0.275278  0.048199  1
  F  F16  1  0.767823  0.510400  0.863672  1
  F  F17  1  0.275392  0.486752  0.635906  1
  F  F18  1  0.225984  0.487021  0.141108  1
  F  F19  1  0.733372  0.520969  0.359377  1
  F  F20  1  0.753525  0.028090  0.055222  1
  F  F21  1  0.253941  0.967579  0.445358  1
  F  F22  1  0.238050  0.967922  0.950603  1
  F  F23  1  0.738889  0.037789  0.550351  1
  F  F24  1  0.976929  0.729682  0.639108  1
  F  F25  1  0.469209  0.267900  0.863463  1
  F  F26  1  0.022109  0.267567  0.362947  1
  F  F27  1  0.514328  0.735470  0.144968  1
  F  F28  1  0.026478  0.749758  0.173411  1
  F  F29  1  0.541656  0.257053  0.327796  1
  F  F30  1  0.952668  0.250568  0.834489  1
  F  F31  1  0.457056  0.747613  0.661037  1
  F  F32  1  0.437248  0.969065  0.231674  1
  F  F33  1  0.922574  0.014091  0.267077  1
  F  F34  1  0.582030  0.031099  0.765211  1
  F  F35  1  0.081328  0.968334  0.733785  1
