# generated using pymatgen
data_Ba3Pu2CdO9
_symmetry_space_group_name_H-M   'P 1'
_cell_length_a   6.16625000
_cell_length_b   6.16624901
_cell_length_c   7.59105600
_cell_angle_alpha   90.00000000
_cell_angle_beta   90.00000000
_cell_angle_gamma   120.00000532
_symmetry_Int_Tables_number   1
_chemical_formula_structural   Ba3Pu2CdO9
_chemical_formula_sum   'Ba3 Pu2 Cd1 O9'
_cell_volume   249.96257545
_cell_formula_units_Z   1
loop_
 _symmetry_equiv_pos_site_id
 _symmetry_equiv_pos_as_xyz
  1  'x, y, z'
loop_
 _atom_site_type_symbol
 _atom_site_label
 _atom_site_symmetry_multiplicity
 _atom_site_fract_x
 _atom_site_fract_y
 _atom_site_fract_z
 _atom_site_occupancy
  Ba  Ba0  1  0.000000  0.000000  0.000000  1
  Ba  Ba1  1  0.333333  0.666667  0.646495  1
  Ba  Ba2  1  0.666667  0.333333  0.353505  1
  Pu  Pu3  1  0.333333  0.666667  0.164559  1
  Pu  Pu4  1  0.666667  0.333333  0.835441  1
  Cd  Cd5  1  0.000000  0.000000  0.500000  1
  O  O6  1  0.174434  0.825566  0.324201  1
  O  O7  1  0.825566  0.174434  0.675799  1
  O  O8  1  0.174434  0.348869  0.324201  1
  O  O9  1  0.825566  0.651131  0.675799  1
  O  O10  1  0.651131  0.825566  0.324201  1
  O  O11  1  0.348869  0.174434  0.675799  1
  O  O12  1  0.500000  0.000000  0.000000  1
  O  O13  1  0.000000  0.500000  0.000000  1
  O  O14  1  0.500000  0.500000  0.000000  1
