# generated using pymatgen
data_Nd2MgTi3O10
_symmetry_space_group_name_H-M   'P 1'
_cell_length_a   5.87447600
_cell_length_b   7.71497500
_cell_length_c   8.83151500
_cell_angle_alpha   90.00000000
_cell_angle_beta   90.00000000
_cell_angle_gamma   90.00000000
_symmetry_Int_Tables_number   1
_chemical_formula_structural   Nd2MgTi3O10
_chemical_formula_sum   'Nd4 Mg2 Ti6 O20'
_cell_volume   400.25693725
_cell_formula_units_Z   2
loop_
 _symmetry_equiv_pos_site_id
 _symmetry_equiv_pos_as_xyz
  1  'x, y, z'
loop_
 _atom_site_type_symbol
 _atom_site_label
 _atom_site_symmetry_multiplicity
 _atom_site_fract_x
 _atom_site_fract_y
 _atom_site_fract_z
 _atom_site_occupancy
  Nd  Nd0  1  0.997355  0.360086  0.671648  1
  Nd  Nd1  1  0.997355  0.639914  0.328352  1
  Nd  Nd2  1  0.002645  0.860086  0.828352  1
  Nd  Nd3  1  0.002645  0.139914  0.171648  1
  Mg  Mg4  1  0.257938  0.500000  0.000000  1
  Mg  Mg5  1  0.742062  0.000000  0.500000  1
  Ti  Ti6  1  0.506933  0.119442  0.856854  1
  Ti  Ti7  1  0.506933  0.880558  0.143146  1
  Ti  Ti8  1  0.493067  0.619442  0.643146  1
  Ti  Ti9  1  0.493067  0.380558  0.356854  1
  Ti  Ti10  1  0.766495  0.500000  0.000000  1
  Ti  Ti11  1  0.233505  0.000000  0.500000  1
  O  O12  1  0.256176  0.898838  0.291483  1
  O  O13  1  0.256176  0.101162  0.708517  1
  O  O14  1  0.743824  0.398838  0.208517  1
  O  O15  1  0.743824  0.601162  0.791483  1
  O  O16  1  0.748452  0.104928  0.718323  1
  O  O17  1  0.748452  0.895072  0.281677  1
  O  O18  1  0.251548  0.604928  0.781677  1
  O  O19  1  0.251548  0.395072  0.218323  1
  O  O20  1  0.505149  0.337317  0.923210  1
  O  O21  1  0.505149  0.662683  0.076790  1
  O  O22  1  0.494851  0.837317  0.576790  1
  O  O23  1  0.494851  0.162683  0.423210  1
  O  O24  1  0.281606  0.000000  0.000000  1
  O  O25  1  0.718394  0.500000  0.500000  1
  O  O26  1  0.716444  0.000000  0.000000  1
  O  O27  1  0.283556  0.500000  0.500000  1
  O  O28  1  0.014200  0.163448  0.446591  1
  O  O29  1  0.014200  0.836552  0.553409  1
  O  O30  1  0.985800  0.663448  0.053409  1
  O  O31  1  0.985800  0.336552  0.946591  1
