# generated using pymatgen
data_K6DyScF12
_symmetry_space_group_name_H-M   'P 1'
_cell_length_a   6.56439474
_cell_length_b   6.33080570
_cell_length_c   11.01673117
_cell_angle_alpha   55.34108581
_cell_angle_beta   89.86271188
_cell_angle_gamma   90.02658328
_symmetry_Int_Tables_number   1
_chemical_formula_structural   K6DyScF12
_chemical_formula_sum   'K6 Dy1 Sc1 F12'
_cell_volume   376.58888438
_cell_formula_units_Z   1
loop_
 _symmetry_equiv_pos_site_id
 _symmetry_equiv_pos_as_xyz
  1  'x, y, z'
loop_
 _atom_site_type_symbol
 _atom_site_label
 _atom_site_symmetry_multiplicity
 _atom_site_fract_x
 _atom_site_fract_y
 _atom_site_fract_z
 _atom_site_occupancy
  K  K0  1  0.500000  0.500000  0.000000  1
  K  K1  1  0.000000  0.500000  0.500000  1
  K  K2  1  0.052486  0.738557  0.747983  1
  K  K3  1  0.947514  0.261443  0.252017  1
  K  K4  1  0.549507  0.272771  0.740613  1
  K  K5  1  0.450493  0.727229  0.259387  1
  Dy  Dy6  1  0.000000  0.000000  0.000000  1
  Sc  Sc7  1  0.500000  0.000000  0.500000  1
  F  F8  1  0.758794  0.777901  0.563194  1
  F  F9  1  0.241206  0.222099  0.436806  1
  F  F10  1  0.276201  0.236531  0.931026  1
  F  F11  1  0.723799  0.763469  0.068974  1
  F  F12  1  0.449549  0.892221  0.711749  1
  F  F13  1  0.550451  0.107779  0.288251  1
  F  F14  1  0.945631  0.116084  0.773639  1
  F  F15  1  0.054369  0.883916  0.226361  1
  F  F16  1  0.331502  0.689674  0.545770  1
  F  F17  1  0.668498  0.310326  0.454230  1
  F  F18  1  0.825049  0.333637  0.949547  1
  F  F19  1  0.174951  0.666363  0.050453  1
