# generated using pymatgen
data_Tb3DyTm4(B6Ru)4
_symmetry_space_group_name_H-M   'P 1'
_cell_length_a   3.64134400
_cell_length_b   9.10466601
_cell_length_c   11.49026601
_cell_angle_alpha   90.00440657
_cell_angle_beta   90.00000000
_cell_angle_gamma   90.00000000
_symmetry_Int_Tables_number   1
_chemical_formula_structural   Tb3DyTm4(B6Ru)4
_chemical_formula_sum   'Tb3 Dy1 Tm4 B24 Ru4'
_cell_volume   380.93932646
_cell_formula_units_Z   1
loop_
 _symmetry_equiv_pos_site_id
 _symmetry_equiv_pos_as_xyz
  1  'x, y, z'
loop_
 _atom_site_type_symbol
 _atom_site_label
 _atom_site_symmetry_multiplicity
 _atom_site_fract_x
 _atom_site_fract_y
 _atom_site_fract_z
 _atom_site_occupancy
  Tb  Tb0  1  0.000000  0.322110  0.414170  1
  Tb  Tb1  1  0.000000  0.677889  0.585863  1
  Tb  Tb2  1  0.000000  0.822145  0.085790  1
  Dy  Dy3  1  0.000000  0.177994  0.914219  1
  Tm  Tm4  1  0.000000  0.943884  0.372327  1
  Tm  Tm5  1  0.000000  0.056161  0.627691  1
  Tm  Tm6  1  0.000000  0.443796  0.127546  1
  Tm  Tm7  1  0.000000  0.556062  0.872399  1
  B  B8  1  0.500000  0.554576  0.432583  1
  B  B9  1  0.500000  0.445365  0.567480  1
  B  B10  1  0.500000  0.054668  0.067183  1
  B  B11  1  0.500000  0.945669  0.932618  1
  B  B12  1  0.500000  0.749270  0.419184  1
  B  B13  1  0.500000  0.250723  0.580897  1
  B  B14  1  0.500000  0.249184  0.080540  1
  B  B15  1  0.500000  0.750824  0.919173  1
  B  B16  1  0.500000  0.791394  0.265981  1
  B  B17  1  0.500000  0.208480  0.734221  1
  B  B18  1  0.500000  0.291360  0.233886  1
  B  B19  1  0.500000  0.708653  0.766046  1
  B  B20  1  0.500000  0.631045  0.184605  1
  B  B21  1  0.500000  0.368712  0.815527  1
  B  B22  1  0.500000  0.131086  0.315324  1
  B  B23  1  0.500000  0.869009  0.684694  1
  B  B24  1  0.500000  0.983526  0.213290  1
  B  B25  1  0.500000  0.016787  0.786774  1
  B  B26  1  0.500000  0.483454  0.286604  1
  B  B27  1  0.500000  0.516432  0.713433  1
  B  B28  1  0.500000  0.605073  0.028830  1
  B  B29  1  0.500000  0.394536  0.971056  1
  B  B30  1  0.500000  0.105021  0.471187  1
  B  B31  1  0.500000  0.895017  0.528844  1
  Ru  Ru32  1  0.000000  0.638474  0.320251  1
  Ru  Ru33  1  0.000000  0.361420  0.679859  1
  Ru  Ru34  1  0.000000  0.138453  0.179558  1
  Ru  Ru35  1  0.000000  0.861749  0.820369  1
