# generated using pymatgen
data_La5(IrO6)2
_symmetry_space_group_name_H-M   'P 1'
_cell_length_a   7.17565288
_cell_length_b   7.17565323
_cell_length_c   7.69220524
_cell_angle_alpha   74.64842374
_cell_angle_beta   74.64842398
_cell_angle_gamma   51.66843214
_symmetry_Int_Tables_number   1
_chemical_formula_structural   La5(IrO6)2
_chemical_formula_sum   'La5 Ir2 O12'
_cell_volume   296.94827203
_cell_formula_units_Z   1
loop_
 _symmetry_equiv_pos_site_id
 _symmetry_equiv_pos_as_xyz
  1  'x, y, z'
loop_
 _atom_site_type_symbol
 _atom_site_label
 _atom_site_symmetry_multiplicity
 _atom_site_fract_x
 _atom_site_fract_y
 _atom_site_fract_z
 _atom_site_occupancy
  La  La0  1  0.305676  0.305676  0.357714  1
  La  La1  1  0.694324  0.694324  0.642286  1
  La  La2  1  0.694878  0.694878  0.163489  1
  La  La3  1  0.305122  0.305122  0.836511  1
  La  La4  1  0.000000  0.000000  0.500000  1
  Ir  Ir5  1  0.753638  0.246362  0.000000  1
  Ir  Ir6  1  0.246362  0.753638  0.000000  1
  O  O7  1  0.093564  0.600460  0.576448  1
  O  O8  1  0.000378  0.000378  0.162493  1
  O  O9  1  0.399540  0.906436  0.423552  1
  O  O10  1  0.501316  0.501316  0.167780  1
  O  O11  1  0.102648  0.574235  0.081526  1
  O  O12  1  0.906436  0.399540  0.423552  1
  O  O13  1  0.999622  0.999622  0.837507  1
  O  O14  1  0.600460  0.093563  0.576448  1
  O  O15  1  0.498684  0.498684  0.832220  1
  O  O16  1  0.574235  0.102648  0.081526  1
  O  O17  1  0.425765  0.897352  0.918474  1
  O  O18  1  0.897352  0.425765  0.918474  1
