# generated using pymatgen
data_Lu12Co8Ag
_symmetry_space_group_name_H-M   'P 1'
_cell_length_a   3.93508701
_cell_length_b   11.20788115
_cell_length_c   11.20763806
_cell_angle_alpha   59.99583218
_cell_angle_beta   90.00562800
_cell_angle_gamma   90.00165388
_symmetry_Int_Tables_number   1
_chemical_formula_structural   Lu12Co8Ag
_chemical_formula_sum   'Lu12 Co8 Ag1'
_cell_volume   428.05969968
_cell_formula_units_Z   1
loop_
 _symmetry_equiv_pos_site_id
 _symmetry_equiv_pos_as_xyz
  1  'x, y, z'
loop_
 _atom_site_type_symbol
 _atom_site_label
 _atom_site_symmetry_multiplicity
 _atom_site_fract_x
 _atom_site_fract_y
 _atom_site_fract_z
 _atom_site_occupancy
  Lu  Lu0  1  0.748720  0.619650  0.862986  1
  Lu  Lu1  1  0.748690  0.517369  0.619650  1
  Lu  Lu2  1  0.748677  0.862997  0.517375  1
  Lu  Lu3  1  0.251280  0.380350  0.137014  1
  Lu  Lu4  1  0.251310  0.482631  0.380350  1
  Lu  Lu5  1  0.251323  0.137003  0.482625  1
  Lu  Lu6  1  0.754098  0.763618  0.261133  1
  Lu  Lu7  1  0.754126  0.975235  0.763637  1
  Lu  Lu8  1  0.754078  0.261149  0.975235  1
  Lu  Lu9  1  0.245902  0.236382  0.738867  1
  Lu  Lu10  1  0.245874  0.024765  0.236363  1
  Lu  Lu11  1  0.245922  0.738851  0.024765  1
  Co  Co12  1  0.750638  0.333346  0.333320  1
  Co  Co13  1  0.249362  0.666654  0.666680  1
  Co  Co14  1  0.747211  0.281911  0.561620  1
  Co  Co15  1  0.747240  0.156462  0.281912  1
  Co  Co16  1  0.747238  0.561648  0.156447  1
  Co  Co17  1  0.252789  0.718089  0.438380  1
  Co  Co18  1  0.252760  0.843538  0.718088  1
  Co  Co19  1  0.252762  0.438352  0.843553  1
  Ag  Ag20  1  0.500000  0.000000  0.000000  1
