# generated using pymatgen
data_Re3Tc(IrOs)2
_symmetry_space_group_name_H-M   'P 1'
_cell_length_a   5.55585900
_cell_length_b   5.55024003
_cell_length_c   4.38655900
_cell_angle_alpha   90.00000000
_cell_angle_beta   90.00000000
_cell_angle_gamma   120.03348906
_symmetry_Int_Tables_number   1
_chemical_formula_structural   Re3Tc(IrOs)2
_chemical_formula_sum   'Re3 Tc1 Ir2 Os2'
_cell_volume   117.10378500
_cell_formula_units_Z   1
loop_
 _symmetry_equiv_pos_site_id
 _symmetry_equiv_pos_as_xyz
  1  'x, y, z'
loop_
 _atom_site_type_symbol
 _atom_site_label
 _atom_site_symmetry_multiplicity
 _atom_site_fract_x
 _atom_site_fract_y
 _atom_site_fract_z
 _atom_site_occupancy
  Re  Re0  1  0.836320  0.160345  0.750000  1
  Re  Re1  1  0.324026  0.160345  0.750000  1
  Re  Re2  1  0.837687  0.675372  0.750000  1
  Tc  Tc3  1  0.163177  0.326356  0.250000  1
  Ir  Ir4  1  0.667938  0.335874  0.250000  1
  Ir  Ir5  1  0.333842  0.667684  0.750000  1
  Os  Os6  1  0.162598  0.837012  0.250000  1
  Os  Os7  1  0.674412  0.837012  0.250000  1
