# generated using pymatgen
data_Zr8Ti12Ge15As
_symmetry_space_group_name_H-M   'P 1'
_cell_length_a   6.81889816
_cell_length_b   6.92541108
_cell_length_c   13.12484593
_cell_angle_alpha   90.00055671
_cell_angle_beta   90.12564978
_cell_angle_gamma   90.01769180
_symmetry_Int_Tables_number   1
_chemical_formula_structural   Zr8Ti12Ge15As
_chemical_formula_sum   'Zr8 Ti12 Ge15 As1'
_cell_volume   619.80191092
_cell_formula_units_Z   1
loop_
 _symmetry_equiv_pos_site_id
 _symmetry_equiv_pos_as_xyz
  1  'x, y, z'
loop_
 _atom_site_type_symbol
 _atom_site_label
 _atom_site_symmetry_multiplicity
 _atom_site_fract_x
 _atom_site_fract_y
 _atom_site_fract_z
 _atom_site_occupancy
  Zr  Zr0  1  0.490744  0.676470  0.093518  1
  Zr  Zr1  1  0.991859  0.825498  0.405681  1
  Zr  Zr2  1  0.508216  0.325511  0.594528  1
  Zr  Zr3  1  0.010489  0.175229  0.904546  1
  Zr  Zr4  1  0.509867  0.323566  0.906053  1
  Zr  Zr5  1  0.008412  0.174684  0.594654  1
  Zr  Zr6  1  0.491772  0.674491  0.405810  1
  Zr  Zr7  1  0.988981  0.824285  0.094399  1
  Ti  Ti8  1  0.331121  0.004389  0.249261  1
  Ti  Ti9  1  0.830927  0.495791  0.249857  1
  Ti  Ti10  1  0.669754  0.994928  0.751093  1
  Ti  Ti11  1  0.169383  0.504358  0.750302  1
  Ti  Ti12  1  0.658190  0.163446  0.123965  1
  Ti  Ti13  1  0.159188  0.333611  0.374081  1
  Ti  Ti14  1  0.341296  0.833355  0.625742  1
  Ti  Ti15  1  0.841291  0.666942  0.874857  1
  Ti  Ti16  1  0.343494  0.834449  0.875711  1
  Ti  Ti17  1  0.840559  0.666949  0.625637  1
  Ti  Ti18  1  0.658925  0.166809  0.374341  1
  Ti  Ti19  1  0.157663  0.335305  0.125989  1
  Ge  Ge20  1  0.691665  0.857521  0.250543  1
  Ge  Ge21  1  0.192388  0.642732  0.250070  1
  Ge  Ge22  1  0.308395  0.142085  0.749560  1
  Ge  Ge23  1  0.808066  0.358610  0.749776  1
  Ge  Ge24  1  0.181235  0.541670  0.540857  1
  Ge  Ge25  1  0.318520  0.041876  0.459220  1
  Ge  Ge26  1  0.817925  0.457730  0.040903  1
  Ge  Ge27  1  0.310125  0.042539  0.041771  1
  Ge  Ge28  1  0.818758  0.458419  0.459322  1
  Ge  Ge29  1  0.681472  0.958369  0.540598  1
  Ge  Ge30  1  0.182238  0.541278  0.958762  1
  Ge  Ge31  1  0.461568  0.376220  0.249313  1
  Ge  Ge32  1  0.959816  0.123522  0.249943  1
  Ge  Ge33  1  0.538886  0.623192  0.750273  1
  Ge  Ge34  1  0.040453  0.875950  0.750017  1
  As  As35  1  0.686359  0.958221  0.959046  1
