# generated using pymatgen
data_Pr19SmSi15Au
_symmetry_space_group_name_H-M   'P 1'
_cell_length_a   7.95399176
_cell_length_b   7.94982342
_cell_length_c   15.33806823
_cell_angle_alpha   89.97443305
_cell_angle_beta   89.66159218
_cell_angle_gamma   90.04480577
_symmetry_Int_Tables_number   1
_chemical_formula_structural   Pr19SmSi15Au
_chemical_formula_sum   'Pr19 Sm1 Si15 Au1'
_cell_volume   969.85214834
_cell_formula_units_Z   1
loop_
 _symmetry_equiv_pos_site_id
 _symmetry_equiv_pos_as_xyz
  1  'x, y, z'
loop_
 _atom_site_type_symbol
 _atom_site_label
 _atom_site_symmetry_multiplicity
 _atom_site_fract_x
 _atom_site_fract_y
 _atom_site_fract_z
 _atom_site_occupancy
  Pr  Pr0  1  0.191871  0.808879  0.249842  1
  Pr  Pr1  1  0.806129  0.186410  0.751122  1
  Pr  Pr2  1  0.692908  0.688731  0.498713  1
  Pr  Pr3  1  0.375055  0.011153  0.447744  1
  Pr  Pr4  1  0.491729  0.871049  0.699398  1
  Pr  Pr5  1  0.510274  0.123546  0.197652  1
  Pr  Pr6  1  0.877411  0.489050  0.300892  1
  Pr  Pr7  1  0.121136  0.516548  0.802400  1
  Pr  Pr8  1  0.625835  0.988198  0.949884  1
  Pr  Pr9  1  0.003069  0.379926  0.549039  1
  Pr  Pr10  1  0.989327  0.625384  0.052148  1
  Pr  Pr11  1  0.131880  0.983972  0.877994  1
  Pr  Pr12  1  0.517575  0.629929  0.126191  1
  Pr  Pr13  1  0.481563  0.371574  0.626797  1
  Pr  Pr14  1  0.628327  0.518521  0.875131  1
  Pr  Pr15  1  0.372606  0.482823  0.372807  1
  Pr  Pr16  1  0.872238  0.019602  0.375716  1
  Pr  Pr17  1  0.982522  0.127181  0.124266  1
  Pr  Pr18  1  0.015216  0.867803  0.622119  1
  Sm  Sm19  1  0.307845  0.307949  0.999545  1
  Si  Si20  1  0.332339  0.694329  0.952011  1
  Si  Si21  1  0.663542  0.303041  0.451058  1
  Si  Si22  1  0.696682  0.334103  0.049152  1
  Si  Si23  1  0.305366  0.669161  0.547347  1
  Si  Si24  1  0.805192  0.832195  0.202333  1
  Si  Si25  1  0.168104  0.196906  0.298513  1
  Si  Si26  1  0.834637  0.803453  0.798614  1
  Si  Si27  1  0.288050  0.923257  0.059724  1
  Si  Si28  1  0.579195  0.787488  0.309672  1
  Si  Si29  1  0.431307  0.209733  0.815501  1
  Si  Si30  1  0.786458  0.578626  0.690887  1
  Si  Si31  1  0.212868  0.421412  0.189359  1
  Si  Si32  1  0.707682  0.077161  0.558567  1
  Si  Si33  1  0.923559  0.289331  0.941562  1
  Si  Si34  1  0.079341  0.713099  0.439935  1
  Au  Au35  1  0.191162  0.168481  0.696364  1
