# generated using pymatgen
data_Er5Tm7(ThSn2)8
_symmetry_space_group_name_H-M   'P 1'
_cell_length_a   8.09600636
_cell_length_b   8.18865674
_cell_length_c   15.43350966
_cell_angle_alpha   89.80611844
_cell_angle_beta   90.06638971
_cell_angle_gamma   89.99775609
_symmetry_Int_Tables_number   1
_chemical_formula_structural   Er5Tm7(ThSn2)8
_chemical_formula_sum   'Er5 Tm7 Th8 Sn16'
_cell_volume   1023.16441288
_cell_formula_units_Z   1
loop_
 _symmetry_equiv_pos_site_id
 _symmetry_equiv_pos_as_xyz
  1  'x, y, z'
loop_
 _atom_site_type_symbol
 _atom_site_label
 _atom_site_symmetry_multiplicity
 _atom_site_fract_x
 _atom_site_fract_y
 _atom_site_fract_z
 _atom_site_occupancy
  Er  Er0  1  0.356709  0.837457  0.875342  1
  Er  Er1  1  0.856683  0.662572  0.624600  1
  Er  Er2  1  0.643511  0.162460  0.375515  1
  Er  Er3  1  0.143397  0.337319  0.124678  1
  Er  Er4  1  0.643745  0.162600  0.124514  1
  Tm  Tm5  1  0.144031  0.337715  0.375421  1
  Tm  Tm6  1  0.355824  0.837641  0.624679  1
  Tm  Tm7  1  0.855997  0.662287  0.875046  1
  Tm  Tm8  1  0.185825  0.498568  0.749917  1
  Tm  Tm9  1  0.685742  0.001369  0.749961  1
  Tm  Tm10  1  0.814285  0.501483  0.250080  1
  Tm  Tm11  1  0.314108  0.998519  0.250247  1
  Th  Th12  1  0.515992  0.321906  0.904462  1
  Th  Th13  1  0.015781  0.178096  0.595185  1
  Th  Th14  1  0.484075  0.678052  0.405103  1
  Th  Th15  1  0.983984  0.821936  0.095237  1
  Th  Th16  1  0.483622  0.677938  0.095364  1
  Th  Th17  1  0.983762  0.821916  0.404861  1
  Th  Th18  1  0.516391  0.322238  0.595171  1
  Th  Th19  1  0.016405  0.177803  0.904633  1
  Sn  Sn20  1  0.302903  0.040662  0.042502  1
  Sn  Sn21  1  0.803551  0.459100  0.457526  1
  Sn  Sn22  1  0.696366  0.958992  0.542581  1
  Sn  Sn23  1  0.196507  0.540839  0.957425  1
  Sn  Sn24  1  0.697710  0.958818  0.957435  1
  Sn  Sn25  1  0.197442  0.540905  0.542308  1
  Sn  Sn26  1  0.302457  0.041058  0.457825  1
  Sn  Sn27  1  0.802852  0.459563  0.042108  1
  Sn  Sn28  1  0.551451  0.622866  0.749685  1
  Sn  Sn29  1  0.051484  0.877021  0.750056  1
  Sn  Sn30  1  0.448387  0.377414  0.250156  1
  Sn  Sn31  1  0.948608  0.122866  0.250440  1
  Sn  Sn32  1  0.322343  0.144641  0.749751  1
  Sn  Sn33  1  0.822488  0.355451  0.750161  1
  Sn  Sn34  1  0.677768  0.855167  0.249917  1
  Sn  Sn35  1  0.177811  0.644758  0.250106  1
