# generated using pymatgen
data_La15Y(CdOs)4
_symmetry_space_group_name_H-M   'P 1'
_cell_length_a   10.05917705
_cell_length_b   10.10379430
_cell_length_c   10.05917738
_cell_angle_alpha   59.85126656
_cell_angle_beta   60.36944009
_cell_angle_gamma   59.85127790
_symmetry_Int_Tables_number   1
_chemical_formula_structural   La15Y(CdOs)4
_chemical_formula_sum   'La15 Y1 Cd4 Os4'
_cell_volume   723.28063341
_cell_formula_units_Z   1
loop_
 _symmetry_equiv_pos_site_id
 _symmetry_equiv_pos_as_xyz
  1  'x, y, z'
loop_
 _atom_site_type_symbol
 _atom_site_label
 _atom_site_symmetry_multiplicity
 _atom_site_fract_x
 _atom_site_fract_y
 _atom_site_fract_z
 _atom_site_occupancy
  La  La0  1  0.443204  0.440554  0.058000  1
  La  La1  1  0.057980  0.058221  0.443225  1
  La  La2  1  0.443225  0.058221  0.057980  1
  La  La3  1  0.842879  0.849504  0.842879  1
  La  La4  1  0.691723  0.309347  0.314298  1
  La  La5  1  0.058000  0.440554  0.443204  1
  La  La6  1  0.314285  0.684619  0.691722  1
  La  La7  1  0.314298  0.309347  0.691723  1
  La  La8  1  0.847904  0.846287  0.459567  1
  La  La9  1  0.691722  0.684619  0.314285  1
  La  La10  1  0.459567  0.846287  0.847904  1
  La  La11  1  0.056300  0.443685  0.056300  1
  La  La12  1  0.842891  0.464717  0.842891  1
  La  La13  1  0.445540  0.054456  0.445540  1
  La  La14  1  0.311081  0.688909  0.311081  1
  Y  Y15  1  0.691500  0.308498  0.691500  1
  Cd  Cd16  1  0.078269  0.763682  0.078269  1
  Cd  Cd17  1  0.074693  0.080927  0.763474  1
  Cd  Cd18  1  0.763474  0.080927  0.074693  1
  Cd  Cd19  1  0.078268  0.079798  0.078268  1
  Os  Os20  1  0.634771  0.086730  0.634771  1
  Os  Os21  1  0.634787  0.643728  0.634787  1
  Os  Os22  1  0.636574  0.638192  0.087064  1
  Os  Os23  1  0.087064  0.638192  0.636574  1
