# generated using pymatgen
data_Cs6Na4NdTaP6
_symmetry_space_group_name_H-M   'P 1'
_cell_length_a   11.09683308
_cell_length_b   11.09683404
_cell_length_c   16.56223900
_cell_angle_alpha   90.00000000
_cell_angle_beta   90.00000000
_cell_angle_gamma   143.23074042
_symmetry_Int_Tables_number   1
_chemical_formula_structural   Cs6Na4NdTaP6
_chemical_formula_sum   'Cs12 Na8 Nd2 Ta2 P12'
_cell_volume   1220.81394168
_cell_formula_units_Z   2
loop_
 _symmetry_equiv_pos_site_id
 _symmetry_equiv_pos_as_xyz
  1  'x, y, z'
loop_
 _atom_site_type_symbol
 _atom_site_label
 _atom_site_symmetry_multiplicity
 _atom_site_fract_x
 _atom_site_fract_y
 _atom_site_fract_z
 _atom_site_occupancy
  Cs  Cs0  1  0.949422  0.608864  0.823092  1
  Cs  Cs1  1  0.550578  0.891136  0.323092  1
  Cs  Cs2  1  0.391136  0.050578  0.176908  1
  Cs  Cs3  1  0.049360  0.392132  0.174548  1
  Cs  Cs4  1  0.892132  0.549360  0.325452  1
  Cs  Cs5  1  0.450640  0.107868  0.674548  1
  Cs  Cs6  1  0.607868  0.950640  0.825452  1
  Cs  Cs7  1  0.283266  0.285932  0.316800  1
  Cs  Cs8  1  0.785932  0.783266  0.183200  1
  Cs  Cs9  1  0.216734  0.214068  0.816800  1
  Cs  Cs10  1  0.714068  0.716734  0.683200  1
  Cs  Cs11  1  0.108864  0.449422  0.676908  1
  Na  Na12  1  0.918798  0.081202  0.000000  1
  Na  Na13  1  0.581202  0.418798  0.500000  1
  Na  Na14  1  0.081296  0.918704  0.000000  1
  Na  Na15  1  0.418704  0.581296  0.500000  1
  Na  Na16  1  0.754203  0.245797  0.000000  1
  Na  Na17  1  0.745797  0.254203  0.500000  1
  Na  Na18  1  0.246233  0.753767  0.000000  1
  Na  Na19  1  0.253767  0.746233  0.500000  1
  Nd  Nd20  1  0.587727  0.412273  0.000000  1
  Nd  Nd21  1  0.912273  0.087727  0.500000  1
  Ta  Ta22  1  0.414442  0.585558  0.000000  1
  Ta  Ta23  1  0.085558  0.914442  0.500000  1
  P  P24  1  0.899165  0.574760  0.097006  1
  P  P25  1  0.425240  0.100835  0.902994  1
  P  P26  1  0.600835  0.925240  0.597006  1
  P  P27  1  0.948778  0.647207  0.584602  1
  P  P28  1  0.147207  0.448778  0.915398  1
  P  P29  1  0.551222  0.852793  0.084602  1
  P  P30  1  0.352793  0.051222  0.415398  1
  P  P31  1  0.208901  0.183141  0.581884  1
  P  P32  1  0.683141  0.708901  0.918116  1
  P  P33  1  0.291099  0.316859  0.081884  1
  P  P34  1  0.074760  0.399165  0.402994  1
  P  P35  1  0.816859  0.791099  0.418116  1
