# generated using pymatgen
data_Pr17Nd3Si15Tc
_symmetry_space_group_name_H-M   'P 1'
_cell_length_a   7.92849164
_cell_length_b   7.92231453
_cell_length_c   15.25018833
_cell_angle_alpha   90.22037230
_cell_angle_beta   89.93843209
_cell_angle_gamma   90.09552118
_symmetry_Int_Tables_number   1
_chemical_formula_structural   Pr17Nd3Si15Tc
_chemical_formula_sum   'Pr17 Nd3 Si15 Tc1'
_cell_volume   957.88593493
_cell_formula_units_Z   1
loop_
 _symmetry_equiv_pos_site_id
 _symmetry_equiv_pos_as_xyz
  1  'x, y, z'
loop_
 _atom_site_type_symbol
 _atom_site_label
 _atom_site_symmetry_multiplicity
 _atom_site_fract_x
 _atom_site_fract_y
 _atom_site_fract_z
 _atom_site_occupancy
  Pr  Pr0  1  0.695376  0.689788  0.502348  1
  Pr  Pr1  1  0.371357  0.011711  0.451081  1
  Pr  Pr2  1  0.483959  0.882001  0.696165  1
  Pr  Pr3  1  0.510589  0.123674  0.199114  1
  Pr  Pr4  1  0.876104  0.488782  0.300625  1
  Pr  Pr5  1  0.127783  0.503336  0.798286  1
  Pr  Pr6  1  0.626036  0.988309  0.949132  1
  Pr  Pr7  1  0.008292  0.376820  0.551568  1
  Pr  Pr8  1  0.988635  0.625454  0.050611  1
  Pr  Pr9  1  0.131211  0.983677  0.872364  1
  Pr  Pr10  1  0.516444  0.629317  0.126298  1
  Pr  Pr11  1  0.472304  0.360693  0.628513  1
  Pr  Pr12  1  0.627843  0.515835  0.875024  1
  Pr  Pr13  1  0.374769  0.483652  0.373940  1
  Pr  Pr14  1  0.873197  0.019620  0.376224  1
  Pr  Pr15  1  0.982662  0.127012  0.124631  1
  Pr  Pr16  1  0.025131  0.881461  0.627506  1
  Nd  Nd17  1  0.307034  0.305927  0.997800  1
  Nd  Nd18  1  0.191716  0.809647  0.250025  1
  Nd  Nd19  1  0.822409  0.189950  0.748850  1
  Si  Si20  1  0.333112  0.694744  0.951403  1
  Si  Si21  1  0.665143  0.301618  0.450692  1
  Si  Si22  1  0.696772  0.333810  0.050412  1
  Si  Si23  1  0.303287  0.668509  0.547246  1
  Si  Si24  1  0.805475  0.832176  0.202459  1
  Si  Si25  1  0.168031  0.197371  0.298466  1
  Si  Si26  1  0.831198  0.802162  0.800021  1
  Si  Si27  1  0.288546  0.922543  0.058765  1
  Si  Si28  1  0.579133  0.787579  0.310331  1
  Si  Si29  1  0.422034  0.211249  0.812334  1
  Si  Si30  1  0.779825  0.582309  0.691879  1
  Si  Si31  1  0.211912  0.422290  0.190192  1
  Si  Si32  1  0.705775  0.075607  0.558628  1
  Si  Si33  1  0.920537  0.287797  0.941419  1
  Si  Si34  1  0.079146  0.714567  0.440397  1
  Tc  Tc35  1  0.197220  0.169000  0.695249  1
