# generated using pymatgen
data_BaAs12Ru3Pt
_symmetry_space_group_name_H-M   'P 1'
_cell_length_a   7.51224022
_cell_length_b   7.51224020
_cell_length_c   7.51224109
_cell_angle_alpha   109.48023469
_cell_angle_beta   109.48023227
_cell_angle_gamma   109.48023861
_symmetry_Int_Tables_number   1
_chemical_formula_structural   BaAs12Ru3Pt
_chemical_formula_sum   'Ba1 As12 Ru3 Pt1'
_cell_volume   326.24324392
_cell_formula_units_Z   1
loop_
 _symmetry_equiv_pos_site_id
 _symmetry_equiv_pos_as_xyz
  1  'x, y, z'
loop_
 _atom_site_type_symbol
 _atom_site_label
 _atom_site_symmetry_multiplicity
 _atom_site_fract_x
 _atom_site_fract_y
 _atom_site_fract_z
 _atom_site_occupancy
  Ba  Ba0  1  0.000000  0.000000  0.000000  1
  As  As1  1  0.857048  0.652249  0.498347  1
  As  As2  1  0.142952  0.347751  0.501653  1
  As  As3  1  0.151840  0.650488  0.801852  1
  As  As4  1  0.848160  0.349512  0.198148  1
  As  As5  1  0.652249  0.498347  0.857048  1
  As  As6  1  0.347751  0.501653  0.142952  1
  As  As7  1  0.650488  0.801852  0.151840  1
  As  As8  1  0.349512  0.198148  0.848160  1
  As  As9  1  0.498347  0.857048  0.652249  1
  As  As10  1  0.501653  0.142952  0.347751  1
  As  As11  1  0.198148  0.848160  0.349512  1
  As  As12  1  0.801852  0.151840  0.650488  1
  Ru  Ru13  1  0.500000  0.000000  0.000000  1
  Ru  Ru14  1  0.000000  0.500000  0.000000  1
  Ru  Ru15  1  0.000000  0.000000  0.500000  1
  Pt  Pt16  1  0.500000  0.500000  0.500000  1
