# generated using pymatgen
data_Sc4Al6CuRh
_symmetry_space_group_name_H-M   'P 1'
_cell_length_a   5.34159800
_cell_length_b   5.34159888
_cell_length_c   8.39908500
_cell_angle_alpha   90.00000000
_cell_angle_beta   90.00000000
_cell_angle_gamma   120.00000696
_symmetry_Int_Tables_number   1
_chemical_formula_structural   Sc4Al6CuRh
_chemical_formula_sum   'Sc4 Al6 Cu1 Rh1'
_cell_volume   207.54154728
_cell_formula_units_Z   1
loop_
 _symmetry_equiv_pos_site_id
 _symmetry_equiv_pos_as_xyz
  1  'x, y, z'
loop_
 _atom_site_type_symbol
 _atom_site_label
 _atom_site_symmetry_multiplicity
 _atom_site_fract_x
 _atom_site_fract_y
 _atom_site_fract_z
 _atom_site_occupancy
  Sc  Sc0  1  0.333333  0.666667  0.062177  1
  Sc  Sc1  1  0.666667  0.333333  0.564694  1
  Sc  Sc2  1  0.333333  0.666667  0.435306  1
  Sc  Sc3  1  0.666667  0.333333  0.937823  1
  Al  Al4  1  0.832422  0.664844  0.250060  1
  Al  Al5  1  0.167578  0.832422  0.749940  1
  Al  Al6  1  0.664844  0.832422  0.749940  1
  Al  Al7  1  0.335156  0.167578  0.250060  1
  Al  Al8  1  0.832422  0.167578  0.250060  1
  Al  Al9  1  0.167578  0.335156  0.749940  1
  Cu  Cu10  1  0.000000  0.000000  0.000000  1
  Rh  Rh11  1  0.000000  0.000000  0.500000  1
