# generated using pymatgen
data_Zr10Bi6As
_symmetry_space_group_name_H-M   'P 1'
_cell_length_a   5.96769002
_cell_length_b   8.76458250
_cell_length_c   8.76412401
_cell_angle_alpha   119.99988348
_cell_angle_beta   90.00561287
_cell_angle_gamma   89.99046869
_symmetry_Int_Tables_number   1
_chemical_formula_structural   Zr10Bi6As
_chemical_formula_sum   'Zr10 Bi6 As1'
_cell_volume   396.98778115
_cell_formula_units_Z   1
loop_
 _symmetry_equiv_pos_site_id
 _symmetry_equiv_pos_as_xyz
  1  'x, y, z'
loop_
 _atom_site_type_symbol
 _atom_site_label
 _atom_site_symmetry_multiplicity
 _atom_site_fract_x
 _atom_site_fract_y
 _atom_site_fract_z
 _atom_site_occupancy
  Zr  Zr0  1  0.500004  0.333335  0.666674  1
  Zr  Zr1  1  0.499996  0.666667  0.333327  1
  Zr  Zr2  1  0.999990  0.666663  0.333314  1
  Zr  Zr3  1  0.000011  0.333334  0.666685  1
  Zr  Zr4  1  0.767434  0.253305  0.000029  1
  Zr  Zr5  1  0.767431  0.746714  0.746731  1
  Zr  Zr6  1  0.767404  0.000011  0.253306  1
  Zr  Zr7  1  0.232572  0.746694  0.999970  1
  Zr  Zr8  1  0.232567  0.253288  0.253268  1
  Zr  Zr9  1  0.232591  0.999992  0.746698  1
  Bi  Bi10  1  0.748301  0.608335  0.000012  1
  Bi  Bi11  1  0.748264  0.391665  0.391658  1
  Bi  Bi12  1  0.748281  0.000018  0.608376  1
  Bi  Bi13  1  0.251707  0.391664  0.999987  1
  Bi  Bi14  1  0.251731  0.608337  0.608342  1
  Bi  Bi15  1  0.251715  0.999981  0.391624  1
  As  As16  1  0.500000  0.000001  0.000000  1
