# generated using pymatgen
data_NdTh(Mn9Si4)2
_symmetry_space_group_name_H-M   'P 1'
_cell_length_a   8.06051870
_cell_length_b   8.06051920
_cell_length_c   8.06051829
_cell_angle_alpha   121.52391731
_cell_angle_beta   121.52392392
_cell_angle_gamma   87.38015629
_symmetry_Int_Tables_number   1
_chemical_formula_structural   NdTh(Mn9Si4)2
_chemical_formula_sum   'Nd1 Th1 Mn18 Si8'
_cell_volume   361.37676772
_cell_formula_units_Z   1
loop_
 _symmetry_equiv_pos_site_id
 _symmetry_equiv_pos_as_xyz
  1  'x, y, z'
loop_
 _atom_site_type_symbol
 _atom_site_label
 _atom_site_symmetry_multiplicity
 _atom_site_fract_x
 _atom_site_fract_y
 _atom_site_fract_z
 _atom_site_occupancy
  Nd  Nd0  1  0.250000  0.250000  0.000000  1
  Th  Th1  1  0.750000  0.750000  0.000000  1
  Mn  Mn2  1  0.941821  0.808286  0.751249  1
  Mn  Mn3  1  0.794236  0.295940  0.737804  1
  Mn  Mn4  1  0.295940  0.558135  0.501704  1
  Mn  Mn5  1  0.204060  0.705764  0.262196  1
  Mn  Mn6  1  0.705764  0.443569  0.501704  1
  Mn  Mn7  1  0.941865  0.204060  0.498296  1
  Mn  Mn8  1  0.057035  0.190572  0.248751  1
  Mn  Mn9  1  0.309428  0.442965  0.751249  1
  Mn  Mn10  1  0.056431  0.794236  0.498296  1
  Mn  Mn11  1  0.558179  0.309428  0.866464  1
  Mn  Mn12  1  0.443569  0.941865  0.737804  1
  Mn  Mn13  1  0.808286  0.057035  0.866464  1
  Mn  Mn14  1  0.442965  0.691714  0.133536  1
  Mn  Mn15  1  0.691714  0.558179  0.248751  1
  Mn  Mn16  1  0.190572  0.941821  0.133536  1
  Mn  Mn17  1  0.000000  0.500000  0.500000  1
  Mn  Mn18  1  0.558135  0.056431  0.262196  1
  Mn  Mn19  1  0.500000  0.000000  0.500000  1
  Si  Si20  1  0.296413  0.798688  0.852361  1
  Si  Si21  1  0.798688  0.946327  0.502275  1
  Si  Si22  1  0.946327  0.444052  0.147639  1
  Si  Si23  1  0.444052  0.296413  0.497725  1
  Si  Si24  1  0.055948  0.553673  0.852361  1
  Si  Si25  1  0.203587  0.055948  0.502275  1
  Si  Si26  1  0.701312  0.203587  0.147639  1
  Si  Si27  1  0.553673  0.701312  0.497725  1
