# generated using pymatgen
data_Ac3InSnPt3Pb
_symmetry_space_group_name_H-M   'P 1'
_cell_length_a   7.92646901
_cell_length_b   7.91755522
_cell_length_c   4.35812600
_cell_angle_alpha   90.00000000
_cell_angle_beta   90.00000000
_cell_angle_gamma   119.51665508
_symmetry_Int_Tables_number   1
_chemical_formula_structural   Ac3InSnPt3Pb
_chemical_formula_sum   'Ac3 In1 Sn1 Pt3 Pb1'
_cell_volume   238.01042280
_cell_formula_units_Z   1
loop_
 _symmetry_equiv_pos_site_id
 _symmetry_equiv_pos_as_xyz
  1  'x, y, z'
loop_
 _atom_site_type_symbol
 _atom_site_label
 _atom_site_symmetry_multiplicity
 _atom_site_fract_x
 _atom_site_fract_y
 _atom_site_fract_z
 _atom_site_occupancy
  Ac  Ac0  1  0.585689  0.584590  0.000000  1
  Ac  Ac1  1  0.415022  0.998791  0.000000  1
  Ac  Ac2  1  0.000414  0.416307  0.000000  1
  In  In3  1  0.999861  0.755293  0.500000  1
  Sn  Sn4  1  0.755018  0.997152  0.500000  1
  Pt  Pt5  1  0.981237  0.987608  0.000000  1
  Pt  Pt6  1  0.337274  0.680596  0.500000  1
  Pt  Pt7  1  0.681002  0.337774  0.500000  1
  Pb  Pb8  1  0.244483  0.241890  0.500000  1
