# generated using pymatgen
data_Tb7Ho(PBr6)2
_symmetry_space_group_name_H-M   'P 1'
_cell_length_a   4.01859200
_cell_length_b   13.18362782
_cell_length_c   13.90593387
_cell_angle_alpha   89.95951803
_cell_angle_beta   90.00000000
_cell_angle_gamma   90.00000000
_symmetry_Int_Tables_number   1
_chemical_formula_structural   Tb7Ho(PBr6)2
_chemical_formula_sum   'Tb7 Ho1 P2 Br12'
_cell_volume   736.73092623
_cell_formula_units_Z   1
loop_
 _symmetry_equiv_pos_site_id
 _symmetry_equiv_pos_as_xyz
  1  'x, y, z'
loop_
 _atom_site_type_symbol
 _atom_site_label
 _atom_site_symmetry_multiplicity
 _atom_site_fract_x
 _atom_site_fract_y
 _atom_site_fract_z
 _atom_site_occupancy
  Tb  Tb0  1  0.500000  0.882926  0.656802  1
  Tb  Tb1  1  0.500000  0.617323  0.157126  1
  Tb  Tb2  1  0.500000  0.382694  0.842879  1
  Tb  Tb3  1  0.000000  0.114979  0.576677  1
  Tb  Tb4  1  0.000000  0.884740  0.423709  1
  Tb  Tb5  1  0.000000  0.615112  0.923470  1
  Tb  Tb6  1  0.000000  0.384847  0.076539  1
  Ho  Ho7  1  0.500000  0.117108  0.343186  1
  P  P8  1  0.500000  0.000666  0.499093  1
  P  P9  1  0.500000  0.499963  0.000027  1
  Br  Br10  1  0.500000  0.242496  0.163718  1
  Br  Br11  1  0.500000  0.756939  0.837162  1
  Br  Br12  1  0.500000  0.743307  0.337249  1
  Br  Br13  1  0.500000  0.256797  0.662571  1
  Br  Br14  1  0.000000  0.255261  0.411461  1
  Br  Br15  1  0.000000  0.743163  0.587350  1
  Br  Br16  1  0.000000  0.756951  0.087358  1
  Br  Br17  1  0.000000  0.243081  0.912660  1
  Br  Br18  1  0.000000  0.001872  0.243193  1
  Br  Br19  1  0.000000  0.999785  0.757757  1
  Br  Br20  1  0.000000  0.500178  0.257865  1
  Br  Br21  1  0.000000  0.499813  0.742148  1
