# generated using pymatgen
data_TbEr3InPt11
_symmetry_space_group_name_H-M   'P 1'
_cell_length_a   4.18822200
_cell_length_b   5.84090687
_cell_length_c   11.65200751
_cell_angle_alpha   87.77220639
_cell_angle_beta   90.00000000
_cell_angle_gamma   90.00000000
_symmetry_Int_Tables_number   1
_chemical_formula_structural   TbEr3InPt11
_chemical_formula_sum   'Tb1 Er3 In1 Pt11'
_cell_volume   284.82778853
_cell_formula_units_Z   1
loop_
 _symmetry_equiv_pos_site_id
 _symmetry_equiv_pos_as_xyz
  1  'x, y, z'
loop_
 _atom_site_type_symbol
 _atom_site_label
 _atom_site_symmetry_multiplicity
 _atom_site_fract_x
 _atom_site_fract_y
 _atom_site_fract_z
 _atom_site_occupancy
  Tb  Tb0  1  0.500000  0.754347  0.375849  1
  Er  Er1  1  0.500000  0.719113  0.862358  1
  Er  Er2  1  0.500000  0.280815  0.137471  1
  Er  Er3  1  0.500000  0.245594  0.624369  1
  In  In4  1  0.000000  0.000122  0.999754  1
  Pt  Pt5  1  0.000000  0.014265  0.248330  1
  Pt  Pt6  1  0.000000  0.986974  0.750963  1
  Pt  Pt7  1  0.000000  0.499968  0.999790  1
  Pt  Pt8  1  0.000000  0.498664  0.500861  1
  Pt  Pt9  1  0.000000  0.513609  0.249330  1
  Pt  Pt10  1  0.000000  0.485244  0.750054  1
  Pt  Pt11  1  0.500000  0.252469  0.377523  1
  Pt  Pt12  1  0.500000  0.230463  0.880432  1
  Pt  Pt13  1  0.500000  0.769584  0.118795  1
  Pt  Pt14  1  0.500000  0.747709  0.623357  1
  Pt  Pt15  1  0.000000  0.001060  0.500763  1
