# generated using pymatgen
data_YTm3Al17GaRh6
_symmetry_space_group_name_H-M   'P 1'
_cell_length_a   7.51763686
_cell_length_b   7.51971553
_cell_length_c   9.44481100
_cell_angle_alpha   90.00000000
_cell_angle_beta   90.00000000
_cell_angle_gamma   119.20332588
_symmetry_Int_Tables_number   1
_chemical_formula_structural   YTm3Al17GaRh6
_chemical_formula_sum   'Y1 Tm3 Al17 Ga1 Rh6'
_cell_volume   466.05525997
_cell_formula_units_Z   1
loop_
 _symmetry_equiv_pos_site_id
 _symmetry_equiv_pos_as_xyz
  1  'x, y, z'
loop_
 _atom_site_type_symbol
 _atom_site_label
 _atom_site_symmetry_multiplicity
 _atom_site_fract_x
 _atom_site_fract_y
 _atom_site_fract_z
 _atom_site_occupancy
  Y  Y0  1  0.993498  0.675387  0.250000  1
  Tm  Tm1  1  0.004795  0.326496  0.750000  1
  Tm  Tm2  1  0.675585  0.993651  0.250000  1
  Tm  Tm3  1  0.326571  0.004844  0.750000  1
  Al  Al4  1  0.870673  0.870727  0.750000  1
  Al  Al5  1  0.001269  0.336271  0.074735  1
  Al  Al6  1  0.999168  0.663648  0.924090  1
  Al  Al7  1  0.999168  0.663648  0.575910  1
  Al  Al8  1  0.337298  0.001718  0.425235  1
  Al  Al9  1  0.001269  0.336271  0.425265  1
  Al  Al10  1  0.663675  0.999202  0.575431  1
  Al  Al11  1  0.663675  0.999202  0.924569  1
  Al  Al12  1  0.337298  0.001718  0.074765  1
  Al  Al13  1  0.332365  0.332375  0.553772  1
  Al  Al14  1  0.665755  0.666229  0.451056  1
  Al  Al15  1  0.665755  0.666229  0.048944  1
  Al  Al16  1  0.332365  0.332375  0.946228  1
  Al  Al17  1  0.339294  0.552094  0.250000  1
  Al  Al18  1  0.660699  0.448481  0.750000  1
  Al  Al19  1  0.551551  0.338266  0.250000  1
  Al  Al20  1  0.448547  0.660770  0.750000  1
  Ga  Ga21  1  0.132661  0.133139  0.250000  1
  Rh  Rh22  1  0.671534  0.327206  0.999824  1
  Rh  Rh23  1  0.327527  0.671667  0.999795  1
  Rh  Rh24  1  0.327527  0.671667  0.500205  1
  Rh  Rh25  1  0.671534  0.327206  0.500176  1
  Rh  Rh26  1  0.999471  0.999757  0.997325  1
  Rh  Rh27  1  0.999471  0.999757  0.502675  1
