# generated using pymatgen
data_Tb3(YbIr)2
_symmetry_space_group_name_H-M   'P 1'
_cell_length_a   6.55479024
_cell_length_b   7.28087663
_cell_length_c   8.54399210
_cell_angle_alpha   96.89611244
_cell_angle_beta   112.55626325
_cell_angle_gamma   90.00000115
_symmetry_Int_Tables_number   1
_chemical_formula_structural   Tb3(YbIr)2
_chemical_formula_sum   'Tb6 Yb4 Ir4'
_cell_volume   373.37027029
_cell_formula_units_Z   2
loop_
 _symmetry_equiv_pos_site_id
 _symmetry_equiv_pos_as_xyz
  1  'x, y, z'
loop_
 _atom_site_type_symbol
 _atom_site_label
 _atom_site_symmetry_multiplicity
 _atom_site_fract_x
 _atom_site_fract_y
 _atom_site_fract_z
 _atom_site_occupancy
  Tb  Tb0  1  0.652239  0.817435  0.440194  1
  Tb  Tb1  1  0.212045  0.682565  0.559806  1
  Tb  Tb2  1  0.347761  0.182565  0.559806  1
  Tb  Tb3  1  0.787955  0.317435  0.440194  1
  Tb  Tb4  1  0.431835  0.750000  0.000000  1
  Tb  Tb5  1  0.568165  0.250000  0.000000  1
  Yb  Yb6  1  0.974939  0.919767  0.182157  1
  Yb  Yb7  1  0.792782  0.580233  0.817843  1
  Yb  Yb8  1  0.025061  0.080233  0.817843  1
  Yb  Yb9  1  0.207218  0.419767  0.182157  1
  Ir  Ir10  1  0.816119  0.572044  0.226448  1
  Ir  Ir11  1  0.589671  0.927956  0.773552  1
  Ir  Ir12  1  0.183881  0.427956  0.773552  1
  Ir  Ir13  1  0.410329  0.072044  0.226448  1
