# generated using pymatgen
data_K3Ba3ScBiSb3
_symmetry_space_group_name_H-M   'P 1'
_cell_length_a   11.27710600
_cell_length_b   11.27710626
_cell_length_c   8.58131400
_cell_angle_alpha   90.00000000
_cell_angle_beta   90.00000000
_cell_angle_gamma   120.00000510
_symmetry_Int_Tables_number   1
_chemical_formula_structural   K3Ba3ScBiSb3
_chemical_formula_sum   'K6 Ba6 Sc2 Bi2 Sb6'
_cell_volume   945.10429810
_cell_formula_units_Z   2
loop_
 _symmetry_equiv_pos_site_id
 _symmetry_equiv_pos_as_xyz
  1  'x, y, z'
loop_
 _atom_site_type_symbol
 _atom_site_label
 _atom_site_symmetry_multiplicity
 _atom_site_fract_x
 _atom_site_fract_y
 _atom_site_fract_z
 _atom_site_occupancy
  K  K0  1  0.863683  0.727367  0.958153  1
  K  K1  1  0.863683  0.136317  0.958153  1
  K  K2  1  0.136317  0.272633  0.458153  1
  K  K3  1  0.272633  0.136317  0.958153  1
  K  K4  1  0.136317  0.863683  0.458153  1
  K  K5  1  0.727367  0.863683  0.458153  1
  Ba  Ba6  1  0.476337  0.952671  0.780048  1
  Ba  Ba7  1  0.476337  0.523663  0.780048  1
  Ba  Ba8  1  0.523663  0.047329  0.280048  1
  Ba  Ba9  1  0.047329  0.523663  0.780048  1
  Ba  Ba10  1  0.523663  0.476337  0.280048  1
  Ba  Ba11  1  0.952671  0.476337  0.280048  1
  Sc  Sc12  1  0.666667  0.333333  0.654562  1
  Sc  Sc13  1  0.333333  0.666667  0.154562  1
  Bi  Bi14  1  0.666667  0.333333  0.001876  1
  Bi  Bi15  1  0.333333  0.666667  0.501876  1
  Sb  Sb16  1  0.805462  0.610924  0.551786  1
  Sb  Sb17  1  0.805462  0.194538  0.551786  1
  Sb  Sb18  1  0.194538  0.389076  0.051786  1
  Sb  Sb19  1  0.389076  0.194538  0.551786  1
  Sb  Sb20  1  0.194538  0.805462  0.051786  1
  Sb  Sb21  1  0.610924  0.805462  0.051786  1
