# generated using pymatgen
data_Eu8Si12RuAu3
_symmetry_space_group_name_H-M   'P 1'
_cell_length_a   8.30730100
_cell_length_b   8.30734480
_cell_length_c   8.58357800
_cell_angle_alpha   89.99908960
_cell_angle_beta   90.00079316
_cell_angle_gamma   119.99885002
_symmetry_Int_Tables_number   1
_chemical_formula_structural   Eu8Si12RuAu3
_chemical_formula_sum   'Eu8 Si12 Ru1 Au3'
_cell_volume   513.01044214
_cell_formula_units_Z   1
loop_
 _symmetry_equiv_pos_site_id
 _symmetry_equiv_pos_as_xyz
  1  'x, y, z'
loop_
 _atom_site_type_symbol
 _atom_site_label
 _atom_site_symmetry_multiplicity
 _atom_site_fract_x
 _atom_site_fract_y
 _atom_site_fract_z
 _atom_site_occupancy
  Eu  Eu0  1  0.999987  0.999928  0.750209  1
  Eu  Eu1  1  0.000040  0.000018  0.249792  1
  Eu  Eu2  1  0.496106  0.504020  0.756656  1
  Eu  Eu3  1  0.495935  0.992028  0.756580  1
  Eu  Eu4  1  0.007820  0.503814  0.756419  1
  Eu  Eu5  1  0.497407  0.502657  0.243450  1
  Eu  Eu6  1  0.005058  0.502549  0.243458  1
  Eu  Eu7  1  0.497501  0.994968  0.243323  1
  Si  Si8  1  0.839906  0.160032  0.999244  1
  Si  Si9  1  0.840128  0.679954  0.999302  1
  Si  Si10  1  0.320051  0.159891  0.999328  1
  Si  Si11  1  0.837171  0.162859  0.500602  1
  Si  Si12  1  0.837280  0.674296  0.500700  1
  Si  Si13  1  0.325664  0.162714  0.500686  1
  Si  Si14  1  0.161816  0.838190  0.499705  1
  Si  Si15  1  0.676530  0.838379  0.499778  1
  Si  Si16  1  0.161644  0.323527  0.499733  1
  Si  Si17  1  0.168906  0.831117  0.000650  1
  Si  Si18  1  0.662316  0.831341  0.000512  1
  Si  Si19  1  0.168705  0.337663  0.000575  1
  Ru  Ru20  1  0.333258  0.666818  0.001030  1
  Au  Au21  1  0.666825  0.333308  0.997944  1
  Au  Au22  1  0.666750  0.333290  0.501982  1
  Au  Au23  1  0.333194  0.666634  0.498340  1
