# generated using pymatgen
data_HoEr9(GaCo5)2
_symmetry_space_group_name_H-M   'P 1'
_cell_length_a   5.41649970
_cell_length_b   5.41649900
_cell_length_c   20.38074237
_cell_angle_alpha   90.03341515
_cell_angle_beta   89.96658439
_cell_angle_gamma   136.67030041
_symmetry_Int_Tables_number   1
_chemical_formula_structural   HoEr9(GaCo5)2
_chemical_formula_sum   'Ho1 Er9 Ga2 Co10'
_cell_volume   410.30345466
_cell_formula_units_Z   1
loop_
 _symmetry_equiv_pos_site_id
 _symmetry_equiv_pos_as_xyz
  1  'x, y, z'
loop_
 _atom_site_type_symbol
 _atom_site_label
 _atom_site_symmetry_multiplicity
 _atom_site_fract_x
 _atom_site_fract_y
 _atom_site_fract_z
 _atom_site_occupancy
  Ho  Ho0  1  0.292215  0.707785  0.434033  1
  Er  Er1  1  0.289797  0.710203  0.249731  1
  Er  Er2  1  0.292091  0.707909  0.065825  1
  Er  Er3  1  0.996896  0.003104  0.842834  1
  Er  Er4  1  0.709925  0.290075  0.750320  1
  Er  Er5  1  0.708014  0.291986  0.566287  1
  Er  Er6  1  0.003167  0.996833  0.342288  1
  Er  Er7  1  0.997321  0.002679  0.657652  1
  Er  Er8  1  0.707847  0.292153  0.934076  1
  Er  Er9  1  0.002890  0.997110  0.157138  1
  Ga  Ga10  1  0.000559  0.999441  0.500179  1
  Ga  Ga11  1  0.999960  0.000040  0.999902  1
  Co  Co12  1  0.292681  0.707319  0.654794  1
  Co  Co13  1  0.583172  0.416828  0.441381  1
  Co  Co14  1  0.413759  0.586241  0.750153  1
  Co  Co15  1  0.416829  0.583171  0.941380  1
  Co  Co16  1  0.585735  0.414265  0.249584  1
  Co  Co17  1  0.417562  0.582438  0.559118  1
  Co  Co18  1  0.706683  0.293317  0.344949  1
  Co  Co19  1  0.707392  0.292608  0.154347  1
  Co  Co20  1  0.583171  0.416829  0.058513  1
  Co  Co21  1  0.292336  0.707664  0.845515  1
