# generated using pymatgen
data_Y7HoTa10(TiSi8)2
_symmetry_space_group_name_H-M   'P 1'
_cell_length_a   7.06185117
_cell_length_b   7.05602416
_cell_length_c   12.98764401
_cell_angle_alpha   90.01103018
_cell_angle_beta   89.99756277
_cell_angle_gamma   89.97918233
_symmetry_Int_Tables_number   1
_chemical_formula_structural   Y7HoTa10(TiSi8)2
_chemical_formula_sum   'Y7 Ho1 Ta10 Ti2 Si16'
_cell_volume   647.15596535
_cell_formula_units_Z   1
loop_
 _symmetry_equiv_pos_site_id
 _symmetry_equiv_pos_as_xyz
  1  'x, y, z'
loop_
 _atom_site_type_symbol
 _atom_site_label
 _atom_site_symmetry_multiplicity
 _atom_site_fract_x
 _atom_site_fract_y
 _atom_site_fract_z
 _atom_site_occupancy
  Y  Y0  1  0.341880  0.002556  0.467566  1
  Y  Y1  1  0.498211  0.841956  0.717870  1
  Y  Y2  1  0.501841  0.158011  0.217608  1
  Y  Y3  1  0.841967  0.498007  0.282421  1
  Y  Y4  1  0.157955  0.502028  0.782573  1
  Y  Y5  1  0.658213  0.997385  0.967737  1
  Y  Y6  1  0.002787  0.340880  0.532091  1
  Ho  Ho7  1  0.997781  0.658948  0.032057  1
  Ta  Ta8  1  0.328906  0.329488  0.999659  1
  Ta  Ta9  1  0.172893  0.826233  0.249913  1
  Ta  Ta10  1  0.827017  0.173584  0.750179  1
  Ta  Ta11  1  0.670968  0.670684  0.499569  1
  Ta  Ta12  1  0.152599  0.007970  0.874379  1
  Ta  Ta13  1  0.492295  0.652558  0.124372  1
  Ta  Ta14  1  0.507694  0.347364  0.624456  1
  Ta  Ta15  1  0.652374  0.491694  0.875998  1
  Ta  Ta16  1  0.347720  0.508602  0.375686  1
  Ta  Ta17  1  0.847099  0.991955  0.374053  1
  Ti  Ti18  1  0.008271  0.153413  0.125773  1
  Ti  Ti19  1  0.991565  0.846426  0.625872  1
  Si  Si20  1  0.201626  0.131609  0.682353  1
  Si  Si21  1  0.365721  0.704382  0.932418  1
  Si  Si22  1  0.633762  0.295505  0.432263  1
  Si  Si23  1  0.704757  0.365676  0.068130  1
  Si  Si24  1  0.295818  0.634792  0.568061  1
  Si  Si25  1  0.798703  0.867828  0.181867  1
  Si  Si26  1  0.133623  0.202387  0.317110  1
  Si  Si27  1  0.866474  0.797445  0.817512  1
  Si  Si28  1  0.291190  0.954301  0.064355  1
  Si  Si29  1  0.546821  0.793703  0.313501  1
  Si  Si30  1  0.453312  0.206333  0.813712  1
  Si  Si31  1  0.795199  0.547674  0.685398  1
  Si  Si32  1  0.204343  0.452644  0.185069  1
  Si  Si33  1  0.708475  0.045346  0.564394  1
  Si  Si34  1  0.954044  0.293911  0.937105  1
  Si  Si35  1  0.046095  0.706721  0.436923  1
