# generated using pymatgen
data_Tb7Lu9(ScSb3)4
_symmetry_space_group_name_H-M   'P 1'
_cell_length_a   7.92612227
_cell_length_b   9.11382100
_cell_length_c   11.70870840
_cell_angle_alpha   90.00000000
_cell_angle_beta   89.97007987
_cell_angle_gamma   90.00000000
_symmetry_Int_Tables_number   1
_chemical_formula_structural   Tb7Lu9(ScSb3)4
_chemical_formula_sum   'Tb7 Lu9 Sc4 Sb12'
_cell_volume   845.80489282
_cell_formula_units_Z   1
loop_
 _symmetry_equiv_pos_site_id
 _symmetry_equiv_pos_as_xyz
  1  'x, y, z'
loop_
 _atom_site_type_symbol
 _atom_site_label
 _atom_site_symmetry_multiplicity
 _atom_site_fract_x
 _atom_site_fract_y
 _atom_site_fract_z
 _atom_site_occupancy
  Tb  Tb0  1  0.184138  0.750000  0.721648  1
  Tb  Tb1  1  0.684045  0.750000  0.778522  1
  Tb  Tb2  1  0.816187  0.250000  0.278283  1
  Tb  Tb3  1  0.316395  0.250000  0.221039  1
  Tb  Tb4  1  0.854399  0.750000  0.285479  1
  Tb  Tb5  1  0.354559  0.750000  0.214669  1
  Tb  Tb6  1  0.144784  0.250000  0.714754  1
  Lu  Lu7  1  0.196753  0.562483  0.440898  1
  Lu  Lu8  1  0.696844  0.937203  0.059175  1
  Lu  Lu9  1  0.803139  0.062944  0.560183  1
  Lu  Lu10  1  0.303456  0.437256  0.940287  1
  Lu  Lu11  1  0.803139  0.437056  0.560183  1
  Lu  Lu12  1  0.303456  0.062744  0.940287  1
  Lu  Lu13  1  0.196753  0.937517  0.440898  1
  Lu  Lu14  1  0.696844  0.562797  0.059175  1
  Lu  Lu15  1  0.645127  0.250000  0.784665  1
  Sc  Sc16  1  0.027815  0.750000  0.988532  1
  Sc  Sc17  1  0.528353  0.750000  0.511696  1
  Sc  Sc18  1  0.971868  0.250000  0.011224  1
  Sc  Sc19  1  0.472040  0.250000  0.489602  1
  Sb  Sb20  1  0.932650  0.495135  0.832991  1
  Sb  Sb21  1  0.435300  0.005584  0.667938  1
  Sb  Sb22  1  0.065920  0.995991  0.166805  1
  Sb  Sb23  1  0.565995  0.503810  0.333166  1
  Sb  Sb24  1  0.065920  0.504009  0.166805  1
  Sb  Sb25  1  0.565995  0.996190  0.333166  1
  Sb  Sb26  1  0.932650  0.004865  0.832991  1
  Sb  Sb27  1  0.435300  0.494416  0.667938  1
  Sb  Sb28  1  0.906678  0.750000  0.541217  1
  Sb  Sb29  1  0.406619  0.750000  0.958745  1
  Sb  Sb30  1  0.092970  0.250000  0.458747  1
  Sb  Sb31  1  0.593905  0.250000  0.038290  1
