# generated using pymatgen
data_TbHo15(CoHg)4
_symmetry_space_group_name_H-M   'P 1'
_cell_length_a   9.42446865
_cell_length_b   9.42446822
_cell_length_c   9.42172200
_cell_angle_alpha   60.00963873
_cell_angle_beta   60.00964024
_cell_angle_gamma   60.00283686
_symmetry_Int_Tables_number   1
_chemical_formula_structural   TbHo15(CoHg)4
_chemical_formula_sum   'Tb1 Ho15 Co4 Hg4'
_cell_volume   591.83628932
_cell_formula_units_Z   1
loop_
 _symmetry_equiv_pos_site_id
 _symmetry_equiv_pos_as_xyz
  1  'x, y, z'
loop_
 _atom_site_type_symbol
 _atom_site_label
 _atom_site_symmetry_multiplicity
 _atom_site_fract_x
 _atom_site_fract_y
 _atom_site_fract_z
 _atom_site_occupancy
  Tb  Tb0  1  0.938633  0.938633  0.561367  1
  Ho  Ho1  1  0.810769  0.187910  0.188990  1
  Ho  Ho2  1  0.939090  0.560815  0.561507  1
  Ho  Ho3  1  0.939090  0.560815  0.938589  1
  Ho  Ho4  1  0.811420  0.811420  0.188580  1
  Ho  Ho5  1  0.347839  0.347839  0.346554  1
  Ho  Ho6  1  0.560815  0.939090  0.938589  1
  Ho  Ho7  1  0.560815  0.939090  0.561507  1
  Ho  Ho8  1  0.187910  0.810769  0.812332  1
  Ho  Ho9  1  0.188506  0.188506  0.811494  1
  Ho  Ho10  1  0.347839  0.347839  0.957767  1
  Ho  Ho11  1  0.349085  0.956191  0.347362  1
  Ho  Ho12  1  0.810769  0.187910  0.812332  1
  Ho  Ho13  1  0.561758  0.561758  0.938242  1
  Ho  Ho14  1  0.187910  0.810769  0.188990  1
  Ho  Ho15  1  0.956191  0.349085  0.347362  1
  Co  Co16  1  0.576838  0.141904  0.140629  1
  Co  Co17  1  0.141844  0.141844  0.139860  1
  Co  Co18  1  0.141904  0.576838  0.140629  1
  Co  Co19  1  0.141844  0.141844  0.576453  1
  Hg  Hg20  1  0.583994  0.583994  0.247996  1
  Hg  Hg21  1  0.247671  0.583474  0.584428  1
  Hg  Hg22  1  0.583994  0.583994  0.584017  1
  Hg  Hg23  1  0.583474  0.247671  0.584428  1
