# generated using pymatgen
data_Sr3Fe2IrO9
_symmetry_space_group_name_H-M   'P 1'
_cell_length_a   9.69908675
_cell_length_b   9.69908664
_cell_length_c   5.57204741
_cell_angle_alpha   73.47831937
_cell_angle_beta   73.47831446
_cell_angle_gamma   49.13329175
_symmetry_Int_Tables_number   1
_chemical_formula_structural   Sr3Fe2IrO9
_chemical_formula_sum   'Sr6 Fe4 Ir2 O18'
_cell_volume   376.52261621
_cell_formula_units_Z   2
loop_
 _symmetry_equiv_pos_site_id
 _symmetry_equiv_pos_as_xyz
  1  'x, y, z'
loop_
 _atom_site_type_symbol
 _atom_site_label
 _atom_site_symmetry_multiplicity
 _atom_site_fract_x
 _atom_site_fract_y
 _atom_site_fract_z
 _atom_site_occupancy
  Sr  Sr0  1  0.918756  0.404455  0.836985  1
  Sr  Sr1  1  0.236272  0.763728  0.500000  1
  Sr  Sr2  1  0.595545  0.081244  0.163015  1
  Sr  Sr3  1  0.763728  0.236272  0.500000  1
  Sr  Sr4  1  0.081244  0.595545  0.163015  1
  Sr  Sr5  1  0.404455  0.918756  0.836985  1
  Fe  Fe6  1  0.500000  0.500000  0.000000  1
  Fe  Fe7  1  0.834642  0.834642  0.666055  1
  Fe  Fe8  1  0.165358  0.165358  0.333945  1
  Fe  Fe9  1  0.000000  0.000000  0.000000  1
  Ir  Ir10  1  0.333043  0.333043  0.667516  1
  Ir  Ir11  1  0.666957  0.666957  0.332484  1
  O  O12  1  0.424518  0.912280  0.331046  1
  O  O13  1  0.744173  0.255827  0.000000  1
  O  O14  1  0.087720  0.575482  0.668954  1
  O  O15  1  0.912280  0.424518  0.331046  1
  O  O16  1  0.255827  0.744173  0.000000  1
  O  O17  1  0.575482  0.087720  0.668954  1
  O  O18  1  0.074779  0.074779  0.202698  1
  O  O19  1  0.398957  0.398957  0.892008  1
  O  O20  1  0.733783  0.733783  0.556948  1
  O  O21  1  0.601043  0.601043  0.107992  1
  O  O22  1  0.925221  0.925221  0.797302  1
  O  O23  1  0.266217  0.266217  0.443052  1
  O  O24  1  0.570542  0.570542  0.626141  1
  O  O25  1  0.905113  0.905113  0.319659  1
  O  O26  1  0.237470  0.237470  0.964912  1
  O  O27  1  0.094887  0.094887  0.680341  1
  O  O28  1  0.429458  0.429458  0.373859  1
  O  O29  1  0.762530  0.762530  0.035088  1
