# generated using pymatgen
data_Tc5Ir2Ru
_symmetry_space_group_name_H-M   'P 1'
_cell_length_a   5.53896189
_cell_length_b   5.53896146
_cell_length_c   4.35407000
_cell_angle_alpha   90.00000000
_cell_angle_beta   90.00000000
_cell_angle_gamma   120.09453920
_symmetry_Int_Tables_number   1
_chemical_formula_structural   Tc5Ir2Ru
_chemical_formula_sum   'Tc5 Ir2 Ru1'
_cell_volume   115.57615531
_cell_formula_units_Z   1
loop_
 _symmetry_equiv_pos_site_id
 _symmetry_equiv_pos_as_xyz
  1  'x, y, z'
loop_
 _atom_site_type_symbol
 _atom_site_label
 _atom_site_symmetry_multiplicity
 _atom_site_fract_x
 _atom_site_fract_y
 _atom_site_fract_z
 _atom_site_occupancy
  Tc  Tc0  1  0.157793  0.322531  0.250000  1
  Tc  Tc1  1  0.677469  0.842207  0.250000  1
  Tc  Tc2  1  0.161616  0.838384  0.250000  1
  Tc  Tc3  1  0.837580  0.675911  0.750000  1
  Tc  Tc4  1  0.324089  0.162420  0.750000  1
  Ir  Ir5  1  0.335175  0.664825  0.750000  1
  Ir  Ir6  1  0.667967  0.332033  0.250000  1
  Ru  Ru7  1  0.838312  0.161688  0.750000  1
