# generated using pymatgen
data_La6Pt2RhAu5
_symmetry_space_group_name_H-M   'P 1'
_cell_length_a   8.44356531
_cell_length_b   8.40847344
_cell_length_c   8.46682100
_cell_angle_alpha   114.57926522
_cell_angle_beta   114.71844310
_cell_angle_gamma   114.30567055
_symmetry_Int_Tables_number   1
_chemical_formula_structural   La6Pt2RhAu5
_chemical_formula_sum   'La6 Pt2 Rh1 Au5'
_cell_volume   350.26668722
_cell_formula_units_Z   1
loop_
 _symmetry_equiv_pos_site_id
 _symmetry_equiv_pos_as_xyz
  1  'x, y, z'
loop_
 _atom_site_type_symbol
 _atom_site_label
 _atom_site_symmetry_multiplicity
 _atom_site_fract_x
 _atom_site_fract_y
 _atom_site_fract_z
 _atom_site_occupancy
  La  La0  1  0.974530  0.605883  0.730949  1
  La  La1  1  0.713827  0.961827  0.595725  1
  La  La2  1  0.609406  0.725410  0.969912  1
  La  La3  1  0.041202  0.394534  0.270555  1
  La  La4  1  0.271999  0.028063  0.385991  1
  La  La5  1  0.383938  0.281723  0.035970  1
  Pt  Pt6  1  0.505343  0.502234  0.505305  1
  Pt  Pt7  1  0.224275  0.561492  0.059371  1
  Rh  Rh8  1  0.996674  0.994151  0.996796  1
  Au  Au9  1  0.944251  0.775186  0.441719  1
  Au  Au10  1  0.439750  0.945236  0.779429  1
  Au  Au11  1  0.772836  0.437184  0.939109  1
  Au  Au12  1  0.060038  0.228227  0.563086  1
  Au  Au13  1  0.561933  0.058850  0.226082  1
