# generated using pymatgen
data_Al7(InSe4)3
_symmetry_space_group_name_H-M   'P 1'
_cell_length_a   13.25883300
_cell_length_b   9.66533908
_cell_length_c   10.22096300
_cell_angle_alpha   83.89618616
_cell_angle_beta   90.00000000
_cell_angle_gamma   90.00000000
_symmetry_Int_Tables_number   1
_chemical_formula_structural   Al7(InSe4)3
_chemical_formula_sum   'Al14 In6 Se24'
_cell_volume   1302.40223630
_cell_formula_units_Z   2
loop_
 _symmetry_equiv_pos_site_id
 _symmetry_equiv_pos_as_xyz
  1  'x, y, z'
loop_
 _atom_site_type_symbol
 _atom_site_label
 _atom_site_symmetry_multiplicity
 _atom_site_fract_x
 _atom_site_fract_y
 _atom_site_fract_z
 _atom_site_occupancy
  Al  Al0  1  0.283272  0.028856  0.031016  1
  Al  Al1  1  0.783272  0.971144  0.968984  1
  Al  Al2  1  0.765659  0.288746  0.193375  1
  Al  Al3  1  0.265659  0.711254  0.806625  1
  Al  Al4  1  0.373842  0.696583  0.179361  1
  Al  Al5  1  0.873842  0.303417  0.820639  1
  Al  Al6  1  0.767306  0.477139  0.479017  1
  Al  Al7  1  0.267306  0.522861  0.520983  1
  Al  Al8  1  0.671101  0.669940  0.174129  1
  Al  Al9  1  0.171101  0.330060  0.825871  1
  Al  Al10  1  0.537509  0.022198  0.197339  1
  Al  Al11  1  0.037509  0.977802  0.802661  1
  Al  Al12  1  0.514884  0.371485  0.358095  1
  Al  Al13  1  0.014884  0.628515  0.641905  1
  In  In14  1  0.256085  0.033351  0.477005  1
  In  In15  1  0.756085  0.966649  0.522995  1
  In  In16  1  0.025766  0.126305  0.213991  1
  In  In17  1  0.525766  0.873695  0.786009  1
  In  In18  1  0.018965  0.622110  0.171084  1
  In  In19  1  0.518965  0.377890  0.828916  1
  Se  Se20  1  0.960283  0.924184  0.012945  1
  Se  Se21  1  0.201620  0.246104  0.051729  1
  Se  Se22  1  0.312105  0.327363  0.679813  1
  Se  Se23  1  0.812105  0.672637  0.320187  1
  Se  Se24  1  0.701620  0.753896  0.948271  1
  Se  Se25  1  0.611884  0.429325  0.151584  1
  Se  Se26  1  0.843615  0.530134  0.691193  1
  Se  Se27  1  0.343615  0.469866  0.308807  1
  Se  Se28  1  0.334560  0.733521  0.590298  1
  Se  Se29  1  0.834560  0.266479  0.409702  1
  Se  Se30  1  0.591502  0.472906  0.534806  1
  Se  Se31  1  0.091502  0.527094  0.465194  1
  Se  Se32  1  0.402077  0.646148  0.954658  1
  Se  Se33  1  0.902077  0.353852  0.045342  1
  Se  Se34  1  0.743125  0.140764  0.787980  1
  Se  Se35  1  0.243125  0.859236  0.212020  1
  Se  Se36  1  0.528123  0.775345  0.280157  1
  Se  Se37  1  0.028123  0.224655  0.719843  1
  Se  Se38  1  0.721653  0.045680  0.177984  1
  Se  Se39  1  0.221653  0.954320  0.822016  1
  Se  Se40  1  0.492022  0.123367  0.392534  1
  Se  Se41  1  0.992022  0.876633  0.607466  1
  Se  Se42  1  0.111884  0.570675  0.848416  1
  Se  Se43  1  0.460283  0.075816  0.987055  1
