# generated using pymatgen
data_Ac3Mg3SnHg2
_symmetry_space_group_name_H-M   'P 1'
_cell_length_a   8.00410700
_cell_length_b   8.00410675
_cell_length_c   4.85240400
_cell_angle_alpha   90.00000000
_cell_angle_beta   90.00000000
_cell_angle_gamma   119.99999689
_symmetry_Int_Tables_number   1
_chemical_formula_structural   Ac3Mg3SnHg2
_chemical_formula_sum   'Ac3 Mg3 Sn1 Hg2'
_cell_volume   269.22374143
_cell_formula_units_Z   1
loop_
 _symmetry_equiv_pos_site_id
 _symmetry_equiv_pos_as_xyz
  1  'x, y, z'
loop_
 _atom_site_type_symbol
 _atom_site_label
 _atom_site_symmetry_multiplicity
 _atom_site_fract_x
 _atom_site_fract_y
 _atom_site_fract_z
 _atom_site_occupancy
  Ac  Ac0  1  0.418767  0.997487  0.000000  1
  Ac  Ac1  1  0.002513  0.421281  0.000000  1
  Ac  Ac2  1  0.578719  0.581233  0.000000  1
  Mg  Mg3  1  0.759973  0.995667  0.500000  1
  Mg  Mg4  1  0.235693  0.240027  0.500000  1
  Mg  Mg5  1  0.004333  0.764306  0.500000  1
  Sn  Sn6  1  0.666666  0.333333  0.500000  1
  Hg  Hg7  1  0.000000  0.000000  0.000000  1
  Hg  Hg8  1  0.333334  0.666667  0.500000  1
