# generated using pymatgen
data_Tb2Y6Cd2IrRu
_symmetry_space_group_name_H-M   'P 1'
_cell_length_a   9.67329335
_cell_length_b   9.67329273
_cell_length_c   9.70165400
_cell_angle_alpha   59.90296554
_cell_angle_beta   59.90296768
_cell_angle_gamma   59.80805761
_symmetry_Int_Tables_number   1
_chemical_formula_structural   Tb2Y6Cd2IrRu
_chemical_formula_sum   'Tb4 Y12 Cd4 Ir2 Ru2'
_cell_volume   640.04255102
_cell_formula_units_Z   2
loop_
 _symmetry_equiv_pos_site_id
 _symmetry_equiv_pos_as_xyz
  1  'x, y, z'
loop_
 _atom_site_type_symbol
 _atom_site_label
 _atom_site_symmetry_multiplicity
 _atom_site_fract_x
 _atom_site_fract_y
 _atom_site_fract_z
 _atom_site_occupancy
  Tb  Tb0  1  0.347942  0.347942  0.347927  1
  Tb  Tb1  1  0.347942  0.347942  0.956189  1
  Tb  Tb2  1  0.347322  0.957909  0.347385  1
  Tb  Tb3  1  0.957909  0.347322  0.347385  1
  Y  Y4  1  0.811751  0.188349  0.190206  1
  Y  Y5  1  0.188349  0.811751  0.809695  1
  Y  Y6  1  0.188349  0.811751  0.190206  1
  Y  Y7  1  0.811751  0.188349  0.809695  1
  Y  Y8  1  0.188321  0.188321  0.811679  1
  Y  Y9  1  0.809298  0.809298  0.190702  1
  Y  Y10  1  0.938520  0.560013  0.562739  1
  Y  Y11  1  0.560013  0.938520  0.938728  1
  Y  Y12  1  0.560013  0.938520  0.562739  1
  Y  Y13  1  0.938520  0.560013  0.938728  1
  Y  Y14  1  0.561385  0.561385  0.938615  1
  Y  Y15  1  0.938966  0.938966  0.561034  1
  Cd  Cd16  1  0.580365  0.580365  0.580738  1
  Cd  Cd17  1  0.580365  0.580365  0.258534  1
  Cd  Cd18  1  0.580327  0.257947  0.580863  1
  Cd  Cd19  1  0.257947  0.580327  0.580863  1
  Ir  Ir20  1  0.143709  0.576616  0.139837  1
  Ir  Ir21  1  0.576616  0.143709  0.139837  1
  Ru  Ru22  1  0.142162  0.142162  0.138274  1
  Ru  Ru23  1  0.142162  0.142162  0.577401  1
