# generated using pymatgen
data_DyHo4ErIr2
_symmetry_space_group_name_H-M   'P 1'
_cell_length_a   6.36143344
_cell_length_b   7.23853900
_cell_length_c   9.16025264
_cell_angle_alpha   90.00000000
_cell_angle_beta   90.04288109
_cell_angle_gamma   90.00000000
_symmetry_Int_Tables_number   1
_chemical_formula_structural   DyHo4ErIr2
_chemical_formula_sum   'Dy2 Ho8 Er2 Ir4'
_cell_volume   421.80646964
_cell_formula_units_Z   2
loop_
 _symmetry_equiv_pos_site_id
 _symmetry_equiv_pos_as_xyz
  1  'x, y, z'
loop_
 _atom_site_type_symbol
 _atom_site_label
 _atom_site_symmetry_multiplicity
 _atom_site_fract_x
 _atom_site_fract_y
 _atom_site_fract_z
 _atom_site_occupancy
  Dy  Dy0  1  0.869331  0.534319  0.250043  1
  Dy  Dy1  1  0.630669  0.034319  0.249957  1
  Ho  Ho2  1  0.328521  0.677010  0.062127  1
  Ho  Ho3  1  0.171479  0.177010  0.437873  1
  Ho  Ho4  1  0.671610  0.322929  0.562574  1
  Ho  Ho5  1  0.828390  0.822929  0.937426  1
  Ho  Ho6  1  0.671717  0.322777  0.937471  1
  Ho  Ho7  1  0.828283  0.822777  0.562529  1
  Ho  Ho8  1  0.131051  0.465589  0.750003  1
  Ho  Ho9  1  0.368949  0.965589  0.749997  1
  Er  Er10  1  0.328744  0.676945  0.437863  1
  Er  Er11  1  0.171256  0.176945  0.062137  1
  Ir  Ir12  1  0.046997  0.882893  0.250051  1
  Ir  Ir13  1  0.453003  0.382893  0.249949  1
  Ir  Ir14  1  0.955427  0.117536  0.750224  1
  Ir  Ir15  1  0.544573  0.617536  0.749776  1
