# generated using pymatgen
data_Er4Pd2PtAu
_symmetry_space_group_name_H-M   'P 1'
_cell_length_a   4.56979400
_cell_length_b   5.61793814
_cell_length_c   6.95533500
_cell_angle_alpha   89.77853274
_cell_angle_beta   90.00000000
_cell_angle_gamma   90.00000000
_symmetry_Int_Tables_number   1
_chemical_formula_structural   Er4Pd2PtAu
_chemical_formula_sum   'Er4 Pd2 Pt1 Au1'
_cell_volume   178.56172944
_cell_formula_units_Z   1
loop_
 _symmetry_equiv_pos_site_id
 _symmetry_equiv_pos_as_xyz
  1  'x, y, z'
loop_
 _atom_site_type_symbol
 _atom_site_label
 _atom_site_symmetry_multiplicity
 _atom_site_fract_x
 _atom_site_fract_y
 _atom_site_fract_z
 _atom_site_occupancy
  Er  Er0  1  0.250000  0.635942  0.187610  1
  Er  Er1  1  0.750000  0.354668  0.811270  1
  Er  Er2  1  0.750000  0.146674  0.323566  1
  Er  Er3  1  0.250000  0.858837  0.676561  1
  Pd  Pd4  1  0.250000  0.153968  0.042024  1
  Pd  Pd5  1  0.750000  0.657527  0.456294  1
  Pt  Pt6  1  0.250000  0.344564  0.542291  1
  Au  Au7  1  0.750000  0.847820  0.960382  1
