# generated using pymatgen
data_La4Sn7HgO4
_symmetry_space_group_name_H-M   'P 1'
_cell_length_a   5.97752534
_cell_length_b   5.97180574
_cell_length_c   10.90167925
_cell_angle_alpha   90.10697971
_cell_angle_beta   90.57117224
_cell_angle_gamma   89.97692954
_symmetry_Int_Tables_number   1
_chemical_formula_structural   La4Sn7HgO4
_chemical_formula_sum   'La4 Sn7 Hg1 O4'
_cell_volume   389.13305947
_cell_formula_units_Z   1
loop_
 _symmetry_equiv_pos_site_id
 _symmetry_equiv_pos_as_xyz
  1  'x, y, z'
loop_
 _atom_site_type_symbol
 _atom_site_label
 _atom_site_symmetry_multiplicity
 _atom_site_fract_x
 _atom_site_fract_y
 _atom_site_fract_z
 _atom_site_occupancy
  La  La0  1  0.503468  0.181329  0.105910  1
  La  La1  1  0.003050  0.682184  0.104129  1
  La  La2  1  0.997853  0.181472  0.893269  1
  La  La3  1  0.497562  0.680884  0.893306  1
  Sn  Sn4  1  0.512796  0.171784  0.425239  1
  Sn  Sn5  1  0.009407  0.663258  0.411587  1
  Sn  Sn6  1  0.991726  0.162876  0.577897  1
  Sn  Sn7  1  0.483486  0.671408  0.577276  1
  Sn  Sn8  1  0.515576  0.674102  0.312171  1
  Sn  Sn9  1  0.022616  0.166850  0.313038  1
  Sn  Sn10  1  0.977132  0.664185  0.678709  1
  Hg  Hg11  1  0.484210  0.174675  0.709047  1
  O  O12  1  0.751763  0.929848  0.999359  1
  O  O13  1  0.248827  0.929690  0.999333  1
  O  O14  1  0.751774  0.432668  0.999934  1
  O  O15  1  0.248766  0.432747  0.999799  1
