# generated using pymatgen
data_Y4Er8InCo4Pt
_symmetry_space_group_name_H-M   'P 1'
_cell_length_a   8.27574817
_cell_length_b   8.27574728
_cell_length_c   8.27574833
_cell_angle_alpha   110.84060379
_cell_angle_beta   110.65783123
_cell_angle_gamma   106.94444834
_symmetry_Int_Tables_number   1
_chemical_formula_structural   Y4Er8InCo4Pt
_chemical_formula_sum   'Y4 Er8 In1 Co4 Pt1'
_cell_volume   435.68066139
_cell_formula_units_Z   1
loop_
 _symmetry_equiv_pos_site_id
 _symmetry_equiv_pos_as_xyz
  1  'x, y, z'
loop_
 _atom_site_type_symbol
 _atom_site_label
 _atom_site_symmetry_multiplicity
 _atom_site_fract_x
 _atom_site_fract_y
 _atom_site_fract_z
 _atom_site_occupancy
  Y  Y0  1  0.187166  0.289633  0.476799  1
  Y  Y1  1  0.812834  0.710367  0.523201  1
  Y  Y2  1  0.187166  0.710367  0.897533  1
  Y  Y3  1  0.812834  0.289633  0.102467  1
  Er  Er4  1  0.315580  0.621226  0.305646  1
  Er  Er5  1  0.684420  0.378774  0.694354  1
  Er  Er6  1  0.315580  0.009935  0.694354  1
  Er  Er7  1  0.684420  0.990065  0.305646  1
  Er  Er8  1  0.414546  0.216572  0.197973  1
  Er  Er9  1  0.585454  0.783428  0.802027  1
  Er  Er10  1  0.018599  0.216572  0.802027  1
  Er  Er11  1  0.981401  0.783428  0.197973  1
  In  In12  1  0.500000  0.500000  0.000000  1
  Co  Co13  1  0.112785  0.612785  0.500000  1
  Co  Co14  1  0.887215  0.387215  0.500000  1
  Co  Co15  1  0.378756  0.000000  0.378756  1
  Co  Co16  1  0.621244  0.000000  0.621244  1
  Pt  Pt17  1  0.000000  0.000000  0.000000  1
