# generated using pymatgen
data_KAl4Tl3Br16
_symmetry_space_group_name_H-M   'P 1'
_cell_length_a   7.55070998
_cell_length_b   8.23016502
_cell_length_c   15.33997200
_cell_angle_alpha   85.73857294
_cell_angle_beta   90.46436078
_cell_angle_gamma   90.21014992
_symmetry_Int_Tables_number   1
_chemical_formula_structural   KAl4Tl3Br16
_chemical_formula_sum   'K1 Al4 Tl3 Br16'
_cell_volume   950.60974991
_cell_formula_units_Z   1
loop_
 _symmetry_equiv_pos_site_id
 _symmetry_equiv_pos_as_xyz
  1  'x, y, z'
loop_
 _atom_site_type_symbol
 _atom_site_label
 _atom_site_symmetry_multiplicity
 _atom_site_fract_x
 _atom_site_fract_y
 _atom_site_fract_z
 _atom_site_occupancy
  K  K0  1  0.995856  0.254590  0.138199  1
  Al  Al1  1  0.352290  0.247647  0.359654  1
  Al  Al2  1  0.860769  0.753482  0.139338  1
  Al  Al3  1  0.643891  0.752261  0.639207  1
  Al  Al4  1  0.142535  0.246885  0.862187  1
  Tl  Tl5  1  0.505645  0.255732  0.639631  1
  Tl  Tl6  1  0.006009  0.743627  0.861984  1
  Tl  Tl7  1  0.494166  0.744558  0.358990  1
  Br  Br8  1  0.868755  0.145263  0.908978  1
  Br  Br9  1  0.370951  0.852250  0.589299  1
  Br  Br10  1  0.132686  0.856444  0.090801  1
  Br  Br11  1  0.626096  0.148315  0.408612  1
  Br  Br12  1  0.387363  0.401257  0.226851  1
  Br  Br13  1  0.894897  0.596304  0.271151  1
  Br  Br14  1  0.606805  0.598720  0.771885  1
  Br  Br15  1  0.107323  0.402952  0.730121  1
  Br  Br16  1  0.666587  0.966694  0.160056  1
  Br  Br17  1  0.155494  0.034473  0.339440  1
  Br  Br18  1  0.340088  0.036419  0.841214  1
  Br  Br19  1  0.841219  0.964828  0.659892  1
  Br  Br20  1  0.240526  0.414849  0.462486  1
  Br  Br21  1  0.745536  0.584963  0.036759  1
  Br  Br22  1  0.758144  0.585599  0.536659  1
  Br  Br23  1  0.256371  0.411892  0.966606  1
