# generated using pymatgen
data_CeSc6Sn5Ru12
_symmetry_space_group_name_H-M   'P 1'
_cell_length_a   4.55979400
_cell_length_b   6.48092900
_cell_length_c   13.68670600
_cell_angle_alpha   89.99934637
_cell_angle_beta   89.99922952
_cell_angle_gamma   89.99911817
_symmetry_Int_Tables_number   1
_chemical_formula_structural   CeSc6Sn5Ru12
_chemical_formula_sum   'Ce1 Sc6 Sn5 Ru12'
_cell_volume   404.46544564
_cell_formula_units_Z   1
loop_
 _symmetry_equiv_pos_site_id
 _symmetry_equiv_pos_as_xyz
  1  'x, y, z'
loop_
 _atom_site_type_symbol
 _atom_site_label
 _atom_site_symmetry_multiplicity
 _atom_site_fract_x
 _atom_site_fract_y
 _atom_site_fract_z
 _atom_site_occupancy
  Ce  Ce0  1  0.000000  0.000000  0.000000  1
  Sc  Sc1  1  0.000000  0.500001  0.000000  1
  Sc  Sc2  1  0.499949  0.000016  0.177713  1
  Sc  Sc3  1  0.999963  0.500000  0.333412  1
  Sc  Sc4  1  0.500000  0.000000  0.500000  1
  Sc  Sc5  1  0.000037  0.500002  0.666588  1
  Sc  Sc6  1  0.500051  0.999984  0.822287  1
  Sn  Sn7  1  0.499958  0.500009  0.167616  1
  Sn  Sn8  1  0.999962  0.999995  0.337096  1
  Sn  Sn9  1  0.500000  0.500001  0.500000  1
  Sn  Sn10  1  0.000038  0.000005  0.662904  1
  Sn  Sn11  1  0.500043  0.499993  0.832384  1
  Ru  Ru12  1  0.500044  0.244831  0.000001  1
  Ru  Ru13  1  0.499956  0.755170  0.999999  1
  Ru  Ru14  1  0.999956  0.247543  0.165915  1
  Ru  Ru15  1  0.999935  0.752470  0.165913  1
  Ru  Ru16  1  0.499954  0.251166  0.333574  1
  Ru  Ru17  1  0.499961  0.748841  0.333569  1
  Ru  Ru18  1  0.000003  0.252511  0.500001  1
  Ru  Ru19  1  0.999997  0.747490  0.499999  1
  Ru  Ru20  1  0.500040  0.251159  0.666431  1
  Ru  Ru21  1  0.500047  0.748834  0.666426  1
  Ru  Ru22  1  0.000065  0.247529  0.834087  1
  Ru  Ru23  1  0.000044  0.752456  0.834085  1
