# generated using pymatgen
data_TbSc4Bi3
_symmetry_space_group_name_H-M   'P 1'
_cell_length_a   7.91584700
_cell_length_b   9.06951100
_cell_length_c   11.59392500
_cell_angle_alpha   90.00000000
_cell_angle_beta   90.00000000
_cell_angle_gamma   90.00000000
_symmetry_Int_Tables_number   1
_chemical_formula_structural   TbSc4Bi3
_chemical_formula_sum   'Tb4 Sc16 Bi12'
_cell_volume   832.36105108
_cell_formula_units_Z   4
loop_
 _symmetry_equiv_pos_site_id
 _symmetry_equiv_pos_as_xyz
  1  'x, y, z'
loop_
 _atom_site_type_symbol
 _atom_site_label
 _atom_site_symmetry_multiplicity
 _atom_site_fract_x
 _atom_site_fract_y
 _atom_site_fract_z
 _atom_site_occupancy
  Tb  Tb0  1  0.315424  0.250000  0.219122  1
  Tb  Tb1  1  0.815424  0.250000  0.280878  1
  Tb  Tb2  1  0.684576  0.750000  0.780878  1
  Tb  Tb3  1  0.184576  0.750000  0.719122  1
  Sc  Sc4  1  0.348518  0.750000  0.220346  1
  Sc  Sc5  1  0.848518  0.750000  0.279654  1
  Sc  Sc6  1  0.651482  0.250000  0.779654  1
  Sc  Sc7  1  0.151482  0.250000  0.720346  1
  Sc  Sc8  1  0.693566  0.567289  0.062175  1
  Sc  Sc9  1  0.193566  0.932711  0.437825  1
  Sc  Sc10  1  0.306434  0.067289  0.937825  1
  Sc  Sc11  1  0.806434  0.432711  0.562175  1
  Sc  Sc12  1  0.306434  0.432711  0.937825  1
  Sc  Sc13  1  0.806434  0.067289  0.562175  1
  Sc  Sc14  1  0.693566  0.932711  0.062175  1
  Sc  Sc15  1  0.193566  0.567289  0.437825  1
  Sc  Sc16  1  0.481042  0.250000  0.488540  1
  Sc  Sc17  1  0.981042  0.250000  0.011460  1
  Sc  Sc18  1  0.518958  0.750000  0.511460  1
  Sc  Sc19  1  0.018958  0.750000  0.988540  1
  Bi  Bi20  1  0.402917  0.750000  0.967321  1
  Bi  Bi21  1  0.902917  0.750000  0.532679  1
  Bi  Bi22  1  0.597083  0.250000  0.032679  1
  Bi  Bi23  1  0.097083  0.250000  0.467321  1
  Bi  Bi24  1  0.563772  0.989252  0.328590  1
  Bi  Bi25  1  0.063772  0.510748  0.171410  1
  Bi  Bi26  1  0.436228  0.489252  0.671410  1
  Bi  Bi27  1  0.936228  0.010748  0.828590  1
  Bi  Bi28  1  0.436228  0.010748  0.671410  1
  Bi  Bi29  1  0.936228  0.489252  0.828590  1
  Bi  Bi30  1  0.563772  0.510748  0.328590  1
  Bi  Bi31  1  0.063772  0.989252  0.171410  1
