# generated using pymatgen
data_Tb6Hf7Ga9Ir7
_symmetry_space_group_name_H-M   'P 1'
_cell_length_a   9.26157788
_cell_length_b   9.26157724
_cell_length_c   9.26157700
_cell_angle_alpha   59.18665013
_cell_angle_beta   59.18665247
_cell_angle_gamma   59.18665212
_symmetry_Int_Tables_number   1
_chemical_formula_structural   Tb6Hf7Ga9Ir7
_chemical_formula_sum   'Tb6 Hf7 Ga9 Ir7'
_cell_volume   551.33530094
_cell_formula_units_Z   1
loop_
 _symmetry_equiv_pos_site_id
 _symmetry_equiv_pos_as_xyz
  1  'x, y, z'
loop_
 _atom_site_type_symbol
 _atom_site_label
 _atom_site_symmetry_multiplicity
 _atom_site_fract_x
 _atom_site_fract_y
 _atom_site_fract_z
 _atom_site_occupancy
  Tb  Tb0  1  0.691398  0.691398  0.310473  1
  Tb  Tb1  1  0.303727  0.704691  0.303727  1
  Tb  Tb2  1  0.704691  0.303727  0.303727  1
  Tb  Tb3  1  0.303727  0.303727  0.704691  1
  Tb  Tb4  1  0.691398  0.310473  0.691398  1
  Tb  Tb5  1  0.310473  0.691398  0.691398  1
  Hf  Hf6  1  0.878354  0.878354  0.370883  1
  Hf  Hf7  1  0.878354  0.370883  0.878354  1
  Hf  Hf8  1  0.370883  0.878354  0.878354  1
  Hf  Hf9  1  0.874361  0.874361  0.874361  1
  Hf  Hf10  1  0.124763  0.124763  0.626746  1
  Hf  Hf11  1  0.124763  0.626746  0.124763  1
  Hf  Hf12  1  0.626746  0.124763  0.124763  1
  Ga  Ga13  1  0.115177  0.115177  0.115177  1
  Ga  Ga14  1  0.659093  0.659093  0.023067  1
  Ga  Ga15  1  0.659093  0.023067  0.659093  1
  Ga  Ga16  1  0.023067  0.659093  0.659093  1
  Ga  Ga17  1  0.658094  0.658094  0.658094  1
  Ga  Ga18  1  0.332399  0.332399  0.994677  1
  Ga  Ga19  1  0.332399  0.994677  0.332399  1
  Ga  Ga20  1  0.994677  0.332399  0.332399  1
  Ga  Ga21  1  0.339534  0.339534  0.339534  1
  Ir  Ir22  1  0.995270  0.995270  0.995270  1
  Ir  Ir23  1  0.000430  0.000430  0.502392  1
  Ir  Ir24  1  0.501500  0.001305  0.501500  1
  Ir  Ir25  1  0.001305  0.501500  0.501500  1
  Ir  Ir26  1  0.501500  0.501500  0.001305  1
  Ir  Ir27  1  0.000430  0.502392  0.000430  1
  Ir  Ir28  1  0.502392  0.000430  0.000430  1
