# generated using pymatgen
data_HoLuZn4Ru
_symmetry_space_group_name_H-M   'P 1'
_cell_length_a   6.93695200
_cell_length_b   6.93695200
_cell_length_c   5.23503500
_cell_angle_alpha   90.00000000
_cell_angle_beta   90.00000000
_cell_angle_gamma   90.00000000
_symmetry_Int_Tables_number   1
_chemical_formula_structural   HoLuZn4Ru
_chemical_formula_sum   'Ho2 Lu2 Zn8 Ru2'
_cell_volume   251.91670571
_cell_formula_units_Z   2
loop_
 _symmetry_equiv_pos_site_id
 _symmetry_equiv_pos_as_xyz
  1  'x, y, z'
loop_
 _atom_site_type_symbol
 _atom_site_label
 _atom_site_symmetry_multiplicity
 _atom_site_fract_x
 _atom_site_fract_y
 _atom_site_fract_z
 _atom_site_occupancy
  Ho  Ho0  1  0.000000  0.500000  0.765255  1
  Ho  Ho1  1  0.500000  0.000000  0.234745  1
  Lu  Lu2  1  0.000000  0.000000  0.000000  1
  Lu  Lu3  1  0.500000  0.500000  0.000000  1
  Zn  Zn4  1  0.188593  0.688593  0.285688  1
  Zn  Zn5  1  0.811407  0.688593  0.285688  1
  Zn  Zn6  1  0.811407  0.311407  0.285688  1
  Zn  Zn7  1  0.311407  0.188593  0.714312  1
  Zn  Zn8  1  0.188593  0.311407  0.285688  1
  Zn  Zn9  1  0.688593  0.188593  0.714312  1
  Zn  Zn10  1  0.688593  0.811407  0.714312  1
  Zn  Zn11  1  0.311407  0.811407  0.714312  1
  Ru  Ru12  1  0.500000  0.500000  0.500000  1
  Ru  Ru13  1  0.000000  0.000000  0.500000  1
