# generated using pymatgen
data_Nd2Th2(Pd3Pt)3
_symmetry_space_group_name_H-M   'P 1'
_cell_length_a   5.95307050
_cell_length_b   5.94281129
_cell_length_c   9.75114031
_cell_angle_alpha   90.06609441
_cell_angle_beta   90.00451800
_cell_angle_gamma   119.88765699
_symmetry_Int_Tables_number   1
_chemical_formula_structural   Nd2Th2(Pd3Pt)3
_chemical_formula_sum   'Nd2 Th2 Pd9 Pt3'
_cell_volume   299.09497599
_cell_formula_units_Z   1
loop_
 _symmetry_equiv_pos_site_id
 _symmetry_equiv_pos_as_xyz
  1  'x, y, z'
loop_
 _atom_site_type_symbol
 _atom_site_label
 _atom_site_symmetry_multiplicity
 _atom_site_fract_x
 _atom_site_fract_y
 _atom_site_fract_z
 _atom_site_occupancy
  Nd  Nd0  1  0.000000  0.000000  0.500000  1
  Nd  Nd1  1  0.000000  0.000000  0.000000  1
  Th  Th2  1  0.333873  0.666568  0.250101  1
  Th  Th3  1  0.666127  0.333432  0.749899  1
  Pd  Pd4  1  0.000000  0.500000  0.500000  1
  Pd  Pd5  1  0.500000  0.000000  0.000000  1
  Pd  Pd6  1  0.000000  0.500000  0.000000  1
  Pd  Pd7  1  0.823910  0.647334  0.249498  1
  Pd  Pd8  1  0.353255  0.176497  0.249851  1
  Pd  Pd9  1  0.824049  0.176169  0.249907  1
  Pd  Pd10  1  0.176090  0.352666  0.750502  1
  Pd  Pd11  1  0.646745  0.823503  0.750149  1
  Pd  Pd12  1  0.175951  0.823831  0.750093  1
  Pt  Pt13  1  0.500000  0.500000  0.500000  1
  Pt  Pt14  1  0.500000  0.000000  0.500000  1
  Pt  Pt15  1  0.500000  0.500000  0.000000  1
