# generated using pymatgen
data_Ca2Ni2Br
_symmetry_space_group_name_H-M   'P 1'
_cell_length_a   3.99207600
_cell_length_b   3.99207667
_cell_length_c   16.33613300
_cell_angle_alpha   90.00000000
_cell_angle_beta   90.00000000
_cell_angle_gamma   119.99999447
_symmetry_Int_Tables_number   1
_chemical_formula_structural   Ca2Ni2Br
_chemical_formula_sum   'Ca4 Ni4 Br2'
_cell_volume   225.46419867
_cell_formula_units_Z   2
loop_
 _symmetry_equiv_pos_site_id
 _symmetry_equiv_pos_as_xyz
  1  'x, y, z'
loop_
 _atom_site_type_symbol
 _atom_site_label
 _atom_site_symmetry_multiplicity
 _atom_site_fract_x
 _atom_site_fract_y
 _atom_site_fract_z
 _atom_site_occupancy
  Ca  Ca0  1  0.000000  0.000000  0.613333  1
  Ca  Ca1  1  0.000000  0.000000  0.386667  1
  Ca  Ca2  1  0.000000  0.000000  0.113333  1
  Ca  Ca3  1  0.000000  0.000000  0.886667  1
  Ni  Ni4  1  0.666667  0.333333  0.501281  1
  Ni  Ni5  1  0.333333  0.666667  0.001281  1
  Ni  Ni6  1  0.666667  0.333333  0.998719  1
  Ni  Ni7  1  0.333333  0.666667  0.498719  1
  Br  Br8  1  0.666667  0.333333  0.250000  1
  Br  Br9  1  0.333333  0.666667  0.750000  1
