# generated using pymatgen
data_Ac3La(NCl3)2
_symmetry_space_group_name_H-M   'P 1'
_cell_length_a   8.56349127
_cell_length_b   8.59691245
_cell_length_c   8.59691300
_cell_angle_alpha   136.75876990
_cell_angle_beta   130.92157332
_cell_angle_gamma   67.51499961
_symmetry_Int_Tables_number   1
_chemical_formula_structural   Ac3La(NCl3)2
_chemical_formula_sum   'Ac3 La1 N2 Cl6'
_cell_volume   322.08549286
_cell_formula_units_Z   1
loop_
 _symmetry_equiv_pos_site_id
 _symmetry_equiv_pos_as_xyz
  1  'x, y, z'
loop_
 _atom_site_type_symbol
 _atom_site_label
 _atom_site_symmetry_multiplicity
 _atom_site_fract_x
 _atom_site_fract_y
 _atom_site_fract_z
 _atom_site_occupancy
  Ac  Ac0  1  0.080029  0.902907  0.177123  1
  Ac  Ac1  1  0.915309  0.094990  0.820319  1
  Ac  Ac2  1  0.281866  0.595983  0.685882  1
  La  La3  1  0.743974  0.412264  0.331709  1
  N  N4  1  0.999933  0.746328  0.746493  1
  N  N5  1  0.999933  0.253440  0.253604  1
  Cl  Cl6  1  0.381537  0.204165  0.177373  1
  Cl  Cl7  1  0.617329  0.802015  0.815313  1
  Cl  Cl8  1  0.499017  0.246665  0.754921  1
  Cl  Cl9  1  0.499017  0.744096  0.252352  1
  Cl  Cl10  1  0.011311  0.696147  0.315164  1
  Cl  Cl11  1  0.970745  0.300999  0.669745  1
