# generated using pymatgen
data_TmNp3O8
_symmetry_space_group_name_H-M   'P 1'
_cell_length_a   5.34703208
_cell_length_b   5.34773900
_cell_length_c   5.34845007
_cell_angle_alpha   90.00000000
_cell_angle_beta   90.01915667
_cell_angle_gamma   90.00000000
_symmetry_Int_Tables_number   1
_chemical_formula_structural   TmNp3O8
_chemical_formula_sum   'Tm1 Np3 O8'
_cell_volume   152.93641805
_cell_formula_units_Z   1
loop_
 _symmetry_equiv_pos_site_id
 _symmetry_equiv_pos_as_xyz
  1  'x, y, z'
loop_
 _atom_site_type_symbol
 _atom_site_label
 _atom_site_symmetry_multiplicity
 _atom_site_fract_x
 _atom_site_fract_y
 _atom_site_fract_z
 _atom_site_occupancy
  Tm  Tm0  1  0.000000  0.250004  0.250000  1
  Np  Np1  1  0.499999  0.749988  0.250000  1
  Np  Np2  1  0.499999  0.250003  0.750001  1
  Np  Np3  1  0.000000  0.749986  0.750001  1
  O  O4  1  0.252286  0.997937  0.998763  1
  O  O5  1  0.252315  0.502224  0.998752  1
  O  O6  1  0.747714  0.997937  0.501236  1
  O  O7  1  0.747685  0.502224  0.501247  1
  O  O8  1  0.251948  0.502031  0.502967  1
  O  O9  1  0.251941  0.997813  0.502976  1
  O  O10  1  0.748052  0.502031  0.997033  1
  O  O11  1  0.748059  0.997813  0.997024  1
