# generated using pymatgen
data_Yb6DyTm3Ru4
_symmetry_space_group_name_H-M   'P 1'
_cell_length_a   8.43730934
_cell_length_b   8.43730933
_cell_length_c   7.40915571
_cell_angle_alpha   83.16522462
_cell_angle_beta   83.16521687
_cell_angle_gamma   43.76179223
_symmetry_Int_Tables_number   1
_chemical_formula_structural   Yb6DyTm3Ru4
_chemical_formula_sum   'Yb6 Dy1 Tm3 Ru4'
_cell_volume   361.80062295
_cell_formula_units_Z   1
loop_
 _symmetry_equiv_pos_site_id
 _symmetry_equiv_pos_as_xyz
  1  'x, y, z'
loop_
 _atom_site_type_symbol
 _atom_site_label
 _atom_site_symmetry_multiplicity
 _atom_site_fract_x
 _atom_site_fract_y
 _atom_site_fract_z
 _atom_site_occupancy
  Yb  Yb0  1  0.201710  0.974240  0.584406  1
  Yb  Yb1  1  0.025760  0.798290  0.915594  1
  Yb  Yb2  1  0.202619  0.364162  0.316089  1
  Yb  Yb3  1  0.635838  0.797381  0.183911  1
  Yb  Yb4  1  0.805348  0.627138  0.678324  1
  Yb  Yb5  1  0.372862  0.194652  0.821676  1
  Dy  Dy6  1  0.414620  0.585380  0.250000  1
  Tm  Tm7  1  0.965111  0.200080  0.080535  1
  Tm  Tm8  1  0.799920  0.034889  0.419465  1
  Tm  Tm9  1  0.565164  0.434836  0.750000  1
  Ru  Ru10  1  0.177913  0.603233  0.574783  1
  Ru  Ru11  1  0.396767  0.822087  0.925217  1
  Ru  Ru12  1  0.816021  0.379655  0.418214  1
  Ru  Ru13  1  0.620345  0.183979  0.081786  1
