# generated using pymatgen
data_Na10Yb2TaNbAs8
_symmetry_space_group_name_H-M   'P 1'
_cell_length_a   9.52224596
_cell_length_b   9.52262484
_cell_length_c   7.37633017
_cell_angle_alpha   90.81238764
_cell_angle_beta   90.82976271
_cell_angle_gamma   120.36417605
_symmetry_Int_Tables_number   1
_chemical_formula_structural   Na10Yb2TaNbAs8
_chemical_formula_sum   'Na10 Yb2 Ta1 Nb1 As8'
_cell_volume   576.87427946
_cell_formula_units_Z   1
loop_
 _symmetry_equiv_pos_site_id
 _symmetry_equiv_pos_as_xyz
  1  'x, y, z'
loop_
 _atom_site_type_symbol
 _atom_site_label
 _atom_site_symmetry_multiplicity
 _atom_site_fract_x
 _atom_site_fract_y
 _atom_site_fract_z
 _atom_site_occupancy
  Na  Na0  1  0.537334  0.471383  0.614832  1
  Na  Na1  1  0.938332  0.470638  0.616022  1
  Na  Na2  1  0.471255  0.537267  0.114501  1
  Na  Na3  1  0.470835  0.938575  0.115688  1
  Na  Na4  1  0.137593  0.853573  0.780890  1
  Na  Na5  1  0.709157  0.848585  0.803548  1
  Na  Na6  1  0.147589  0.291109  0.770412  1
  Na  Na7  1  0.853582  0.137381  0.281281  1
  Na  Na8  1  0.291193  0.147661  0.270906  1
  Na  Na9  1  0.848489  0.709147  0.304048  1
  Yb  Yb10  1  0.532231  0.058578  0.609392  1
  Yb  Yb11  1  0.058245  0.531788  0.109200  1
  Ta  Ta12  1  0.331616  0.664841  0.500882  1
  Nb  Nb13  1  0.664914  0.332023  0.001173  1
  As  As14  1  0.323733  0.666659  0.838789  1
  As  As15  1  0.666934  0.323942  0.339712  1
  As  As16  1  0.813534  0.193899  0.889356  1
  As  As17  1  0.381732  0.186583  0.877305  1
  As  As18  1  0.819075  0.622824  0.912243  1
  As  As19  1  0.194060  0.813287  0.389006  1
  As  As20  1  0.621902  0.818388  0.411957  1
  As  As21  1  0.186660  0.381866  0.376856  1
