# generated using pymatgen
data_CePu(B3Mo)2
_symmetry_space_group_name_H-M   'P 1'
_cell_length_a   3.12175900
_cell_length_b   5.53966661
_cell_length_c   6.87781144
_cell_angle_alpha   76.21867118
_cell_angle_beta   90.00000000
_cell_angle_gamma   90.00000000
_symmetry_Int_Tables_number   1
_chemical_formula_structural   CePu(B3Mo)2
_chemical_formula_sum   'Ce1 Pu1 B6 Mo2'
_cell_volume   115.51736882
_cell_formula_units_Z   1
loop_
 _symmetry_equiv_pos_site_id
 _symmetry_equiv_pos_as_xyz
  1  'x, y, z'
loop_
 _atom_site_type_symbol
 _atom_site_label
 _atom_site_symmetry_multiplicity
 _atom_site_fract_x
 _atom_site_fract_y
 _atom_site_fract_z
 _atom_site_occupancy
  Ce  Ce0  1  0.250000  0.343120  0.689459  1
  Pu  Pu1  1  0.750000  0.662588  0.304141  1
  B  B2  1  0.250000  0.919579  0.527466  1
  B  B3  1  0.750000  0.071332  0.470173  1
  B  B4  1  0.250000  0.911994  0.009894  1
  B  B5  1  0.750000  0.087765  0.993900  1
  B  B6  1  0.250000  0.583038  0.010395  1
  B  B7  1  0.750000  0.419013  0.994104  1
  Mo  Mo8  1  0.250000  0.187172  0.214727  1
  Mo  Mo9  1  0.750000  0.814399  0.785740  1
