# generated using pymatgen
data_Ce2Ho5Er(SiPd)8
_symmetry_space_group_name_H-M   'P 1'
_cell_length_a   4.32419400
_cell_length_b   7.50561701
_cell_length_c   14.03487601
_cell_angle_alpha   89.99625071
_cell_angle_beta   89.99999183
_cell_angle_gamma   89.99968069
_symmetry_Int_Tables_number   1
_chemical_formula_structural   Ce2Ho5Er(SiPd)8
_chemical_formula_sum   'Ce2 Ho5 Er1 Si8 Pd8'
_cell_volume   455.51234202
_cell_formula_units_Z   1
loop_
 _symmetry_equiv_pos_site_id
 _symmetry_equiv_pos_as_xyz
  1  'x, y, z'
loop_
 _atom_site_type_symbol
 _atom_site_label
 _atom_site_symmetry_multiplicity
 _atom_site_fract_x
 _atom_site_fract_y
 _atom_site_fract_z
 _atom_site_occupancy
  Ce  Ce0  1  0.999990  0.302366  0.999852  1
  Ce  Ce1  1  0.500012  0.697737  0.500142  1
  Ho  Ho2  1  0.999984  0.291801  0.500071  1
  Ho  Ho3  1  0.500012  0.708228  0.999893  1
  Ho  Ho4  1  0.000004  0.209910  0.249303  1
  Ho  Ho5  1  0.499987  0.790077  0.250657  1
  Ho  Ho6  1  0.999999  0.209590  0.750669  1
  Er  Er7  1  0.500018  0.789784  0.749462  1
  Si  Si8  1  0.000004  0.912083  0.593633  1
  Si  Si9  1  0.499994  0.087730  0.906458  1
  Si  Si10  1  0.000006  0.912249  0.406800  1
  Si  Si11  1  0.499997  0.087830  0.093169  1
  Si  Si12  1  0.999994  0.592299  0.145325  1
  Si  Si13  1  0.499999  0.407605  0.354603  1
  Si  Si14  1  0.999999  0.592683  0.854458  1
  Si  Si15  1  0.500002  0.407616  0.645387  1
  Pd  Pd16  1  0.499995  0.076406  0.610385  1
  Pd  Pd17  1  0.000005  0.922880  0.889619  1
  Pd  Pd18  1  0.499998  0.076912  0.390099  1
  Pd  Pd19  1  0.000004  0.923143  0.109879  1
  Pd  Pd20  1  0.499994  0.420079  0.157613  1
  Pd  Pd21  1  0.000005  0.579925  0.342306  1
  Pd  Pd22  1  0.499990  0.420573  0.842124  1
  Pd  Pd23  1  0.000008  0.580492  0.658092  1
