# generated using pymatgen
data_BaDyAlZn3O7
_symmetry_space_group_name_H-M   'P 1'
_cell_length_a   6.38329000
_cell_length_b   6.38327902
_cell_length_c   10.32938300
_cell_angle_alpha   90.00006549
_cell_angle_beta   89.99995169
_cell_angle_gamma   120.00013085
_symmetry_Int_Tables_number   1
_chemical_formula_structural   BaDyAlZn3O7
_chemical_formula_sum   'Ba2 Dy2 Al2 Zn6 O14'
_cell_volume   364.49606437
_cell_formula_units_Z   2
loop_
 _symmetry_equiv_pos_site_id
 _symmetry_equiv_pos_as_xyz
  1  'x, y, z'
loop_
 _atom_site_type_symbol
 _atom_site_label
 _atom_site_symmetry_multiplicity
 _atom_site_fract_x
 _atom_site_fract_y
 _atom_site_fract_z
 _atom_site_occupancy
  Ba  Ba0  1  0.666675  0.333351  0.476141  1
  Ba  Ba1  1  0.333328  0.666651  0.976143  1
  Dy  Dy2  1  0.333333  0.666663  0.327866  1
  Dy  Dy3  1  0.666667  0.333337  0.827868  1
  Al  Al4  1  0.999999  0.999997  0.392076  1
  Al  Al5  1  0.000001  0.000002  0.892076  1
  Zn  Zn6  1  0.830569  0.169200  0.141222  1
  Zn  Zn7  1  0.338631  0.169423  0.141222  1
  Zn  Zn8  1  0.830796  0.661365  0.141223  1
  Zn  Zn9  1  0.169433  0.830801  0.641222  1
  Zn  Zn10  1  0.661370  0.830578  0.641223  1
  Zn  Zn11  1  0.169204  0.338633  0.641224  1
  O  O12  1  0.491761  0.983763  0.191542  1
  O  O13  1  0.492008  0.508230  0.191549  1
  O  O14  1  0.016223  0.507987  0.191548  1
  O  O15  1  0.999999  0.999998  0.217852  1
  O  O16  1  0.693099  0.845933  0.446251  1
  O  O17  1  0.154053  0.847150  0.446250  1
  O  O18  1  0.152841  0.306896  0.446253  1
  O  O19  1  0.508241  0.016237  0.691541  1
  O  O20  1  0.983776  0.492012  0.691548  1
  O  O21  1  0.507992  0.491771  0.691549  1
  O  O22  1  0.000001  0.000001  0.717853  1
  O  O23  1  0.845948  0.152849  0.946251  1
  O  O24  1  0.306901  0.154067  0.946251  1
  O  O25  1  0.847161  0.693103  0.946252  1
