# generated using pymatgen
data_ThZnSi2Ir
_symmetry_space_group_name_H-M   'P 1'
_cell_length_a   4.23322700
_cell_length_b   4.23322700
_cell_length_c   10.12398600
_cell_angle_alpha   90.00000000
_cell_angle_beta   90.00000000
_cell_angle_gamma   90.00000000
_symmetry_Int_Tables_number   1
_chemical_formula_structural   ThZnSi2Ir
_chemical_formula_sum   'Th2 Zn2 Si4 Ir2'
_cell_volume   181.42396360
_cell_formula_units_Z   2
loop_
 _symmetry_equiv_pos_site_id
 _symmetry_equiv_pos_as_xyz
  1  'x, y, z'
loop_
 _atom_site_type_symbol
 _atom_site_label
 _atom_site_symmetry_multiplicity
 _atom_site_fract_x
 _atom_site_fract_y
 _atom_site_fract_z
 _atom_site_occupancy
  Th  Th0  1  0.000000  0.500000  0.261269  1
  Th  Th1  1  0.500000  0.000000  0.738731  1
  Zn  Zn2  1  0.000000  0.000000  0.000000  1
  Zn  Zn3  1  0.500000  0.500000  0.000000  1
  Si  Si4  1  0.000000  0.000000  0.500000  1
  Si  Si5  1  0.500000  0.500000  0.500000  1
  Si  Si6  1  0.000000  0.500000  0.855659  1
  Si  Si7  1  0.500000  0.000000  0.144341  1
  Ir  Ir8  1  0.000000  0.500000  0.621085  1
  Ir  Ir9  1  0.500000  0.000000  0.378915  1
