# generated using pymatgen
data_Hf18ZnRe8Ni
_symmetry_space_group_name_H-M   'P 1'
_cell_length_a   8.58995900
_cell_length_b   8.58996037
_cell_length_c   8.53312400
_cell_angle_alpha   90.00000000
_cell_angle_beta   90.00000000
_cell_angle_gamma   119.99999859
_symmetry_Int_Tables_number   1
_chemical_formula_structural   Hf18ZnRe8Ni
_chemical_formula_sum   'Hf18 Zn1 Re8 Ni1'
_cell_volume   545.28172856
_cell_formula_units_Z   1
loop_
 _symmetry_equiv_pos_site_id
 _symmetry_equiv_pos_as_xyz
  1  'x, y, z'
loop_
 _atom_site_type_symbol
 _atom_site_label
 _atom_site_symmetry_multiplicity
 _atom_site_fract_x
 _atom_site_fract_y
 _atom_site_fract_z
 _atom_site_occupancy
  Hf  Hf0  1  0.193240  0.806760  0.450757  1
  Hf  Hf1  1  0.193240  0.386478  0.450757  1
  Hf  Hf2  1  0.613522  0.806760  0.450757  1
  Hf  Hf3  1  0.801711  0.198289  0.555959  1
  Hf  Hf4  1  0.801711  0.603424  0.555959  1
  Hf  Hf5  1  0.396576  0.198289  0.555959  1
  Hf  Hf6  1  0.801711  0.198289  0.944041  1
  Hf  Hf7  1  0.801711  0.603424  0.944041  1
  Hf  Hf8  1  0.396576  0.198289  0.944041  1
  Hf  Hf9  1  0.193240  0.806760  0.049243  1
  Hf  Hf10  1  0.193240  0.386478  0.049243  1
  Hf  Hf11  1  0.613522  0.806760  0.049243  1
  Hf  Hf12  1  0.540872  0.459128  0.250000  1
  Hf  Hf13  1  0.540872  0.081745  0.250000  1
  Hf  Hf14  1  0.918255  0.459128  0.250000  1
  Hf  Hf15  1  0.459269  0.540731  0.750000  1
  Hf  Hf16  1  0.459269  0.918538  0.750000  1
  Hf  Hf17  1  0.081462  0.540731  0.750000  1
  Zn  Zn18  1  0.333333  0.666667  0.250000  1
  Re  Re19  1  0.889205  0.110795  0.250000  1
  Re  Re20  1  0.889205  0.778410  0.250000  1
  Re  Re21  1  0.221590  0.110795  0.250000  1
  Re  Re22  1  0.110630  0.889370  0.750000  1
  Re  Re23  1  0.110630  0.221261  0.750000  1
  Re  Re24  1  0.778739  0.889370  0.750000  1
  Re  Re25  1  0.000000  0.000000  0.500764  1
  Re  Re26  1  0.000000  0.000000  0.999236  1
  Ni  Ni27  1  0.666667  0.333333  0.750000  1
