# generated using pymatgen
data_Yb6Ti(CoO4)3
_symmetry_space_group_name_H-M   'P 1'
_cell_length_a   6.22530489
_cell_length_b   6.22530473
_cell_length_c   6.22530593
_cell_angle_alpha   92.01280183
_cell_angle_beta   92.01279623
_cell_angle_gamma   92.01281414
_symmetry_Int_Tables_number   1
_chemical_formula_structural   Yb6Ti(CoO4)3
_chemical_formula_sum   'Yb6 Ti1 Co3 O12'
_cell_volume   240.80080502
_cell_formula_units_Z   1
loop_
 _symmetry_equiv_pos_site_id
 _symmetry_equiv_pos_as_xyz
  1  'x, y, z'
loop_
 _atom_site_type_symbol
 _atom_site_label
 _atom_site_symmetry_multiplicity
 _atom_site_fract_x
 _atom_site_fract_y
 _atom_site_fract_z
 _atom_site_occupancy
  Yb  Yb0  1  0.873689  0.626311  0.250000  1
  Yb  Yb1  1  0.626311  0.250000  0.873689  1
  Yb  Yb2  1  0.250000  0.873689  0.626311  1
  Yb  Yb3  1  0.114520  0.385480  0.750000  1
  Yb  Yb4  1  0.750000  0.114520  0.385480  1
  Yb  Yb5  1  0.385480  0.750000  0.114520  1
  Ti  Ti6  1  0.250000  0.250000  0.250000  1
  Co  Co7  1  0.002519  0.002519  0.002519  1
  Co  Co8  1  0.497481  0.497481  0.497481  1
  Co  Co9  1  0.750000  0.750000  0.750000  1
  O  O10  1  0.575639  0.790758  0.450840  1
  O  O11  1  0.450840  0.575639  0.790758  1
  O  O12  1  0.790758  0.450840  0.575639  1
  O  O13  1  0.924361  0.049160  0.709242  1
  O  O14  1  0.709242  0.924361  0.049160  1
  O  O15  1  0.049160  0.709242  0.924361  1
  O  O16  1  0.399963  0.201650  0.533088  1
  O  O17  1  0.533088  0.399963  0.201650  1
  O  O18  1  0.201650  0.533088  0.399963  1
  O  O19  1  0.100037  0.966912  0.298350  1
  O  O20  1  0.966912  0.298350  0.100037  1
  O  O21  1  0.298350  0.100037  0.966912  1
