# generated using pymatgen
data_Tb4Al18Ni5Os
_symmetry_space_group_name_H-M   'P 1'
_cell_length_a   7.46804058
_cell_length_b   7.46804139
_cell_length_c   9.34362502
_cell_angle_alpha   90.13050024
_cell_angle_beta   90.13050285
_cell_angle_gamma   119.65746936
_symmetry_Int_Tables_number   1
_chemical_formula_structural   Tb4Al18Ni5Os
_chemical_formula_sum   'Tb4 Al18 Ni5 Os1'
_cell_volume   452.83879913
_cell_formula_units_Z   1
loop_
 _symmetry_equiv_pos_site_id
 _symmetry_equiv_pos_as_xyz
  1  'x, y, z'
loop_
 _atom_site_type_symbol
 _atom_site_label
 _atom_site_symmetry_multiplicity
 _atom_site_fract_x
 _atom_site_fract_y
 _atom_site_fract_z
 _atom_site_occupancy
  Tb  Tb0  1  0.992626  0.667985  0.249739  1
  Tb  Tb1  1  0.005484  0.330359  0.750345  1
  Tb  Tb2  1  0.669641  0.994516  0.249655  1
  Tb  Tb3  1  0.332015  0.007374  0.750261  1
  Al  Al4  1  0.123405  0.124133  0.250441  1
  Al  Al5  1  0.875867  0.876595  0.749559  1
  Al  Al6  1  0.002704  0.333821  0.072080  1
  Al  Al7  1  0.003570  0.666622  0.928488  1
  Al  Al8  1  0.002364  0.667288  0.572302  1
  Al  Al9  1  0.332712  0.997636  0.427698  1
  Al  Al10  1  0.999218  0.334663  0.428183  1
  Al  Al11  1  0.665337  0.000782  0.571817  1
  Al  Al12  1  0.666179  0.997296  0.927920  1
  Al  Al13  1  0.333378  0.996430  0.071512  1
  Al  Al14  1  0.331756  0.333004  0.550641  1
  Al  Al15  1  0.666996  0.668244  0.449359  1
  Al  Al16  1  0.668010  0.667712  0.048038  1
  Al  Al17  1  0.332288  0.331990  0.951962  1
  Al  Al18  1  0.337704  0.552370  0.250421  1
  Al  Al19  1  0.661164  0.453034  0.747994  1
  Al  Al20  1  0.546966  0.338836  0.252006  1
  Al  Al21  1  0.447630  0.662296  0.749579  1
  Ni  Ni22  1  0.329915  0.670085  0.000000  1
  Ni  Ni23  1  0.328799  0.671201  0.500000  1
  Ni  Ni24  1  0.670968  0.329032  0.500000  1
  Ni  Ni25  1  0.001328  0.998672  0.000000  1
  Ni  Ni26  1  0.999683  0.000317  0.500000  1
  Os  Os27  1  0.672290  0.327710  0.000000  1
