# generated using pymatgen
data_Dy4Ho4In3Fe
_symmetry_space_group_name_H-M   'P 1'
_cell_length_a   10.34211659
_cell_length_b   10.34211718
_cell_length_c   7.00529558
_cell_angle_alpha   90.04290363
_cell_angle_beta   89.95709599
_cell_angle_gamma   120.04439016
_symmetry_Int_Tables_number   1
_chemical_formula_structural   Dy4Ho4In3Fe
_chemical_formula_sum   'Dy8 Ho8 In6 Fe2'
_cell_volume   648.60662699
_cell_formula_units_Z   2
loop_
 _symmetry_equiv_pos_site_id
 _symmetry_equiv_pos_as_xyz
  1  'x, y, z'
loop_
 _atom_site_type_symbol
 _atom_site_label
 _atom_site_symmetry_multiplicity
 _atom_site_fract_x
 _atom_site_fract_y
 _atom_site_fract_z
 _atom_site_occupancy
  Dy  Dy0  1  0.535268  0.070481  0.505611  1
  Dy  Dy1  1  0.929519  0.464732  0.505611  1
  Dy  Dy2  1  0.535275  0.464725  0.505684  1
  Dy  Dy3  1  0.464456  0.929658  0.005896  1
  Dy  Dy4  1  0.070342  0.535544  0.005896  1
  Dy  Dy5  1  0.465176  0.534824  0.006373  1
  Dy  Dy6  1  0.178896  0.357656  0.712017  1
  Dy  Dy7  1  0.642344  0.821104  0.712017  1
  Ho  Ho8  1  0.178793  0.821207  0.711339  1
  Ho  Ho9  1  0.821219  0.642460  0.211897  1
  Ho  Ho10  1  0.357540  0.178781  0.211897  1
  Ho  Ho11  1  0.821317  0.178683  0.211561  1
  Ho  Ho12  1  0.666668  0.333332  0.893859  1
  Ho  Ho13  1  0.333243  0.666757  0.392963  1
  Ho  Ho14  1  0.000020  0.999980  0.493324  1
  Ho  Ho15  1  0.000159  0.999841  0.993468  1
  In  In16  1  0.837626  0.674644  0.752569  1
  In  In17  1  0.325356  0.162374  0.752569  1
  In  In18  1  0.837155  0.162845  0.752611  1
  In  In19  1  0.162390  0.324959  0.251909  1
  In  In20  1  0.675041  0.837610  0.251909  1
  In  In21  1  0.162467  0.837533  0.252625  1
  Fe  Fe22  1  0.666480  0.333520  0.281992  1
  Fe  Fe23  1  0.333249  0.666751  0.782444  1
