# generated using pymatgen
data_Ce4Sm3Er(AlRu)8
_symmetry_space_group_name_H-M   'P 1'
_cell_length_a   4.00608000
_cell_length_b   7.27166590
_cell_length_c   16.07416419
_cell_angle_alpha   91.21887036
_cell_angle_beta   90.00000000
_cell_angle_gamma   90.00000000
_symmetry_Int_Tables_number   1
_chemical_formula_structural   Ce4Sm3Er(AlRu)8
_chemical_formula_sum   'Ce4 Sm3 Er1 Al8 Ru8'
_cell_volume   468.14852152
_cell_formula_units_Z   1
loop_
 _symmetry_equiv_pos_site_id
 _symmetry_equiv_pos_as_xyz
  1  'x, y, z'
loop_
 _atom_site_type_symbol
 _atom_site_label
 _atom_site_symmetry_multiplicity
 _atom_site_fract_x
 _atom_site_fract_y
 _atom_site_fract_z
 _atom_site_occupancy
  Ce  Ce0  1  0.750000  0.829000  0.435975  1
  Ce  Ce1  1  0.750000  0.455570  0.282206  1
  Ce  Ce2  1  0.750000  0.325865  0.063623  1
  Ce  Ce3  1  0.250000  0.539484  0.720869  1
  Sm  Sm4  1  0.250000  0.168594  0.561218  1
  Sm  Sm5  1  0.250000  0.661356  0.940333  1
  Sm  Sm6  1  0.250000  0.039433  0.781139  1
  Er  Er7  1  0.750000  0.960151  0.218541  1
  Al  Al8  1  0.750000  0.503345  0.560877  1
  Al  Al9  1  0.750000  0.359988  0.854987  1
  Al  Al10  1  0.750000  0.988920  0.937381  1
  Al  Al11  1  0.750000  0.866215  0.648945  1
  Al  Al12  1  0.250000  0.494296  0.436420  1
  Al  Al13  1  0.250000  0.990451  0.067555  1
  Al  Al14  1  0.250000  0.638982  0.156082  1
  Al  Al15  1  0.250000  0.126261  0.342639  1
  Ru  Ru16  1  0.750000  0.727118  0.805429  1
  Ru  Ru17  1  0.250000  0.229377  0.943663  1
  Ru  Ru18  1  0.750000  0.273431  0.421509  1
  Ru  Ru19  1  0.250000  0.757697  0.324059  1
  Ru  Ru20  1  0.750000  0.764723  0.069931  1
  Ru  Ru21  1  0.750000  0.283100  0.689316  1
  Ru  Ru22  1  0.250000  0.270597  0.178612  1
  Ru  Ru23  1  0.250000  0.746045  0.558696  1
