# generated using pymatgen
data_Dy6Ho10Cd4RuPt3
_symmetry_space_group_name_H-M   'P 1'
_cell_length_a   9.67109085
_cell_length_b   9.67109003
_cell_length_c   9.67109001
_cell_angle_alpha   59.68267957
_cell_angle_beta   59.68268586
_cell_angle_gamma   59.68268057
_symmetry_Int_Tables_number   1
_chemical_formula_structural   Dy6Ho10Cd4RuPt3
_chemical_formula_sum   'Dy6 Ho10 Cd4 Ru1 Pt3'
_cell_volume   634.99355574
_cell_formula_units_Z   1
loop_
 _symmetry_equiv_pos_site_id
 _symmetry_equiv_pos_as_xyz
  1  'x, y, z'
loop_
 _atom_site_type_symbol
 _atom_site_label
 _atom_site_symmetry_multiplicity
 _atom_site_fract_x
 _atom_site_fract_y
 _atom_site_fract_z
 _atom_site_occupancy
  Dy  Dy0  1  0.935665  0.565450  0.565450  1
  Dy  Dy1  1  0.560475  0.936745  0.936745  1
  Dy  Dy2  1  0.565450  0.935665  0.565450  1
  Dy  Dy3  1  0.936745  0.560474  0.936745  1
  Dy  Dy4  1  0.565450  0.565450  0.935665  1
  Dy  Dy5  1  0.936745  0.936745  0.560474  1
  Ho  Ho6  1  0.351504  0.351504  0.351504  1
  Ho  Ho7  1  0.349692  0.349692  0.948255  1
  Ho  Ho8  1  0.349692  0.948255  0.349692  1
  Ho  Ho9  1  0.948255  0.349692  0.349692  1
  Ho  Ho10  1  0.815089  0.188649  0.188649  1
  Ho  Ho11  1  0.188802  0.810096  0.810096  1
  Ho  Ho12  1  0.188649  0.815089  0.188649  1
  Ho  Ho13  1  0.810096  0.188802  0.810096  1
  Ho  Ho14  1  0.188649  0.188649  0.815089  1
  Ho  Ho15  1  0.810096  0.810096  0.188802  1
  Cd  Cd16  1  0.580472  0.580472  0.580472  1
  Cd  Cd17  1  0.581045  0.581045  0.254431  1
  Cd  Cd18  1  0.581045  0.254431  0.581045  1
  Cd  Cd19  1  0.254431  0.581045  0.581045  1
  Ru  Ru20  1  0.143074  0.143074  0.143074  1
  Pt  Pt21  1  0.143380  0.143380  0.572115  1
  Pt  Pt22  1  0.143380  0.572115  0.143380  1
  Pt  Pt23  1  0.572115  0.143380  0.143380  1
