# generated using pymatgen
data_Pr8Ti(IrO8)3
_symmetry_space_group_name_H-M   'P 1'
_cell_length_a   5.48303282
_cell_length_b   9.46968239
_cell_length_c   10.26945922
_cell_angle_alpha   89.59639525
_cell_angle_beta   89.97512867
_cell_angle_gamma   90.11498737
_symmetry_Int_Tables_number   1
_chemical_formula_structural   Pr8Ti(IrO8)3
_chemical_formula_sum   'Pr8 Ti1 Ir3 O24'
_cell_volume   533.20245429
_cell_formula_units_Z   1
loop_
 _symmetry_equiv_pos_site_id
 _symmetry_equiv_pos_as_xyz
  1  'x, y, z'
loop_
 _atom_site_type_symbol
 _atom_site_label
 _atom_site_symmetry_multiplicity
 _atom_site_fract_x
 _atom_site_fract_y
 _atom_site_fract_z
 _atom_site_occupancy
  Pr  Pr0  1  0.038352  0.218124  0.129865  1
  Pr  Pr1  1  0.465345  0.766352  0.634878  1
  Pr  Pr2  1  0.968377  0.714423  0.376363  1
  Pr  Pr3  1  0.529457  0.292035  0.853664  1
  Pr  Pr4  1  0.028641  0.114445  0.540283  1
  Pr  Pr5  1  0.474294  0.899302  0.037663  1
  Pr  Pr6  1  0.977564  0.601329  0.952432  1
  Pr  Pr7  1  0.523175  0.405908  0.469387  1
  Ti  Ti8  1  0.037782  0.493068  0.646259  1
  Ir  Ir9  1  0.547787  0.001396  0.358197  1
  Ir  Ir10  1  0.955469  0.996397  0.858474  1
  Ir  Ir11  1  0.457816  0.503340  0.143309  1
  O  O12  1  0.441431  0.149632  0.472609  1
  O  O13  1  0.061047  0.852409  0.983317  1
  O  O14  1  0.560874  0.649141  0.021655  1
  O  O15  1  0.922450  0.347542  0.519051  1
  O  O16  1  0.722504  0.390908  0.070396  1
  O  O17  1  0.769790  0.611794  0.558977  1
  O  O18  1  0.283086  0.890355  0.434120  1
  O  O19  1  0.223355  0.110494  0.934820  1
  O  O20  1  0.251252  0.410575  0.007775  1
  O  O21  1  0.249623  0.594338  0.506653  1
  O  O22  1  0.755998  0.915417  0.493821  1
  O  O23  1  0.749982  0.089115  0.993640  1
  O  O24  1  0.190983  0.628053  0.179799  1
  O  O25  1  0.307370  0.355139  0.670970  1
  O  O26  1  0.816660  0.125216  0.315940  1
  O  O27  1  0.687916  0.867385  0.825022  1
  O  O28  1  0.341458  0.057865  0.215718  1
  O  O29  1  0.160341  0.943652  0.719632  1
  O  O30  1  0.661137  0.562001  0.280349  1
  O  O31  1  0.825693  0.452604  0.788280  1
  O  O32  1  0.328854  0.361360  0.256929  1
  O  O33  1  0.192439  0.632779  0.761544  1
  O  O34  1  0.670367  0.858572  0.244020  1
  O  O35  1  0.821336  0.137532  0.744194  1
