# generated using pymatgen
data_Ho2Tm3IrRu
_symmetry_space_group_name_H-M   'P 1'
_cell_length_a   6.35428408
_cell_length_b   7.22787962
_cell_length_c   8.36894970
_cell_angle_alpha   96.96875135
_cell_angle_beta   112.31105344
_cell_angle_gamma   90.00000112
_symmetry_Int_Tables_number   1
_chemical_formula_structural   Ho2Tm3IrRu
_chemical_formula_sum   'Ho4 Tm6 Ir2 Ru2'
_cell_volume   352.52266147
_cell_formula_units_Z   2
loop_
 _symmetry_equiv_pos_site_id
 _symmetry_equiv_pos_as_xyz
  1  'x, y, z'
loop_
 _atom_site_type_symbol
 _atom_site_label
 _atom_site_symmetry_multiplicity
 _atom_site_fract_x
 _atom_site_fract_y
 _atom_site_fract_z
 _atom_site_occupancy
  Ho  Ho0  1  0.791186  0.081781  0.814104  1
  Ho  Ho1  1  0.977081  0.418219  0.185896  1
  Ho  Ho2  1  0.210713  0.915811  0.184466  1
  Ho  Ho3  1  0.026248  0.584189  0.815534  1
  Tm  Tm4  1  0.207983  0.182194  0.563603  1
  Tm  Tm5  1  0.644380  0.317806  0.436397  1
  Tm  Tm6  1  0.790367  0.815222  0.437633  1
  Tm  Tm7  1  0.352734  0.684778  0.562367  1
  Tm  Tm8  1  0.423723  0.250000  0.000000  1
  Tm  Tm9  1  0.576287  0.750000  0.000000  1
  Ir  Ir10  1  0.602752  0.423687  0.778514  1
  Ir  Ir11  1  0.824236  0.076313  0.221486  1
  Ru  Ru12  1  0.396016  0.574688  0.219723  1
  Ru  Ru13  1  0.176294  0.925312  0.780277  1
