# generated using pymatgen
data_Er12CdCo4Rh
_symmetry_space_group_name_H-M   'P 1'
_cell_length_a   8.20818664
_cell_length_b   8.20833172
_cell_length_c   8.20818767
_cell_angle_alpha   110.89485393
_cell_angle_beta   110.55679769
_cell_angle_gamma   106.98963395
_symmetry_Int_Tables_number   1
_chemical_formula_structural   Er12CdCo4Rh
_chemical_formula_sum   'Er12 Cd1 Co4 Rh1'
_cell_volume   425.12757864
_cell_formula_units_Z   1
loop_
 _symmetry_equiv_pos_site_id
 _symmetry_equiv_pos_as_xyz
  1  'x, y, z'
loop_
 _atom_site_type_symbol
 _atom_site_label
 _atom_site_symmetry_multiplicity
 _atom_site_fract_x
 _atom_site_fract_y
 _atom_site_fract_z
 _atom_site_occupancy
  Er  Er0  1  0.185325  0.289324  0.474657  1
  Er  Er1  1  0.814675  0.710676  0.525343  1
  Er  Er2  1  0.185333  0.710676  0.896001  1
  Er  Er3  1  0.814667  0.289324  0.103999  1
  Er  Er4  1  0.313883  0.619072  0.305189  1
  Er  Er5  1  0.686117  0.380928  0.694811  1
  Er  Er6  1  0.313834  0.008648  0.694813  1
  Er  Er7  1  0.686166  0.991352  0.305187  1
  Er  Er8  1  0.410408  0.214936  0.195518  1
  Er  Er9  1  0.589592  0.785064  0.804482  1
  Er  Er10  1  0.019418  0.214936  0.804528  1
  Er  Er11  1  0.980582  0.785064  0.195472  1
  Cd  Cd12  1  0.500000  0.500000  0.000000  1
  Co  Co13  1  0.112609  0.612600  0.499991  1
  Co  Co14  1  0.887391  0.387400  0.500009  1
  Co  Co15  1  0.377977  0.000000  0.377977  1
  Co  Co16  1  0.622023  0.000000  0.622023  1
  Rh  Rh17  1  0.000000  0.000000  0.000000  1
