# generated using pymatgen
data_Ho4Ga6Pd7
_symmetry_space_group_name_H-M   'P 1'
_cell_length_a   7.39998944
_cell_length_b   7.39998829
_cell_length_c   7.39998900
_cell_angle_alpha   109.47122258
_cell_angle_beta   109.47121944
_cell_angle_gamma   109.47122110
_symmetry_Int_Tables_number   1
_chemical_formula_structural   Ho4Ga6Pd7
_chemical_formula_sum   'Ho4 Ga6 Pd7'
_cell_volume   311.94017323
_cell_formula_units_Z   1
loop_
 _symmetry_equiv_pos_site_id
 _symmetry_equiv_pos_as_xyz
  1  'x, y, z'
loop_
 _atom_site_type_symbol
 _atom_site_label
 _atom_site_symmetry_multiplicity
 _atom_site_fract_x
 _atom_site_fract_y
 _atom_site_fract_z
 _atom_site_occupancy
  Ho  Ho0  1  0.500000  0.500000  0.500000  1
  Ho  Ho1  1  0.000000  0.000000  0.500000  1
  Ho  Ho2  1  0.000000  0.500000  0.000000  1
  Ho  Ho3  1  0.500000  0.000000  0.000000  1
  Ga  Ga4  1  0.000000  0.317146  0.317146  1
  Ga  Ga5  1  0.000000  0.682854  0.682854  1
  Ga  Ga6  1  0.317146  0.000000  0.317146  1
  Ga  Ga7  1  0.682854  0.000000  0.682854  1
  Ga  Ga8  1  0.317146  0.317146  0.000000  1
  Ga  Ga9  1  0.682854  0.682854  0.000000  1
  Pd  Pd10  1  0.500000  0.750000  0.250000  1
  Pd  Pd11  1  0.500000  0.250000  0.750000  1
  Pd  Pd12  1  0.250000  0.500000  0.750000  1
  Pd  Pd13  1  0.750000  0.500000  0.250000  1
  Pd  Pd14  1  0.750000  0.250000  0.500000  1
  Pd  Pd15  1  0.250000  0.750000  0.500000  1
  Pd  Pd16  1  0.000000  0.000000  0.000000  1
