# generated using pymatgen
data_Tb8Y2AlSb5
_symmetry_space_group_name_H-M   'P 1'
_cell_length_a   6.40216900
_cell_length_b   8.98240945
_cell_length_c   8.96753203
_cell_angle_alpha   120.05489302
_cell_angle_beta   90.00003836
_cell_angle_gamma   89.99993431
_symmetry_Int_Tables_number   1
_chemical_formula_structural   Tb8Y2AlSb5
_chemical_formula_sum   'Tb8 Y2 Al1 Sb5'
_cell_volume   446.35772927
_cell_formula_units_Z   1
loop_
 _symmetry_equiv_pos_site_id
 _symmetry_equiv_pos_as_xyz
  1  'x, y, z'
loop_
 _atom_site_type_symbol
 _atom_site_label
 _atom_site_symmetry_multiplicity
 _atom_site_fract_x
 _atom_site_fract_y
 _atom_site_fract_z
 _atom_site_occupancy
  Tb  Tb0  1  0.500769  0.338125  0.672851  1
  Tb  Tb1  1  0.500769  0.665274  0.327149  1
  Tb  Tb2  1  0.999230  0.665275  0.327152  1
  Tb  Tb3  1  0.999230  0.338123  0.672848  1
  Tb  Tb4  1  0.749998  0.248212  0.000000  1
  Tb  Tb5  1  0.249999  0.756853  0.000000  1
  Tb  Tb6  1  0.250003  0.246168  0.245180  1
  Tb  Tb7  1  0.250003  0.000988  0.754820  1
  Y  Y8  1  0.750000  0.753150  0.761857  1
  Y  Y9  1  0.750000  0.991294  0.238143  1
  Al  Al10  1  0.750001  0.604674  0.000000  1
  Sb  Sb11  1  0.750001  0.387921  0.389822  1
  Sb  Sb12  1  0.750001  0.998096  0.610178  1
  Sb  Sb13  1  0.249997  0.392087  0.000000  1
  Sb  Sb14  1  0.250001  0.611288  0.608818  1
  Sb  Sb15  1  0.250001  0.002471  0.391182  1
