# generated using pymatgen
data_Li5(LaSb2)4
_symmetry_space_group_name_H-M   'P 1'
_cell_length_a   4.46030400
_cell_length_b   4.46030400
_cell_length_c   22.13666100
_cell_angle_alpha   90.00000000
_cell_angle_beta   90.00000000
_cell_angle_gamma   90.00000000
_symmetry_Int_Tables_number   1
_chemical_formula_structural   Li5(LaSb2)4
_chemical_formula_sum   'Li5 La4 Sb8'
_cell_volume   440.39363553
_cell_formula_units_Z   1
loop_
 _symmetry_equiv_pos_site_id
 _symmetry_equiv_pos_as_xyz
  1  'x, y, z'
loop_
 _atom_site_type_symbol
 _atom_site_label
 _atom_site_symmetry_multiplicity
 _atom_site_fract_x
 _atom_site_fract_y
 _atom_site_fract_z
 _atom_site_occupancy
  Li  Li0  1  0.500000  0.000000  0.254156  1
  Li  Li1  1  0.500000  0.000000  0.748797  1
  Li  Li2  1  0.000000  0.500000  0.254156  1
  Li  Li3  1  0.000000  0.500000  0.748797  1
  Li  Li4  1  0.500000  0.500000  0.061699  1
  La  La5  1  0.500000  0.500000  0.384128  1
  La  La6  1  0.500000  0.500000  0.877104  1
  La  La7  1  0.000000  0.000000  0.119523  1
  La  La8  1  0.000000  0.000000  0.618688  1
  Sb  Sb9  1  0.500000  0.000000  0.993823  1
  Sb  Sb10  1  0.500000  0.000000  0.500837  1
  Sb  Sb11  1  0.000000  0.500000  0.993823  1
  Sb  Sb12  1  0.000000  0.500000  0.500837  1
  Sb  Sb13  1  0.500000  0.500000  0.177283  1
  Sb  Sb14  1  0.500000  0.500000  0.670776  1
  Sb  Sb15  1  0.000000  0.000000  0.331155  1
  Sb  Sb16  1  0.000000  0.000000  0.828220  1
