# generated using pymatgen
data_Sc12UTi3Co8
_symmetry_space_group_name_H-M   'P 1'
_cell_length_a   8.36188777
_cell_length_b   8.44552129
_cell_length_c   8.44552200
_cell_angle_alpha   60.00000504
_cell_angle_beta   59.66859463
_cell_angle_gamma   59.66860078
_symmetry_Int_Tables_number   1
_chemical_formula_structural   Sc12UTi3Co8
_chemical_formula_sum   'Sc12 U1 Ti3 Co8'
_cell_volume   419.61268434
_cell_formula_units_Z   1
loop_
 _symmetry_equiv_pos_site_id
 _symmetry_equiv_pos_as_xyz
  1  'x, y, z'
loop_
 _atom_site_type_symbol
 _atom_site_label
 _atom_site_symmetry_multiplicity
 _atom_site_fract_x
 _atom_site_fract_y
 _atom_site_fract_z
 _atom_site_occupancy
  Sc  Sc0  1  0.811437  0.809372  0.189595  1
  Sc  Sc1  1  0.194003  0.181361  0.812318  1
  Sc  Sc2  1  0.811437  0.189595  0.809372  1
  Sc  Sc3  1  0.194003  0.812318  0.181361  1
  Sc  Sc4  1  0.194003  0.812318  0.812318  1
  Sc  Sc5  1  0.811437  0.189595  0.189595  1
  Sc  Sc6  1  0.438563  0.440628  0.060405  1
  Sc  Sc7  1  0.055997  0.068639  0.437682  1
  Sc  Sc8  1  0.438563  0.060405  0.440628  1
  Sc  Sc9  1  0.055997  0.437682  0.068639  1
  Sc  Sc10  1  0.055997  0.437682  0.437682  1
  Sc  Sc11  1  0.438563  0.060405  0.060405  1
  U  U12  1  0.125000  0.625000  0.625000  1
  Ti  Ti13  1  0.625000  0.125000  0.625000  1
  Ti  Ti14  1  0.625000  0.625000  0.125000  1
  Ti  Ti15  1  0.625000  0.625000  0.625000  1
  Co  Co16  1  0.739290  0.420237  0.420237  1
  Co  Co17  1  0.415182  0.735974  0.424422  1
  Co  Co18  1  0.415182  0.424422  0.735974  1
  Co  Co19  1  0.415182  0.424422  0.424422  1
  Co  Co20  1  0.510710  0.829763  0.829763  1
  Co  Co21  1  0.834818  0.514026  0.825578  1
  Co  Co22  1  0.834818  0.825578  0.514026  1
  Co  Co23  1  0.834818  0.825578  0.825578  1
