# generated using pymatgen
data_Dy12TlIn(SiNi)2
_symmetry_space_group_name_H-M   'P 1'
_cell_length_a   8.51977327
_cell_length_b   8.51977408
_cell_length_c   8.51977352
_cell_angle_alpha   114.69603199
_cell_angle_beta   110.68809971
_cell_angle_gamma   103.23321309
_symmetry_Int_Tables_number   1
_chemical_formula_structural   Dy12TlIn(SiNi)2
_chemical_formula_sum   'Dy12 Tl1 In1 Si2 Ni2'
_cell_volume   471.24065496
_cell_formula_units_Z   1
loop_
 _symmetry_equiv_pos_site_id
 _symmetry_equiv_pos_as_xyz
  1  'x, y, z'
loop_
 _atom_site_type_symbol
 _atom_site_label
 _atom_site_symmetry_multiplicity
 _atom_site_fract_x
 _atom_site_fract_y
 _atom_site_fract_z
 _atom_site_occupancy
  Dy  Dy0  1  0.436731  0.236016  0.200716  1
  Dy  Dy1  1  0.563269  0.763984  0.799284  1
  Dy  Dy2  1  0.035300  0.236016  0.799284  1
  Dy  Dy3  1  0.964700  0.763984  0.200716  1
  Dy  Dy4  1  0.187035  0.297633  0.484668  1
  Dy  Dy5  1  0.812965  0.702367  0.515332  1
  Dy  Dy6  1  0.187035  0.702367  0.889402  1
  Dy  Dy7  1  0.812965  0.297633  0.110598  1
  Dy  Dy8  1  0.310558  0.619646  0.309087  1
  Dy  Dy9  1  0.689442  0.380354  0.690913  1
  Dy  Dy10  1  0.310558  0.001470  0.690913  1
  Dy  Dy11  1  0.689442  0.998530  0.309087  1
  Tl  Tl12  1  0.000000  0.000000  0.000000  1
  In  In13  1  0.500000  0.500000  0.000000  1
  Si  Si14  1  0.361497  0.000000  0.361497  1
  Si  Si15  1  0.638503  0.000000  0.638503  1
  Ni  Ni16  1  0.118950  0.618950  0.500000  1
  Ni  Ni17  1  0.881050  0.381050  0.500000  1
