# generated using pymatgen
data_Tb2CoH6
_symmetry_space_group_name_H-M   'P 1'
_cell_length_a   6.92134235
_cell_length_b   6.92134273
_cell_length_c   4.97030600
_cell_angle_alpha   90.00000000
_cell_angle_beta   90.00000000
_cell_angle_gamma   138.11852723
_symmetry_Int_Tables_number   1
_chemical_formula_structural   Tb2CoH6
_chemical_formula_sum   'Tb4 Co2 H12'
_cell_volume   158.95523409
_cell_formula_units_Z   2
loop_
 _symmetry_equiv_pos_site_id
 _symmetry_equiv_pos_as_xyz
  1  'x, y, z'
loop_
 _atom_site_type_symbol
 _atom_site_label
 _atom_site_symmetry_multiplicity
 _atom_site_fract_x
 _atom_site_fract_y
 _atom_site_fract_z
 _atom_site_occupancy
  Tb  Tb0  1  0.139089  0.860911  0.500000  1
  Tb  Tb1  1  0.639089  0.360911  0.000000  1
  Tb  Tb2  1  0.860911  0.139089  0.500000  1
  Tb  Tb3  1  0.360911  0.639089  0.000000  1
  Co  Co4  1  0.500000  0.500000  0.500000  1
  Co  Co5  1  0.000000  0.000000  0.000000  1
  H  H6  1  0.000024  0.500024  0.750000  1
  H  H7  1  0.499976  0.999976  0.250000  1
  H  H8  1  0.999976  0.499976  0.250000  1
  H  H9  1  0.500024  0.000024  0.750000  1
  H  H10  1  0.375987  0.624013  0.500000  1
  H  H11  1  0.875987  0.124013  0.000000  1
  H  H12  1  0.624013  0.375987  0.500000  1
  H  H13  1  0.124013  0.875987  0.000000  1
  H  H14  1  0.250744  0.250744  0.749472  1
  H  H15  1  0.749256  0.749256  0.250528  1
  H  H16  1  0.249256  0.249256  0.249472  1
  H  H17  1  0.750744  0.750744  0.750528  1
