# generated using pymatgen
data_Hf2Mn7CrP4
_symmetry_space_group_name_H-M   'P 1'
_cell_length_a   6.88073683
_cell_length_b   6.85218297
_cell_length_c   3.67846800
_cell_angle_alpha   90.00000000
_cell_angle_beta   90.00000000
_cell_angle_gamma   90.23872383
_symmetry_Int_Tables_number   1
_chemical_formula_structural   Hf2Mn7CrP4
_chemical_formula_sum   'Hf2 Mn7 Cr1 P4'
_cell_volume   173.43115302
_cell_formula_units_Z   1
loop_
 _symmetry_equiv_pos_site_id
 _symmetry_equiv_pos_as_xyz
  1  'x, y, z'
loop_
 _atom_site_type_symbol
 _atom_site_label
 _atom_site_symmetry_multiplicity
 _atom_site_fract_x
 _atom_site_fract_y
 _atom_site_fract_z
 _atom_site_occupancy
  Hf  Hf0  1  0.500148  0.500973  0.000000  1
  Hf  Hf1  1  0.003347  0.999384  0.500000  1
  Mn  Mn2  1  0.412088  0.838497  0.500000  1
  Mn  Mn3  1  0.087419  0.346045  0.000000  1
  Mn  Mn4  1  0.913495  0.656725  0.000000  1
  Mn  Mn5  1  0.151429  0.586146  0.500000  1
  Mn  Mn6  1  0.837870  0.410820  0.500000  1
  Mn  Mn7  1  0.344965  0.088843  0.000000  1
  Mn  Mn8  1  0.658959  0.915620  0.000000  1
  Cr  Cr9  1  0.585347  0.151114  0.500000  1
  P  P10  1  0.714958  0.716154  0.500000  1
  P  P11  1  0.282935  0.286541  0.500000  1
  P  P12  1  0.216592  0.786812  0.000000  1
  P  P13  1  0.790446  0.216327  0.000000  1
