# generated using pymatgen
data_TbEr19(Bi2P)4
_symmetry_space_group_name_H-M   'P 1'
_cell_length_a   7.92137766
_cell_length_b   8.92399800
_cell_length_c   12.04314711
_cell_angle_alpha   90.00000000
_cell_angle_beta   90.06088937
_cell_angle_gamma   90.00000000
_symmetry_Int_Tables_number   1
_chemical_formula_structural   TbEr19(Bi2P)4
_chemical_formula_sum   'Tb1 Er19 Bi8 P4'
_cell_volume   851.33390391
_cell_formula_units_Z   1
loop_
 _symmetry_equiv_pos_site_id
 _symmetry_equiv_pos_as_xyz
  1  'x, y, z'
loop_
 _atom_site_type_symbol
 _atom_site_label
 _atom_site_symmetry_multiplicity
 _atom_site_fract_x
 _atom_site_fract_y
 _atom_site_fract_z
 _atom_site_occupancy
  Tb  Tb0  1  0.650529  0.750000  0.707071  1
  Er  Er1  1  0.350235  0.250000  0.293521  1
  Er  Er2  1  0.149455  0.250000  0.794305  1
  Er  Er3  1  0.850109  0.750000  0.206123  1
  Er  Er4  1  0.125243  0.750000  0.800414  1
  Er  Er5  1  0.875453  0.250000  0.199839  1
  Er  Er6  1  0.624677  0.250000  0.699834  1
  Er  Er7  1  0.375152  0.750000  0.299484  1
  Er  Er8  1  0.540365  0.750000  0.998664  1
  Er  Er9  1  0.457830  0.250000  0.002323  1
  Er  Er10  1  0.042524  0.250000  0.501240  1
  Er  Er11  1  0.958751  0.750000  0.498211  1
  Er  Er12  1  0.817279  0.448194  0.936626  1
  Er  Er13  1  0.181607  0.551399  0.063729  1
  Er  Er14  1  0.318500  0.551352  0.563578  1
  Er  Er15  1  0.181607  0.948601  0.063729  1
  Er  Er16  1  0.682649  0.448617  0.436342  1
  Er  Er17  1  0.817279  0.051806  0.936626  1
  Er  Er18  1  0.682649  0.051383  0.436342  1
  Er  Er19  1  0.318500  0.948648  0.563578  1
  Bi  Bi20  1  0.924630  0.010005  0.673122  1
  Bi  Bi21  1  0.076992  0.990478  0.326501  1
  Bi  Bi22  1  0.421891  0.991691  0.827393  1
  Bi  Bi23  1  0.076992  0.509522  0.326501  1
  Bi  Bi24  1  0.576916  0.009361  0.173493  1
  Bi  Bi25  1  0.924630  0.489995  0.673122  1
  Bi  Bi26  1  0.576916  0.490639  0.173493  1
  Bi  Bi27  1  0.421891  0.508309  0.827393  1
  P  P28  1  0.922923  0.750000  0.986378  1
  P  P29  1  0.075603  0.250000  0.013191  1
  P  P30  1  0.424312  0.250000  0.512640  1
  P  P31  1  0.575914  0.750000  0.485198  1
