# generated using pymatgen
data_Dy3Ho2Sc3(P3Ir4)4
_symmetry_space_group_name_H-M   'P 1'
_cell_length_a   12.85546500
_cell_length_b   12.85603660
_cell_length_c   3.96156000
_cell_angle_alpha   90.00000000
_cell_angle_beta   90.00000000
_cell_angle_gamma   119.99853181
_symmetry_Int_Tables_number   1
_chemical_formula_structural   Dy3Ho2Sc3(P3Ir4)4
_chemical_formula_sum   'Dy3 Ho2 Sc3 P12 Ir16'
_cell_volume   567.01974852
_cell_formula_units_Z   1
loop_
 _symmetry_equiv_pos_site_id
 _symmetry_equiv_pos_as_xyz
  1  'x, y, z'
loop_
 _atom_site_type_symbol
 _atom_site_label
 _atom_site_symmetry_multiplicity
 _atom_site_fract_x
 _atom_site_fract_y
 _atom_site_fract_z
 _atom_site_occupancy
  Dy  Dy0  1  0.333335  0.666690  0.500000  1
  Dy  Dy1  1  0.666645  0.333310  0.500000  1
  Dy  Dy2  1  0.811586  0.000000  0.000000  1
  Ho  Ho3  1  0.999973  0.811401  0.000000  1
  Ho  Ho4  1  0.188573  0.188599  0.000000  1
  Sc  Sc5  1  0.999936  0.444487  0.500000  1
  Sc  Sc6  1  0.555449  0.555513  0.500000  1
  Sc  Sc7  1  0.444374  0.000000  0.500000  1
  P  P8  1  0.000000  0.645415  0.500000  1
  P  P9  1  0.354585  0.354585  0.500000  1
  P  P10  1  0.645156  0.000000  0.500000  1
  P  P11  1  0.517035  0.686725  0.000000  1
  P  P12  1  0.313275  0.830304  0.000000  1
  P  P13  1  0.169677  0.483004  0.000000  1
  P  P14  1  0.482971  0.169696  0.000000  1
  P  P15  1  0.686673  0.516996  0.000000  1
  P  P16  1  0.830310  0.313275  0.000000  1
  P  P17  1  0.000127  0.176597  0.500000  1
  P  P18  1  0.823530  0.823403  0.500000  1
  P  P19  1  0.176537  0.000000  0.500000  1
  Ir  Ir20  1  0.510165  0.867870  0.000000  1
  Ir  Ir21  1  0.132170  0.642327  0.000000  1
  Ir  Ir22  1  0.357785  0.489941  0.000000  1
  Ir  Ir23  1  0.489844  0.357673  0.000000  1
  Ir  Ir24  1  0.867845  0.510059  0.000000  1
  Ir  Ir25  1  0.642297  0.132130  0.000000  1
  Ir  Ir26  1  0.999950  0.277767  0.000000  1
  Ir  Ir27  1  0.722183  0.722233  0.000000  1
  Ir  Ir28  1  0.277721  0.000000  0.000000  1
  Ir  Ir29  1  0.627823  0.806624  0.500000  1
  Ir  Ir30  1  0.193322  0.821206  0.500000  1
  Ir  Ir31  1  0.178918  0.372136  0.500000  1
  Ir  Ir32  1  0.372116  0.178794  0.500000  1
  Ir  Ir33  1  0.806781  0.627864  0.500000  1
  Ir  Ir34  1  0.821200  0.193376  0.500000  1
  Ir  Ir35  1  0.000132  0.000000  0.500000  1
