# generated using pymatgen
data_YTm7Mg2(SiB4)4
_symmetry_space_group_name_H-M   'P 1'
_cell_length_a   7.11831503
_cell_length_b   7.11831503
_cell_length_c   7.73355904
_cell_angle_alpha   89.99151341
_cell_angle_beta   90.00848659
_cell_angle_gamma   90.00474926
_symmetry_Int_Tables_number   1
_chemical_formula_structural   YTm7Mg2(SiB4)4
_chemical_formula_sum   'Y1 Tm7 Mg2 Si4 B16'
_cell_volume   391.86258825
_cell_formula_units_Z   1
loop_
 _symmetry_equiv_pos_site_id
 _symmetry_equiv_pos_as_xyz
  1  'x, y, z'
loop_
 _atom_site_type_symbol
 _atom_site_label
 _atom_site_symmetry_multiplicity
 _atom_site_fract_x
 _atom_site_fract_y
 _atom_site_fract_z
 _atom_site_occupancy
  Y  Y0  1  0.182197  0.317803  0.234514  1
  Tm  Tm1  1  0.682206  0.182017  0.231331  1
  Tm  Tm2  1  0.317913  0.817786  0.768841  1
  Tm  Tm3  1  0.317983  0.817794  0.231331  1
  Tm  Tm4  1  0.817609  0.682391  0.231352  1
  Tm  Tm5  1  0.817706  0.682294  0.768627  1
  Tm  Tm6  1  0.682214  0.182087  0.768841  1
  Tm  Tm7  1  0.182107  0.317893  0.768596  1
  Mg  Mg8  1  0.999640  0.999414  0.500510  1
  Mg  Mg9  1  0.500586  0.500360  0.500510  1
  Si  Si10  1  0.114895  0.616807  0.501242  1
  Si  Si11  1  0.883193  0.385105  0.501242  1
  Si  Si12  1  0.385404  0.114596  0.501566  1
  Si  Si13  1  0.616117  0.883883  0.500208  1
  B  B14  1  0.173787  0.038801  0.999554  1
  B  B15  1  0.825763  0.960415  0.999641  1
  B  B16  1  0.960019  0.173641  0.999341  1
  B  B17  1  0.326359  0.539981  0.999341  1
  B  B18  1  0.039157  0.825815  0.999522  1
  B  B19  1  0.674185  0.460843  0.999522  1
  B  B20  1  0.539585  0.674237  0.999641  1
  B  B21  1  0.461199  0.326213  0.999554  1
  B  B22  1  0.088667  0.588963  0.998878  1
  B  B23  1  0.911037  0.411333  0.998878  1
  B  B24  1  0.411468  0.088532  0.999602  1
  B  B25  1  0.588675  0.911325  0.999733  1
  B  B26  1  0.999428  0.998967  0.165341  1
  B  B27  1  0.999843  0.999978  0.833700  1
  B  B28  1  0.500022  0.500157  0.833700  1
  B  B29  1  0.501033  0.500572  0.165341  1
