# generated using pymatgen
data_Ti4IrRh
_symmetry_space_group_name_H-M   'P 1'
_cell_length_a   4.35794500
_cell_length_b   9.79251000
_cell_length_c   4.35873100
_cell_angle_alpha   90.00000000
_cell_angle_beta   90.00000000
_cell_angle_gamma   90.00000000
_symmetry_Int_Tables_number   1
_chemical_formula_structural   Ti4IrRh
_chemical_formula_sum   'Ti8 Ir2 Rh2'
_cell_volume   186.00980431
_cell_formula_units_Z   2
loop_
 _symmetry_equiv_pos_site_id
 _symmetry_equiv_pos_as_xyz
  1  'x, y, z'
loop_
 _atom_site_type_symbol
 _atom_site_label
 _atom_site_symmetry_multiplicity
 _atom_site_fract_x
 _atom_site_fract_y
 _atom_site_fract_z
 _atom_site_occupancy
  Ti  Ti0  1  0.416638  0.162658  0.000000  1
  Ti  Ti1  1  0.916635  0.337341  0.000000  1
  Ti  Ti2  1  0.916635  0.662659  0.000000  1
  Ti  Ti3  1  0.416638  0.837343  0.000000  1
  Ti  Ti4  1  0.916692  0.162023  0.500000  1
  Ti  Ti5  1  0.416695  0.337981  0.500000  1
  Ti  Ti6  1  0.416695  0.662019  0.500000  1
  Ti  Ti7  1  0.916692  0.837976  0.500000  1
  Ir  Ir8  1  0.916619  0.000000  0.000000  1
  Ir  Ir9  1  0.416617  0.500000  0.000000  1
  Rh  Rh10  1  0.416703  0.000000  0.500000  1
  Rh  Rh11  1  0.916685  0.500000  0.500000  1
