# generated using pymatgen
data_CeLu2Ni9
_symmetry_space_group_name_H-M   'P 1'
_cell_length_a   8.52449193
_cell_length_b   8.52449186
_cell_length_c   8.52449169
_cell_angle_alpha   33.38395845
_cell_angle_beta   33.38396163
_cell_angle_gamma   33.38395589
_symmetry_Int_Tables_number   1
_chemical_formula_structural   CeLu2Ni9
_chemical_formula_sum   'Ce1 Lu2 Ni9'
_cell_volume   167.00914532
_cell_formula_units_Z   1
loop_
 _symmetry_equiv_pos_site_id
 _symmetry_equiv_pos_as_xyz
  1  'x, y, z'
loop_
 _atom_site_type_symbol
 _atom_site_label
 _atom_site_symmetry_multiplicity
 _atom_site_fract_x
 _atom_site_fract_y
 _atom_site_fract_z
 _atom_site_occupancy
  Ce  Ce0  1  0.000000  0.000000  0.000000  1
  Lu  Lu1  1  0.859564  0.859564  0.859564  1
  Lu  Lu2  1  0.140436  0.140436  0.140436  1
  Ni  Ni3  1  0.585150  0.081818  0.585150  1
  Ni  Ni4  1  0.081818  0.585150  0.585150  1
  Ni  Ni5  1  0.585150  0.585150  0.081818  1
  Ni  Ni6  1  0.414850  0.918182  0.414850  1
  Ni  Ni7  1  0.918182  0.414850  0.414850  1
  Ni  Ni8  1  0.333415  0.333415  0.333415  1
  Ni  Ni9  1  0.414850  0.414850  0.918182  1
  Ni  Ni10  1  0.500000  0.500000  0.500000  1
  Ni  Ni11  1  0.666585  0.666585  0.666585  1
