# generated using pymatgen
data_Tb3Y2Co19SiP11
_symmetry_space_group_name_H-M   'P 1'
_cell_length_a   12.01723005
_cell_length_b   12.00682129
_cell_length_c   3.68598700
_cell_angle_alpha   90.00000000
_cell_angle_beta   90.00000000
_cell_angle_gamma   120.01818932
_symmetry_Int_Tables_number   1
_chemical_formula_structural   Tb3Y2Co19SiP11
_chemical_formula_sum   'Tb3 Y2 Co19 Si1 P11'
_cell_volume   460.50804609
_cell_formula_units_Z   1
loop_
 _symmetry_equiv_pos_site_id
 _symmetry_equiv_pos_as_xyz
  1  'x, y, z'
loop_
 _atom_site_type_symbol
 _atom_site_label
 _atom_site_symmetry_multiplicity
 _atom_site_fract_x
 _atom_site_fract_y
 _atom_site_fract_z
 _atom_site_occupancy
  Tb  Tb0  1  0.333981  0.667797  0.000000  1
  Tb  Tb1  1  0.666066  0.332210  0.000000  1
  Tb  Tb2  1  0.812081  0.811986  0.500000  1
  Y  Y3  1  0.185160  0.000044  0.500000  1
  Y  Y4  1  0.000258  0.188194  0.500000  1
  Co  Co5  1  0.199905  0.378583  0.000000  1
  Co  Co6  1  0.622872  0.821738  0.000000  1
  Co  Co7  1  0.174085  0.795933  0.000000  1
  Co  Co8  1  0.821344  0.621331  0.000000  1
  Co  Co9  1  0.801268  0.178294  0.000000  1
  Co  Co10  1  0.378094  0.204059  0.000000  1
  Co  Co11  1  0.558245  0.999972  0.000000  1
  Co  Co12  1  0.997732  0.551552  0.000000  1
  Co  Co13  1  0.446130  0.448432  0.000000  1
  Co  Co14  1  0.124399  0.483735  0.500000  1
  Co  Co15  1  0.516259  0.641379  0.500000  1
  Co  Co16  1  0.359158  0.873134  0.500000  1
  Co  Co17  1  0.640582  0.516218  0.500000  1
  Co  Co18  1  0.874924  0.358643  0.500000  1
  Co  Co19  1  0.485983  0.126843  0.500000  1
  Co  Co20  1  0.716378  0.000009  0.500000  1
  Co  Co21  1  0.998707  0.713537  0.500000  1
  Co  Co22  1  0.285082  0.286434  0.500000  1
  Co  Co23  1  0.000273  0.000029  0.000000  1
  Si  Si24  1  0.369944  0.999984  0.000000  1
  P  P25  1  0.000067  0.369218  0.000000  1
  P  P26  1  0.630724  0.630662  0.000000  1
  P  P27  1  0.313364  0.480221  0.500000  1
  P  P28  1  0.521706  0.834966  0.500000  1
  P  P29  1  0.166182  0.686948  0.500000  1
  P  P30  1  0.833122  0.519788  0.500000  1
  P  P31  1  0.686681  0.165053  0.500000  1
  P  P32  1  0.479152  0.313019  0.500000  1
  P  P33  1  0.819511  0.000101  0.000000  1
  P  P34  1  0.999384  0.818041  0.000000  1
  P  P35  1  0.181196  0.181912  0.000000  1
