# generated using pymatgen
data_Dy6Er6Co4TcBi
_symmetry_space_group_name_H-M   'P 1'
_cell_length_a   8.29417103
_cell_length_b   8.29075224
_cell_length_c   8.29075229
_cell_angle_alpha   110.53537779
_cell_angle_beta   111.55457707
_cell_angle_gamma   106.35329204
_symmetry_Int_Tables_number   1
_chemical_formula_structural   Dy6Er6Co4TcBi
_chemical_formula_sum   'Dy6 Er6 Co4 Tc1 Bi1'
_cell_volume   437.95983397
_cell_formula_units_Z   1
loop_
 _symmetry_equiv_pos_site_id
 _symmetry_equiv_pos_as_xyz
  1  'x, y, z'
loop_
 _atom_site_type_symbol
 _atom_site_label
 _atom_site_symmetry_multiplicity
 _atom_site_fract_x
 _atom_site_fract_y
 _atom_site_fract_z
 _atom_site_occupancy
  Dy  Dy0  1  0.282060  0.182485  0.465303  1
  Dy  Dy1  1  0.717940  0.817515  0.534697  1
  Dy  Dy2  1  0.282060  0.816755  0.099574  1
  Dy  Dy3  1  0.717940  0.183245  0.900426  1
  Dy  Dy4  1  0.618729  0.310330  0.308399  1
  Dy  Dy5  1  0.381271  0.689670  0.691601  1
  Er  Er6  1  0.001659  0.310279  0.691377  1
  Er  Er7  1  0.998341  0.689721  0.308623  1
  Er  Er8  1  0.213829  0.410926  0.196404  1
  Er  Er9  1  0.786171  0.589074  0.803596  1
  Er  Er10  1  0.213829  0.017425  0.802902  1
  Er  Er11  1  0.786171  0.982575  0.197098  1
  Co  Co12  1  0.000000  0.377609  0.377609  1
  Co  Co13  1  0.000000  0.622391  0.622391  1
  Co  Co14  1  0.388839  0.889051  0.499788  1
  Co  Co15  1  0.611161  0.110949  0.500212  1
  Tc  Tc16  1  0.000000  0.000000  0.000000  1
  Bi  Bi17  1  0.500000  0.500000  0.000000  1
