# generated using pymatgen
data_Ce2YHo(ReB6)2
_symmetry_space_group_name_H-M   'P 1'
_cell_length_a   3.73102700
_cell_length_b   9.22452404
_cell_length_c   11.60644005
_cell_angle_alpha   90.01098401
_cell_angle_beta   90.00000000
_cell_angle_gamma   90.00000000
_symmetry_Int_Tables_number   1
_chemical_formula_structural   Ce2YHo(ReB6)2
_chemical_formula_sum   'Ce4 Y2 Ho2 Re4 B24'
_cell_volume   399.45823951
_cell_formula_units_Z   2
loop_
 _symmetry_equiv_pos_site_id
 _symmetry_equiv_pos_as_xyz
  1  'x, y, z'
loop_
 _atom_site_type_symbol
 _atom_site_label
 _atom_site_symmetry_multiplicity
 _atom_site_fract_x
 _atom_site_fract_y
 _atom_site_fract_z
 _atom_site_occupancy
  Ce  Ce0  1  0.000000  0.323438  0.413836  1
  Ce  Ce1  1  0.000000  0.676562  0.586164  1
  Ce  Ce2  1  0.000000  0.822970  0.085881  1
  Ce  Ce3  1  0.000000  0.177030  0.914119  1
  Y  Y4  1  0.000000  0.944707  0.372890  1
  Y  Y5  1  0.000000  0.055293  0.627110  1
  Ho  Ho6  1  0.000000  0.444606  0.127048  1
  Ho  Ho7  1  0.000000  0.555394  0.872952  1
  Re  Re8  1  0.000000  0.638313  0.320577  1
  Re  Re9  1  0.000000  0.361687  0.679423  1
  Re  Re10  1  0.000000  0.139025  0.178397  1
  Re  Re11  1  0.000000  0.860975  0.821603  1
  B  B12  1  0.500000  0.554333  0.431414  1
  B  B13  1  0.500000  0.445667  0.568586  1
  B  B14  1  0.500000  0.054650  0.068212  1
  B  B15  1  0.500000  0.945350  0.931788  1
  B  B16  1  0.500000  0.748019  0.418653  1
  B  B17  1  0.500000  0.251981  0.581347  1
  B  B18  1  0.500000  0.248919  0.081048  1
  B  B19  1  0.500000  0.751081  0.918952  1
  B  B20  1  0.500000  0.791338  0.266000  1
  B  B21  1  0.500000  0.208662  0.734000  1
  B  B22  1  0.500000  0.291974  0.233333  1
  B  B23  1  0.500000  0.708026  0.766667  1
  B  B24  1  0.500000  0.631789  0.185849  1
  B  B25  1  0.500000  0.368211  0.814151  1
  B  B26  1  0.500000  0.132540  0.313532  1
  B  B27  1  0.500000  0.867460  0.686468  1
  B  B28  1  0.500000  0.984275  0.212682  1
  B  B29  1  0.500000  0.015725  0.787318  1
  B  B30  1  0.500000  0.483994  0.286651  1
  B  B31  1  0.500000  0.516006  0.713349  1
  B  B32  1  0.500000  0.606834  0.029596  1
  B  B33  1  0.500000  0.393166  0.970404  1
  B  B34  1  0.500000  0.108691  0.469952  1
  B  B35  1  0.500000  0.891309  0.530048  1
