# generated using pymatgen
data_NdSm7C10
_symmetry_space_group_name_H-M   'P 1'
_cell_length_a   3.80970000
_cell_length_b   6.80752093
_cell_length_c   12.25061436
_cell_angle_alpha   89.00973666
_cell_angle_beta   90.00000000
_cell_angle_gamma   90.00000000
_symmetry_Int_Tables_number   1
_chemical_formula_structural   NdSm7C10
_chemical_formula_sum   'Nd1 Sm7 C10'
_cell_volume   317.66748456
_cell_formula_units_Z   1
loop_
 _symmetry_equiv_pos_site_id
 _symmetry_equiv_pos_as_xyz
  1  'x, y, z'
loop_
 _atom_site_type_symbol
 _atom_site_label
 _atom_site_symmetry_multiplicity
 _atom_site_fract_x
 _atom_site_fract_y
 _atom_site_fract_z
 _atom_site_occupancy
  Nd  Nd0  1  0.500000  0.106485  0.802205  1
  Sm  Sm1  1  0.000000  0.254308  0.543366  1
  Sm  Sm2  1  0.000000  0.743715  0.456266  1
  Sm  Sm3  1  0.000000  0.754654  0.958610  1
  Sm  Sm4  1  0.000000  0.245452  0.042640  1
  Sm  Sm5  1  0.500000  0.894739  0.198234  1
  Sm  Sm6  1  0.500000  0.611145  0.695753  1
  Sm  Sm7  1  0.500000  0.389188  0.303254  1
  C  C8  1  0.500000  0.498288  0.499517  1
  C  C9  1  0.500000  0.999547  0.001941  1
  C  C10  1  0.000000  0.362479  0.739101  1
  C  C11  1  0.000000  0.640915  0.260531  1
  C  C12  1  0.000000  0.861202  0.762964  1
  C  C13  1  0.000000  0.135541  0.236666  1
  C  C14  1  0.000000  0.426316  0.840279  1
  C  C15  1  0.000000  0.579210  0.158981  1
  C  C16  1  0.000000  0.108521  0.344246  1
  C  C17  1  0.000000  0.888295  0.655445  1
