# generated using pymatgen
data_Th5Hg3C
_symmetry_space_group_name_H-M   'P 1'
_cell_length_a   9.37733000
_cell_length_b   9.37733223
_cell_length_c   6.41609200
_cell_angle_alpha   90.00000000
_cell_angle_beta   90.00000000
_cell_angle_gamma   119.99999918
_symmetry_Int_Tables_number   1
_chemical_formula_structural   Th5Hg3C
_chemical_formula_sum   'Th10 Hg6 C2'
_cell_volume   488.60704053
_cell_formula_units_Z   2
loop_
 _symmetry_equiv_pos_site_id
 _symmetry_equiv_pos_as_xyz
  1  'x, y, z'
loop_
 _atom_site_type_symbol
 _atom_site_label
 _atom_site_symmetry_multiplicity
 _atom_site_fract_x
 _atom_site_fract_y
 _atom_site_fract_z
 _atom_site_occupancy
  Th  Th0  1  0.666667  0.333333  0.000000  1
  Th  Th1  1  0.333333  0.666667  0.000000  1
  Th  Th2  1  0.333333  0.666667  0.500000  1
  Th  Th3  1  0.666667  0.333333  0.500000  1
  Th  Th4  1  0.782419  0.782419  0.750000  1
  Th  Th5  1  0.217581  0.000000  0.750000  1
  Th  Th6  1  0.000000  0.217581  0.750000  1
  Th  Th7  1  0.217581  0.217581  0.250000  1
  Th  Th8  1  0.782419  0.000000  0.250000  1
  Th  Th9  1  0.000000  0.782419  0.250000  1
  Hg  Hg10  1  0.403422  0.403422  0.750000  1
  Hg  Hg11  1  0.596578  0.000000  0.750000  1
  Hg  Hg12  1  0.000000  0.596578  0.750000  1
  Hg  Hg13  1  0.596578  0.596578  0.250000  1
  Hg  Hg14  1  0.403422  0.000000  0.250000  1
  Hg  Hg15  1  0.000000  0.403422  0.250000  1
  C  C16  1  0.000000  0.000000  0.000000  1
  C  C17  1  0.000000  0.000000  0.500000  1
