# generated using pymatgen
data_Dy4Ho4Er4Co5Bi
_symmetry_space_group_name_H-M   'P 1'
_cell_length_a   8.27266176
_cell_length_b   8.27252442
_cell_length_c   8.27266309
_cell_angle_alpha   110.80191432
_cell_angle_beta   110.73765094
_cell_angle_gamma   106.90483935
_symmetry_Int_Tables_number   1
_chemical_formula_structural   Dy4Ho4Er4Co5Bi
_chemical_formula_sum   'Dy4 Ho4 Er4 Co5 Bi1'
_cell_volume   435.16377360
_cell_formula_units_Z   1
loop_
 _symmetry_equiv_pos_site_id
 _symmetry_equiv_pos_as_xyz
  1  'x, y, z'
loop_
 _atom_site_type_symbol
 _atom_site_label
 _atom_site_symmetry_multiplicity
 _atom_site_fract_x
 _atom_site_fract_y
 _atom_site_fract_z
 _atom_site_occupancy
  Dy  Dy0  1  0.815940  0.711158  0.527085  1
  Dy  Dy1  1  0.184060  0.288842  0.472915  1
  Dy  Dy2  1  0.184074  0.711158  0.895219  1
  Dy  Dy3  1  0.815926  0.288842  0.104781  1
  Ho  Ho4  1  0.598327  0.792866  0.805447  1
  Ho  Ho5  1  0.401673  0.207134  0.194553  1
  Ho  Ho6  1  0.987419  0.792866  0.194538  1
  Ho  Ho7  1  0.012581  0.207134  0.805462  1
  Er  Er8  1  0.687924  0.377724  0.689801  1
  Er  Er9  1  0.312076  0.622276  0.310199  1
  Er  Er10  1  0.687888  0.998100  0.310213  1
  Er  Er11  1  0.312112  0.001900  0.689787  1
  Co  Co12  1  0.623748  0.000000  0.623748  1
  Co  Co13  1  0.376252  0.000000  0.376252  1
  Co  Co14  1  0.111885  0.611894  0.500009  1
  Co  Co15  1  0.888115  0.388106  0.499991  1
  Co  Co16  1  0.000000  0.000000  0.000000  1
  Bi  Bi17  1  0.500000  0.500000  0.000000  1
