# generated using pymatgen
data_Na2SrCa2(OsN3)2
_symmetry_space_group_name_H-M   'P 1'
_cell_length_a   6.14820621
_cell_length_b   6.95800168
_cell_length_c   12.31706143
_cell_angle_alpha   89.99999934
_cell_angle_beta   103.87371918
_cell_angle_gamma   124.46176482
_symmetry_Int_Tables_number   1
_chemical_formula_structural   Na2SrCa2(OsN3)2
_chemical_formula_sum   'Na4 Sr2 Ca4 Os4 N12'
_cell_volume   415.66534548
_cell_formula_units_Z   2
loop_
 _symmetry_equiv_pos_site_id
 _symmetry_equiv_pos_as_xyz
  1  'x, y, z'
loop_
 _atom_site_type_symbol
 _atom_site_label
 _atom_site_symmetry_multiplicity
 _atom_site_fract_x
 _atom_site_fract_y
 _atom_site_fract_z
 _atom_site_occupancy
  Na  Na0  1  0.318647  0.053738  0.734056  1
  Na  Na1  1  0.681353  0.735091  0.765944  1
  Na  Na2  1  0.681353  0.946262  0.265944  1
  Na  Na3  1  0.318647  0.264909  0.234056  1
  Sr  Sr4  1  0.000000  0.399687  0.750000  1
  Sr  Sr5  1  0.000000  0.600313  0.250000  1
  Ca  Ca6  1  0.118859  0.812668  0.998275  1
  Ca  Ca7  1  0.881141  0.693808  0.501725  1
  Ca  Ca8  1  0.881141  0.187332  0.001725  1
  Ca  Ca9  1  0.118859  0.306192  0.498275  1
  Os  Os10  1  0.519178  0.848993  0.532598  1
  Os  Os11  1  0.480822  0.329815  0.967402  1
  Os  Os12  1  0.480822  0.151007  0.467402  1
  Os  Os13  1  0.519178  0.670185  0.032598  1
  N  N14  1  0.886596  0.994690  0.613689  1
  N  N15  1  0.113404  0.108095  0.886311  1
  N  N16  1  0.113404  0.005310  0.386311  1
  N  N17  1  0.886596  0.891905  0.113689  1
  N  N18  1  0.271776  0.682454  0.616891  1
  N  N19  1  0.728224  0.410677  0.883109  1
  N  N20  1  0.728224  0.317546  0.383109  1
  N  N21  1  0.271776  0.589323  0.116891  1
  N  N22  1  0.575099  0.355654  0.592781  1
  N  N23  1  0.424901  0.780554  0.907219  1
  N  N24  1  0.424901  0.644346  0.407219  1
  N  N25  1  0.575099  0.219446  0.092781  1
