# generated using pymatgen
data_Zr6SiGeN2
_symmetry_space_group_name_H-M   'P 1'
_cell_length_a   5.87687580
_cell_length_b   5.87687457
_cell_length_c   8.69017800
_cell_angle_alpha   90.00000000
_cell_angle_beta   90.00000000
_cell_angle_gamma   145.56684189
_symmetry_Int_Tables_number   1
_chemical_formula_structural   Zr6SiGeN2
_chemical_formula_sum   'Zr6 Si1 Ge1 N2'
_cell_volume   169.71159944
_cell_formula_units_Z   1
loop_
 _symmetry_equiv_pos_site_id
 _symmetry_equiv_pos_as_xyz
  1  'x, y, z'
loop_
 _atom_site_type_symbol
 _atom_site_label
 _atom_site_symmetry_multiplicity
 _atom_site_fract_x
 _atom_site_fract_y
 _atom_site_fract_z
 _atom_site_occupancy
  Zr  Zr0  1  0.944888  0.055112  0.750000  1
  Zr  Zr1  1  0.058179  0.941821  0.250000  1
  Zr  Zr2  1  0.629811  0.370189  0.548761  1
  Zr  Zr3  1  0.369168  0.630832  0.446054  1
  Zr  Zr4  1  0.369168  0.630832  0.053946  1
  Zr  Zr5  1  0.629811  0.370189  0.951239  1
  Si  Si6  1  0.745879  0.254121  0.250000  1
  Ge  Ge7  1  0.253059  0.746941  0.750000  1
  N  N8  1  0.000020  0.999980  0.499859  1
  N  N9  1  0.000020  0.999980  0.000141  1
