# generated using pymatgen
data_Er6TmLu3In8
_symmetry_space_group_name_H-M   'P 1'
_cell_length_a   9.17370300
_cell_length_b   9.17370338
_cell_length_c   6.61294500
_cell_angle_alpha   90.00000000
_cell_angle_beta   90.00000000
_cell_angle_gamma   120.00000222
_symmetry_Int_Tables_number   1
_chemical_formula_structural   Er6TmLu3In8
_chemical_formula_sum   'Er6 Tm1 Lu3 In8'
_cell_volume   481.96433528
_cell_formula_units_Z   1
loop_
 _symmetry_equiv_pos_site_id
 _symmetry_equiv_pos_as_xyz
  1  'x, y, z'
loop_
 _atom_site_type_symbol
 _atom_site_label
 _atom_site_symmetry_multiplicity
 _atom_site_fract_x
 _atom_site_fract_y
 _atom_site_fract_z
 _atom_site_occupancy
  Er  Er0  1  0.289608  0.000066  0.750066  1
  Er  Er1  1  0.710458  0.000066  0.249934  1
  Er  Er2  1  0.999934  0.289542  0.750066  1
  Er  Er3  1  0.999934  0.710392  0.249934  1
  Er  Er4  1  0.710458  0.710392  0.750066  1
  Er  Er5  1  0.289608  0.289542  0.249934  1
  Tm  Tm6  1  0.333333  0.666667  0.500000  1
  Lu  Lu7  1  0.666667  0.333333  0.500000  1
  Lu  Lu8  1  0.666667  0.333333  0.000000  1
  Lu  Lu9  1  0.333333  0.666667  0.000000  1
  In  In10  1  0.000000  0.000000  0.500000  1
  In  In11  1  0.000000  0.000000  0.000000  1
  In  In12  1  0.627969  0.000095  0.750053  1
  In  In13  1  0.372127  0.000095  0.249947  1
  In  In14  1  0.999905  0.627873  0.750053  1
  In  In15  1  0.999905  0.372031  0.249947  1
  In  In16  1  0.372127  0.372031  0.750053  1
  In  In17  1  0.627969  0.627873  0.249947  1
