# generated using pymatgen
data_Tb4As6Ir5Rh2
_symmetry_space_group_name_H-M   'P 1'
_cell_length_a   7.32507890
_cell_length_b   7.32507910
_cell_length_c   7.32507877
_cell_angle_alpha   109.60887441
_cell_angle_beta   109.19624375
_cell_angle_gamma   109.60888616
_symmetry_Int_Tables_number   1
_chemical_formula_structural   Tb4As6Ir5Rh2
_chemical_formula_sum   'Tb4 As6 Ir5 Rh2'
_cell_volume   302.55725687
_cell_formula_units_Z   1
loop_
 _symmetry_equiv_pos_site_id
 _symmetry_equiv_pos_as_xyz
  1  'x, y, z'
loop_
 _atom_site_type_symbol
 _atom_site_label
 _atom_site_symmetry_multiplicity
 _atom_site_fract_x
 _atom_site_fract_y
 _atom_site_fract_z
 _atom_site_occupancy
  Tb  Tb0  1  0.500474  0.500000  0.499526  1
  Tb  Tb1  1  0.999526  0.500000  0.000474  1
  Tb  Tb2  1  0.500474  0.000948  0.000474  1
  Tb  Tb3  1  0.999526  0.999052  0.499526  1
  As  As4  1  0.680000  0.000000  0.680000  1
  As  As5  1  0.679898  0.680069  0.999830  1
  As  As6  1  0.319761  0.319931  0.999830  1
  As  As7  1  0.000170  0.680069  0.680239  1
  As  As8  1  0.000170  0.319931  0.320102  1
  As  As9  1  0.320000  0.000000  0.320000  1
  Ir  Ir10  1  0.498925  0.749605  0.248530  1
  Ir  Ir11  1  0.751470  0.250395  0.501075  1
  Ir  Ir12  1  0.250680  0.749605  0.501075  1
  Ir  Ir13  1  0.250000  0.500000  0.750000  1
  Ir  Ir14  1  0.498925  0.250395  0.749320  1
  Rh  Rh15  1  0.000000  0.000000  0.000000  1
  Rh  Rh16  1  0.750000  0.500000  0.250000  1
