# generated using pymatgen
data_Tm6Mn2Fe(Co5P4)3
_symmetry_space_group_name_H-M   'P 1'
_cell_length_a   3.66772100
_cell_length_b   10.50406600
_cell_length_c   12.07924100
_cell_angle_alpha   90.00000000
_cell_angle_beta   90.00000000
_cell_angle_gamma   90.00000000
_symmetry_Int_Tables_number   1
_chemical_formula_structural   Tm6Mn2Fe(Co5P4)3
_chemical_formula_sum   'Tm6 Mn2 Fe1 Co15 P12'
_cell_volume   465.36463890
_cell_formula_units_Z   1
loop_
 _symmetry_equiv_pos_site_id
 _symmetry_equiv_pos_as_xyz
  1  'x, y, z'
loop_
 _atom_site_type_symbol
 _atom_site_label
 _atom_site_symmetry_multiplicity
 _atom_site_fract_x
 _atom_site_fract_y
 _atom_site_fract_z
 _atom_site_occupancy
  Tm  Tm0  1  0.000000  0.500000  0.523479  1
  Tm  Tm1  1  0.500000  0.000000  0.476305  1
  Tm  Tm2  1  0.500000  0.818055  0.204838  1
  Tm  Tm3  1  0.500000  0.181945  0.204838  1
  Tm  Tm4  1  0.000000  0.680109  0.795928  1
  Tm  Tm5  1  0.000000  0.319891  0.795928  1
  Mn  Mn6  1  0.500000  0.500000  0.157836  1
  Mn  Mn7  1  0.000000  0.000000  0.840732  1
  Fe  Fe8  1  0.000000  0.500000  0.988137  1
  Co  Co9  1  0.500000  0.500000  0.701539  1
  Co  Co10  1  0.000000  0.000000  0.298134  1
  Co  Co11  1  0.500000  0.000000  0.013733  1
  Co  Co12  1  0.500000  0.331080  0.993875  1
  Co  Co13  1  0.500000  0.668920  0.993875  1
  Co  Co14  1  0.000000  0.166452  0.006464  1
  Co  Co15  1  0.000000  0.833548  0.006464  1
  Co  Co16  1  0.500000  0.296892  0.430543  1
  Co  Co17  1  0.500000  0.703108  0.430543  1
  Co  Co18  1  0.000000  0.203519  0.569353  1
  Co  Co19  1  0.000000  0.796481  0.569353  1
  Co  Co20  1  0.500000  0.878516  0.708416  1
  Co  Co21  1  0.500000  0.121484  0.708416  1
  Co  Co22  1  0.000000  0.621206  0.291202  1
  Co  Co23  1  0.000000  0.378794  0.291202  1
  P  P24  1  0.500000  0.500000  0.883429  1
  P  P25  1  0.000000  0.000000  0.118471  1
  P  P26  1  0.500000  0.500000  0.344991  1
  P  P27  1  0.000000  0.000000  0.653497  1
  P  P28  1  0.500000  0.312333  0.617003  1
  P  P29  1  0.500000  0.687667  0.617003  1
  P  P30  1  0.000000  0.187900  0.383118  1
  P  P31  1  0.000000  0.812100  0.383118  1
  P  P32  1  0.500000  0.846912  0.891684  1
  P  P33  1  0.500000  0.153088  0.891684  1
  P  P34  1  0.000000  0.652690  0.107434  1
  P  P35  1  0.000000  0.347310  0.107434  1
