# generated using pymatgen
data_AcEu7Sb6
_symmetry_space_group_name_H-M   'P 1'
_cell_length_a   8.48703554
_cell_length_b   8.50830974
_cell_length_c   8.48703455
_cell_angle_alpha   109.52201085
_cell_angle_beta   109.42037594
_cell_angle_gamma   109.52200709
_symmetry_Int_Tables_number   1
_chemical_formula_structural   AcEu7Sb6
_chemical_formula_sum   'Ac1 Eu7 Sb6'
_cell_volume   471.47735663
_cell_formula_units_Z   1
loop_
 _symmetry_equiv_pos_site_id
 _symmetry_equiv_pos_as_xyz
  1  'x, y, z'
loop_
 _atom_site_type_symbol
 _atom_site_label
 _atom_site_symmetry_multiplicity
 _atom_site_fract_x
 _atom_site_fract_y
 _atom_site_fract_z
 _atom_site_occupancy
  Ac  Ac0  1  0.000000  0.142582  0.500000  1
  Eu  Eu1  1  0.142555  0.503499  0.004877  1
  Eu  Eu2  1  0.643545  0.500282  0.000049  1
  Eu  Eu3  1  0.499951  0.000231  0.643495  1
  Eu  Eu4  1  0.362322  0.360944  0.357445  1
  Eu  Eu5  1  0.495123  0.998622  0.137678  1
  Eu  Eu6  1  0.000000  0.640267  0.500000  1
  Eu  Eu7  1  0.856505  0.856736  0.856455  1
  Sb  Sb8  1  0.376280  0.625773  0.750948  1
  Sb  Sb9  1  0.874667  0.249492  0.123720  1
  Sb  Sb10  1  0.620725  0.747050  0.373678  1
  Sb  Sb11  1  0.126322  0.873371  0.247047  1
  Sb  Sb12  1  0.252953  0.126325  0.879275  1
  Sb  Sb13  1  0.749052  0.374825  0.625333  1
