# generated using pymatgen
data_Cs2V11TcTe14
_symmetry_space_group_name_H-M   'P 1'
_cell_length_a   10.35128654
_cell_length_b   10.35014046
_cell_length_c   10.16416176
_cell_angle_alpha   60.94032003
_cell_angle_beta   61.39141939
_cell_angle_gamma   60.93184749
_symmetry_Int_Tables_number   1
_chemical_formula_structural   Cs2V11TcTe14
_chemical_formula_sum   'Cs2 V11 Tc1 Te14'
_cell_volume   788.83620272
_cell_formula_units_Z   1
loop_
 _symmetry_equiv_pos_site_id
 _symmetry_equiv_pos_as_xyz
  1  'x, y, z'
loop_
 _atom_site_type_symbol
 _atom_site_label
 _atom_site_symmetry_multiplicity
 _atom_site_fract_x
 _atom_site_fract_y
 _atom_site_fract_z
 _atom_site_occupancy
  Cs  Cs0  1  0.621339  0.618565  0.622612  1
  Cs  Cs1  1  0.379156  0.379043  0.375325  1
  V  V2  1  0.686092  0.879398  0.017942  1
  V  V3  1  0.013929  0.687940  0.885168  1
  V  V4  1  0.881067  0.009593  0.705996  1
  V  V5  1  0.304742  0.109569  0.993250  1
  V  V6  1  0.986808  0.316417  0.110946  1
  V  V7  1  0.111349  0.988731  0.297352  1
  V  V8  1  0.947606  0.836752  0.070049  1
  V  V9  1  0.116216  0.941281  0.814365  1
  V  V10  1  0.802489  0.115215  0.956287  1
  V  V11  1  0.057539  0.176113  0.909214  1
  V  V12  1  0.899561  0.059243  0.173285  1
  Tc  Tc13  1  0.186427  0.895771  0.054805  1
  Te  Te14  1  0.418727  0.804975  0.173648  1
  Te  Te15  1  0.168727  0.415546  0.808777  1
  Te  Te16  1  0.813299  0.165413  0.415932  1
  Te  Te17  1  0.578506  0.185604  0.840057  1
  Te  Te18  1  0.839587  0.585064  0.190306  1
  Te  Te19  1  0.182944  0.837887  0.581393  1
  Te  Te20  1  0.640739  0.979198  0.246022  1
  Te  Te21  1  0.247647  0.638021  0.981394  1
  Te  Te22  1  0.979471  0.236490  0.649324  1
  Te  Te23  1  0.363784  0.019079  0.754124  1
  Te  Te24  1  0.757351  0.366809  0.015223  1
  Te  Te25  1  0.015664  0.758416  0.354305  1
  Te  Te26  1  0.781090  0.780742  0.776507  1
  Te  Te27  1  0.218147  0.213124  0.226395  1
