# generated using pymatgen
data_Tb4Dy8Co4SnOs
_symmetry_space_group_name_H-M   'P 1'
_cell_length_a   8.32950790
_cell_length_b   8.32950800
_cell_length_c   8.32950768
_cell_angle_alpha   106.64297146
_cell_angle_beta   110.39637176
_cell_angle_gamma   111.41252289
_symmetry_Int_Tables_number   1
_chemical_formula_structural   Tb4Dy8Co4SnOs
_chemical_formula_sum   'Tb4 Dy8 Co4 Sn1 Os1'
_cell_volume   444.02834889
_cell_formula_units_Z   1
loop_
 _symmetry_equiv_pos_site_id
 _symmetry_equiv_pos_as_xyz
  1  'x, y, z'
loop_
 _atom_site_type_symbol
 _atom_site_label
 _atom_site_symmetry_multiplicity
 _atom_site_fract_x
 _atom_site_fract_y
 _atom_site_fract_z
 _atom_site_occupancy
  Tb  Tb0  1  0.468222  0.285194  0.183027  1
  Tb  Tb1  1  0.102167  0.285194  0.816973  1
  Tb  Tb2  1  0.897833  0.714806  0.183027  1
  Tb  Tb3  1  0.531778  0.714806  0.816973  1
  Dy  Dy4  1  0.306606  0.620495  0.313889  1
  Dy  Dy5  1  0.306606  0.992718  0.686111  1
  Dy  Dy6  1  0.693394  0.379505  0.686111  1
  Dy  Dy7  1  0.693394  0.007282  0.313889  1
  Dy  Dy8  1  0.194045  0.214730  0.408775  1
  Dy  Dy9  1  0.805955  0.785270  0.591225  1
  Dy  Dy10  1  0.194045  0.785270  0.979314  1
  Dy  Dy11  1  0.805955  0.214730  0.020686  1
  Co  Co12  1  0.500000  0.611255  0.111255  1
  Co  Co13  1  0.500000  0.388745  0.888745  1
  Co  Co14  1  0.379205  0.000000  0.379205  1
  Co  Co15  1  0.620795  0.000000  0.620795  1
  Sn  Sn16  1  0.000000  0.500000  0.500000  1
  Os  Os17  1  0.000000  0.000000  0.000000  1
