# generated using pymatgen
data_SmTm3(VB4)4
_symmetry_space_group_name_H-M   'P 1'
_cell_length_a   3.43117900
_cell_length_b   5.99055833
_cell_length_c   11.60246340
_cell_angle_alpha   89.90276678
_cell_angle_beta   90.00000000
_cell_angle_gamma   90.00000000
_symmetry_Int_Tables_number   1
_chemical_formula_structural   SmTm3(VB4)4
_chemical_formula_sum   'Sm1 Tm3 V4 B16'
_cell_volume   238.48455498
_cell_formula_units_Z   1
loop_
 _symmetry_equiv_pos_site_id
 _symmetry_equiv_pos_as_xyz
  1  'x, y, z'
loop_
 _atom_site_type_symbol
 _atom_site_label
 _atom_site_symmetry_multiplicity
 _atom_site_fract_x
 _atom_site_fract_y
 _atom_site_fract_z
 _atom_site_occupancy
  Sm  Sm0  1  0.500000  0.375355  0.151792  1
  Tm  Tm1  1  0.500000  0.124124  0.651679  1
  Tm  Tm2  1  0.500000  0.875619  0.348901  1
  Tm  Tm3  1  0.500000  0.624505  0.848008  1
  V  V4  1  0.500000  0.126971  0.915781  1
  V  V5  1  0.500000  0.872365  0.082348  1
  V  V6  1  0.500000  0.627665  0.583437  1
  V  V7  1  0.500000  0.372519  0.418161  1
  B  B8  1  0.000000  0.477206  0.692889  1
  B  B9  1  0.000000  0.525542  0.309538  1
  B  B10  1  0.000000  0.977005  0.806489  1
  B  B11  1  0.000000  0.020347  0.192911  1
  B  B12  1  0.000000  0.287531  0.813392  1
  B  B13  1  0.000000  0.716984  0.186776  1
  B  B14  1  0.000000  0.787327  0.685941  1
  B  B15  1  0.000000  0.211334  0.316199  1
  B  B16  1  0.000000  0.364374  0.965343  1
  B  B17  1  0.000000  0.636505  0.030892  1
  B  B18  1  0.000000  0.865215  0.532992  1
  B  B19  1  0.000000  0.134442  0.468228  1
  B  B20  1  0.000000  0.384539  0.548439  1
  B  B21  1  0.000000  0.616183  0.452950  1
  B  B22  1  0.000000  0.884047  0.950876  1
  B  B23  1  0.000000  0.112295  0.046034  1
