# generated using pymatgen
data_Sr3TlOs6O18F
_symmetry_space_group_name_H-M   'P 1'
_cell_length_a   8.08359651
_cell_length_b   7.96495630
_cell_length_c   8.08359563
_cell_angle_alpha   109.17418191
_cell_angle_beta   109.76661023
_cell_angle_gamma   109.17418820
_symmetry_Int_Tables_number   1
_chemical_formula_structural   Sr3TlOs6O18F
_chemical_formula_sum   'Sr3 Tl1 Os6 O18 F1'
_cell_volume   402.11444439
_cell_formula_units_Z   1
loop_
 _symmetry_equiv_pos_site_id
 _symmetry_equiv_pos_as_xyz
  1  'x, y, z'
loop_
 _atom_site_type_symbol
 _atom_site_label
 _atom_site_symmetry_multiplicity
 _atom_site_fract_x
 _atom_site_fract_y
 _atom_site_fract_z
 _atom_site_occupancy
  Sr  Sr0  1  0.997317  0.997846  0.315667  1
  Sr  Sr1  1  0.684333  0.682179  0.681650  1
  Sr  Sr2  1  0.318350  0.000529  0.002683  1
  Tl  Tl3  1  0.000000  0.334214  0.000000  1
  Os  Os4  1  0.501989  0.363840  0.865284  1
  Os  Os5  1  0.500243  0.637401  0.135322  1
  Os  Os6  1  0.363295  0.861851  0.498011  1
  Os  Os7  1  0.635078  0.137158  0.499757  1
  Os  Os8  1  0.864678  0.502079  0.364922  1
  Os  Os9  1  0.134716  0.498556  0.636705  1
  O  O10  1  0.703768  0.352702  0.069997  1
  O  O11  1  0.647265  0.356556  0.714375  1
  O  O12  1  0.285625  0.642181  0.932889  1
  O  O13  1  0.642275  0.299494  0.362234  1
  O  O14  1  0.355413  0.710399  0.646031  1
  O  O15  1  0.930003  0.282706  0.633772  1
  O  O16  1  0.067111  0.709291  0.352735  1
  O  O17  1  0.001476  0.670881  0.666671  1
  O  O18  1  0.665194  0.669405  0.998524  1
  O  O19  1  0.719959  0.657219  0.357725  1
  O  O20  1  0.353969  0.064369  0.709382  1
  O  O21  1  0.664154  0.993087  0.659327  1
  O  O22  1  0.995174  0.328933  0.335846  1
  O  O23  1  0.637766  0.937259  0.280041  1
  O  O24  1  0.366228  0.648934  0.296232  1
  O  O25  1  0.290618  0.354986  0.644587  1
  O  O26  1  0.333329  0.004210  0.334806  1
  O  O27  1  0.340673  0.333760  0.004826  1
  F  F28  1  0.000000  0.967975  0.000000  1
