# generated using pymatgen
data_TbTm4Zr3(Co4As3)4
_symmetry_space_group_name_H-M   'P 1'
_cell_length_a   12.71036100
_cell_length_b   12.71035994
_cell_length_c   3.81715000
_cell_angle_alpha   90.00000000
_cell_angle_beta   90.00000000
_cell_angle_gamma   120.00000537
_symmetry_Int_Tables_number   1
_chemical_formula_structural   TbTm4Zr3(Co4As3)4
_chemical_formula_sum   'Tb1 Tm4 Zr3 Co16 As12'
_cell_volume   534.05448846
_cell_formula_units_Z   1
loop_
 _symmetry_equiv_pos_site_id
 _symmetry_equiv_pos_as_xyz
  1  'x, y, z'
loop_
 _atom_site_type_symbol
 _atom_site_label
 _atom_site_symmetry_multiplicity
 _atom_site_fract_x
 _atom_site_fract_y
 _atom_site_fract_z
 _atom_site_occupancy
  Tb  Tb0  1  0.666667  0.333333  0.000000  1
  Tm  Tm1  1  0.182470  0.182475  0.500000  1
  Tm  Tm2  1  0.817525  0.999995  0.500000  1
  Tm  Tm3  1  0.000005  0.817530  0.500000  1
  Tm  Tm4  1  0.333333  0.666667  0.000000  1
  Zr  Zr5  1  0.560265  0.560815  0.000000  1
  Zr  Zr6  1  0.439185  0.999451  0.000000  1
  Zr  Zr7  1  0.000549  0.439735  0.000000  1
  Co  Co8  1  0.720548  0.721049  0.500000  1
  Co  Co9  1  0.278951  0.999499  0.500000  1
  Co  Co10  1  0.000501  0.279452  0.500000  1
  Co  Co11  1  0.177859  0.373103  0.000000  1
  Co  Co12  1  0.626897  0.804757  0.000000  1
  Co  Co13  1  0.195243  0.822141  0.000000  1
  Co  Co14  1  0.805004  0.627749  0.000000  1
  Co  Co15  1  0.822745  0.194996  0.000000  1
  Co  Co16  1  0.372251  0.177255  0.000000  1
  Co  Co17  1  0.357144  0.480462  0.500000  1
  Co  Co18  1  0.519538  0.876684  0.500000  1
  Co  Co19  1  0.123316  0.642856  0.500000  1
  Co  Co20  1  0.878141  0.521103  0.500000  1
  Co  Co21  1  0.642963  0.121859  0.500000  1
  Co  Co22  1  0.478897  0.357037  0.500000  1
  Co  Co23  1  0.000000  0.000000  0.000000  1
  As  As24  1  0.823539  0.823821  0.000000  1
  As  As25  1  0.176179  0.999718  0.000000  1
  As  As26  1  0.000282  0.176461  0.000000  1
  As  As27  1  0.174342  0.482810  0.500000  1
  As  As28  1  0.517190  0.691533  0.500000  1
  As  As29  1  0.308467  0.825658  0.500000  1
  As  As30  1  0.691902  0.519005  0.500000  1
  As  As31  1  0.827103  0.308098  0.500000  1
  As  As32  1  0.480995  0.172897  0.500000  1
  As  As33  1  0.350739  0.350708  0.000000  1
  As  As34  1  0.649292  0.000030  0.000000  1
  As  As35  1  0.999970  0.649261  0.000000  1
