# generated using pymatgen
data_ThSc11Co4
_symmetry_space_group_name_H-M   'P 1'
_cell_length_a   5.88292500
_cell_length_b   8.70582700
_cell_length_c   12.98803900
_cell_angle_alpha   90.00000000
_cell_angle_beta   90.00000000
_cell_angle_gamma   90.00000000
_symmetry_Int_Tables_number   1
_chemical_formula_structural   ThSc11Co4
_chemical_formula_sum   'Th2 Sc22 Co8'
_cell_volume   665.19186364
_cell_formula_units_Z   2
loop_
 _symmetry_equiv_pos_site_id
 _symmetry_equiv_pos_as_xyz
  1  'x, y, z'
loop_
 _atom_site_type_symbol
 _atom_site_label
 _atom_site_symmetry_multiplicity
 _atom_site_fract_x
 _atom_site_fract_y
 _atom_site_fract_z
 _atom_site_occupancy
  Th  Th0  1  0.572694  0.750000  0.354979  1
  Th  Th1  1  0.072694  0.250000  0.145021  1
  Sc  Sc2  1  0.450402  0.250000  0.646795  1
  Sc  Sc3  1  0.950402  0.750000  0.853205  1
  Sc  Sc4  1  0.779977  0.750000  0.102160  1
  Sc  Sc5  1  0.279977  0.250000  0.397840  1
  Sc  Sc6  1  0.209802  0.250000  0.888188  1
  Sc  Sc7  1  0.709802  0.750000  0.611812  1
  Sc  Sc8  1  0.402725  0.933281  0.787208  1
  Sc  Sc9  1  0.902725  0.066719  0.712792  1
  Sc  Sc10  1  0.587614  0.430308  0.209892  1
  Sc  Sc11  1  0.087614  0.569692  0.290108  1
  Sc  Sc12  1  0.587614  0.069692  0.209892  1
  Sc  Sc13  1  0.087614  0.930308  0.290108  1
  Sc  Sc14  1  0.402725  0.566719  0.787208  1
  Sc  Sc15  1  0.902725  0.433281  0.712792  1
  Sc  Sc16  1  0.241189  0.936586  0.539450  1
  Sc  Sc17  1  0.741189  0.063414  0.960550  1
  Sc  Sc18  1  0.758700  0.428918  0.468318  1
  Sc  Sc19  1  0.258700  0.571082  0.031682  1
  Sc  Sc20  1  0.758700  0.071082  0.468318  1
  Sc  Sc21  1  0.258700  0.928918  0.031682  1
  Sc  Sc22  1  0.241189  0.563414  0.539450  1
  Sc  Sc23  1  0.741189  0.436586  0.960550  1
  Co  Co24  1  0.957921  0.750000  0.446178  1
  Co  Co25  1  0.457921  0.250000  0.053822  1
  Co  Co26  1  0.049443  0.250000  0.563975  1
  Co  Co27  1  0.549443  0.750000  0.936025  1
  Co  Co28  1  0.376916  0.750000  0.183915  1
  Co  Co29  1  0.876916  0.250000  0.316085  1
  Co  Co30  1  0.622389  0.250000  0.819572  1
  Co  Co31  1  0.122389  0.750000  0.680428  1
