# generated using pymatgen
data_Nd5Bi3(SeO5)4
_symmetry_space_group_name_H-M   'P 1'
_cell_length_a   8.82308419
_cell_length_b   8.88773852
_cell_length_c   11.25979880
_cell_angle_alpha   91.35869613
_cell_angle_beta   88.61610921
_cell_angle_gamma   142.73145969
_symmetry_Int_Tables_number   1
_chemical_formula_structural   Nd5Bi3(SeO5)4
_chemical_formula_sum   'Nd5 Bi3 Se4 O20'
_cell_volume   534.50870397
_cell_formula_units_Z   1
loop_
 _symmetry_equiv_pos_site_id
 _symmetry_equiv_pos_as_xyz
  1  'x, y, z'
loop_
 _atom_site_type_symbol
 _atom_site_label
 _atom_site_symmetry_multiplicity
 _atom_site_fract_x
 _atom_site_fract_y
 _atom_site_fract_z
 _atom_site_occupancy
  Nd  Nd0  1  0.741448  0.248049  0.615831  1
  Nd  Nd1  1  0.247526  0.750583  0.385253  1
  Nd  Nd2  1  0.249329  0.748233  0.883638  1
  Nd  Nd3  1  0.752098  0.247627  0.119387  1
  Nd  Nd4  1  0.885032  0.069651  0.372525  1
  Bi  Bi5  1  0.059968  0.915987  0.597122  1
  Bi  Bi6  1  0.364798  0.572432  0.612698  1
  Bi  Bi7  1  0.568716  0.409898  0.399711  1
  Se  Se8  1  0.390609  0.577703  0.122142  1
  Se  Se9  1  0.580622  0.385987  0.871170  1
  Se  Se10  1  0.884947  0.075076  0.871204  1
  Se  Se11  1  0.066866  0.876859  0.136792  1
  O  O12  1  0.145910  0.450409  0.215524  1
  O  O13  1  0.465546  0.135333  0.792861  1
  O  O14  1  0.651316  0.975778  0.787654  1
  O  O15  1  0.978765  0.644210  0.214369  1
  O  O16  1  0.566300  0.903731  0.511263  1
  O  O17  1  0.897193  0.579704  0.504038  1
  O  O18  1  0.070722  0.406930  0.486888  1
  O  O19  1  0.397339  0.081610  0.499453  1
  O  O20  1  0.131086  0.578255  0.709339  1
  O  O21  1  0.635102  0.079861  0.291588  1
  O  O22  1  0.483161  0.816156  0.049784  1
  O  O23  1  0.834911  0.506466  0.946952  1
  O  O24  1  0.166984  0.072266  0.249372  1
  O  O25  1  0.107991  0.211674  0.767239  1
  O  O26  1  0.722787  0.592280  0.761054  1
  O  O27  1  0.622440  0.732207  0.221594  1
  O  O28  1  0.242874  0.254411  0.494242  1
  O  O29  1  0.748336  0.753368  0.488159  1
  O  O30  1  0.342149  0.027273  0.067807  1
  O  O31  1  0.002173  0.325036  0.953350  1
