# generated using pymatgen
data_Er4Ga7Au5
_symmetry_space_group_name_H-M   'P 1'
_cell_length_a   4.35887000
_cell_length_b   6.88774529
_cell_length_c   10.34406068
_cell_angle_alpha   90.73331172
_cell_angle_beta   90.00000000
_cell_angle_gamma   90.00000000
_symmetry_Int_Tables_number   1
_chemical_formula_structural   Er4Ga7Au5
_chemical_formula_sum   'Er4 Ga7 Au5'
_cell_volume   310.53208814
_cell_formula_units_Z   1
loop_
 _symmetry_equiv_pos_site_id
 _symmetry_equiv_pos_as_xyz
  1  'x, y, z'
loop_
 _atom_site_type_symbol
 _atom_site_label
 _atom_site_symmetry_multiplicity
 _atom_site_fract_x
 _atom_site_fract_y
 _atom_site_fract_z
 _atom_site_occupancy
  Er  Er0  1  0.500000  0.764509  0.176175  1
  Er  Er1  1  0.500000  0.263053  0.332561  1
  Er  Er2  1  0.000000  0.236813  0.830361  1
  Er  Er3  1  0.000000  0.742824  0.661614  1
  Ga  Ga4  1  0.500000  0.932949  0.849825  1
  Ga  Ga5  1  0.500000  0.434776  0.654113  1
  Ga  Ga6  1  0.000000  0.068607  0.144944  1
  Ga  Ga7  1  0.000000  0.564107  0.351068  1
  Ga  Ga8  1  0.500000  0.210283  0.036685  1
  Ga  Ga9  1  0.000000  0.288287  0.539053  1
  Ga  Ga10  1  0.000000  0.787767  0.962004  1
  Au  Au11  1  0.500000  0.547210  0.898701  1
  Au  Au12  1  0.500000  0.051396  0.608138  1
  Au  Au13  1  0.000000  0.455287  0.106786  1
  Au  Au14  1  0.000000  0.959775  0.386397  1
  Au  Au15  1  0.500000  0.692359  0.461575  1
