# generated using pymatgen
data_Er10In8CuRuRh2
_symmetry_space_group_name_H-M   'P 1'
_cell_length_a   3.57968300
_cell_length_b   8.03393996
_cell_length_c   18.11745610
_cell_angle_alpha   90.13775362
_cell_angle_beta   90.00000000
_cell_angle_gamma   90.00000000
_symmetry_Int_Tables_number   1
_chemical_formula_structural   Er10In8CuRuRh2
_chemical_formula_sum   'Er10 In8 Cu1 Ru1 Rh2'
_cell_volume   521.03765894
_cell_formula_units_Z   1
loop_
 _symmetry_equiv_pos_site_id
 _symmetry_equiv_pos_as_xyz
  1  'x, y, z'
loop_
 _atom_site_type_symbol
 _atom_site_label
 _atom_site_symmetry_multiplicity
 _atom_site_fract_x
 _atom_site_fract_y
 _atom_site_fract_z
 _atom_site_occupancy
  Er  Er0  1  0.000000  0.117263  0.413160  1
  Er  Er1  1  0.000000  0.882265  0.587331  1
  Er  Er2  1  0.000000  0.383814  0.912905  1
  Er  Er3  1  0.000000  0.620452  0.086513  1
  Er  Er4  1  0.000000  0.228177  0.221808  1
  Er  Er5  1  0.000000  0.755107  0.778812  1
  Er  Er6  1  0.000000  0.254197  0.721610  1
  Er  Er7  1  0.000000  0.758900  0.279590  1
  Er  Er8  1  0.000000  0.000954  0.999920  1
  Er  Er9  1  0.000000  0.499852  0.498957  1
  In  In10  1  0.500000  0.424321  0.348552  1
  In  In11  1  0.500000  0.569515  0.649424  1
  In  In12  1  0.500000  0.072739  0.850286  1
  In  In13  1  0.500000  0.929101  0.148970  1
  In  In14  1  0.500000  0.296007  0.067526  1
  In  In15  1  0.500000  0.707759  0.932634  1
  In  In16  1  0.500000  0.208188  0.567856  1
  In  In17  1  0.500000  0.794181  0.431431  1
  Cu  Cu18  1  0.500000  0.519722  0.197863  1
  Ru  Ru19  1  0.500000  0.023146  0.304234  1
  Rh  Rh20  1  0.500000  0.977305  0.695835  1
  Rh  Rh21  1  0.500000  0.477033  0.804784  1
