# generated using pymatgen
data_Ac16Cd4NiOs3
_symmetry_space_group_name_H-M   'P 1'
_cell_length_a   10.46431597
_cell_length_b   10.60464128
_cell_length_c   10.60464200
_cell_angle_alpha   59.99999775
_cell_angle_beta   59.55540182
_cell_angle_gamma   59.55540438
_symmetry_Int_Tables_number   1
_chemical_formula_structural   Ac16Cd4NiOs3
_chemical_formula_sum   'Ac16 Cd4 Ni1 Os3'
_cell_volume   826.48774010
_cell_formula_units_Z   1
loop_
 _symmetry_equiv_pos_site_id
 _symmetry_equiv_pos_as_xyz
  1  'x, y, z'
loop_
 _atom_site_type_symbol
 _atom_site_label
 _atom_site_symmetry_multiplicity
 _atom_site_fract_x
 _atom_site_fract_y
 _atom_site_fract_z
 _atom_site_occupancy
  Ac  Ac0  1  0.595999  0.595047  0.595047  1
  Ac  Ac1  1  0.595999  0.595047  0.213907  1
  Ac  Ac2  1  0.595999  0.213907  0.595047  1
  Ac  Ac3  1  0.218949  0.593684  0.593684  1
  Ac  Ac4  1  0.061650  0.439384  0.439384  1
  Ac  Ac5  1  0.437964  0.061936  0.061936  1
  Ac  Ac6  1  0.437964  0.061936  0.438165  1
  Ac  Ac7  1  0.061650  0.439384  0.059581  1
  Ac  Ac8  1  0.437964  0.438165  0.061936  1
  Ac  Ac9  1  0.061650  0.059581  0.439384  1
  Ac  Ac10  1  0.188741  0.810878  0.810878  1
  Ac  Ac11  1  0.805992  0.189527  0.189527  1
  Ac  Ac12  1  0.805992  0.189527  0.814955  1
  Ac  Ac13  1  0.188741  0.810878  0.189503  1
  Ac  Ac14  1  0.805992  0.814955  0.189527  1
  Ac  Ac15  1  0.188741  0.189503  0.810878  1
  Cd  Cd16  1  0.827430  0.829482  0.829482  1
  Cd  Cd17  1  0.827430  0.829482  0.513606  1
  Cd  Cd18  1  0.827430  0.513606  0.829482  1
  Cd  Cd19  1  0.515552  0.828149  0.828149  1
  Ni  Ni20  1  0.832688  0.389104  0.389104  1
  Os  Os21  1  0.393162  0.387587  0.387587  1
  Os  Os22  1  0.393162  0.387587  0.831663  1
  Os  Os23  1  0.393162  0.831663  0.387587  1
