# generated using pymatgen
data_DyY2Zn3Ge2Pt
_symmetry_space_group_name_H-M   'P 1'
_cell_length_a   6.94756076
_cell_length_b   6.94192490
_cell_length_c   4.27951400
_cell_angle_alpha   90.00000000
_cell_angle_beta   90.00000000
_cell_angle_gamma   119.97316984
_symmetry_Int_Tables_number   1
_chemical_formula_structural   DyY2Zn3Ge2Pt
_chemical_formula_sum   'Dy1 Y2 Zn3 Ge2 Pt1'
_cell_volume   178.79472424
_cell_formula_units_Z   1
loop_
 _symmetry_equiv_pos_site_id
 _symmetry_equiv_pos_as_xyz
  1  'x, y, z'
loop_
 _atom_site_type_symbol
 _atom_site_label
 _atom_site_symmetry_multiplicity
 _atom_site_fract_x
 _atom_site_fract_y
 _atom_site_fract_z
 _atom_site_occupancy
  Dy  Dy0  1  0.000000  0.587397  0.500000  1
  Y  Y1  1  0.413343  0.413378  0.500000  1
  Y  Y2  1  0.586657  0.000034  0.500000  1
  Zn  Zn3  1  0.763318  0.763310  0.000000  1
  Zn  Zn4  1  0.236682  0.999992  0.000000  1
  Zn  Zn5  1  0.000000  0.236707  0.000000  1
  Ge  Ge6  1  0.667249  0.333823  0.000000  1
  Ge  Ge7  1  0.332751  0.666574  0.000000  1
  Pt  Pt8  1  0.000000  0.998784  0.500000  1
