# generated using pymatgen
data_Pr3Mg2InPdPb2
_symmetry_space_group_name_H-M   'P 1'
_cell_length_a   7.72899691
_cell_length_b   7.72899726
_cell_length_c   4.68326700
_cell_angle_alpha   90.00000000
_cell_angle_beta   90.00000000
_cell_angle_gamma   119.88467568
_symmetry_Int_Tables_number   1
_chemical_formula_structural   Pr3Mg2InPdPb2
_chemical_formula_sum   'Pr3 Mg2 In1 Pd1 Pb2'
_cell_volume   242.56567895
_cell_formula_units_Z   1
loop_
 _symmetry_equiv_pos_site_id
 _symmetry_equiv_pos_as_xyz
  1  'x, y, z'
loop_
 _atom_site_type_symbol
 _atom_site_label
 _atom_site_symmetry_multiplicity
 _atom_site_fract_x
 _atom_site_fract_y
 _atom_site_fract_z
 _atom_site_occupancy
  Pr  Pr0  1  0.400208  0.400208  0.500000  1
  Pr  Pr1  1  0.602668  0.998694  0.500000  1
  Pr  Pr2  1  0.998694  0.602668  0.500000  1
  Mg  Mg3  1  0.227437  0.001464  0.000000  1
  Mg  Mg4  1  0.001464  0.227437  0.000000  1
  In  In5  1  0.773613  0.773613  0.000000  1
  Pd  Pd6  1  0.002963  0.002963  0.500000  1
  Pb  Pb7  1  0.664670  0.328284  0.000000  1
  Pb  Pb8  1  0.328284  0.664670  0.000000  1
