# generated using pymatgen
data_Dy5Y19Te12
_symmetry_space_group_name_H-M   'P 1'
_cell_length_a   4.08264400
_cell_length_b   11.55913702
_cell_length_c   22.24113804
_cell_angle_alpha   90.00667454
_cell_angle_beta   90.00000000
_cell_angle_gamma   90.00000000
_symmetry_Int_Tables_number   1
_chemical_formula_structural   Dy5Y19Te12
_chemical_formula_sum   'Dy5 Y19 Te12'
_cell_volume   1049.60025167
_cell_formula_units_Z   1
loop_
 _symmetry_equiv_pos_site_id
 _symmetry_equiv_pos_as_xyz
  1  'x, y, z'
loop_
 _atom_site_type_symbol
 _atom_site_label
 _atom_site_symmetry_multiplicity
 _atom_site_fract_x
 _atom_site_fract_y
 _atom_site_fract_z
 _atom_site_occupancy
  Dy  Dy0  1  0.250000  0.085221  0.646714  1
  Dy  Dy1  1  0.250000  0.612884  0.983015  1
  Dy  Dy2  1  0.750000  0.387188  0.016978  1
  Dy  Dy3  1  0.750000  0.112855  0.517064  1
  Dy  Dy4  1  0.250000  0.887133  0.483018  1
  Y  Y5  1  0.250000  0.151774  0.391447  1
  Y  Y6  1  0.750000  0.848385  0.608573  1
  Y  Y7  1  0.750000  0.651760  0.108555  1
  Y  Y8  1  0.250000  0.348220  0.891436  1
  Y  Y9  1  0.250000  0.456213  0.339953  1
  Y  Y10  1  0.750000  0.543757  0.660050  1
  Y  Y11  1  0.750000  0.956206  0.160052  1
  Y  Y12  1  0.250000  0.043761  0.839985  1
  Y  Y13  1  0.250000  0.734328  0.233482  1
  Y  Y14  1  0.750000  0.265647  0.766501  1
  Y  Y15  1  0.750000  0.234326  0.266526  1
  Y  Y16  1  0.250000  0.765678  0.733479  1
  Y  Y17  1  0.250000  0.115798  0.034324  1
  Y  Y18  1  0.750000  0.884196  0.965668  1
  Y  Y19  1  0.750000  0.615788  0.465667  1
  Y  Y20  1  0.250000  0.384200  0.534332  1
  Y  Y21  1  0.250000  0.414709  0.146781  1
  Y  Y22  1  0.750000  0.585278  0.853224  1
  Y  Y23  1  0.750000  0.914702  0.353222  1
  Te  Te24  1  0.250000  0.850528  0.068975  1
  Te  Te25  1  0.750000  0.149469  0.931029  1
  Te  Te26  1  0.750000  0.350523  0.431026  1
  Te  Te27  1  0.250000  0.649488  0.568983  1
  Te  Te28  1  0.250000  0.712025  0.372750  1
  Te  Te29  1  0.750000  0.287877  0.627234  1
  Te  Te30  1  0.750000  0.212028  0.127257  1
  Te  Te31  1  0.250000  0.787960  0.872745  1
  Te  Te32  1  0.250000  0.020582  0.260977  1
  Te  Te33  1  0.750000  0.979498  0.738974  1
  Te  Te34  1  0.750000  0.520578  0.239027  1
  Te  Te35  1  0.250000  0.479437  0.760978  1
