# generated using pymatgen
data_Tb6InSn5Pd6
_symmetry_space_group_name_H-M   'P 1'
_cell_length_a   7.70580600
_cell_length_b   7.72167604
_cell_length_c   7.77512003
_cell_angle_alpha   89.98280304
_cell_angle_beta   90.00000000
_cell_angle_gamma   119.93203583
_symmetry_Int_Tables_number   1
_chemical_formula_structural   Tb6InSn5Pd6
_chemical_formula_sum   'Tb6 In1 Sn5 Pd6'
_cell_volume   400.92614348
_cell_formula_units_Z   1
loop_
 _symmetry_equiv_pos_site_id
 _symmetry_equiv_pos_as_xyz
  1  'x, y, z'
loop_
 _atom_site_type_symbol
 _atom_site_label
 _atom_site_symmetry_multiplicity
 _atom_site_fract_x
 _atom_site_fract_y
 _atom_site_fract_z
 _atom_site_occupancy
  Tb  Tb0  1  0.408533  0.005437  0.248234  1
  Tb  Tb1  1  0.598128  0.593919  0.248557  1
  Tb  Tb2  1  0.994133  0.401310  0.248541  1
  Tb  Tb3  1  0.403097  0.994563  0.751766  1
  Tb  Tb4  1  0.592823  0.598690  0.751459  1
  Tb  Tb5  1  0.004209  0.406081  0.751443  1
  In  In6  1  0.739704  0.000000  0.000000  1
  Sn  Sn7  1  0.264405  0.263473  0.500185  1
  Sn  Sn8  1  0.000933  0.736527  0.499815  1
  Sn  Sn9  1  0.997660  0.742044  0.999843  1
  Sn  Sn10  1  0.255616  0.257956  0.000157  1
  Sn  Sn11  1  0.738002  0.000000  0.500000  1
  Pd  Pd12  1  0.331203  0.665755  0.009570  1
  Pd  Pd13  1  0.333403  0.666350  0.489716  1
  Pd  Pd14  1  0.665449  0.334245  0.990430  1
  Pd  Pd15  1  0.667054  0.333650  0.510284  1
  Pd  Pd16  1  0.002930  0.000214  0.254719  1
  Pd  Pd17  1  0.002717  0.999786  0.745281  1
