# generated using pymatgen
data_TbDy5TcRh
_symmetry_space_group_name_H-M   'P 1'
_cell_length_a   6.32025700
_cell_length_b   7.31458200
_cell_length_c   9.24641600
_cell_angle_alpha   90.00000000
_cell_angle_beta   90.00000000
_cell_angle_gamma   90.00000000
_symmetry_Int_Tables_number   1
_chemical_formula_structural   TbDy5TcRh
_chemical_formula_sum   'Tb2 Dy10 Tc2 Rh2'
_cell_volume   427.46216385
_cell_formula_units_Z   2
loop_
 _symmetry_equiv_pos_site_id
 _symmetry_equiv_pos_as_xyz
  1  'x, y, z'
loop_
 _atom_site_type_symbol
 _atom_site_label
 _atom_site_symmetry_multiplicity
 _atom_site_fract_x
 _atom_site_fract_y
 _atom_site_fract_z
 _atom_site_occupancy
  Tb  Tb0  1  0.138053  0.459475  0.750000  1
  Tb  Tb1  1  0.361947  0.959475  0.750000  1
  Dy  Dy2  1  0.327987  0.678052  0.067888  1
  Dy  Dy3  1  0.172013  0.178052  0.432112  1
  Dy  Dy4  1  0.665692  0.322396  0.560265  1
  Dy  Dy5  1  0.834308  0.822396  0.939735  1
  Dy  Dy6  1  0.665692  0.322396  0.939735  1
  Dy  Dy7  1  0.834308  0.822396  0.560265  1
  Dy  Dy8  1  0.327987  0.678052  0.432112  1
  Dy  Dy9  1  0.172013  0.178052  0.067888  1
  Dy  Dy10  1  0.870215  0.537608  0.250000  1
  Dy  Dy11  1  0.629785  0.037608  0.250000  1
  Tc  Tc12  1  0.037738  0.886624  0.250000  1
  Tc  Tc13  1  0.462262  0.386624  0.250000  1
  Rh  Rh14  1  0.949325  0.115397  0.750000  1
  Rh  Rh15  1  0.550675  0.615397  0.750000  1
