# generated using pymatgen
data_Ce8Al8Os5Ru3
_symmetry_space_group_name_H-M   'P 1'
_cell_length_a   4.13471600
_cell_length_b   7.17569128
_cell_length_c   15.81059161
_cell_angle_alpha   90.03178466
_cell_angle_beta   90.00000000
_cell_angle_gamma   90.00000000
_symmetry_Int_Tables_number   1
_chemical_formula_structural   Ce8Al8Os5Ru3
_chemical_formula_sum   'Ce8 Al8 Os5 Ru3'
_cell_volume   469.09141434
_cell_formula_units_Z   1
loop_
 _symmetry_equiv_pos_site_id
 _symmetry_equiv_pos_as_xyz
  1  'x, y, z'
loop_
 _atom_site_type_symbol
 _atom_site_label
 _atom_site_symmetry_multiplicity
 _atom_site_fract_x
 _atom_site_fract_y
 _atom_site_fract_z
 _atom_site_occupancy
  Ce  Ce0  1  0.750000  0.955685  0.219052  1
  Ce  Ce1  1  0.250000  0.169343  0.561441  1
  Ce  Ce2  1  0.750000  0.833618  0.438919  1
  Ce  Ce3  1  0.750000  0.456015  0.281105  1
  Ce  Ce4  1  0.750000  0.332156  0.061477  1
  Ce  Ce5  1  0.250000  0.666831  0.939183  1
  Ce  Ce6  1  0.250000  0.043699  0.781139  1
  Ce  Ce7  1  0.250000  0.545031  0.719009  1
  Al  Al8  1  0.750000  0.503277  0.563052  1
  Al  Al9  1  0.750000  0.368720  0.850073  1
  Al  Al10  1  0.750000  0.003258  0.936471  1
  Al  Al11  1  0.750000  0.865799  0.651232  1
  Al  Al12  1  0.250000  0.496148  0.436419  1
  Al  Al13  1  0.250000  0.996415  0.062946  1
  Al  Al14  1  0.250000  0.634062  0.150745  1
  Al  Al15  1  0.250000  0.131183  0.350200  1
  Os  Os16  1  0.750000  0.742775  0.815986  1
  Os  Os17  1  0.250000  0.236029  0.934342  1
  Os  Os18  1  0.750000  0.263503  0.434449  1
  Os  Os19  1  0.250000  0.756533  0.317014  1
  Os  Os20  1  0.750000  0.763683  0.065584  1
  Ru  Ru21  1  0.750000  0.242236  0.682089  1
  Ru  Ru22  1  0.250000  0.258128  0.182611  1
  Ru  Ru23  1  0.250000  0.735873  0.565461  1
