# generated using pymatgen
data_Ce4B4SbIr8Ru
_symmetry_space_group_name_H-M   'P 1'
_cell_length_a   10.88656639
_cell_length_b   10.88080878
_cell_length_c   10.88656664
_cell_angle_alpha   29.82067496
_cell_angle_beta   29.66535463
_cell_angle_gamma   29.82067531
_symmetry_Int_Tables_number   1
_chemical_formula_structural   Ce4B4SbIr8Ru
_chemical_formula_sum   'Ce4 B4 Sb1 Ir8 Ru1'
_cell_volume   281.48622591
_cell_formula_units_Z   1
loop_
 _symmetry_equiv_pos_site_id
 _symmetry_equiv_pos_as_xyz
  1  'x, y, z'
loop_
 _atom_site_type_symbol
 _atom_site_label
 _atom_site_symmetry_multiplicity
 _atom_site_fract_x
 _atom_site_fract_y
 _atom_site_fract_z
 _atom_site_occupancy
  Ce  Ce0  1  0.146426  0.146121  0.146426  1
  Ce  Ce1  1  0.950768  0.950841  0.950768  1
  Ce  Ce2  1  0.853574  0.853879  0.853574  1
  Ce  Ce3  1  0.049232  0.049159  0.049232  1
  B  B4  1  0.615879  0.619723  0.615879  1
  B  B5  1  0.715003  0.718750  0.715003  1
  B  B6  1  0.384121  0.380277  0.384121  1
  B  B7  1  0.284997  0.281250  0.284997  1
  Sb  Sb8  1  0.500000  0.500000  0.500000  1
  Ir  Ir9  1  0.403468  0.906883  0.403468  1
  Ir  Ir10  1  0.907325  0.402729  0.403018  1
  Ir  Ir11  1  0.500000  0.500000  0.000000  1
  Ir  Ir12  1  0.000000  0.500000  0.500000  1
  Ir  Ir13  1  0.596532  0.093117  0.596532  1
  Ir  Ir14  1  0.596982  0.597271  0.092675  1
  Ir  Ir15  1  0.092675  0.597271  0.596982  1
  Ir  Ir16  1  0.403018  0.402729  0.907325  1
  Ru  Ru17  1  0.500000  0.000000  0.500000  1
