# generated using pymatgen
data_KRb7(GeAu8)2
_symmetry_space_group_name_H-M   'P 1'
_cell_length_a   11.02008276
_cell_length_b   11.02008215
_cell_length_c   10.49195175
_cell_angle_alpha   76.99715240
_cell_angle_beta   76.99714814
_cell_angle_gamma   35.99028186
_symmetry_Int_Tables_number   1
_chemical_formula_structural   KRb7(GeAu8)2
_chemical_formula_sum   'K1 Rb7 Ge2 Au16'
_cell_volume   727.50670720
_cell_formula_units_Z   1
loop_
 _symmetry_equiv_pos_site_id
 _symmetry_equiv_pos_as_xyz
  1  'x, y, z'
loop_
 _atom_site_type_symbol
 _atom_site_label
 _atom_site_symmetry_multiplicity
 _atom_site_fract_x
 _atom_site_fract_y
 _atom_site_fract_z
 _atom_site_occupancy
  K  K0  1  0.960129  0.960129  0.354950  1
  Rb  Rb1  1  0.480230  0.480230  0.841252  1
  Rb  Rb2  1  0.519449  0.519449  0.158729  1
  Rb  Rb3  1  0.283719  0.283719  0.916285  1
  Rb  Rb4  1  0.716306  0.716306  0.083765  1
  Rb  Rb5  1  0.220730  0.220730  0.601479  1
  Rb  Rb6  1  0.780056  0.780056  0.398295  1
  Rb  Rb7  1  0.041252  0.041252  0.645131  1
  Ge  Ge8  1  0.664810  0.664810  0.770291  1
  Ge  Ge9  1  0.334736  0.334736  0.229539  1
  Au  Au10  1  0.786666  0.786666  0.732901  1
  Au  Au11  1  0.212861  0.212861  0.266986  1
  Au  Au12  1  0.620573  0.620573  0.571267  1
  Au  Au13  1  0.379792  0.379792  0.427482  1
  Au  Au14  1  0.499940  0.499940  0.499313  1
  Au  Au15  1  0.999957  0.999957  0.002450  1
  Au  Au16  1  0.108623  0.108623  0.143426  1
  Au  Au17  1  0.890098  0.890098  0.858054  1
  Au  Au18  1  0.844340  0.372403  0.357322  1
  Au  Au19  1  0.629091  0.153663  0.640782  1
  Au  Au20  1  0.153663  0.629091  0.640782  1
  Au  Au21  1  0.372403  0.844340  0.357322  1
  Au  Au22  1  0.089624  0.672026  0.095304  1
  Au  Au23  1  0.328356  0.910568  0.905795  1
  Au  Au24  1  0.910568  0.328356  0.905795  1
  Au  Au25  1  0.672026  0.089624  0.095304  1
