# generated using pymatgen
data_Lu5In2PbSe
_symmetry_space_group_name_H-M   'P 1'
_cell_length_a   8.94835600
_cell_length_b   8.94835635
_cell_length_c   6.65617800
_cell_angle_alpha   90.00000000
_cell_angle_beta   90.00000000
_cell_angle_gamma   120.23812586
_symmetry_Int_Tables_number   1
_chemical_formula_structural   Lu5In2PbSe
_chemical_formula_sum   'Lu10 In4 Pb2 Se2'
_cell_volume   460.46325423
_cell_formula_units_Z   2
loop_
 _symmetry_equiv_pos_site_id
 _symmetry_equiv_pos_as_xyz
  1  'x, y, z'
loop_
 _atom_site_type_symbol
 _atom_site_label
 _atom_site_symmetry_multiplicity
 _atom_site_fract_x
 _atom_site_fract_y
 _atom_site_fract_z
 _atom_site_occupancy
  Lu  Lu0  1  0.667909  0.333212  0.995211  1
  Lu  Lu1  1  0.333212  0.667909  0.995211  1
  Lu  Lu2  1  0.333212  0.667909  0.504789  1
  Lu  Lu3  1  0.667909  0.333212  0.504789  1
  Lu  Lu4  1  0.748877  0.748877  0.750000  1
  Lu  Lu5  1  0.253392  0.999067  0.750000  1
  Lu  Lu6  1  0.999067  0.253392  0.750000  1
  Lu  Lu7  1  0.249351  0.249351  0.250000  1
  Lu  Lu8  1  0.746214  0.996965  0.250000  1
  Lu  Lu9  1  0.996965  0.746214  0.250000  1
  In  In10  1  0.402594  0.402594  0.750000  1
  In  In11  1  0.602597  0.001008  0.750000  1
  In  In12  1  0.001008  0.602597  0.750000  1
  In  In13  1  0.598028  0.598028  0.250000  1
  Pb  Pb14  1  0.398226  0.001191  0.250000  1
  Pb  Pb15  1  0.001191  0.398226  0.250000  1
  Se  Se16  1  0.000125  0.000125  0.000899  1
  Se  Se17  1  0.000125  0.000125  0.499101  1
