# generated using pymatgen
data_Pa2BOs6
_symmetry_space_group_name_H-M   'P 1'
_cell_length_a   5.86376299
_cell_length_b   5.86376222
_cell_length_c   5.86376300
_cell_angle_alpha   60.00000127
_cell_angle_beta   60.00000560
_cell_angle_gamma   60.00000591
_symmetry_Int_Tables_number   1
_chemical_formula_structural   Pa2BOs6
_chemical_formula_sum   'Pa2 B1 Os6'
_cell_volume   142.56542481
_cell_formula_units_Z   1
loop_
 _symmetry_equiv_pos_site_id
 _symmetry_equiv_pos_as_xyz
  1  'x, y, z'
loop_
 _atom_site_type_symbol
 _atom_site_label
 _atom_site_symmetry_multiplicity
 _atom_site_fract_x
 _atom_site_fract_y
 _atom_site_fract_z
 _atom_site_occupancy
  Pa  Pa0  1  0.250000  0.250000  0.250000  1
  Pa  Pa1  1  0.750000  0.750000  0.750000  1
  B  B2  1  0.499999  0.499999  0.499999  1
  Os  Os3  1  0.242943  0.757056  0.242943  1
  Os  Os4  1  0.757056  0.757056  0.242943  1
  Os  Os5  1  0.757056  0.242943  0.242943  1
  Os  Os6  1  0.757056  0.242943  0.757056  1
  Os  Os7  1  0.242943  0.242943  0.757056  1
  Os  Os8  1  0.242943  0.757056  0.757056  1
