# generated using pymatgen
data_Er20Co3Bi8Ru
_symmetry_space_group_name_H-M   'P 1'
_cell_length_a   7.90596501
_cell_length_b   8.87230600
_cell_length_c   12.31388836
_cell_angle_alpha   90.00000000
_cell_angle_beta   90.09366466
_cell_angle_gamma   90.00000000
_symmetry_Int_Tables_number   1
_chemical_formula_structural   Er20Co3Bi8Ru
_chemical_formula_sum   'Er20 Co3 Bi8 Ru1'
_cell_volume   863.74596476
_cell_formula_units_Z   1
loop_
 _symmetry_equiv_pos_site_id
 _symmetry_equiv_pos_as_xyz
  1  'x, y, z'
loop_
 _atom_site_type_symbol
 _atom_site_label
 _atom_site_symmetry_multiplicity
 _atom_site_fract_x
 _atom_site_fract_y
 _atom_site_fract_z
 _atom_site_occupancy
  Er  Er0  1  0.653359  0.750000  0.699570  1
  Er  Er1  1  0.346718  0.250000  0.300532  1
  Er  Er2  1  0.155117  0.250000  0.798372  1
  Er  Er3  1  0.843569  0.750000  0.205833  1
  Er  Er4  1  0.119095  0.750000  0.808751  1
  Er  Er5  1  0.884097  0.250000  0.188279  1
  Er  Er6  1  0.616480  0.250000  0.688760  1
  Er  Er7  1  0.382845  0.750000  0.311838  1
  Er  Er8  1  0.553064  0.750000  0.997401  1
  Er  Er9  1  0.445823  0.250000  0.001837  1
  Er  Er10  1  0.054466  0.250000  0.502829  1
  Er  Er11  1  0.946649  0.750000  0.498115  1
  Er  Er12  1  0.824439  0.455387  0.935339  1
  Er  Er13  1  0.174669  0.535654  0.064457  1
  Er  Er14  1  0.326017  0.537622  0.562973  1
  Er  Er15  1  0.174669  0.964346  0.064457  1
  Er  Er16  1  0.674933  0.461730  0.436562  1
  Er  Er17  1  0.824439  0.044613  0.935339  1
  Er  Er18  1  0.674933  0.038270  0.436562  1
  Er  Er19  1  0.326017  0.962378  0.562973  1
  Co  Co20  1  0.069555  0.250000  0.008232  1
  Co  Co21  1  0.434792  0.250000  0.508223  1
  Co  Co22  1  0.566073  0.750000  0.491309  1
  Bi  Bi23  1  0.929772  0.008666  0.673265  1
  Bi  Bi24  1  0.070035  0.991612  0.327123  1
  Bi  Bi25  1  0.429444  0.990531  0.826679  1
  Bi  Bi26  1  0.070035  0.508388  0.327123  1
  Bi  Bi27  1  0.569889  0.009281  0.172919  1
  Bi  Bi28  1  0.929772  0.491334  0.673265  1
  Bi  Bi29  1  0.569889  0.490719  0.172919  1
  Bi  Bi30  1  0.429444  0.509469  0.826679  1
  Ru  Ru31  1  0.929905  0.750000  0.991490  1
