# generated using pymatgen
data_Tm17Zr2InIr12
_symmetry_space_group_name_H-M   'P 1'
_cell_length_a   10.73210000
_cell_length_b   10.73210000
_cell_length_c   6.22593000
_cell_angle_alpha   90.00000000
_cell_angle_beta   90.00000000
_cell_angle_gamma   90.00000000
_symmetry_Int_Tables_number   1
_chemical_formula_structural   Tm17Zr2InIr12
_chemical_formula_sum   'Tm17 Zr2 In1 Ir12'
_cell_volume   717.08998131
_cell_formula_units_Z   1
loop_
 _symmetry_equiv_pos_site_id
 _symmetry_equiv_pos_as_xyz
  1  'x, y, z'
loop_
 _atom_site_type_symbol
 _atom_site_label
 _atom_site_symmetry_multiplicity
 _atom_site_fract_x
 _atom_site_fract_y
 _atom_site_fract_z
 _atom_site_occupancy
  Tm  Tm0  1  0.289948  0.087269  0.375783  1
  Tm  Tm1  1  0.290396  0.913528  0.872834  1
  Tm  Tm2  1  0.709604  0.086472  0.872834  1
  Tm  Tm3  1  0.710052  0.912731  0.375783  1
  Tm  Tm4  1  0.584461  0.786281  0.876515  1
  Tm  Tm5  1  0.588136  0.207742  0.375588  1
  Tm  Tm6  1  0.411864  0.792258  0.375588  1
  Tm  Tm7  1  0.415539  0.213719  0.876515  1
  Tm  Tm8  1  0.207742  0.411864  0.624412  1
  Tm  Tm9  1  0.213719  0.584461  0.123485  1
  Tm  Tm10  1  0.786281  0.415539  0.123485  1
  Tm  Tm11  1  0.792258  0.588136  0.624412  1
  Tm  Tm12  1  0.913528  0.709604  0.127166  1
  Tm  Tm13  1  0.912731  0.289948  0.624217  1
  Tm  Tm14  1  0.087269  0.710052  0.624217  1
  Tm  Tm15  1  0.086472  0.290396  0.127166  1
  Tm  Tm16  1  0.500000  0.500000  0.500000  1
  Zr  Zr17  1  0.000000  0.000000  0.500000  1
  Zr  Zr18  1  0.000000  0.000000  0.000000  1
  In  In19  1  0.500000  0.500000  0.000000  1
  Ir  Ir20  1  0.854132  0.146939  0.247387  1
  Ir  Ir21  1  0.853061  0.854132  0.752613  1
  Ir  Ir22  1  0.146939  0.145868  0.752613  1
  Ir  Ir23  1  0.145868  0.853061  0.247387  1
  Ir  Ir24  1  0.658201  0.343189  0.743979  1
  Ir  Ir25  1  0.656811  0.658201  0.256021  1
  Ir  Ir26  1  0.343189  0.341799  0.256021  1
  Ir  Ir27  1  0.341799  0.656811  0.743979  1
  Ir  Ir28  1  0.500000  0.000000  0.120716  1
  Ir  Ir29  1  0.500000  0.000000  0.624513  1
  Ir  Ir30  1  0.000000  0.500000  0.879284  1
  Ir  Ir31  1  0.000000  0.500000  0.375487  1
