# generated using pymatgen
data_Er8Al2IrRu
_symmetry_space_group_name_H-M   'P 1'
_cell_length_a   9.47395624
_cell_length_b   9.46093223
_cell_length_c   9.46093342
_cell_angle_alpha   59.89603870
_cell_angle_beta   59.95445368
_cell_angle_gamma   59.95445432
_symmetry_Int_Tables_number   1
_chemical_formula_structural   Er8Al2IrRu
_chemical_formula_sum   'Er16 Al4 Ir2 Ru2'
_cell_volume   598.74659826
_cell_formula_units_Z   2
loop_
 _symmetry_equiv_pos_site_id
 _symmetry_equiv_pos_as_xyz
  1  'x, y, z'
loop_
 _atom_site_type_symbol
 _atom_site_label
 _atom_site_symmetry_multiplicity
 _atom_site_fract_x
 _atom_site_fract_y
 _atom_site_fract_z
 _atom_site_occupancy
  Er  Er0  1  0.060395  0.061442  0.439998  1
  Er  Er1  1  0.648676  0.053320  0.649327  1
  Er  Er2  1  0.195773  0.805813  0.193949  1
  Er  Er3  1  0.438166  0.061442  0.439998  1
  Er  Er4  1  0.195773  0.193949  0.805813  1
  Er  Er5  1  0.647809  0.648425  0.648425  1
  Er  Er6  1  0.055343  0.648425  0.648425  1
  Er  Er7  1  0.439848  0.060152  0.060152  1
  Er  Er8  1  0.648676  0.649327  0.053320  1
  Er  Er9  1  0.194064  0.805936  0.805936  1
  Er  Er10  1  0.804466  0.193949  0.805813  1
  Er  Er11  1  0.804137  0.195863  0.195863  1
  Er  Er12  1  0.804466  0.805813  0.193949  1
  Er  Er13  1  0.061454  0.438546  0.438546  1
  Er  Er14  1  0.438166  0.439998  0.061442  1
  Er  Er15  1  0.060395  0.439998  0.061442  1
  Al  Al16  1  0.732507  0.422338  0.422338  1
  Al  Al17  1  0.422145  0.421748  0.733961  1
  Al  Al18  1  0.422145  0.733961  0.421748  1
  Al  Al19  1  0.422816  0.422338  0.422338  1
  Ir  Ir20  1  0.859890  0.857628  0.422591  1
  Ir  Ir21  1  0.859890  0.422591  0.857628  1
  Ru  Ru22  1  0.861791  0.858500  0.858500  1
  Ru  Ru23  1  0.421211  0.858500  0.858500  1
