# generated using pymatgen
data_Zr3ScUTc7
_symmetry_space_group_name_H-M   'P 1'
_cell_length_a   5.21356707
_cell_length_b   5.21356604
_cell_length_c   8.83742623
_cell_angle_alpha   89.93052173
_cell_angle_beta   90.06948172
_cell_angle_gamma   117.04369789
_symmetry_Int_Tables_number   1
_chemical_formula_structural   Zr3ScUTc7
_chemical_formula_sum   'Zr3 Sc1 U1 Tc7'
_cell_volume   213.94747451
_cell_formula_units_Z   1
loop_
 _symmetry_equiv_pos_site_id
 _symmetry_equiv_pos_as_xyz
  1  'x, y, z'
loop_
 _atom_site_type_symbol
 _atom_site_label
 _atom_site_symmetry_multiplicity
 _atom_site_fract_x
 _atom_site_fract_y
 _atom_site_fract_z
 _atom_site_occupancy
  Zr  Zr0  1  0.662169  0.337831  0.568066  1
  Zr  Zr1  1  0.663599  0.336401  0.930768  1
  Zr  Zr2  1  0.329117  0.670883  0.053016  1
  Sc  Sc3  1  0.328135  0.671865  0.446938  1
  U  U4  1  0.849849  0.150151  0.252608  1
  Tc  Tc5  1  0.991890  0.008110  0.500778  1
  Tc  Tc6  1  0.992063  0.007937  0.999174  1
  Tc  Tc7  1  0.838291  0.632099  0.249279  1
  Tc  Tc8  1  0.367901  0.161709  0.249279  1
  Tc  Tc9  1  0.162006  0.837994  0.750120  1
  Tc  Tc10  1  0.167496  0.352514  0.749987  1
  Tc  Tc11  1  0.647486  0.832504  0.749987  1
