# generated using pymatgen
data_La8Cu(AgPd11)2
_symmetry_space_group_name_H-M   'P 1'
_cell_length_a   8.47462100
_cell_length_b   8.57352900
_cell_length_c   8.57352900
_cell_angle_alpha   90.00000000
_cell_angle_beta   90.00000000
_cell_angle_gamma   90.00000000
_symmetry_Int_Tables_number   1
_chemical_formula_structural   La8Cu(AgPd11)2
_chemical_formula_sum   'La8 Cu1 Ag2 Pd22'
_cell_volume   622.93040233
_cell_formula_units_Z   1
loop_
 _symmetry_equiv_pos_site_id
 _symmetry_equiv_pos_as_xyz
  1  'x, y, z'
loop_
 _atom_site_type_symbol
 _atom_site_label
 _atom_site_symmetry_multiplicity
 _atom_site_fract_x
 _atom_site_fract_y
 _atom_site_fract_z
 _atom_site_occupancy
  La  La0  1  0.249143  0.254471  0.254471  1
  La  La1  1  0.750857  0.745529  0.745529  1
  La  La2  1  0.750857  0.745529  0.254471  1
  La  La3  1  0.750857  0.254471  0.745529  1
  La  La4  1  0.249143  0.254471  0.745529  1
  La  La5  1  0.249143  0.745529  0.254471  1
  La  La6  1  0.249143  0.745529  0.745529  1
  La  La7  1  0.750857  0.254471  0.254471  1
  Cu  Cu8  1  0.000000  0.000000  0.000000  1
  Ag  Ag9  1  0.304366  0.000000  0.000000  1
  Ag  Ag10  1  0.695634  0.000000  0.000000  1
  Pd  Pd11  1  0.260117  0.500000  0.000000  1
  Pd  Pd12  1  0.739883  0.500000  0.000000  1
  Pd  Pd13  1  0.000000  0.260325  0.500000  1
  Pd  Pd14  1  0.500000  0.265482  0.000000  1
  Pd  Pd15  1  0.000000  0.739675  0.500000  1
  Pd  Pd16  1  0.500000  0.734518  0.000000  1
  Pd  Pd17  1  0.500000  0.000000  0.265482  1
  Pd  Pd18  1  0.260117  0.000000  0.500000  1
  Pd  Pd19  1  0.500000  0.000000  0.734518  1
  Pd  Pd20  1  0.739883  0.000000  0.500000  1
  Pd  Pd21  1  0.000000  0.500000  0.260325  1
  Pd  Pd22  1  0.000000  0.500000  0.739675  1
  Pd  Pd23  1  0.254125  0.500000  0.500000  1
  Pd  Pd24  1  0.745875  0.500000  0.500000  1
  Pd  Pd25  1  0.500000  0.252981  0.500000  1
  Pd  Pd26  1  0.500000  0.747019  0.500000  1
  Pd  Pd27  1  0.500000  0.500000  0.252981  1
  Pd  Pd28  1  0.500000  0.500000  0.747019  1
  Pd  Pd29  1  0.000000  0.293555  0.000000  1
  Pd  Pd30  1  0.000000  0.706445  0.000000  1
  Pd  Pd31  1  0.000000  0.000000  0.293555  1
  Pd  Pd32  1  0.000000  0.000000  0.706445  1
