# generated using pymatgen
data_Pa6Ti2SnBi9
_symmetry_space_group_name_H-M   'P 1'
_cell_length_a   9.45999200
_cell_length_b   9.45999339
_cell_length_c   6.29439200
_cell_angle_alpha   90.00000000
_cell_angle_beta   90.00000000
_cell_angle_gamma   119.99999513
_symmetry_Int_Tables_number   1
_chemical_formula_structural   Pa6Ti2SnBi9
_chemical_formula_sum   'Pa6 Ti2 Sn1 Bi9'
_cell_volume   487.82723334
_cell_formula_units_Z   1
loop_
 _symmetry_equiv_pos_site_id
 _symmetry_equiv_pos_as_xyz
  1  'x, y, z'
loop_
 _atom_site_type_symbol
 _atom_site_label
 _atom_site_symmetry_multiplicity
 _atom_site_fract_x
 _atom_site_fract_y
 _atom_site_fract_z
 _atom_site_occupancy
  Pa  Pa0  1  0.608362  0.995335  0.753867  1
  Pa  Pa1  1  0.386973  0.995335  0.246133  1
  Pa  Pa2  1  0.004665  0.613027  0.753867  1
  Pa  Pa3  1  0.004665  0.391638  0.246133  1
  Pa  Pa4  1  0.386973  0.391638  0.753867  1
  Pa  Pa5  1  0.608362  0.613027  0.246133  1
  Ti  Ti6  1  0.000000  0.000000  0.500000  1
  Ti  Ti7  1  0.000000  0.000000  0.000000  1
  Sn  Sn8  1  0.333333  0.666667  0.000000  1
  Bi  Bi9  1  0.263817  0.001397  0.749631  1
  Bi  Bi10  1  0.737580  0.001397  0.250369  1
  Bi  Bi11  1  0.998603  0.262420  0.749631  1
  Bi  Bi12  1  0.998603  0.736183  0.250369  1
  Bi  Bi13  1  0.737580  0.736183  0.749631  1
  Bi  Bi14  1  0.263817  0.262420  0.250369  1
  Bi  Bi15  1  0.333333  0.666667  0.500000  1
  Bi  Bi16  1  0.666667  0.333333  0.500000  1
  Bi  Bi17  1  0.666667  0.333333  0.000000  1
