# generated using pymatgen
data_Ca5Y3(Si3Pt)4
_symmetry_space_group_name_H-M   'P 1'
_cell_length_a   8.19869500
_cell_length_b   8.19869620
_cell_length_c   8.18429400
_cell_angle_alpha   90.00000000
_cell_angle_beta   90.00000000
_cell_angle_gamma   120.08004877
_symmetry_Int_Tables_number   1
_chemical_formula_structural   Ca5Y3(Si3Pt)4
_chemical_formula_sum   'Ca5 Y3 Si12 Pt4'
_cell_volume   476.04773171
_cell_formula_units_Z   1
loop_
 _symmetry_equiv_pos_site_id
 _symmetry_equiv_pos_as_xyz
  1  'x, y, z'
loop_
 _atom_site_type_symbol
 _atom_site_label
 _atom_site_symmetry_multiplicity
 _atom_site_fract_x
 _atom_site_fract_y
 _atom_site_fract_z
 _atom_site_occupancy
  Ca  Ca0  1  0.001772  0.500877  0.250000  1
  Ca  Ca1  1  0.499091  0.500909  0.250000  1
  Ca  Ca2  1  0.500896  0.001710  0.750000  1
  Ca  Ca3  1  0.499123  0.998228  0.250000  1
  Ca  Ca4  1  0.998290  0.499104  0.750000  1
  Y  Y5  1  0.000028  0.999972  0.250000  1
  Y  Y6  1  0.000013  0.999987  0.750000  1
  Y  Y7  1  0.500813  0.499187  0.750000  1
  Si  Si8  1  0.164906  0.329507  0.998284  1
  Si  Si9  1  0.670493  0.835094  0.998284  1
  Si  Si10  1  0.164906  0.329507  0.501716  1
  Si  Si11  1  0.329503  0.164919  0.999879  1
  Si  Si12  1  0.165208  0.834792  0.998865  1
  Si  Si13  1  0.670493  0.835094  0.501716  1
  Si  Si14  1  0.835081  0.670497  0.999879  1
  Si  Si15  1  0.329503  0.164919  0.500121  1
  Si  Si16  1  0.165208  0.834792  0.501135  1
  Si  Si17  1  0.835081  0.670497  0.500121  1
  Si  Si18  1  0.834811  0.165189  0.000524  1
  Si  Si19  1  0.834811  0.165189  0.499476  1
  Pt  Pt20  1  0.334177  0.665823  0.996522  1
  Pt  Pt21  1  0.334177  0.665823  0.503478  1
  Pt  Pt22  1  0.665807  0.334193  0.999221  1
  Pt  Pt23  1  0.665807  0.334193  0.500779  1
