# generated using pymatgen
data_Ho3Pa(HgPd2)2
_symmetry_space_group_name_H-M   'P 1'
_cell_length_a   7.73970849
_cell_length_b   7.73970814
_cell_length_c   3.68218400
_cell_angle_alpha   90.00000000
_cell_angle_beta   90.00000000
_cell_angle_gamma   91.42818912
_symmetry_Int_Tables_number   1
_chemical_formula_structural   Ho3Pa(HgPd2)2
_chemical_formula_sum   'Ho3 Pa1 Hg2 Pd4'
_cell_volume   220.50565850
_cell_formula_units_Z   1
loop_
 _symmetry_equiv_pos_site_id
 _symmetry_equiv_pos_as_xyz
  1  'x, y, z'
loop_
 _atom_site_type_symbol
 _atom_site_label
 _atom_site_symmetry_multiplicity
 _atom_site_fract_x
 _atom_site_fract_y
 _atom_site_fract_z
 _atom_site_occupancy
  Ho  Ho0  1  0.325371  0.825371  0.500000  1
  Ho  Ho1  1  0.172936  0.330718  0.500000  1
  Ho  Ho2  1  0.830718  0.672936  0.500000  1
  Pa  Pa3  1  0.669767  0.169767  0.500000  1
  Hg  Hg4  1  0.004415  0.999841  0.000000  1
  Hg  Hg5  1  0.499841  0.504415  0.000000  1
  Pd  Pd6  1  0.122906  0.622906  0.000000  1
  Pd  Pd7  1  0.862078  0.362078  0.000000  1
  Pd  Pd8  1  0.631663  0.880305  0.000000  1
  Pd  Pd9  1  0.380305  0.131663  0.000000  1
