# generated using pymatgen
data_Nd2Dy5Ho(Si3Rh)4
_symmetry_space_group_name_H-M   'P 1'
_cell_length_a   8.20085407
_cell_length_b   8.20085381
_cell_length_c   8.02335000
_cell_angle_alpha   90.00000000
_cell_angle_beta   90.00000000
_cell_angle_gamma   119.98491146
_symmetry_Int_Tables_number   1
_chemical_formula_structural   Nd2Dy5Ho(Si3Rh)4
_chemical_formula_sum   'Nd2 Dy5 Ho1 Si12 Rh4'
_cell_volume   467.38044176
_cell_formula_units_Z   1
loop_
 _symmetry_equiv_pos_site_id
 _symmetry_equiv_pos_as_xyz
  1  'x, y, z'
loop_
 _atom_site_type_symbol
 _atom_site_label
 _atom_site_symmetry_multiplicity
 _atom_site_fract_x
 _atom_site_fract_y
 _atom_site_fract_z
 _atom_site_occupancy
  Nd  Nd0  1  0.000042  0.999958  0.250000  1
  Nd  Nd1  1  0.999935  0.000065  0.750000  1
  Dy  Dy2  1  0.508264  0.016732  0.250000  1
  Dy  Dy3  1  0.983268  0.491736  0.250000  1
  Dy  Dy4  1  0.491723  0.508277  0.750000  1
  Dy  Dy5  1  0.491718  0.983412  0.750000  1
  Dy  Dy6  1  0.016588  0.508282  0.750000  1
  Ho  Ho7  1  0.508224  0.491776  0.250000  1
  Si  Si8  1  0.168216  0.831784  0.501299  1
  Si  Si9  1  0.168373  0.336460  0.501189  1
  Si  Si10  1  0.663540  0.831627  0.501189  1
  Si  Si11  1  0.831823  0.168177  0.498610  1
  Si  Si12  1  0.831507  0.663496  0.498282  1
  Si  Si13  1  0.336504  0.168493  0.498282  1
  Si  Si14  1  0.831823  0.168177  0.001390  1
  Si  Si15  1  0.831507  0.663496  0.001718  1
  Si  Si16  1  0.336504  0.168493  0.001718  1
  Si  Si17  1  0.168216  0.831784  0.998701  1
  Si  Si18  1  0.168373  0.336460  0.998811  1
  Si  Si19  1  0.663540  0.831627  0.998811  1
  Rh  Rh20  1  0.333643  0.666357  0.465160  1
  Rh  Rh21  1  0.666512  0.333488  0.533851  1
  Rh  Rh22  1  0.666512  0.333488  0.966149  1
  Rh  Rh23  1  0.333643  0.666357  0.034840  1
