# generated using pymatgen
data_Sm2Ni11P7W
_symmetry_space_group_name_H-M   'P 1'
_cell_length_a   9.16113028
_cell_length_b   9.19737415
_cell_length_c   3.73065700
_cell_angle_alpha   90.00000000
_cell_angle_beta   90.00000000
_cell_angle_gamma   120.29132553
_symmetry_Int_Tables_number   1
_chemical_formula_structural   Sm2Ni11P7W
_chemical_formula_sum   'Sm2 Ni11 P7 W1'
_cell_volume   271.42288117
_cell_formula_units_Z   1
loop_
 _symmetry_equiv_pos_site_id
 _symmetry_equiv_pos_as_xyz
  1  'x, y, z'
loop_
 _atom_site_type_symbol
 _atom_site_label
 _atom_site_symmetry_multiplicity
 _atom_site_fract_x
 _atom_site_fract_y
 _atom_site_fract_z
 _atom_site_occupancy
  Sm  Sm0  1  0.000749  0.003207  0.000000  1
  Sm  Sm1  1  0.333868  0.668720  0.500000  1
  Ni  Ni2  1  0.298147  0.396143  0.000000  1
  Ni  Ni3  1  0.097905  0.704402  0.000000  1
  Ni  Ni4  1  0.542554  0.434011  0.500000  1
  Ni  Ni5  1  0.391964  0.179986  0.000000  1
  Ni  Ni6  1  0.787905  0.612048  0.000000  1
  Ni  Ni7  1  0.817284  0.205534  0.000000  1
  Ni  Ni8  1  0.237352  0.950580  0.500000  1
  Ni  Ni9  1  0.050439  0.282276  0.500000  1
  Ni  Ni10  1  0.716243  0.764671  0.500000  1
  Ni  Ni11  1  0.571136  0.116654  0.500000  1
  Ni  Ni12  1  0.608030  0.897434  0.000000  1
  P  P13  1  0.663626  0.331689  0.000000  1
  P  P14  1  0.074581  0.441068  0.000000  1
  P  P15  1  0.265792  0.223984  0.500000  1
  P  P16  1  0.774288  0.040671  0.500000  1
  P  P17  1  0.961704  0.740926  0.500000  1
  P  P18  1  0.556495  0.629904  0.000000  1
  P  P19  1  0.374195  0.928815  0.000000  1
  W  W20  1  0.875742  0.447278  0.500000  1
