# generated using pymatgen
data_Y10Al3Rh
_symmetry_space_group_name_H-M   'P 1'
_cell_length_a   9.58784500
_cell_length_b   9.58784582
_cell_length_c   9.67373900
_cell_angle_alpha   90.00000000
_cell_angle_beta   90.00000000
_cell_angle_gamma   120.00000061
_symmetry_Int_Tables_number   1
_chemical_formula_structural   Y10Al3Rh
_chemical_formula_sum   'Y20 Al6 Rh2'
_cell_volume   770.13531938
_cell_formula_units_Z   2
loop_
 _symmetry_equiv_pos_site_id
 _symmetry_equiv_pos_as_xyz
  1  'x, y, z'
loop_
 _atom_site_type_symbol
 _atom_site_label
 _atom_site_symmetry_multiplicity
 _atom_site_fract_x
 _atom_site_fract_y
 _atom_site_fract_z
 _atom_site_occupancy
  Y  Y0  1  0.000000  0.000000  0.500000  1
  Y  Y1  1  0.000000  0.000000  0.000000  1
  Y  Y2  1  0.206666  0.793334  0.441002  1
  Y  Y3  1  0.206666  0.413332  0.441002  1
  Y  Y4  1  0.586668  0.793334  0.441002  1
  Y  Y5  1  0.793334  0.206666  0.558998  1
  Y  Y6  1  0.793334  0.586668  0.558998  1
  Y  Y7  1  0.413332  0.206666  0.558998  1
  Y  Y8  1  0.793334  0.206666  0.941002  1
  Y  Y9  1  0.793334  0.586668  0.941002  1
  Y  Y10  1  0.413332  0.206666  0.941002  1
  Y  Y11  1  0.206666  0.793334  0.058998  1
  Y  Y12  1  0.206666  0.413332  0.058998  1
  Y  Y13  1  0.586668  0.793334  0.058998  1
  Y  Y14  1  0.541561  0.458439  0.250000  1
  Y  Y15  1  0.541561  0.083123  0.250000  1
  Y  Y16  1  0.916877  0.458439  0.250000  1
  Y  Y17  1  0.458439  0.541561  0.750000  1
  Y  Y18  1  0.458439  0.916877  0.750000  1
  Y  Y19  1  0.083123  0.541561  0.750000  1
  Al  Al20  1  0.888510  0.111490  0.250000  1
  Al  Al21  1  0.888510  0.777022  0.250000  1
  Al  Al22  1  0.222978  0.111490  0.250000  1
  Al  Al23  1  0.111490  0.888510  0.750000  1
  Al  Al24  1  0.111490  0.222978  0.750000  1
  Al  Al25  1  0.777022  0.888510  0.750000  1
  Rh  Rh26  1  0.333333  0.666667  0.250000  1
  Rh  Rh27  1  0.666667  0.333333  0.750000  1
