# generated using pymatgen
data_Er3Tm6ThPt8
_symmetry_space_group_name_H-M   'P 1'
_cell_length_a   7.46485900
_cell_length_b   7.48164795
_cell_length_c   14.65537022
_cell_angle_alpha   89.86987102
_cell_angle_beta   90.00000000
_cell_angle_gamma   90.00000000
_symmetry_Int_Tables_number   1
_chemical_formula_structural   Er3Tm6ThPt8
_chemical_formula_sum   'Er6 Tm12 Th2 Pt16'
_cell_volume   818.49221107
_cell_formula_units_Z   2
loop_
 _symmetry_equiv_pos_site_id
 _symmetry_equiv_pos_as_xyz
  1  'x, y, z'
loop_
 _atom_site_type_symbol
 _atom_site_label
 _atom_site_symmetry_multiplicity
 _atom_site_fract_x
 _atom_site_fract_y
 _atom_site_fract_z
 _atom_site_occupancy
  Er  Er0  1  0.497983  0.322401  0.093522  1
  Er  Er1  1  0.997983  0.177599  0.406478  1
  Er  Er2  1  0.497583  0.319311  0.405886  1
  Er  Er3  1  0.997583  0.180689  0.094114  1
  Er  Er4  1  0.502562  0.677282  0.906155  1
  Er  Er5  1  0.002562  0.822718  0.593845  1
  Tm  Tm6  1  0.657949  0.166255  0.621355  1
  Tm  Tm7  1  0.157949  0.333745  0.878645  1
  Tm  Tm8  1  0.346169  0.833110  0.122737  1
  Tm  Tm9  1  0.846169  0.666890  0.377263  1
  Tm  Tm10  1  0.338568  0.836167  0.374931  1
  Tm  Tm11  1  0.838568  0.663833  0.125069  1
  Tm  Tm12  1  0.653217  0.168092  0.877935  1
  Tm  Tm13  1  0.153217  0.331908  0.622065  1
  Tm  Tm14  1  0.820623  0.506471  0.751066  1
  Tm  Tm15  1  0.320623  0.993529  0.748934  1
  Tm  Tm16  1  0.180297  0.490720  0.249496  1
  Tm  Tm17  1  0.680297  0.009280  0.250504  1
  Th  Th18  1  0.500047  0.680699  0.590785  1
  Th  Th19  1  0.000047  0.819301  0.909215  1
  Pt  Pt20  1  0.683811  0.965527  0.457741  1
  Pt  Pt21  1  0.183811  0.534473  0.042259  1
  Pt  Pt22  1  0.315967  0.033997  0.959189  1
  Pt  Pt23  1  0.815967  0.466003  0.540811  1
  Pt  Pt24  1  0.316156  0.034578  0.540399  1
  Pt  Pt25  1  0.816156  0.465422  0.959601  1
  Pt  Pt26  1  0.688064  0.967422  0.041663  1
  Pt  Pt27  1  0.188064  0.532578  0.458337  1
  Pt  Pt28  1  0.453668  0.383916  0.748861  1
  Pt  Pt29  1  0.953668  0.116084  0.751139  1
  Pt  Pt30  1  0.545506  0.613520  0.250980  1
  Pt  Pt31  1  0.045506  0.886480  0.249020  1
  Pt  Pt32  1  0.682599  0.854808  0.748922  1
  Pt  Pt33  1  0.182599  0.645192  0.751078  1
  Pt  Pt34  1  0.319230  0.145035  0.249613  1
  Pt  Pt35  1  0.819230  0.354965  0.250387  1
