# generated using pymatgen
data_Y20Cd5HgOs2
_symmetry_space_group_name_H-M   'P 1'
_cell_length_a   9.65183602
_cell_length_b   9.65183752
_cell_length_c   9.87434300
_cell_angle_alpha   90.00000000
_cell_angle_beta   90.00000000
_cell_angle_gamma   120.05044631
_symmetry_Int_Tables_number   1
_chemical_formula_structural   Y20Cd5HgOs2
_chemical_formula_sum   'Y20 Cd5 Hg1 Os2'
_cell_volume   796.22862852
_cell_formula_units_Z   1
loop_
 _symmetry_equiv_pos_site_id
 _symmetry_equiv_pos_as_xyz
  1  'x, y, z'
loop_
 _atom_site_type_symbol
 _atom_site_label
 _atom_site_symmetry_multiplicity
 _atom_site_fract_x
 _atom_site_fract_y
 _atom_site_fract_z
 _atom_site_occupancy
  Y  Y0  1  0.998006  0.001994  0.496233  1
  Y  Y1  1  0.998006  0.001994  0.003767  1
  Y  Y2  1  0.540609  0.459391  0.250000  1
  Y  Y3  1  0.542691  0.079454  0.250000  1
  Y  Y4  1  0.920546  0.457309  0.250000  1
  Y  Y5  1  0.460253  0.539747  0.750000  1
  Y  Y6  1  0.459821  0.919459  0.750000  1
  Y  Y7  1  0.080541  0.540179  0.750000  1
  Y  Y8  1  0.209312  0.790688  0.439761  1
  Y  Y9  1  0.210246  0.419121  0.440054  1
  Y  Y10  1  0.580879  0.789754  0.440054  1
  Y  Y11  1  0.790308  0.209692  0.560626  1
  Y  Y12  1  0.790827  0.581205  0.559360  1
  Y  Y13  1  0.418795  0.209173  0.559360  1
  Y  Y14  1  0.790308  0.209692  0.939374  1
  Y  Y15  1  0.790827  0.581205  0.940640  1
  Y  Y16  1  0.418795  0.209173  0.940640  1
  Y  Y17  1  0.209312  0.790688  0.060239  1
  Y  Y18  1  0.210246  0.419121  0.059946  1
  Y  Y19  1  0.580879  0.789754  0.059946  1
  Cd  Cd20  1  0.886080  0.768054  0.250000  1
  Cd  Cd21  1  0.231946  0.113920  0.250000  1
  Cd  Cd22  1  0.113311  0.886689  0.750000  1
  Cd  Cd23  1  0.112796  0.227893  0.750000  1
  Cd  Cd24  1  0.772107  0.887204  0.750000  1
  Hg  Hg25  1  0.882855  0.117145  0.250000  1
  Os  Os26  1  0.333524  0.666476  0.250000  1
  Os  Os27  1  0.666177  0.333823  0.750000  1
