# generated using pymatgen
data_Yb4TlInPd10
_symmetry_space_group_name_H-M   'P 1'
_cell_length_a   4.25953700
_cell_length_b   5.79182058
_cell_length_c   11.49565900
_cell_angle_alpha   90.91996601
_cell_angle_beta   90.00000000
_cell_angle_gamma   90.00000000
_symmetry_Int_Tables_number   1
_chemical_formula_structural   Yb4TlInPd10
_chemical_formula_sum   'Yb4 Tl1 In1 Pd10'
_cell_volume   283.56679996
_cell_formula_units_Z   1
loop_
 _symmetry_equiv_pos_site_id
 _symmetry_equiv_pos_as_xyz
  1  'x, y, z'
loop_
 _atom_site_type_symbol
 _atom_site_label
 _atom_site_symmetry_multiplicity
 _atom_site_fract_x
 _atom_site_fract_y
 _atom_site_fract_z
 _atom_site_occupancy
  Yb  Yb0  1  0.500000  0.306771  0.862451  1
  Yb  Yb1  1  0.500000  0.801120  0.638747  1
  Yb  Yb2  1  0.500000  0.693229  0.137549  1
  Yb  Yb3  1  0.500000  0.198880  0.361253  1
  Tl  Tl4  1  0.000000  0.500000  0.500000  1
  In  In5  1  0.000000  0.000000  0.000000  1
  Pd  Pd6  1  0.500000  0.716003  0.381367  1
  Pd  Pd7  1  0.500000  0.283997  0.618633  1
  Pd  Pd8  1  0.000000  0.050742  0.752857  1
  Pd  Pd9  1  0.500000  0.794808  0.885104  1
  Pd  Pd10  1  0.000000  0.448649  0.248716  1
  Pd  Pd11  1  0.000000  0.949258  0.247143  1
  Pd  Pd12  1  0.000000  0.551351  0.751284  1
  Pd  Pd13  1  0.000000  0.500000  0.000000  1
  Pd  Pd14  1  0.000000  0.000000  0.500000  1
  Pd  Pd15  1  0.500000  0.205192  0.114896  1
