# generated using pymatgen
data_SrTm2Ga8Ag3
_symmetry_space_group_name_H-M   'P 1'
_cell_length_a   4.37743068
_cell_length_b   8.46171595
_cell_length_c   8.46171619
_cell_angle_alpha   68.86820817
_cell_angle_beta   75.00938794
_cell_angle_gamma   75.00938137
_symmetry_Int_Tables_number   1
_chemical_formula_structural   SrTm2Ga8Ag3
_chemical_formula_sum   'Sr1 Tm2 Ga8 Ag3'
_cell_volume   277.60121806
_cell_formula_units_Z   1
loop_
 _symmetry_equiv_pos_site_id
 _symmetry_equiv_pos_as_xyz
  1  'x, y, z'
loop_
 _atom_site_type_symbol
 _atom_site_label
 _atom_site_symmetry_multiplicity
 _atom_site_fract_x
 _atom_site_fract_y
 _atom_site_fract_z
 _atom_site_occupancy
  Sr  Sr0  1  0.500000  0.500000  0.500000  1
  Tm  Tm1  1  0.200260  0.799740  0.799740  1
  Tm  Tm2  1  0.799740  0.200260  0.200260  1
  Ga  Ga3  1  0.353387  0.362375  0.930851  1
  Ga  Ga4  1  0.646613  0.637625  0.069149  1
  Ga  Ga5  1  0.353387  0.930851  0.362375  1
  Ga  Ga6  1  0.646613  0.069149  0.637625  1
  Ga  Ga7  1  0.163301  0.469785  0.203612  1
  Ga  Ga8  1  0.836699  0.530215  0.796388  1
  Ga  Ga9  1  0.163301  0.203612  0.469785  1
  Ga  Ga10  1  0.836699  0.796388  0.530215  1
  Ag  Ag11  1  0.500000  0.000000  0.000000  1
  Ag  Ag12  1  0.000000  0.808974  0.191026  1
  Ag  Ag13  1  0.000000  0.191026  0.808974  1
