# generated using pymatgen
data_Ce2Si5Os3
_symmetry_space_group_name_H-M   'P 1'
_cell_length_a   8.19001022
_cell_length_b   8.19000938
_cell_length_c   5.83635984
_cell_angle_alpha   70.46790392
_cell_angle_beta   70.46790700
_cell_angle_gamma   93.57528038
_symmetry_Int_Tables_number   1
_chemical_formula_structural   Ce2Si5Os3
_chemical_formula_sum   'Ce4 Si10 Os6'
_cell_volume   340.97326972
_cell_formula_units_Z   2
loop_
 _symmetry_equiv_pos_site_id
 _symmetry_equiv_pos_as_xyz
  1  'x, y, z'
loop_
 _atom_site_type_symbol
 _atom_site_label
 _atom_site_symmetry_multiplicity
 _atom_site_fract_x
 _atom_site_fract_y
 _atom_site_fract_z
 _atom_site_occupancy
  Ce  Ce0  1  0.867475  0.600421  0.758402  1
  Ce  Ce1  1  0.399579  0.132525  0.741598  1
  Ce  Ce2  1  0.132525  0.399579  0.241598  1
  Ce  Ce3  1  0.600421  0.867475  0.258402  1
  Si  Si4  1  0.062073  0.261624  0.836291  1
  Si  Si5  1  0.738376  0.937927  0.663709  1
  Si  Si6  1  0.937927  0.738376  0.163709  1
  Si  Si7  1  0.261624  0.062073  0.336291  1
  Si  Si8  1  0.207021  0.792979  0.750000  1
  Si  Si9  1  0.792979  0.207021  0.250000  1
  Si  Si10  1  0.513123  0.486877  0.750000  1
  Si  Si11  1  0.486877  0.513123  0.250000  1
  Si  Si12  1  0.774315  0.225685  0.750000  1
  Si  Si13  1  0.225685  0.774315  0.250000  1
  Os  Os14  1  0.255427  0.542565  0.633967  1
  Os  Os15  1  0.457435  0.744573  0.866033  1
  Os  Os16  1  0.744573  0.457435  0.366033  1
  Os  Os17  1  0.542565  0.255427  0.133967  1
  Os  Os18  1  0.001991  0.998009  0.750000  1
  Os  Os19  1  0.998009  0.001991  0.250000  1
