# generated using pymatgen
data_Ca3Cd2Ga8Ag
_symmetry_space_group_name_H-M   'P 1'
_cell_length_a   4.48550307
_cell_length_b   8.56729417
_cell_length_c   8.56729484
_cell_angle_alpha   70.85093887
_cell_angle_beta   74.82424059
_cell_angle_gamma   74.82424441
_symmetry_Int_Tables_number   1
_chemical_formula_structural   Ca3Cd2Ga8Ag
_chemical_formula_sum   'Ca3 Cd2 Ga8 Ag1'
_cell_volume   294.52666862
_cell_formula_units_Z   1
loop_
 _symmetry_equiv_pos_site_id
 _symmetry_equiv_pos_as_xyz
  1  'x, y, z'
loop_
 _atom_site_type_symbol
 _atom_site_label
 _atom_site_symmetry_multiplicity
 _atom_site_fract_x
 _atom_site_fract_y
 _atom_site_fract_z
 _atom_site_occupancy
  Ca  Ca0  1  0.500000  0.498705  0.501295  1
  Ca  Ca1  1  0.200752  0.800601  0.797895  1
  Ca  Ca2  1  0.799248  0.202105  0.199399  1
  Cd  Cd3  1  0.500000  0.002994  0.997006  1
  Cd  Cd4  1  0.000000  0.807609  0.192391  1
  Ga  Ga5  1  0.352665  0.372193  0.922476  1
  Ga  Ga6  1  0.653844  0.619519  0.072794  1
  Ga  Ga7  1  0.346156  0.927206  0.380481  1
  Ga  Ga8  1  0.647335  0.077524  0.627807  1
  Ga  Ga9  1  0.163477  0.463896  0.209152  1
  Ga  Ga10  1  0.841053  0.528014  0.789879  1
  Ga  Ga11  1  0.158947  0.210121  0.471986  1
  Ga  Ga12  1  0.836523  0.790848  0.536104  1
  Ag  Ag13  1  0.000000  0.198667  0.801333  1
