# generated using pymatgen
data_Er2Co9As6Rh
_symmetry_space_group_name_H-M   'P 1'
_cell_length_a   3.78906100
_cell_length_b   10.73806100
_cell_length_c   12.20042500
_cell_angle_alpha   90.00000000
_cell_angle_beta   90.00000000
_cell_angle_gamma   90.00000000
_symmetry_Int_Tables_number   1
_chemical_formula_structural   Er2Co9As6Rh
_chemical_formula_sum   'Er4 Co18 As12 Rh2'
_cell_volume   496.40074349
_cell_formula_units_Z   2
loop_
 _symmetry_equiv_pos_site_id
 _symmetry_equiv_pos_as_xyz
  1  'x, y, z'
loop_
 _atom_site_type_symbol
 _atom_site_label
 _atom_site_symmetry_multiplicity
 _atom_site_fract_x
 _atom_site_fract_y
 _atom_site_fract_z
 _atom_site_occupancy
  Er  Er0  1  0.250000  0.579857  0.701170  1
  Er  Er1  1  0.250000  0.920143  0.201170  1
  Er  Er2  1  0.750000  0.415943  0.296576  1
  Er  Er3  1  0.750000  0.084057  0.796576  1
  Co  Co4  1  0.750000  0.285817  0.008116  1
  Co  Co5  1  0.750000  0.214183  0.508116  1
  Co  Co6  1  0.250000  0.406103  0.487544  1
  Co  Co7  1  0.250000  0.093897  0.987544  1
  Co  Co8  1  0.750000  0.591461  0.512426  1
  Co  Co9  1  0.750000  0.908539  0.012426  1
  Co  Co10  1  0.250000  0.216633  0.177057  1
  Co  Co11  1  0.250000  0.283367  0.677057  1
  Co  Co12  1  0.750000  0.782635  0.824226  1
  Co  Co13  1  0.750000  0.717365  0.324226  1
  Co  Co14  1  0.250000  0.886669  0.699437  1
  Co  Co15  1  0.250000  0.613331  0.199437  1
  Co  Co16  1  0.750000  0.118058  0.302063  1
  Co  Co17  1  0.750000  0.381942  0.802063  1
  Co  Co18  1  0.250000  0.465474  0.931383  1
  Co  Co19  1  0.250000  0.034526  0.431383  1
  Co  Co20  1  0.750000  0.531257  0.069343  1
  Co  Co21  1  0.750000  0.968743  0.569343  1
  As  As22  1  0.250000  0.414669  0.113610  1
  As  As23  1  0.250000  0.085331  0.613610  1
  As  As24  1  0.750000  0.580346  0.884700  1
  As  As25  1  0.750000  0.919654  0.384700  1
  As  As26  1  0.250000  0.267520  0.869735  1
  As  As27  1  0.250000  0.232480  0.369735  1
  As  As28  1  0.750000  0.731080  0.133887  1
  As  As29  1  0.750000  0.768920  0.633887  1
  As  As30  1  0.250000  0.593330  0.388574  1
  As  As31  1  0.250000  0.906670  0.888574  1
  As  As32  1  0.750000  0.399003  0.609495  1
  As  As33  1  0.750000  0.100997  0.109495  1
  Rh  Rh34  1  0.250000  0.713295  0.990655  1
  Rh  Rh35  1  0.250000  0.786705  0.490655  1
