# generated using pymatgen
data_Y11Ho5MgAg3Rh4
_symmetry_space_group_name_H-M   'P 1'
_cell_length_a   9.55145847
_cell_length_b   9.59370944
_cell_length_c   9.59371054
_cell_angle_alpha   60.20973384
_cell_angle_beta   60.27802532
_cell_angle_gamma   60.27764029
_symmetry_Int_Tables_number   1
_chemical_formula_structural   Y11Ho5MgAg3Rh4
_chemical_formula_sum   'Y11 Ho5 Mg1 Ag3 Rh4'
_cell_volume   625.21350756
_cell_formula_units_Z   1
loop_
 _symmetry_equiv_pos_site_id
 _symmetry_equiv_pos_as_xyz
  1  'x, y, z'
loop_
 _atom_site_type_symbol
 _atom_site_label
 _atom_site_symmetry_multiplicity
 _atom_site_fract_x
 _atom_site_fract_y
 _atom_site_fract_z
 _atom_site_occupancy
  Y  Y0  1  0.436152  0.062647  0.062631  1
  Y  Y1  1  0.435936  0.062777  0.436904  1
  Y  Y2  1  0.059636  0.438894  0.061071  1
  Y  Y3  1  0.435940  0.436902  0.062773  1
  Y  Y4  1  0.059625  0.061061  0.438903  1
  Y  Y5  1  0.185554  0.813289  0.813301  1
  Y  Y6  1  0.815133  0.185518  0.185528  1
  Y  Y7  1  0.813648  0.186934  0.813998  1
  Y  Y8  1  0.184852  0.812967  0.187531  1
  Y  Y9  1  0.813648  0.814007  0.186921  1
  Y  Y10  1  0.184846  0.187534  0.812979  1
  Ho  Ho11  1  0.601841  0.598302  0.598283  1
  Ho  Ho12  1  0.600035  0.597977  0.204272  1
  Ho  Ho13  1  0.600026  0.204266  0.597986  1
  Ho  Ho14  1  0.186117  0.604648  0.604622  1
  Ho  Ho15  1  0.059661  0.438554  0.438558  1
  Mg  Mg16  1  0.539408  0.820727  0.820749  1
  Ag  Ag17  1  0.832114  0.834426  0.834430  1
  Ag  Ag18  1  0.832727  0.834496  0.499440  1
  Ag  Ag19  1  0.832732  0.499431  0.834501  1
  Rh  Rh20  1  0.387274  0.396198  0.396189  1
  Rh  Rh21  1  0.391535  0.396835  0.817015  1
  Rh  Rh22  1  0.391538  0.817024  0.396807  1
  Rh  Rh23  1  0.820020  0.394588  0.394609  1
