# generated using pymatgen
data_BaLiYTe3
_symmetry_space_group_name_H-M   'P 1'
_cell_length_a   7.83283512
_cell_length_b   7.83283414
_cell_length_c   11.51015700
_cell_angle_alpha   90.00000000
_cell_angle_beta   90.00000000
_cell_angle_gamma   145.88499496
_symmetry_Int_Tables_number   1
_chemical_formula_structural   BaLiYTe3
_chemical_formula_sum   'Ba2 Li2 Y2 Te6'
_cell_volume   396.06859200
_cell_formula_units_Z   2
loop_
 _symmetry_equiv_pos_site_id
 _symmetry_equiv_pos_as_xyz
  1  'x, y, z'
loop_
 _atom_site_type_symbol
 _atom_site_label
 _atom_site_symmetry_multiplicity
 _atom_site_fract_x
 _atom_site_fract_y
 _atom_site_fract_z
 _atom_site_occupancy
  Ba  Ba0  1  0.751664  0.248336  0.250000  1
  Ba  Ba1  1  0.248336  0.751664  0.750000  1
  Li  Li2  1  0.472761  0.527239  0.250000  1
  Li  Li3  1  0.527239  0.472761  0.750000  1
  Y  Y4  1  0.000000  0.000000  0.000000  1
  Y  Y5  1  0.000000  0.000000  0.500000  1
  Te  Te6  1  0.635768  0.364232  0.943357  1
  Te  Te7  1  0.073160  0.926840  0.250000  1
  Te  Te8  1  0.364232  0.635768  0.443357  1
  Te  Te9  1  0.364232  0.635768  0.056643  1
  Te  Te10  1  0.635768  0.364232  0.556643  1
  Te  Te11  1  0.926840  0.073160  0.750000  1
