# generated using pymatgen
data_Ho14Th2Mg3CdNi4
_symmetry_space_group_name_H-M   'P 1'
_cell_length_a   9.56990931
_cell_length_b   9.60164456
_cell_length_c   9.62103700
_cell_angle_alpha   59.93316981
_cell_angle_beta   59.82311550
_cell_angle_gamma   59.81131195
_symmetry_Int_Tables_number   1
_chemical_formula_structural   Ho14Th2Mg3CdNi4
_chemical_formula_sum   'Ho14 Th2 Mg3 Cd1 Ni4'
_cell_volume   623.06922288
_cell_formula_units_Z   1
loop_
 _symmetry_equiv_pos_site_id
 _symmetry_equiv_pos_as_xyz
  1  'x, y, z'
loop_
 _atom_site_type_symbol
 _atom_site_label
 _atom_site_symmetry_multiplicity
 _atom_site_fract_x
 _atom_site_fract_y
 _atom_site_fract_z
 _atom_site_occupancy
  Ho  Ho0  1  0.346345  0.955123  0.349266  1
  Ho  Ho1  1  0.957780  0.346299  0.347960  1
  Ho  Ho2  1  0.813255  0.187846  0.186771  1
  Ho  Ho3  1  0.188836  0.812443  0.811321  1
  Ho  Ho4  1  0.188836  0.812443  0.187399  1
  Ho  Ho5  1  0.813255  0.187846  0.812126  1
  Ho  Ho6  1  0.188630  0.187741  0.811815  1
  Ho  Ho7  1  0.813262  0.813888  0.186425  1
  Ho  Ho8  1  0.938075  0.565324  0.565868  1
  Ho  Ho9  1  0.565843  0.936350  0.931434  1
  Ho  Ho10  1  0.565843  0.936350  0.566372  1
  Ho  Ho11  1  0.938075  0.565324  0.930733  1
  Ho  Ho12  1  0.565813  0.565803  0.934192  1
  Ho  Ho13  1  0.937566  0.933099  0.564668  1
  Th  Th14  1  0.343345  0.342711  0.349140  1
  Th  Th15  1  0.343345  0.342711  0.964803  1
  Mg  Mg16  1  0.577926  0.580024  0.579287  1
  Mg  Mg17  1  0.577926  0.580024  0.262765  1
  Mg  Mg18  1  0.578441  0.262654  0.579453  1
  Cd  Cd19  1  0.255872  0.583382  0.580374  1
  Ni  Ni20  1  0.142704  0.143374  0.141700  1
  Ni  Ni21  1  0.142704  0.143374  0.572221  1
  Ni  Ni22  1  0.145455  0.570574  0.141985  1
  Ni  Ni23  1  0.570872  0.145293  0.141917  1
