# generated using pymatgen
data_Tm11(Fe2C3)6
_symmetry_space_group_name_H-M   'P 1'
_cell_length_a   8.68830873
_cell_length_b   8.68830798
_cell_length_c   8.68830800
_cell_angle_alpha   109.47122302
_cell_angle_beta   109.47122125
_cell_angle_gamma   109.47121519
_symmetry_Int_Tables_number   1
_chemical_formula_structural   Tm11(Fe2C3)6
_chemical_formula_sum   'Tm11 Fe12 C18'
_cell_volume   504.87490299
_cell_formula_units_Z   1
loop_
 _symmetry_equiv_pos_site_id
 _symmetry_equiv_pos_as_xyz
  1  'x, y, z'
loop_
 _atom_site_type_symbol
 _atom_site_label
 _atom_site_symmetry_multiplicity
 _atom_site_fract_x
 _atom_site_fract_y
 _atom_site_fract_z
 _atom_site_occupancy
  Tm  Tm0  1  0.250000  0.750000  0.500000  1
  Tm  Tm1  1  0.750000  0.250000  0.500000  1
  Tm  Tm2  1  0.750000  0.500000  0.250000  1
  Tm  Tm3  1  0.250000  0.500000  0.750000  1
  Tm  Tm4  1  0.500000  0.250000  0.750000  1
  Tm  Tm5  1  0.500000  0.750000  0.250000  1
  Tm  Tm6  1  0.410120  0.410120  0.410120  1
  Tm  Tm7  1  0.589880  0.000000  0.000000  1
  Tm  Tm8  1  0.000000  0.589880  0.000000  1
  Tm  Tm9  1  0.000000  0.000000  0.589880  1
  Tm  Tm10  1  0.000000  0.000000  0.000000  1
  Fe  Fe11  1  0.837214  0.644716  0.644716  1
  Fe  Fe12  1  0.162786  0.807503  0.807503  1
  Fe  Fe13  1  0.000000  0.355284  0.192497  1
  Fe  Fe14  1  0.644716  0.644716  0.837214  1
  Fe  Fe15  1  0.000000  0.192497  0.355284  1
  Fe  Fe16  1  0.807503  0.807503  0.162786  1
  Fe  Fe17  1  0.355284  0.192497  0.000000  1
  Fe  Fe18  1  0.192497  0.355284  0.000000  1
  Fe  Fe19  1  0.644716  0.837214  0.644716  1
  Fe  Fe20  1  0.192497  0.000000  0.355284  1
  Fe  Fe21  1  0.355284  0.000000  0.192497  1
  Fe  Fe22  1  0.807503  0.162786  0.807503  1
  C  C23  1  0.569473  0.569473  0.000000  1
  C  C24  1  0.430527  0.430527  0.000000  1
  C  C25  1  0.569473  0.000000  0.569473  1
  C  C26  1  0.430527  0.000000  0.430527  1
  C  C27  1  0.000000  0.569473  0.569473  1
  C  C28  1  0.000000  0.430527  0.430527  1
  C  C29  1  0.484303  0.700122  0.700122  1
  C  C30  1  0.515697  0.215819  0.215819  1
  C  C31  1  0.000000  0.299878  0.784181  1
  C  C32  1  0.700122  0.700122  0.484303  1
  C  C33  1  0.000000  0.784181  0.299878  1
  C  C34  1  0.215819  0.215819  0.515697  1
  C  C35  1  0.299878  0.784181  0.000000  1
  C  C36  1  0.784181  0.299878  0.000000  1
  C  C37  1  0.700122  0.484303  0.700122  1
  C  C38  1  0.784181  0.000000  0.299878  1
  C  C39  1  0.299878  0.000000  0.784181  1
  C  C40  1  0.215819  0.515697  0.215819  1
