# generated using pymatgen
data_Ho2LuAl3SiAu2
_symmetry_space_group_name_H-M   'P 1'
_cell_length_a   6.95276557
_cell_length_b   6.98542972
_cell_length_c   4.28834200
_cell_angle_alpha   90.00000000
_cell_angle_beta   90.00000000
_cell_angle_gamma   119.99013296
_symmetry_Int_Tables_number   1
_chemical_formula_structural   Ho2LuAl3SiAu2
_chemical_formula_sum   'Ho2 Lu1 Al3 Si1 Au2'
_cell_volume   180.39061162
_cell_formula_units_Z   1
loop_
 _symmetry_equiv_pos_site_id
 _symmetry_equiv_pos_as_xyz
  1  'x, y, z'
loop_
 _atom_site_type_symbol
 _atom_site_label
 _atom_site_symmetry_multiplicity
 _atom_site_fract_x
 _atom_site_fract_y
 _atom_site_fract_z
 _atom_site_occupancy
  Ho  Ho0  1  0.424221  0.422012  0.500000  1
  Ho  Ho1  1  0.578503  0.003476  0.500000  1
  Lu  Lu2  1  0.998766  0.577151  0.500000  1
  Al  Al3  1  0.752217  0.757187  0.000000  1
  Al  Al4  1  0.242483  0.994332  0.000000  1
  Al  Al5  1  0.004732  0.248500  0.000000  1
  Si  Si6  1  0.668866  0.334543  0.000000  1
  Au  Au7  1  0.330117  0.665610  0.000000  1
  Au  Au8  1  0.000094  0.997191  0.500000  1
