# generated using pymatgen
data_Tb2Th12FeCo5
_symmetry_space_group_name_H-M   'P 1'
_cell_length_a   9.77029154
_cell_length_b   9.77012266
_cell_length_c   6.16817252
_cell_angle_alpha   90.11043743
_cell_angle_beta   89.87164394
_cell_angle_gamma   120.12546765
_symmetry_Int_Tables_number   1
_chemical_formula_structural   Tb2Th12FeCo5
_chemical_formula_sum   'Tb2 Th12 Fe1 Co5'
_cell_volume   509.26395658
_cell_formula_units_Z   1
loop_
 _symmetry_equiv_pos_site_id
 _symmetry_equiv_pos_as_xyz
  1  'x, y, z'
loop_
 _atom_site_type_symbol
 _atom_site_label
 _atom_site_symmetry_multiplicity
 _atom_site_fract_x
 _atom_site_fract_y
 _atom_site_fract_z
 _atom_site_occupancy
  Tb  Tb0  1  0.333239  0.666801  0.052438  1
  Tb  Tb1  1  0.666867  0.333100  0.548374  1
  Th  Th2  1  0.126181  0.873877  0.244537  1
  Th  Th3  1  0.251627  0.126205  0.743749  1
  Th  Th4  1  0.873794  0.748391  0.743890  1
  Th  Th5  1  0.121755  0.248599  0.244690  1
  Th  Th6  1  0.751513  0.878337  0.244703  1
  Th  Th7  1  0.874514  0.125456  0.743171  1
  Th  Th8  1  0.541610  0.458229  0.064876  1
  Th  Th9  1  0.082634  0.540474  0.565556  1
  Th  Th10  1  0.459546  0.917401  0.565524  1
  Th  Th11  1  0.543499  0.084432  0.065397  1
  Th  Th12  1  0.915557  0.456397  0.065448  1
  Th  Th13  1  0.457986  0.542022  0.563151  1
  Fe  Fe14  1  0.819377  0.180570  0.281183  1
  Co  Co15  1  0.637259  0.817711  0.783368  1
  Co  Co16  1  0.182281  0.362723  0.783331  1
  Co  Co17  1  0.817782  0.637700  0.285739  1
  Co  Co18  1  0.362315  0.182215  0.285824  1
  Co  Co19  1  0.180664  0.819362  0.785051  1
