# generated using pymatgen
data_Y3Ho(As4O9)2
_symmetry_space_group_name_H-M   'P 1'
_cell_length_a   6.75432303
_cell_length_b   7.55449628
_cell_length_c   9.82769040
_cell_angle_alpha   94.92822166
_cell_angle_beta   104.17307055
_cell_angle_gamma   104.73005915
_symmetry_Int_Tables_number   1
_chemical_formula_structural   Y3Ho(As4O9)2
_chemical_formula_sum   'Y3 Ho1 As8 O18'
_cell_volume   464.31236648
_cell_formula_units_Z   1
loop_
 _symmetry_equiv_pos_site_id
 _symmetry_equiv_pos_as_xyz
  1  'x, y, z'
loop_
 _atom_site_type_symbol
 _atom_site_label
 _atom_site_symmetry_multiplicity
 _atom_site_fract_x
 _atom_site_fract_y
 _atom_site_fract_z
 _atom_site_occupancy
  Y  Y0  1  0.244003  0.939537  0.615311  1
  Y  Y1  1  0.756292  0.060909  0.384693  1
  Y  Y2  1  0.721086  0.530696  0.409536  1
  Ho  Ho3  1  0.279225  0.470360  0.590714  1
  As  As4  1  0.681634  0.774777  0.077510  1
  As  As5  1  0.318259  0.225648  0.921933  1
  As  As6  1  0.171624  0.752418  0.912497  1
  As  As7  1  0.828380  0.247301  0.087056  1
  As  As8  1  0.744079  0.915243  0.709492  1
  As  As9  1  0.255290  0.084372  0.290530  1
  As  As10  1  0.809611  0.351117  0.701576  1
  As  As11  1  0.190352  0.648893  0.298597  1
  O  O12  1  0.723108  0.749899  0.258156  1
  O  O13  1  0.277179  0.251387  0.741431  1
  O  O14  1  0.316231  0.978812  0.870323  1
  O  O15  1  0.683700  0.021227  0.129385  1
  O  O16  1  0.607931  0.324722  0.985447  1
  O  O17  1  0.392045  0.675357  0.014579  1
  O  O18  1  0.128589  0.646072  0.737760  1
  O  O19  1  0.872211  0.353379  0.261902  1
  O  O20  1  0.846841  0.874467  0.559229  1
  O  O21  1  0.153403  0.125992  0.440986  1
  O  O22  1  0.483809  0.767498  0.666359  1
  O  O23  1  0.515647  0.231249  0.333224  1
  O  O24  1  0.371780  0.533480  0.380198  1
  O  O25  1  0.626237  0.465439  0.620798  1
  O  O26  1  0.089877  0.669056  0.453771  1
  O  O27  1  0.911748  0.331094  0.547025  1
  O  O28  1  0.375668  0.899044  0.358996  1
  O  O29  1  0.624162  0.100556  0.640988  1
