# generated using pymatgen
data_BiSb3O8
_symmetry_space_group_name_H-M   'P 1'
_cell_length_a   4.93267000
_cell_length_b   5.63604800
_cell_length_c   11.91089600
_cell_angle_alpha   90.00000000
_cell_angle_beta   90.00000000
_cell_angle_gamma   90.00000000
_symmetry_Int_Tables_number   1
_chemical_formula_structural   BiSb3O8
_chemical_formula_sum   'Bi2 Sb6 O16'
_cell_volume   331.13201930
_cell_formula_units_Z   2
loop_
 _symmetry_equiv_pos_site_id
 _symmetry_equiv_pos_as_xyz
  1  'x, y, z'
loop_
 _atom_site_type_symbol
 _atom_site_label
 _atom_site_symmetry_multiplicity
 _atom_site_fract_x
 _atom_site_fract_y
 _atom_site_fract_z
 _atom_site_occupancy
  Bi  Bi0  1  0.743524  0.750000  0.500000  1
  Bi  Bi1  1  0.756476  0.750000  0.000000  1
  Sb  Sb2  1  0.750000  0.120259  0.250000  1
  Sb  Sb3  1  0.250000  0.885179  0.750000  1
  Sb  Sb4  1  0.293874  0.250000  0.500000  1
  Sb  Sb5  1  0.750000  0.379741  0.750000  1
  Sb  Sb6  1  0.206126  0.250000  0.000000  1
  Sb  Sb7  1  0.250000  0.614821  0.250000  1
  O  O8  1  0.412119  0.576900  0.404379  1
  O  O9  1  0.504457  0.638441  0.812515  1
  O  O10  1  0.000497  0.136916  0.686745  1
  O  O11  1  0.916942  0.085785  0.096064  1
  O  O12  1  0.000497  0.363084  0.313255  1
  O  O13  1  0.583058  0.085785  0.403936  1
  O  O14  1  0.087881  0.576900  0.095621  1
  O  O15  1  0.504457  0.861559  0.187485  1
  O  O16  1  0.412119  0.923100  0.595621  1
  O  O17  1  0.995543  0.861559  0.312515  1
  O  O18  1  0.499503  0.363084  0.186745  1
  O  O19  1  0.087881  0.923100  0.904379  1
  O  O20  1  0.916942  0.414215  0.903936  1
  O  O21  1  0.499503  0.136916  0.813255  1
  O  O22  1  0.995543  0.638441  0.687485  1
  O  O23  1  0.583058  0.414215  0.596064  1
