# generated using pymatgen
data_Y5Th3(ReB6)4
_symmetry_space_group_name_H-M   'P 1'
_cell_length_a   3.75396900
_cell_length_b   9.25567966
_cell_length_c   11.67354736
_cell_angle_alpha   89.91311035
_cell_angle_beta   90.00000000
_cell_angle_gamma   90.00000000
_symmetry_Int_Tables_number   1
_chemical_formula_structural   Y5Th3(ReB6)4
_chemical_formula_sum   'Y5 Th3 Re4 B24'
_cell_volume   405.60317623
_cell_formula_units_Z   1
loop_
 _symmetry_equiv_pos_site_id
 _symmetry_equiv_pos_as_xyz
  1  'x, y, z'
loop_
 _atom_site_type_symbol
 _atom_site_label
 _atom_site_symmetry_multiplicity
 _atom_site_fract_x
 _atom_site_fract_y
 _atom_site_fract_z
 _atom_site_occupancy
  Y  Y0  1  0.000000  0.677690  0.586180  1
  Y  Y1  1  0.000000  0.444460  0.127431  1
  Y  Y2  1  0.000000  0.556801  0.871128  1
  Y  Y3  1  0.000000  0.942127  0.373044  1
  Y  Y4  1  0.000000  0.055465  0.627892  1
  Th  Th5  1  0.000000  0.821138  0.085681  1
  Th  Th6  1  0.000000  0.178679  0.913443  1
  Th  Th7  1  0.000000  0.323567  0.414728  1
  Re  Re8  1  0.000000  0.138024  0.179855  1
  Re  Re9  1  0.000000  0.862494  0.820142  1
  Re  Re10  1  0.000000  0.638698  0.321001  1
  Re  Re11  1  0.000000  0.361735  0.679252  1
  B  B12  1  0.500000  0.055477  0.070049  1
  B  B13  1  0.500000  0.944301  0.929704  1
  B  B14  1  0.500000  0.555637  0.432429  1
  B  B15  1  0.500000  0.446525  0.568918  1
  B  B16  1  0.500000  0.249209  0.083141  1
  B  B17  1  0.500000  0.750584  0.915900  1
  B  B18  1  0.500000  0.748236  0.419217  1
  B  B19  1  0.500000  0.252189  0.583274  1
  B  B20  1  0.500000  0.290121  0.233630  1
  B  B21  1  0.500000  0.708546  0.764959  1
  B  B22  1  0.500000  0.789767  0.267723  1
  B  B23  1  0.500000  0.210166  0.732909  1
  B  B24  1  0.500000  0.130058  0.313887  1
  B  B25  1  0.500000  0.868137  0.684970  1
  B  B26  1  0.500000  0.630495  0.187042  1
  B  B27  1  0.500000  0.370618  0.812603  1
  B  B28  1  0.500000  0.485348  0.287508  1
  B  B29  1  0.500000  0.517787  0.712293  1
  B  B30  1  0.500000  0.984332  0.213826  1
  B  B31  1  0.500000  0.014784  0.785967  1
  B  B32  1  0.500000  0.101294  0.471738  1
  B  B33  1  0.500000  0.895222  0.529407  1
  B  B34  1  0.500000  0.603651  0.028150  1
  B  B35  1  0.500000  0.396638  0.970980  1
