# generated using pymatgen
data_Lu3CdIn3CuIr
_symmetry_space_group_name_H-M   'P 1'
_cell_length_a   7.91405300
_cell_length_b   7.91405157
_cell_length_c   3.58919100
_cell_angle_alpha   90.00000000
_cell_angle_beta   90.00000000
_cell_angle_gamma   120.00001018
_symmetry_Int_Tables_number   1
_chemical_formula_structural   Lu3CdIn3CuIr
_chemical_formula_sum   'Lu3 Cd1 In3 Cu1 Ir1'
_cell_volume   194.68163606
_cell_formula_units_Z   1
loop_
 _symmetry_equiv_pos_site_id
 _symmetry_equiv_pos_as_xyz
  1  'x, y, z'
loop_
 _atom_site_type_symbol
 _atom_site_label
 _atom_site_symmetry_multiplicity
 _atom_site_fract_x
 _atom_site_fract_y
 _atom_site_fract_z
 _atom_site_occupancy
  Lu  Lu0  1  0.583343  0.619226  0.000000  1
  Lu  Lu1  1  0.380774  0.964117  0.000000  1
  Lu  Lu2  1  0.035883  0.416657  0.000000  1
  Cd  Cd3  1  0.666667  0.333333  0.500000  1
  In  In4  1  0.991912  0.736420  0.500000  1
  In  In5  1  0.263580  0.255491  0.500000  1
  In  In6  1  0.744509  0.008088  0.500000  1
  Cu  Cu7  1  0.000000  0.000000  0.000000  1
  Ir  Ir8  1  0.333333  0.666667  0.500000  1
