# generated using pymatgen
data_ThHgTeO6
_symmetry_space_group_name_H-M   'P 1'
_cell_length_a   5.37146200
_cell_length_b   5.37146200
_cell_length_c   9.52252200
_cell_angle_alpha   90.00000000
_cell_angle_beta   90.00000000
_cell_angle_gamma   90.00000000
_symmetry_Int_Tables_number   1
_chemical_formula_structural   ThHgTeO6
_chemical_formula_sum   'Th2 Hg2 Te2 O12'
_cell_volume   274.74955651
_cell_formula_units_Z   2
loop_
 _symmetry_equiv_pos_site_id
 _symmetry_equiv_pos_as_xyz
  1  'x, y, z'
loop_
 _atom_site_type_symbol
 _atom_site_label
 _atom_site_symmetry_multiplicity
 _atom_site_fract_x
 _atom_site_fract_y
 _atom_site_fract_z
 _atom_site_occupancy
  Th  Th0  1  0.500000  0.000000  0.125452  1
  Th  Th1  1  0.000000  0.500000  0.874547  1
  Hg  Hg2  1  0.000000  0.000000  0.500000  1
  Hg  Hg3  1  0.500000  0.500000  0.500000  1
  Te  Te4  1  0.000000  0.500000  0.241621  1
  Te  Te5  1  0.500000  0.000000  0.758379  1
  O  O6  1  0.824356  0.324357  0.085491  1
  O  O7  1  0.175643  0.675644  0.085491  1
  O  O8  1  0.253330  0.246669  0.247954  1
  O  O9  1  0.746669  0.753331  0.247954  1
  O  O10  1  0.802964  0.302964  0.373430  1
  O  O11  1  0.197035  0.697035  0.373430  1
  O  O12  1  0.302964  0.197035  0.626571  1
  O  O13  1  0.697035  0.802964  0.626571  1
  O  O14  1  0.753331  0.253330  0.752046  1
  O  O15  1  0.246669  0.746669  0.752046  1
  O  O16  1  0.324357  0.175643  0.914510  1
  O  O17  1  0.675644  0.824356  0.914510  1
