# generated using pymatgen
data_LuTeClO3
_symmetry_space_group_name_H-M   'P 1'
_cell_length_a   7.11811400
_cell_length_b   7.33583281
_cell_length_c   8.58403577
_cell_angle_alpha   76.75875092
_cell_angle_beta   90.00000000
_cell_angle_gamma   90.00000000
_symmetry_Int_Tables_number   1
_chemical_formula_structural   LuTeClO3
_chemical_formula_sum   'Lu4 Te4 Cl4 O12'
_cell_volume   436.31845618
_cell_formula_units_Z   4
loop_
 _symmetry_equiv_pos_site_id
 _symmetry_equiv_pos_as_xyz
  1  'x, y, z'
loop_
 _atom_site_type_symbol
 _atom_site_label
 _atom_site_symmetry_multiplicity
 _atom_site_fract_x
 _atom_site_fract_y
 _atom_site_fract_z
 _atom_site_occupancy
  Lu  Lu0  1  0.750024  0.795540  0.330357  1
  Lu  Lu1  1  0.249976  0.204460  0.669643  1
  Lu  Lu2  1  0.250024  0.704460  0.669643  1
  Lu  Lu3  1  0.749976  0.295540  0.330357  1
  Te  Te4  1  0.724196  0.945337  0.702905  1
  Te  Te5  1  0.224196  0.554663  0.297095  1
  Te  Te6  1  0.775804  0.445337  0.702905  1
  Te  Te7  1  0.275804  0.054663  0.297095  1
  Cl  Cl8  1  0.705315  0.607389  0.101057  1
  Cl  Cl9  1  0.294685  0.392611  0.898943  1
  Cl  Cl10  1  0.794685  0.107389  0.101057  1
  Cl  Cl11  1  0.205315  0.892611  0.898943  1
  O  O12  1  0.781602  0.007103  0.474303  1
  O  O13  1  0.447618  0.247687  0.318225  1
  O  O14  1  0.052382  0.747687  0.318225  1
  O  O15  1  0.552394  0.149454  0.684476  1
  O  O16  1  0.947606  0.649454  0.684476  1
  O  O17  1  0.052394  0.350546  0.315524  1
  O  O18  1  0.447606  0.850546  0.315524  1
  O  O19  1  0.552382  0.752313  0.681775  1
  O  O20  1  0.718398  0.507103  0.474303  1
  O  O21  1  0.218398  0.992897  0.525697  1
  O  O22  1  0.281602  0.492897  0.525697  1
  O  O23  1  0.947618  0.252313  0.681775  1
