# generated using pymatgen
data_DyHo2Tm(NiAs)4
_symmetry_space_group_name_H-M   'P 1'
_cell_length_a   4.02281000
_cell_length_b   4.02281130
_cell_length_c   15.29362700
_cell_angle_alpha   90.00000000
_cell_angle_beta   90.00000000
_cell_angle_gamma   120.00002221
_symmetry_Int_Tables_number   1
_chemical_formula_structural   DyHo2Tm(NiAs)4
_chemical_formula_sum   'Dy1 Ho2 Tm1 Ni4 As4'
_cell_volume   214.33851166
_cell_formula_units_Z   1
loop_
 _symmetry_equiv_pos_site_id
 _symmetry_equiv_pos_as_xyz
  1  'x, y, z'
loop_
 _atom_site_type_symbol
 _atom_site_label
 _atom_site_symmetry_multiplicity
 _atom_site_fract_x
 _atom_site_fract_y
 _atom_site_fract_z
 _atom_site_occupancy
  Dy  Dy0  1  0.000000  0.000000  0.001181  1
  Ho  Ho1  1  0.000000  0.000000  0.749877  1
  Ho  Ho2  1  0.000000  0.000000  0.498006  1
  Tm  Tm3  1  0.000000  0.000000  0.250530  1
  Ni  Ni4  1  0.333333  0.666667  0.137856  1
  Ni  Ni5  1  0.666667  0.333333  0.869541  1
  Ni  Ni6  1  0.666667  0.333333  0.631913  1
  Ni  Ni7  1  0.333333  0.666667  0.361851  1
  As  As8  1  0.333333  0.666667  0.619992  1
  As  As9  1  0.666667  0.333333  0.378746  1
  As  As10  1  0.666667  0.333333  0.122017  1
  As  As11  1  0.333333  0.666667  0.878491  1
