# generated using pymatgen
data_Zn2GaPd3Pt2
_symmetry_space_group_name_H-M   'P 1'
_cell_length_a   4.11907200
_cell_length_b   5.48113300
_cell_length_c   10.62665000
_cell_angle_alpha   90.00000000
_cell_angle_beta   90.00000000
_cell_angle_gamma   90.00000000
_symmetry_Int_Tables_number   1
_chemical_formula_structural   Zn2GaPd3Pt2
_chemical_formula_sum   'Zn4 Ga2 Pd6 Pt4'
_cell_volume   239.91980545
_cell_formula_units_Z   2
loop_
 _symmetry_equiv_pos_site_id
 _symmetry_equiv_pos_as_xyz
  1  'x, y, z'
loop_
 _atom_site_type_symbol
 _atom_site_label
 _atom_site_symmetry_multiplicity
 _atom_site_fract_x
 _atom_site_fract_y
 _atom_site_fract_z
 _atom_site_occupancy
  Zn  Zn0  1  0.000000  0.835738  0.641974  1
  Zn  Zn1  1  0.000000  0.335738  0.858026  1
  Zn  Zn2  1  0.000000  0.164262  0.358026  1
  Zn  Zn3  1  0.000000  0.664262  0.141974  1
  Ga  Ga4  1  0.500000  0.500000  0.500000  1
  Ga  Ga5  1  0.500000  0.000000  0.000000  1
  Pd  Pd6  1  0.500000  0.910073  0.236460  1
  Pd  Pd7  1  0.500000  0.410073  0.263540  1
  Pd  Pd8  1  0.500000  0.589927  0.736460  1
  Pd  Pd9  1  0.500000  0.089927  0.763540  1
  Pd  Pd10  1  0.500000  0.500000  0.000000  1
  Pd  Pd11  1  0.500000  0.000000  0.500000  1
  Pt  Pt12  1  0.000000  0.813713  0.893528  1
  Pt  Pt13  1  0.000000  0.686287  0.393528  1
  Pt  Pt14  1  0.000000  0.313713  0.606472  1
  Pt  Pt15  1  0.000000  0.186287  0.106472  1
