# generated using pymatgen
data_Dy2Tm6Re(TcB8)3
_symmetry_space_group_name_H-M   'P 1'
_cell_length_a   3.65241800
_cell_length_b   9.11043879
_cell_length_c   11.48393204
_cell_angle_alpha   90.01935161
_cell_angle_beta   90.00000000
_cell_angle_gamma   90.00000000
_symmetry_Int_Tables_number   1
_chemical_formula_structural   Dy2Tm6Re(TcB8)3
_chemical_formula_sum   'Dy2 Tm6 Re1 Tc3 B24'
_cell_volume   382.12931679
_cell_formula_units_Z   1
loop_
 _symmetry_equiv_pos_site_id
 _symmetry_equiv_pos_as_xyz
  1  'x, y, z'
loop_
 _atom_site_type_symbol
 _atom_site_label
 _atom_site_symmetry_multiplicity
 _atom_site_fract_x
 _atom_site_fract_y
 _atom_site_fract_z
 _atom_site_occupancy
  Dy  Dy0  1  0.000000  0.323574  0.413973  1
  Dy  Dy1  1  0.000000  0.676639  0.585961  1
  Tm  Tm2  1  0.000000  0.823763  0.085982  1
  Tm  Tm3  1  0.000000  0.176559  0.914326  1
  Tm  Tm4  1  0.000000  0.942902  0.368983  1
  Tm  Tm5  1  0.000000  0.057661  0.630109  1
  Tm  Tm6  1  0.000000  0.442865  0.130332  1
  Tm  Tm7  1  0.000000  0.556098  0.870181  1
  Re  Re8  1  0.000000  0.861365  0.821016  1
  Tc  Tc9  1  0.000000  0.639709  0.319558  1
  Tc  Tc10  1  0.000000  0.360352  0.680359  1
  Tc  Tc11  1  0.000000  0.138809  0.179180  1
  B  B12  1  0.500000  0.553776  0.432572  1
  B  B13  1  0.500000  0.446400  0.567471  1
  B  B14  1  0.500000  0.053230  0.066671  1
  B  B15  1  0.500000  0.947005  0.933657  1
  B  B16  1  0.500000  0.750174  0.418166  1
  B  B17  1  0.500000  0.250073  0.581762  1
  B  B18  1  0.500000  0.249646  0.080724  1
  B  B19  1  0.500000  0.749909  0.919493  1
  B  B20  1  0.500000  0.792825  0.264405  1
  B  B21  1  0.500000  0.207196  0.735410  1
  B  B22  1  0.500000  0.292307  0.234473  1
  B  B23  1  0.500000  0.707307  0.765675  1
  B  B24  1  0.500000  0.630797  0.184488  1
  B  B25  1  0.500000  0.368981  0.815520  1
  B  B26  1  0.500000  0.130183  0.314552  1
  B  B27  1  0.500000  0.870018  0.685280  1
  B  B28  1  0.500000  0.981397  0.211421  1
  B  B29  1  0.500000  0.018935  0.788350  1
  B  B30  1  0.500000  0.482100  0.287549  1
  B  B31  1  0.500000  0.517790  0.712588  1
  B  B32  1  0.500000  0.599525  0.027823  1
  B  B33  1  0.500000  0.399932  0.972407  1
  B  B34  1  0.500000  0.098714  0.472250  1
  B  B35  1  0.500000  0.901483  0.527336  1
