# generated using pymatgen
data_Dy7Er13(Bi2Sb)4
_symmetry_space_group_name_H-M   'P 1'
_cell_length_a   8.14122951
_cell_length_b   9.39897900
_cell_length_c   11.96112200
_cell_angle_alpha   90.00000000
_cell_angle_beta   89.97971726
_cell_angle_gamma   90.00000000
_symmetry_Int_Tables_number   1
_chemical_formula_structural   Dy7Er13(Bi2Sb)4
_chemical_formula_sum   'Dy7 Er13 Bi8 Sb4'
_cell_volume   915.25596983
_cell_formula_units_Z   1
loop_
 _symmetry_equiv_pos_site_id
 _symmetry_equiv_pos_as_xyz
  1  'x, y, z'
loop_
 _atom_site_type_symbol
 _atom_site_label
 _atom_site_symmetry_multiplicity
 _atom_site_fract_x
 _atom_site_fract_y
 _atom_site_fract_z
 _atom_site_occupancy
  Dy  Dy0  1  0.683000  0.750000  0.781944  1
  Dy  Dy1  1  0.817118  0.250000  0.281840  1
  Dy  Dy2  1  0.317141  0.250000  0.218141  1
  Dy  Dy3  1  0.353351  0.750000  0.213518  1
  Dy  Dy4  1  0.853639  0.750000  0.286771  1
  Dy  Dy5  1  0.646597  0.250000  0.786341  1
  Dy  Dy6  1  0.146480  0.250000  0.713522  1
  Er  Er7  1  0.027997  0.750000  0.988060  1
  Er  Er8  1  0.527594  0.750000  0.511786  1
  Er  Er9  1  0.972288  0.250000  0.011226  1
  Er  Er10  1  0.472043  0.250000  0.488814  1
  Er  Er11  1  0.183288  0.750000  0.717466  1
  Er  Er12  1  0.310799  0.436785  0.941758  1
  Er  Er13  1  0.810450  0.063207  0.558153  1
  Er  Er14  1  0.689262  0.936640  0.057932  1
  Er  Er15  1  0.189327  0.563266  0.442229  1
  Er  Er16  1  0.689262  0.563360  0.057932  1
  Er  Er17  1  0.189327  0.936734  0.442229  1
  Er  Er18  1  0.310799  0.063215  0.941758  1
  Er  Er19  1  0.810450  0.436793  0.558153  1
  Bi  Bi20  1  0.432934  0.003334  0.673499  1
  Bi  Bi21  1  0.934404  0.496658  0.826353  1
  Bi  Bi22  1  0.566263  0.503873  0.326966  1
  Bi  Bi23  1  0.066226  0.996129  0.173135  1
  Bi  Bi24  1  0.566263  0.996127  0.326966  1
  Bi  Bi25  1  0.066226  0.503871  0.173135  1
  Bi  Bi26  1  0.432934  0.496666  0.673499  1
  Bi  Bi27  1  0.934404  0.003342  0.826353  1
  Sb  Sb28  1  0.407364  0.750000  0.958312  1
  Sb  Sb29  1  0.908055  0.750000  0.542276  1
  Sb  Sb30  1  0.592450  0.250000  0.041345  1
  Sb  Sb31  1  0.092266  0.250000  0.458589  1
