# generated using pymatgen
data_La7PrGePd24
_symmetry_space_group_name_H-M   'P 1'
_cell_length_a   8.55338611
_cell_length_b   8.55338611
_cell_length_c   8.55338611
_cell_angle_alpha   90.01275344
_cell_angle_beta   89.98724656
_cell_angle_gamma   89.98724656
_symmetry_Int_Tables_number   1
_chemical_formula_structural   La7PrGePd24
_chemical_formula_sum   'La7 Pr1 Ge1 Pd24'
_cell_volume   625.76922105
_cell_formula_units_Z   1
loop_
 _symmetry_equiv_pos_site_id
 _symmetry_equiv_pos_as_xyz
  1  'x, y, z'
loop_
 _atom_site_type_symbol
 _atom_site_label
 _atom_site_symmetry_multiplicity
 _atom_site_fract_x
 _atom_site_fract_y
 _atom_site_fract_z
 _atom_site_occupancy
  La  La0  1  0.253186  0.253086  0.253086  1
  La  La1  1  0.746961  0.746980  0.746980  1
  La  La2  1  0.746914  0.746814  0.253086  1
  La  La3  1  0.746914  0.253086  0.746814  1
  La  La4  1  0.253020  0.253039  0.746980  1
  La  La5  1  0.253020  0.746980  0.253039  1
  La  La6  1  0.253079  0.746921  0.746921  1
  Pr  Pr7  1  0.747314  0.252686  0.252686  1
  Ge  Ge8  1  0.999941  0.000059  0.000059  1
  Pd  Pd9  1  0.260492  0.499978  0.000029  1
  Pd  Pd10  1  0.739508  0.500025  0.999953  1
  Pd  Pd11  1  0.000047  0.260492  0.500025  1
  Pd  Pd12  1  0.499975  0.260492  0.999953  1
  Pd  Pd13  1  0.999971  0.739508  0.499978  1
  Pd  Pd14  1  0.500022  0.739508  0.000029  1
  Pd  Pd15  1  0.499975  0.999953  0.260492  1
  Pd  Pd16  1  0.260492  0.000029  0.499978  1
  Pd  Pd17  1  0.500022  0.000029  0.739508  1
  Pd  Pd18  1  0.739508  0.999953  0.500025  1
  Pd  Pd19  1  0.000047  0.500025  0.260492  1
  Pd  Pd20  1  0.999971  0.499978  0.739508  1
  Pd  Pd21  1  0.253340  0.499980  0.499980  1
  Pd  Pd22  1  0.746656  0.500049  0.500049  1
  Pd  Pd23  1  0.499951  0.253344  0.500049  1
  Pd  Pd24  1  0.500020  0.746660  0.499980  1
  Pd  Pd25  1  0.499951  0.500049  0.253344  1
  Pd  Pd26  1  0.500020  0.499980  0.746660  1
  Pd  Pd27  1  0.291822  0.000029  0.000029  1
  Pd  Pd28  1  0.708266  0.000175  0.000175  1
  Pd  Pd29  1  0.999825  0.291734  0.000175  1
  Pd  Pd30  1  0.999971  0.708178  0.000029  1
  Pd  Pd31  1  0.999825  0.000175  0.291734  1
  Pd  Pd32  1  0.999971  0.000029  0.708178  1
