# generated using pymatgen
data_CaHo2Lu3(Si3Ru)8
_symmetry_space_group_name_H-M   'P 1'
_cell_length_a   10.11002070
_cell_length_b   10.11002073
_cell_length_c   8.11356124
_cell_angle_alpha   89.93800668
_cell_angle_beta   90.06198975
_cell_angle_gamma   132.66149348
_symmetry_Int_Tables_number   1
_chemical_formula_structural   CaHo2Lu3(Si3Ru)8
_chemical_formula_sum   'Ca1 Ho2 Lu3 Si24 Ru8'
_cell_volume   609.84761731
_cell_formula_units_Z   1
loop_
 _symmetry_equiv_pos_site_id
 _symmetry_equiv_pos_as_xyz
  1  'x, y, z'
loop_
 _atom_site_type_symbol
 _atom_site_label
 _atom_site_symmetry_multiplicity
 _atom_site_fract_x
 _atom_site_fract_y
 _atom_site_fract_z
 _atom_site_occupancy
  Ca  Ca0  1  0.501755  0.001755  0.750000  1
  Ho  Ho1  1  0.497044  0.997044  0.250000  1
  Ho  Ho2  1  0.002737  0.502737  0.750000  1
  Lu  Lu3  1  0.500200  0.500378  0.500537  1
  Lu  Lu4  1  0.000378  0.000200  0.999463  1
  Lu  Lu5  1  0.998974  0.498974  0.250000  1
  Si  Si6  1  0.794636  0.205025  0.499525  1
  Si  Si7  1  0.294612  0.705504  0.999458  1
  Si  Si8  1  0.205504  0.794612  0.500542  1
  Si  Si9  1  0.705025  0.294636  0.000475  1
  Si  Si10  1  0.332220  0.333693  0.832651  1
  Si  Si11  1  0.666769  0.669179  0.167316  1
  Si  Si12  1  0.169179  0.166769  0.332684  1
  Si  Si13  1  0.833693  0.832220  0.667349  1
  Si  Si14  1  0.119608  0.885392  0.728517  1
  Si  Si15  1  0.111356  0.877764  0.272273  1
  Si  Si16  1  0.611565  0.378482  0.228519  1
  Si  Si17  1  0.624499  0.390877  0.771344  1
  Si  Si18  1  0.878482  0.111565  0.271481  1
  Si  Si19  1  0.890877  0.124499  0.728656  1
  Si  Si20  1  0.385392  0.619608  0.771483  1
  Si  Si21  1  0.377764  0.611356  0.227727  1
  Si  Si22  1  0.345230  0.111850  0.501813  1
  Si  Si23  1  0.888347  0.655326  0.495217  1
  Si  Si24  1  0.387568  0.154011  0.007071  1
  Si  Si25  1  0.844200  0.611905  0.995508  1
  Si  Si26  1  0.654011  0.887568  0.492929  1
  Si  Si27  1  0.111905  0.344200  0.504492  1
  Si  Si28  1  0.611850  0.845230  0.998187  1
  Si  Si29  1  0.155326  0.388347  0.004783  1
  Ru  Ru30  1  0.671219  0.332398  0.498295  1
  Ru  Ru31  1  0.166284  0.828369  0.002599  1
  Ru  Ru32  1  0.328369  0.666284  0.497401  1
  Ru  Ru33  1  0.832398  0.171219  0.001705  1
  Ru  Ru34  1  0.127470  0.126787  0.627431  1
  Ru  Ru35  1  0.873184  0.873582  0.372930  1
  Ru  Ru36  1  0.373582  0.373184  0.127070  1
  Ru  Ru37  1  0.626787  0.627470  0.872569  1
