# generated using pymatgen
data_La2Th2Al4Ir3Rh
_symmetry_space_group_name_H-M   'P 1'
_cell_length_a   4.26454900
_cell_length_b   7.21133067
_cell_length_c   16.39044997
_cell_angle_alpha   89.84459887
_cell_angle_beta   90.00000000
_cell_angle_gamma   90.00000000
_symmetry_Int_Tables_number   1
_chemical_formula_structural   La2Th2Al4Ir3Rh
_chemical_formula_sum   'La4 Th4 Al8 Ir6 Rh2'
_cell_volume   504.05485080
_cell_formula_units_Z   2
loop_
 _symmetry_equiv_pos_site_id
 _symmetry_equiv_pos_as_xyz
  1  'x, y, z'
loop_
 _atom_site_type_symbol
 _atom_site_label
 _atom_site_symmetry_multiplicity
 _atom_site_fract_x
 _atom_site_fract_y
 _atom_site_fract_z
 _atom_site_occupancy
  La  La0  1  0.250000  0.653553  0.559116  1
  La  La1  1  0.750000  0.346447  0.440884  1
  La  La2  1  0.750000  0.846317  0.058946  1
  La  La3  1  0.250000  0.153683  0.941054  1
  Th  Th4  1  0.250000  0.520019  0.778489  1
  Th  Th5  1  0.750000  0.479981  0.221511  1
  Th  Th6  1  0.750000  0.979264  0.278935  1
  Th  Th7  1  0.250000  0.020736  0.721065  1
  Al  Al8  1  0.250000  0.656010  0.350660  1
  Al  Al9  1  0.750000  0.343990  0.649340  1
  Al  Al10  1  0.750000  0.843574  0.850862  1
  Al  Al11  1  0.250000  0.156426  0.149138  1
  Al  Al12  1  0.250000  0.507904  0.061282  1
  Al  Al13  1  0.750000  0.492096  0.938718  1
  Al  Al14  1  0.750000  0.992143  0.561462  1
  Al  Al15  1  0.250000  0.007857  0.438538  1
  Ir  Ir16  1  0.250000  0.761486  0.187181  1
  Ir  Ir17  1  0.750000  0.238514  0.812819  1
  Ir  Ir18  1  0.750000  0.739071  0.686766  1
  Ir  Ir19  1  0.250000  0.260929  0.313234  1
  Ir  Ir20  1  0.250000  0.711894  0.925385  1
  Ir  Ir21  1  0.750000  0.288106  0.074615  1
  Rh  Rh22  1  0.750000  0.789939  0.424821  1
  Rh  Rh23  1  0.250000  0.210061  0.575179  1
