# generated using pymatgen
data_AcNb7S12
_symmetry_space_group_name_H-M   'P 1'
_cell_length_a   5.81846900
_cell_length_b   5.81846928
_cell_length_c   13.85332300
_cell_angle_alpha   90.00000000
_cell_angle_beta   90.00000000
_cell_angle_gamma   120.00000409
_symmetry_Int_Tables_number   1
_chemical_formula_structural   AcNb7S12
_chemical_formula_sum   'Ac1 Nb7 S12'
_cell_volume   406.16457710
_cell_formula_units_Z   1
loop_
 _symmetry_equiv_pos_site_id
 _symmetry_equiv_pos_as_xyz
  1  'x, y, z'
loop_
 _atom_site_type_symbol
 _atom_site_label
 _atom_site_symmetry_multiplicity
 _atom_site_fract_x
 _atom_site_fract_y
 _atom_site_fract_z
 _atom_site_occupancy
  Ac  Ac0  1  0.333333  0.666667  0.250000  1
  Nb  Nb1  1  0.000000  0.000000  0.523466  1
  Nb  Nb2  1  0.000000  0.000000  0.976534  1
  Nb  Nb3  1  0.333333  0.666667  0.977548  1
  Nb  Nb4  1  0.666667  0.333333  0.977978  1
  Nb  Nb5  1  0.666667  0.333333  0.522022  1
  Nb  Nb6  1  0.333333  0.666667  0.522452  1
  Nb  Nb7  1  0.666667  0.333333  0.750000  1
  S  S8  1  0.332266  0.328174  0.408311  1
  S  S9  1  0.671826  0.004091  0.408311  1
  S  S10  1  0.995909  0.667734  0.408311  1
  S  S11  1  0.331111  0.333272  0.636295  1
  S  S12  1  0.002161  0.668889  0.636295  1
  S  S13  1  0.666728  0.997839  0.636295  1
  S  S14  1  0.666728  0.668889  0.863705  1
  S  S15  1  0.331111  0.997839  0.863705  1
  S  S16  1  0.002161  0.333272  0.863705  1
  S  S17  1  0.671826  0.667734  0.091689  1
  S  S18  1  0.995909  0.328174  0.091689  1
  S  S19  1  0.332266  0.004091  0.091689  1
