# generated using pymatgen
data_Zr6Al16Pd6Ru
_symmetry_space_group_name_H-M   'P 1'
_cell_length_a   8.78567907
_cell_length_b   8.78567934
_cell_length_c   8.78567900
_cell_angle_alpha   59.99999752
_cell_angle_beta   59.99999651
_cell_angle_gamma   59.99999868
_symmetry_Int_Tables_number   1
_chemical_formula_structural   Zr6Al16Pd6Ru
_chemical_formula_sum   'Zr6 Al16 Pd6 Ru1'
_cell_volume   479.52471214
_cell_formula_units_Z   1
loop_
 _symmetry_equiv_pos_site_id
 _symmetry_equiv_pos_as_xyz
  1  'x, y, z'
loop_
 _atom_site_type_symbol
 _atom_site_label
 _atom_site_symmetry_multiplicity
 _atom_site_fract_x
 _atom_site_fract_y
 _atom_site_fract_z
 _atom_site_occupancy
  Zr  Zr0  1  0.187817  0.812183  0.812183  1
  Zr  Zr1  1  0.812183  0.187817  0.187817  1
  Zr  Zr2  1  0.812183  0.187817  0.812183  1
  Zr  Zr3  1  0.812183  0.812183  0.187817  1
  Zr  Zr4  1  0.187817  0.812183  0.187817  1
  Zr  Zr5  1  0.187817  0.187817  0.812183  1
  Al  Al6  1  0.834368  0.834368  0.834368  1
  Al  Al7  1  0.834368  0.834368  0.496894  1
  Al  Al8  1  0.496894  0.834368  0.834368  1
  Al  Al9  1  0.834368  0.496894  0.834368  1
  Al  Al10  1  0.165632  0.165632  0.165632  1
  Al  Al11  1  0.165632  0.165632  0.503106  1
  Al  Al12  1  0.165632  0.503106  0.165632  1
  Al  Al13  1  0.503106  0.165632  0.165632  1
  Al  Al14  1  0.618137  0.618137  0.618137  1
  Al  Al15  1  0.618137  0.618137  0.145591  1
  Al  Al16  1  0.145591  0.618137  0.618137  1
  Al  Al17  1  0.618137  0.145591  0.618137  1
  Al  Al18  1  0.381863  0.381863  0.381863  1
  Al  Al19  1  0.381863  0.381863  0.854409  1
  Al  Al20  1  0.381863  0.854409  0.381863  1
  Al  Al21  1  0.854409  0.381863  0.381863  1
  Pd  Pd22  1  0.000000  0.500000  0.500000  1
  Pd  Pd23  1  0.500000  0.000000  0.000000  1
  Pd  Pd24  1  0.500000  0.000000  0.500000  1
  Pd  Pd25  1  0.500000  0.500000  0.000000  1
  Pd  Pd26  1  0.000000  0.500000  0.000000  1
  Pd  Pd27  1  0.000000  0.000000  0.500000  1
  Ru  Ru28  1  0.500000  0.500000  0.500000  1
