# generated using pymatgen
data_Ho3Er2Tm7Co4
_symmetry_space_group_name_H-M   'P 1'
_cell_length_a   6.13807419
_cell_length_b   6.88589101
_cell_length_c   9.24068239
_cell_angle_alpha   89.99870508
_cell_angle_beta   89.93494666
_cell_angle_gamma   89.99542908
_symmetry_Int_Tables_number   1
_chemical_formula_structural   Ho3Er2Tm7Co4
_chemical_formula_sum   'Ho3 Er2 Tm7 Co4'
_cell_volume   390.56744427
_cell_formula_units_Z   1
loop_
 _symmetry_equiv_pos_site_id
 _symmetry_equiv_pos_as_xyz
  1  'x, y, z'
loop_
 _atom_site_type_symbol
 _atom_site_label
 _atom_site_symmetry_multiplicity
 _atom_site_fract_x
 _atom_site_fract_y
 _atom_site_fract_z
 _atom_site_occupancy
  Ho  Ho0  1  0.176311  0.175651  0.066059  1
  Ho  Ho1  1  0.863337  0.541232  0.250128  1
  Ho  Ho2  1  0.636621  0.040269  0.250550  1
  Er  Er3  1  0.136408  0.459062  0.749596  1
  Er  Er4  1  0.363542  0.958763  0.749567  1
  Tm  Tm5  1  0.324379  0.675487  0.066432  1
  Tm  Tm6  1  0.175524  0.175616  0.434490  1
  Tm  Tm7  1  0.675709  0.324612  0.566658  1
  Tm  Tm8  1  0.823866  0.824131  0.932804  1
  Tm  Tm9  1  0.675899  0.324565  0.932682  1
  Tm  Tm10  1  0.823869  0.824353  0.566740  1
  Tm  Tm11  1  0.323786  0.675715  0.433520  1
  Co  Co12  1  0.049205  0.886949  0.250755  1
  Co  Co13  1  0.452033  0.387513  0.250813  1
  Co  Co14  1  0.951574  0.112989  0.748953  1
  Co  Co15  1  0.547937  0.613096  0.750255  1
