# generated using pymatgen
data_TbHo2Al12(OsRh)2
_symmetry_space_group_name_H-M   'P 1'
_cell_length_a   8.77699200
_cell_length_b   8.84503897
_cell_length_c   9.57704600
_cell_angle_alpha   90.00000000
_cell_angle_beta   90.00000000
_cell_angle_gamma   119.74582697
_symmetry_Int_Tables_number   1
_chemical_formula_structural   TbHo2Al12(OsRh)2
_chemical_formula_sum   'Tb2 Ho4 Al24 Os4 Rh4'
_cell_volume   645.52682237
_cell_formula_units_Z   2
loop_
 _symmetry_equiv_pos_site_id
 _symmetry_equiv_pos_as_xyz
  1  'x, y, z'
loop_
 _atom_site_type_symbol
 _atom_site_label
 _atom_site_symmetry_multiplicity
 _atom_site_fract_x
 _atom_site_fract_y
 _atom_site_fract_z
 _atom_site_occupancy
  Tb  Tb0  1  0.191073  0.382144  0.250000  1
  Tb  Tb1  1  0.808927  0.617856  0.750000  1
  Ho  Ho2  1  0.612867  0.812354  0.250000  1
  Ho  Ho3  1  0.387133  0.187646  0.750000  1
  Ho  Ho4  1  0.199486  0.812354  0.250000  1
  Ho  Ho5  1  0.800514  0.187646  0.750000  1
  Al  Al6  1  0.333813  0.667627  0.025435  1
  Al  Al7  1  0.666187  0.332373  0.974565  1
  Al  Al8  1  0.666187  0.332373  0.525435  1
  Al  Al9  1  0.333813  0.667627  0.474565  1
  Al  Al10  1  0.162543  0.325088  0.577900  1
  Al  Al11  1  0.837457  0.674912  0.422100  1
  Al  Al12  1  0.672268  0.836963  0.575552  1
  Al  Al13  1  0.837457  0.674912  0.077900  1
  Al  Al14  1  0.327732  0.163037  0.424448  1
  Al  Al15  1  0.162543  0.325088  0.922100  1
  Al  Al16  1  0.164693  0.836963  0.575552  1
  Al  Al17  1  0.327732  0.163037  0.075552  1
  Al  Al18  1  0.835307  0.163037  0.424448  1
  Al  Al19  1  0.672268  0.836963  0.924448  1
  Al  Al20  1  0.835307  0.163037  0.075552  1
  Al  Al21  1  0.164693  0.836963  0.924448  1
  Al  Al22  1  0.563625  0.127251  0.250000  1
  Al  Al23  1  0.436375  0.872749  0.750000  1
  Al  Al24  1  0.877854  0.440163  0.250000  1
  Al  Al25  1  0.122146  0.559837  0.750000  1
  Al  Al26  1  0.562309  0.440163  0.250000  1
  Al  Al27  1  0.437691  0.559837  0.750000  1
  Al  Al28  1  0.000446  0.000891  0.250000  1
  Al  Al29  1  0.999554  0.999109  0.750000  1
  Os  Os30  1  0.500000  0.000000  0.000000  1
  Os  Os31  1  0.500000  0.000000  0.500000  1
  Os  Os32  1  0.000000  0.000000  0.000000  1
  Os  Os33  1  0.000000  0.000000  0.500000  1
  Rh  Rh34  1  0.000000  0.500000  0.000000  1
  Rh  Rh35  1  0.500000  0.500000  0.000000  1
  Rh  Rh36  1  0.000000  0.500000  0.500000  1
  Rh  Rh37  1  0.500000  0.500000  0.500000  1
