# generated using pymatgen
data_AcLa(Hg2O)2
_symmetry_space_group_name_H-M   'P 1'
_cell_length_a   6.10651494
_cell_length_b   6.00975417
_cell_length_c   11.21223900
_cell_angle_alpha   90.04616265
_cell_angle_beta   98.04717258
_cell_angle_gamma   89.97818846
_symmetry_Int_Tables_number   1
_chemical_formula_structural   AcLa(Hg2O)2
_chemical_formula_sum   'Ac2 La2 Hg8 O4'
_cell_volume   407.42220458
_cell_formula_units_Z   2
loop_
 _symmetry_equiv_pos_site_id
 _symmetry_equiv_pos_as_xyz
  1  'x, y, z'
loop_
 _atom_site_type_symbol
 _atom_site_label
 _atom_site_symmetry_multiplicity
 _atom_site_fract_x
 _atom_site_fract_y
 _atom_site_fract_z
 _atom_site_occupancy
  Ac  Ac0  1  0.526556  0.182100  0.108940  1
  Ac  Ac1  1  0.026655  0.682265  0.108948  1
  La  La2  1  0.973555  0.181833  0.893253  1
  La  La3  1  0.473658  0.681657  0.893250  1
  Hg  Hg4  1  0.531206  0.167506  0.424226  1
  Hg  Hg5  1  0.028043  0.658376  0.424111  1
  Hg  Hg6  1  0.972075  0.158021  0.580668  1
  Hg  Hg7  1  0.468873  0.666753  0.580509  1
  Hg  Hg8  1  0.555434  0.677030  0.299608  1
  Hg  Hg9  1  0.057748  0.172352  0.299467  1
  Hg  Hg10  1  0.945437  0.668766  0.704021  1
  Hg  Hg11  1  0.448129  0.174908  0.703976  1
  O  O12  1  0.748110  0.930794  0.994681  1
  O  O13  1  0.248150  0.933380  0.994558  1
  O  O14  1  0.748216  0.433444  0.994989  1
  O  O15  1  0.248168  0.430776  0.994796  1
