# generated using pymatgen
data_La10Pr6Cd4OsPd3
_symmetry_space_group_name_H-M   'P 1'
_cell_length_a   10.20248993
_cell_length_b   10.20249012
_cell_length_c   10.20248967
_cell_angle_alpha   59.52381614
_cell_angle_beta   59.52381510
_cell_angle_gamma   59.52382443
_symmetry_Int_Tables_number   1
_chemical_formula_structural   La10Pr6Cd4OsPd3
_chemical_formula_sum   'La10 Pr6 Cd4 Os1 Pd3'
_cell_volume   742.80583027
_cell_formula_units_Z   1
loop_
 _symmetry_equiv_pos_site_id
 _symmetry_equiv_pos_as_xyz
  1  'x, y, z'
loop_
 _atom_site_type_symbol
 _atom_site_label
 _atom_site_symmetry_multiplicity
 _atom_site_fract_x
 _atom_site_fract_y
 _atom_site_fract_z
 _atom_site_occupancy
  La  La0  1  0.352219  0.352219  0.352219  1
  La  La1  1  0.346445  0.346445  0.953576  1
  La  La2  1  0.346445  0.953576  0.346445  1
  La  La3  1  0.953576  0.346445  0.346445  1
  La  La4  1  0.817449  0.189324  0.189324  1
  La  La5  1  0.191211  0.805940  0.805940  1
  La  La6  1  0.189324  0.817449  0.189324  1
  La  La7  1  0.805940  0.191211  0.805940  1
  La  La8  1  0.189324  0.189324  0.817449  1
  La  La9  1  0.805940  0.805940  0.191211  1
  Pr  Pr10  1  0.934478  0.565543  0.565543  1
  Pr  Pr11  1  0.557358  0.936895  0.936895  1
  Pr  Pr12  1  0.565543  0.934478  0.565543  1
  Pr  Pr13  1  0.936895  0.557358  0.936895  1
  Pr  Pr14  1  0.565543  0.565543  0.934478  1
  Pr  Pr15  1  0.936895  0.936895  0.557358  1
  Cd  Cd16  1  0.579613  0.579613  0.579613  1
  Cd  Cd17  1  0.580334  0.580334  0.259182  1
  Cd  Cd18  1  0.580334  0.259182  0.580334  1
  Cd  Cd19  1  0.259182  0.580334  0.580334  1
  Os  Os20  1  0.142787  0.142787  0.142787  1
  Pd  Pd21  1  0.145182  0.145182  0.572802  1
  Pd  Pd22  1  0.145182  0.572802  0.145182  1
  Pd  Pd23  1  0.572802  0.145182  0.145182  1
