# generated using pymatgen
data_RuPtBr6
_symmetry_space_group_name_H-M   'P 1'
_cell_length_a   6.54910643
_cell_length_b   6.54910623
_cell_length_c   7.19740864
_cell_angle_alpha   98.24802645
_cell_angle_beta   98.24803310
_cell_angle_gamma   119.89469989
_symmetry_Int_Tables_number   1
_chemical_formula_structural   RuPtBr6
_chemical_formula_sum   'Ru1 Pt1 Br6'
_cell_volume   256.41169932
_cell_formula_units_Z   1
loop_
 _symmetry_equiv_pos_site_id
 _symmetry_equiv_pos_as_xyz
  1  'x, y, z'
loop_
 _atom_site_type_symbol
 _atom_site_label
 _atom_site_symmetry_multiplicity
 _atom_site_fract_x
 _atom_site_fract_y
 _atom_site_fract_z
 _atom_site_occupancy
  Ru  Ru0  1  0.166972  0.833027  0.000000  1
  Pt  Pt1  1  0.833134  0.166865  0.000000  1
  Br  Br2  1  0.917959  0.565608  0.201220  1
  Br  Br3  1  0.559793  0.915561  0.201487  1
  Br  Br4  1  0.210480  0.207171  0.200883  1
  Br  Br5  1  0.792829  0.789520  0.799116  1
  Br  Br6  1  0.434392  0.082041  0.798781  1
  Br  Br7  1  0.084439  0.440207  0.798514  1
