# generated using pymatgen
data_Th2MnCo7B2
_symmetry_space_group_name_H-M   'P 1'
_cell_length_a   5.08005500
_cell_length_b   5.07992915
_cell_length_c   6.95145900
_cell_angle_alpha   90.00000000
_cell_angle_beta   90.00000000
_cell_angle_gamma   120.00086150
_symmetry_Int_Tables_number   1
_chemical_formula_structural   Th2MnCo7B2
_chemical_formula_sum   'Th2 Mn1 Co7 B2'
_cell_volume   155.35630965
_cell_formula_units_Z   1
loop_
 _symmetry_equiv_pos_site_id
 _symmetry_equiv_pos_as_xyz
  1  'x, y, z'
loop_
 _atom_site_type_symbol
 _atom_site_label
 _atom_site_symmetry_multiplicity
 _atom_site_fract_x
 _atom_site_fract_y
 _atom_site_fract_z
 _atom_site_occupancy
  Th  Th0  1  0.999996  0.000016  0.000000  1
  Th  Th1  1  0.999995  0.000015  0.500000  1
  Mn  Mn2  1  0.333298  0.666593  0.000000  1
  Co  Co3  1  0.666595  0.333267  0.000000  1
  Co  Co4  1  0.500957  0.001948  0.291306  1
  Co  Co5  1  0.500960  0.499049  0.291278  1
  Co  Co6  1  0.998052  0.499047  0.291265  1
  Co  Co7  1  0.500957  0.001948  0.708694  1
  Co  Co8  1  0.500960  0.499049  0.708721  1
  Co  Co9  1  0.998052  0.499047  0.708734  1
  B  B10  1  0.333309  0.666649  0.500000  1
  B  B11  1  0.666668  0.333373  0.500000  1
