# generated using pymatgen
data_Er5P12Ir6Os3Rh10
_symmetry_space_group_name_H-M   'P 1'
_cell_length_a   12.66534176
_cell_length_b   12.66613909
_cell_length_c   3.94920100
_cell_angle_alpha   90.00000000
_cell_angle_beta   90.00000000
_cell_angle_gamma   120.03758459
_symmetry_Int_Tables_number   1
_chemical_formula_structural   Er5P12Ir6Os3Rh10
_chemical_formula_sum   'Er5 P12 Ir6 Os3 Rh10'
_cell_volume   548.44923160
_cell_formula_units_Z   1
loop_
 _symmetry_equiv_pos_site_id
 _symmetry_equiv_pos_as_xyz
  1  'x, y, z'
loop_
 _atom_site_type_symbol
 _atom_site_label
 _atom_site_symmetry_multiplicity
 _atom_site_fract_x
 _atom_site_fract_y
 _atom_site_fract_z
 _atom_site_occupancy
  Er  Er0  1  0.666776  0.333668  0.000000  1
  Er  Er1  1  0.333209  0.666714  0.000000  1
  Er  Er2  1  0.817213  0.817224  0.500000  1
  Er  Er3  1  0.182621  0.999775  0.500000  1
  Er  Er4  1  0.000018  0.183430  0.500000  1
  P  P5  1  0.688065  0.169121  0.500000  1
  P  P6  1  0.831227  0.518367  0.500000  1
  P  P7  1  0.481481  0.312095  0.500000  1
  P  P8  1  0.168670  0.687079  0.500000  1
  P  P9  1  0.518525  0.830732  0.500000  1
  P  P10  1  0.312120  0.481083  0.500000  1
  P  P11  1  0.639493  0.639365  0.000000  1
  P  P12  1  0.360799  0.000029  0.000000  1
  P  P13  1  0.000069  0.361350  0.000000  1
  P  P14  1  0.181779  0.181724  0.000000  1
  P  P15  1  0.818317  0.000303  0.000000  1
  P  P16  1  0.999828  0.818254  0.000000  1
  Ir  Ir17  1  0.639813  0.508031  0.500000  1
  Ir  Ir18  1  0.491781  0.131491  0.500000  1
  Ir  Ir19  1  0.360127  0.868160  0.500000  1
  Ir  Ir20  1  0.507752  0.639858  0.500000  1
  Ir  Ir21  1  0.132458  0.491759  0.500000  1
  Ir  Ir22  1  0.000017  0.000078  0.000000  1
  Os  Os23  1  0.283985  0.283747  0.500000  1
  Os  Os24  1  0.715971  0.999618  0.500000  1
  Os  Os25  1  0.000054  0.715995  0.500000  1
  Rh  Rh26  1  0.804737  0.182428  0.000000  1
  Rh  Rh27  1  0.817177  0.622903  0.000000  1
  Rh  Rh28  1  0.377415  0.194601  0.000000  1
  Rh  Rh29  1  0.182636  0.805469  0.000000  1
  Rh  Rh30  1  0.622738  0.817143  0.000000  1
  Rh  Rh31  1  0.194838  0.376964  0.000000  1
  Rh  Rh32  1  0.457590  0.457641  0.000000  1
  Rh  Rh33  1  0.542872  0.000392  0.000000  1
  Rh  Rh34  1  0.000120  0.543616  0.000000  1
  Rh  Rh35  1  0.867708  0.359794  0.500000  1
