# generated using pymatgen
data_LiDy18Y(Cd3Ru)2
_symmetry_space_group_name_H-M   'P 1'
_cell_length_a   9.54458802
_cell_length_b   9.54437953
_cell_length_c   9.75307802
_cell_angle_alpha   89.99999954
_cell_angle_beta   90.00669222
_cell_angle_gamma   119.99928122
_symmetry_Int_Tables_number   1
_chemical_formula_structural   LiDy18Y(Cd3Ru)2
_chemical_formula_sum   'Li1 Dy18 Y1 Cd6 Ru2'
_cell_volume   769.44992129
_cell_formula_units_Z   1
loop_
 _symmetry_equiv_pos_site_id
 _symmetry_equiv_pos_as_xyz
  1  'x, y, z'
loop_
 _atom_site_type_symbol
 _atom_site_label
 _atom_site_symmetry_multiplicity
 _atom_site_fract_x
 _atom_site_fract_y
 _atom_site_fract_z
 _atom_site_occupancy
  Li  Li0  1  0.999998  0.999999  0.500007  1
  Dy  Dy1  1  0.999973  0.999987  0.999969  1
  Dy  Dy2  1  0.208299  0.791877  0.440243  1
  Dy  Dy3  1  0.208299  0.416422  0.440243  1
  Dy  Dy4  1  0.583474  0.791737  0.440333  1
  Dy  Dy5  1  0.791669  0.208113  0.559612  1
  Dy  Dy6  1  0.791669  0.583556  0.559612  1
  Dy  Dy7  1  0.416443  0.208222  0.559689  1
  Dy  Dy8  1  0.789223  0.210535  0.941280  1
  Dy  Dy9  1  0.789223  0.578687  0.941280  1
  Dy  Dy10  1  0.421310  0.210655  0.941225  1
  Dy  Dy11  1  0.210734  0.789437  0.058873  1
  Dy  Dy12  1  0.210734  0.421297  0.058873  1
  Dy  Dy13  1  0.578653  0.789327  0.058783  1
  Dy  Dy14  1  0.541696  0.458328  0.251995  1
  Dy  Dy15  1  0.541696  0.083368  0.251995  1
  Dy  Dy16  1  0.916644  0.458322  0.252031  1
  Dy  Dy17  1  0.458420  0.541651  0.747983  1
  Dy  Dy18  1  0.458420  0.916770  0.747983  1
  Y  Y19  1  0.083497  0.541749  0.747998  1
  Cd  Cd20  1  0.888261  0.111734  0.258058  1
  Cd  Cd21  1  0.888261  0.776529  0.258058  1
  Cd  Cd22  1  0.223484  0.111743  0.258039  1
  Cd  Cd23  1  0.111756  0.888336  0.741947  1
  Cd  Cd24  1  0.111756  0.223418  0.741947  1
  Cd  Cd25  1  0.776487  0.888243  0.741957  1
  Ru  Ru26  1  0.333363  0.666682  0.250463  1
  Ru  Ru27  1  0.666560  0.333279  0.749525  1
