# generated using pymatgen
data_YPa5(AlPt)6
_symmetry_space_group_name_H-M   'P 1'
_cell_length_a   7.06008191
_cell_length_b   7.05529788
_cell_length_c   8.36681800
_cell_angle_alpha   90.00000000
_cell_angle_beta   90.00000000
_cell_angle_gamma   120.26195160
_symmetry_Int_Tables_number   1
_chemical_formula_structural   YPa5(AlPt)6
_chemical_formula_sum   'Y1 Pa5 Al6 Pt6'
_cell_volume   359.96777422
_cell_formula_units_Z   1
loop_
 _symmetry_equiv_pos_site_id
 _symmetry_equiv_pos_as_xyz
  1  'x, y, z'
loop_
 _atom_site_type_symbol
 _atom_site_label
 _atom_site_symmetry_multiplicity
 _atom_site_fract_x
 _atom_site_fract_y
 _atom_site_fract_z
 _atom_site_occupancy
  Y  Y0  1  0.414553  0.414670  0.250000  1
  Pa  Pa1  1  0.998884  0.579538  0.750000  1
  Pa  Pa2  1  0.001391  0.577359  0.250000  1
  Pa  Pa3  1  0.578047  0.002060  0.250000  1
  Pa  Pa4  1  0.579882  0.998406  0.750000  1
  Pa  Pa5  1  0.426995  0.427566  0.750000  1
  Al  Al6  1  0.003437  0.238716  0.498761  1
  Al  Al7  1  0.758125  0.758310  0.001308  1
  Al  Al8  1  0.003437  0.238716  0.001239  1
  Al  Al9  1  0.239371  0.003870  0.498772  1
  Al  Al10  1  0.239371  0.003870  0.001228  1
  Al  Al11  1  0.758125  0.758310  0.498692  1
  Pt  Pt12  1  0.331072  0.672779  0.501332  1
  Pt  Pt13  1  0.672659  0.331508  0.501691  1
  Pt  Pt14  1  0.672659  0.331508  0.998309  1
  Pt  Pt15  1  0.988762  0.988362  0.250000  1
  Pt  Pt16  1  0.002159  0.001671  0.750000  1
  Pt  Pt17  1  0.331072  0.672779  0.998668  1
