# generated using pymatgen
data_Dy2Co9As7Ru3
_symmetry_space_group_name_H-M   'P 1'
_cell_length_a   3.81074700
_cell_length_b   9.37191794
_cell_length_c   9.37191700
_cell_angle_alpha   120.00000021
_cell_angle_beta   90.00000000
_cell_angle_gamma   90.00000000
_symmetry_Int_Tables_number   1
_chemical_formula_structural   Dy2Co9As7Ru3
_chemical_formula_sum   'Dy2 Co9 As7 Ru3'
_cell_volume   289.86625404
_cell_formula_units_Z   1
loop_
 _symmetry_equiv_pos_site_id
 _symmetry_equiv_pos_as_xyz
  1  'x, y, z'
loop_
 _atom_site_type_symbol
 _atom_site_label
 _atom_site_symmetry_multiplicity
 _atom_site_fract_x
 _atom_site_fract_y
 _atom_site_fract_z
 _atom_site_occupancy
  Dy  Dy0  1  0.000000  0.666667  0.333333  1
  Dy  Dy1  1  0.500000  0.333333  0.666667  1
  Co  Co2  1  0.000000  0.568974  0.940755  1
  Co  Co3  1  0.000000  0.371781  0.431026  1
  Co  Co4  1  0.000000  0.059245  0.628219  1
  Co  Co5  1  0.000000  0.876007  0.158203  1
  Co  Co6  1  0.000000  0.282196  0.123993  1
  Co  Co7  1  0.000000  0.841797  0.717804  1
  Co  Co8  1  0.500000  0.946816  0.383072  1
  Co  Co9  1  0.500000  0.436256  0.053184  1
  Co  Co10  1  0.500000  0.616928  0.563744  1
  As  As11  1  0.000000  0.000000  0.000000  1
  As  As12  1  0.500000  0.708242  0.117252  1
  As  As13  1  0.500000  0.409010  0.291758  1
  As  As14  1  0.500000  0.882748  0.590990  1
  As  As15  1  0.000000  0.587841  0.701398  1
  As  As16  1  0.000000  0.113558  0.412159  1
  As  As17  1  0.000000  0.298602  0.886442  1
  Ru  Ru18  1  0.500000  0.780590  0.900199  1
  Ru  Ru19  1  0.500000  0.119609  0.219410  1
  Ru  Ru20  1  0.500000  0.099801  0.880391  1
