# generated using pymatgen
data_Er2Al9NiOsPd
_symmetry_space_group_name_H-M   'P 1'
_cell_length_a   7.51222351
_cell_length_b   7.51222352
_cell_length_c   9.38963825
_cell_angle_alpha   89.91857417
_cell_angle_beta   89.91857758
_cell_angle_gamma   118.85835040
_symmetry_Int_Tables_number   1
_chemical_formula_structural   Er2Al9NiOsPd
_chemical_formula_sum   'Er4 Al18 Ni2 Os2 Pd2'
_cell_volume   464.08426827
_cell_formula_units_Z   2
loop_
 _symmetry_equiv_pos_site_id
 _symmetry_equiv_pos_as_xyz
  1  'x, y, z'
loop_
 _atom_site_type_symbol
 _atom_site_label
 _atom_site_symmetry_multiplicity
 _atom_site_fract_x
 _atom_site_fract_y
 _atom_site_fract_z
 _atom_site_occupancy
  Er  Er0  1  0.994168  0.678441  0.247790  1
  Er  Er1  1  0.005832  0.321559  0.752210  1
  Er  Er2  1  0.678441  0.994168  0.247790  1
  Er  Er3  1  0.321559  0.005832  0.752210  1
  Al  Al4  1  0.134044  0.134044  0.248349  1
  Al  Al5  1  0.865956  0.865956  0.751651  1
  Al  Al6  1  0.996688  0.338065  0.073966  1
  Al  Al7  1  0.003312  0.661935  0.926034  1
  Al  Al8  1  0.998394  0.665657  0.577382  1
  Al  Al9  1  0.334343  0.001606  0.422618  1
  Al  Al10  1  0.001606  0.334343  0.422618  1
  Al  Al11  1  0.665657  0.998394  0.577382  1
  Al  Al12  1  0.661935  0.003312  0.926034  1
  Al  Al13  1  0.338065  0.996688  0.073966  1
  Al  Al14  1  0.330445  0.330445  0.554343  1
  Al  Al15  1  0.669555  0.669555  0.445657  1
  Al  Al16  1  0.667059  0.667059  0.045817  1
  Al  Al17  1  0.332941  0.332941  0.954183  1
  Al  Al18  1  0.343796  0.556138  0.242399  1
  Al  Al19  1  0.656204  0.443862  0.757601  1
  Al  Al20  1  0.556138  0.343796  0.242399  1
  Al  Al21  1  0.443862  0.656204  0.757601  1
  Ni  Ni22  1  0.671220  0.328780  0.000000  1
  Ni  Ni23  1  0.328780  0.671220  0.000000  1
  Os  Os24  1  0.000000  0.000000  0.000000  1
  Os  Os25  1  0.000000  0.000000  0.500000  1
  Pd  Pd26  1  0.328034  0.671966  0.500000  1
  Pd  Pd27  1  0.671966  0.328034  0.500000  1
