# generated using pymatgen
data_Tb3Er5Si12IrPd3
_symmetry_space_group_name_H-M   'P 1'
_cell_length_a   8.18459575
_cell_length_b   8.18459426
_cell_length_c   7.88006605
_cell_angle_alpha   89.98842670
_cell_angle_beta   90.01157254
_cell_angle_gamma   120.04770696
_symmetry_Int_Tables_number   1
_chemical_formula_structural   Tb3Er5Si12IrPd3
_chemical_formula_sum   'Tb3 Er5 Si12 Ir1 Pd3'
_cell_volume   456.92601861
_cell_formula_units_Z   1
loop_
 _symmetry_equiv_pos_site_id
 _symmetry_equiv_pos_as_xyz
  1  'x, y, z'
loop_
 _atom_site_type_symbol
 _atom_site_label
 _atom_site_symmetry_multiplicity
 _atom_site_fract_x
 _atom_site_fract_y
 _atom_site_fract_z
 _atom_site_occupancy
  Tb  Tb0  1  0.487842  0.512158  0.751141  1
  Tb  Tb1  1  0.999986  0.000014  0.251640  1
  Tb  Tb2  1  0.999971  0.000029  0.750245  1
  Er  Er3  1  0.508981  0.017605  0.247532  1
  Er  Er4  1  0.487827  0.975742  0.751884  1
  Er  Er5  1  0.982395  0.491019  0.247532  1
  Er  Er6  1  0.024258  0.512173  0.751884  1
  Er  Er7  1  0.508663  0.491337  0.247535  1
  Si  Si8  1  0.166981  0.334430  0.004251  1
  Si  Si9  1  0.834813  0.669685  0.998545  1
  Si  Si10  1  0.665570  0.833019  0.004251  1
  Si  Si11  1  0.834284  0.668477  0.500116  1
  Si  Si12  1  0.330315  0.165187  0.998545  1
  Si  Si13  1  0.165301  0.331046  0.500072  1
  Si  Si14  1  0.166960  0.833040  0.003249  1
  Si  Si15  1  0.331523  0.165716  0.500116  1
  Si  Si16  1  0.835074  0.164926  0.998325  1
  Si  Si17  1  0.668954  0.834699  0.500072  1
  Si  Si18  1  0.834538  0.165462  0.500391  1
  Si  Si19  1  0.165418  0.834582  0.501258  1
  Ir  Ir20  1  0.332822  0.667178  0.034600  1
  Pd  Pd21  1  0.667267  0.332733  0.967195  1
  Pd  Pd22  1  0.667418  0.332582  0.535879  1
  Pd  Pd23  1  0.332841  0.667159  0.453745  1
