# generated using pymatgen
data_Zr10Sn3Bi3Se
_symmetry_space_group_name_H-M   'P 1'
_cell_length_a   5.90882600
_cell_length_b   8.69787352
_cell_length_c   8.69789700
_cell_angle_alpha   119.99965649
_cell_angle_beta   90.00014819
_cell_angle_gamma   89.99977867
_symmetry_Int_Tables_number   1
_chemical_formula_structural   Zr10Sn3Bi3Se
_chemical_formula_sum   'Zr10 Sn3 Bi3 Se1'
_cell_volume   387.13343835
_cell_formula_units_Z   1
loop_
 _symmetry_equiv_pos_site_id
 _symmetry_equiv_pos_as_xyz
  1  'x, y, z'
loop_
 _atom_site_type_symbol
 _atom_site_label
 _atom_site_symmetry_multiplicity
 _atom_site_fract_x
 _atom_site_fract_y
 _atom_site_fract_z
 _atom_site_occupancy
  Zr  Zr0  1  0.495809  0.333330  0.666667  1
  Zr  Zr1  1  0.495808  0.666666  0.333332  1
  Zr  Zr2  1  0.004732  0.666667  0.333334  1
  Zr  Zr3  1  0.004732  0.333330  0.666665  1
  Zr  Zr4  1  0.767012  0.254196  0.000003  1
  Zr  Zr5  1  0.767012  0.745802  0.745799  1
  Zr  Zr6  1  0.767015  0.999998  0.254194  1
  Zr  Zr7  1  0.234180  0.743839  0.000004  1
  Zr  Zr8  1  0.234181  0.256167  0.256163  1
  Zr  Zr9  1  0.234185  0.000001  0.743835  1
  Sn  Sn10  1  0.250765  0.389446  0.000004  1
  Sn  Sn11  1  0.250763  0.610562  0.610564  1
  Sn  Sn12  1  0.250763  0.000000  0.389437  1
  Bi  Bi13  1  0.747840  0.606375  0.999998  1
  Bi  Bi14  1  0.747839  0.393624  0.393625  1
  Bi  Bi15  1  0.747842  0.000000  0.606375  1
  Se  Se16  1  0.499520  0.999999  0.999998  1
