# generated using pymatgen
data_Ac2NiPdO6
_symmetry_space_group_name_H-M   'P 1'
_cell_length_a   5.64040335
_cell_length_b   5.64040293
_cell_length_c   5.64040306
_cell_angle_alpha   61.72336802
_cell_angle_beta   61.72337323
_cell_angle_gamma   61.72336508
_symmetry_Int_Tables_number   1
_chemical_formula_structural   Ac2NiPdO6
_chemical_formula_sum   'Ac2 Ni1 Pd1 O6'
_cell_volume   131.78739889
_cell_formula_units_Z   1
loop_
 _symmetry_equiv_pos_site_id
 _symmetry_equiv_pos_as_xyz
  1  'x, y, z'
loop_
 _atom_site_type_symbol
 _atom_site_label
 _atom_site_symmetry_multiplicity
 _atom_site_fract_x
 _atom_site_fract_y
 _atom_site_fract_z
 _atom_site_occupancy
  Ac  Ac0  1  0.249749  0.249749  0.249749  1
  Ac  Ac1  1  0.750251  0.750251  0.750251  1
  Ni  Ni2  1  0.500000  0.500000  0.500000  1
  Pd  Pd3  1  0.000000  0.000000  0.000000  1
  O  O4  1  0.314675  0.755296  0.182026  1
  O  O5  1  0.817975  0.685325  0.244705  1
  O  O6  1  0.755296  0.182025  0.314675  1
  O  O7  1  0.244705  0.817975  0.685325  1
  O  O8  1  0.182026  0.314675  0.755295  1
  O  O9  1  0.685326  0.244705  0.817975  1
