# generated using pymatgen
data_Tb2Tm2B12RuW
_symmetry_space_group_name_H-M   'P 1'
_cell_length_a   3.62247000
_cell_length_b   9.19361760
_cell_length_c   11.60765855
_cell_angle_alpha   89.78682646
_cell_angle_beta   90.00000000
_cell_angle_gamma   90.00000000
_symmetry_Int_Tables_number   1
_chemical_formula_structural   Tb2Tm2B12RuW
_chemical_formula_sum   'Tb4 Tm4 B24 Ru2 W2'
_cell_volume   386.57418762
_cell_formula_units_Z   2
loop_
 _symmetry_equiv_pos_site_id
 _symmetry_equiv_pos_as_xyz
  1  'x, y, z'
loop_
 _atom_site_type_symbol
 _atom_site_label
 _atom_site_symmetry_multiplicity
 _atom_site_fract_x
 _atom_site_fract_y
 _atom_site_fract_z
 _atom_site_occupancy
  Tb  Tb0  1  0.000000  0.321237  0.413831  1
  Tb  Tb1  1  0.000000  0.678763  0.586169  1
  Tb  Tb2  1  0.000000  0.821989  0.086115  1
  Tb  Tb3  1  0.000000  0.178011  0.913885  1
  Tm  Tm4  1  0.000000  0.945359  0.371162  1
  Tm  Tm5  1  0.000000  0.054641  0.628838  1
  Tm  Tm6  1  0.000000  0.441685  0.127898  1
  Tm  Tm7  1  0.000000  0.558315  0.872102  1
  B  B8  1  0.500000  0.551527  0.434106  1
  B  B9  1  0.500000  0.448473  0.565894  1
  B  B10  1  0.500000  0.054349  0.067456  1
  B  B11  1  0.500000  0.945651  0.932544  1
  B  B12  1  0.500000  0.752738  0.420713  1
  B  B13  1  0.500000  0.247262  0.579287  1
  B  B14  1  0.500000  0.249020  0.081963  1
  B  B15  1  0.500000  0.750980  0.918037  1
  B  B16  1  0.500000  0.796239  0.263403  1
  B  B17  1  0.500000  0.203761  0.736597  1
  B  B18  1  0.500000  0.290181  0.233343  1
  B  B19  1  0.500000  0.709819  0.766657  1
  B  B20  1  0.500000  0.631268  0.181201  1
  B  B21  1  0.500000  0.368732  0.818799  1
  B  B22  1  0.500000  0.130147  0.313408  1
  B  B23  1  0.500000  0.869853  0.686592  1
  B  B24  1  0.500000  0.984072  0.211965  1
  B  B25  1  0.500000  0.015928  0.788035  1
  B  B26  1  0.500000  0.477879  0.285443  1
  B  B27  1  0.500000  0.522121  0.714557  1
  B  B28  1  0.500000  0.601418  0.027221  1
  B  B29  1  0.500000  0.398582  0.972779  1
  B  B30  1  0.500000  0.101237  0.471177  1
  B  B31  1  0.500000  0.898763  0.528823  1
  Ru  Ru32  1  0.000000  0.138511  0.178827  1
  Ru  Ru33  1  0.000000  0.861489  0.821173  1
  W  W34  1  0.000000  0.639318  0.318967  1
  W  W35  1  0.000000  0.360682  0.681033  1
