# generated using pymatgen
data_Nb4GaCo4SiP2
_symmetry_space_group_name_H-M   'P 1'
_cell_length_a   3.64415200
_cell_length_b   6.24699916
_cell_length_c   7.09277577
_cell_angle_alpha   89.83539444
_cell_angle_beta   90.00000000
_cell_angle_gamma   90.00000000
_symmetry_Int_Tables_number   1
_chemical_formula_structural   Nb4GaCo4SiP2
_chemical_formula_sum   'Nb4 Ga1 Co4 Si1 P2'
_cell_volume   161.46647684
_cell_formula_units_Z   1
loop_
 _symmetry_equiv_pos_site_id
 _symmetry_equiv_pos_as_xyz
  1  'x, y, z'
loop_
 _atom_site_type_symbol
 _atom_site_label
 _atom_site_symmetry_multiplicity
 _atom_site_fract_x
 _atom_site_fract_y
 _atom_site_fract_z
 _atom_site_occupancy
  Nb  Nb0  1  0.250000  0.022364  0.822670  1
  Nb  Nb1  1  0.250000  0.520015  0.679984  1
  Nb  Nb2  1  0.750000  0.977588  0.171003  1
  Nb  Nb3  1  0.750000  0.469124  0.324565  1
  Ga  Ga4  1  0.250000  0.772765  0.377142  1
  Co  Co5  1  0.250000  0.151401  0.445443  1
  Co  Co6  1  0.250000  0.639390  0.047142  1
  Co  Co7  1  0.750000  0.864569  0.578317  1
  Co  Co8  1  0.750000  0.358877  0.932422  1
  Si  Si9  1  0.250000  0.275819  0.120034  1
  P  P10  1  0.750000  0.223879  0.620158  1
  P  P11  1  0.750000  0.724210  0.881120  1
