# generated using pymatgen
data_Pr3Tm2P12Ru9Rh10
_symmetry_space_group_name_H-M   'P 1'
_cell_length_a   12.67580000
_cell_length_b   12.67580016
_cell_length_c   3.97030700
_cell_angle_alpha   90.00000000
_cell_angle_beta   90.00000000
_cell_angle_gamma   119.99999958
_symmetry_Int_Tables_number   1
_chemical_formula_structural   Pr3Tm2P12Ru9Rh10
_chemical_formula_sum   'Pr3 Tm2 P12 Ru9 Rh10'
_cell_volume   552.46591003
_cell_formula_units_Z   1
loop_
 _symmetry_equiv_pos_site_id
 _symmetry_equiv_pos_as_xyz
  1  'x, y, z'
loop_
 _atom_site_type_symbol
 _atom_site_label
 _atom_site_symmetry_multiplicity
 _atom_site_fract_x
 _atom_site_fract_y
 _atom_site_fract_z
 _atom_site_occupancy
  Pr  Pr0  1  0.813685  0.000000  0.500000  1
  Pr  Pr1  1  0.000000  0.813685  0.500000  1
  Pr  Pr2  1  0.186315  0.186315  0.500000  1
  Tm  Tm3  1  0.333333  0.666667  0.000000  1
  Tm  Tm4  1  0.666667  0.333333  0.000000  1
  P  P5  1  0.186481  0.000000  0.000000  1
  P  P6  1  0.000000  0.186481  0.000000  1
  P  P7  1  0.813519  0.813519  0.000000  1
  P  P8  1  0.515252  0.690067  0.500000  1
  P  P9  1  0.309933  0.825185  0.500000  1
  P  P10  1  0.174815  0.484748  0.500000  1
  P  P11  1  0.484748  0.174815  0.500000  1
  P  P12  1  0.690067  0.515252  0.500000  1
  P  P13  1  0.825185  0.309933  0.500000  1
  P  P14  1  0.627585  0.000000  0.000000  1
  P  P15  1  0.000000  0.627585  0.000000  1
  P  P16  1  0.372415  0.372415  0.000000  1
  Ru  Ru17  1  0.289343  0.000000  0.500000  1
  Ru  Ru18  1  0.000000  0.289343  0.500000  1
  Ru  Ru19  1  0.710657  0.710657  0.500000  1
  Ru  Ru20  1  0.509386  0.872682  0.500000  1
  Ru  Ru21  1  0.127318  0.636704  0.500000  1
  Ru  Ru22  1  0.363296  0.490614  0.500000  1
  Ru  Ru23  1  0.490614  0.363296  0.500000  1
  Ru  Ru24  1  0.872682  0.509386  0.500000  1
  Ru  Ru25  1  0.636704  0.127318  0.500000  1
  Rh  Rh26  1  0.449000  0.000000  0.000000  1
  Rh  Rh27  1  0.000000  0.449000  0.000000  1
  Rh  Rh28  1  0.551000  0.551000  0.000000  1
  Rh  Rh29  1  0.620024  0.803277  0.000000  1
  Rh  Rh30  1  0.196723  0.816747  0.000000  1
  Rh  Rh31  1  0.183253  0.379976  0.000000  1
  Rh  Rh32  1  0.379976  0.183253  0.000000  1
  Rh  Rh33  1  0.803277  0.620024  0.000000  1
  Rh  Rh34  1  0.816747  0.196723  0.000000  1
  Rh  Rh35  1  0.000000  0.000000  0.000000  1
