# generated using pymatgen
data_Yb3MgAs3Pd2
_symmetry_space_group_name_H-M   'P 1'
_cell_length_a   7.13552600
_cell_length_b   6.97298527
_cell_length_c   4.27433300
_cell_angle_alpha   90.00000000
_cell_angle_beta   90.00000000
_cell_angle_gamma   120.77413359
_symmetry_Int_Tables_number   1
_chemical_formula_structural   Yb3MgAs3Pd2
_chemical_formula_sum   'Yb3 Mg1 As3 Pd2'
_cell_volume   182.72703195
_cell_formula_units_Z   1
loop_
 _symmetry_equiv_pos_site_id
 _symmetry_equiv_pos_as_xyz
  1  'x, y, z'
loop_
 _atom_site_type_symbol
 _atom_site_label
 _atom_site_symmetry_multiplicity
 _atom_site_fract_x
 _atom_site_fract_y
 _atom_site_fract_z
 _atom_site_occupancy
  Yb  Yb0  1  0.992965  0.564330  0.500000  1
  Yb  Yb1  1  0.428634  0.435670  0.500000  1
  Yb  Yb2  1  0.597930  0.000000  0.500000  1
  Mg  Mg3  1  0.227562  0.000000  0.000000  1
  As  As4  1  0.662537  0.333810  0.000000  1
  As  As5  1  0.328726  0.666190  0.000000  1
  As  As6  1  0.997450  0.000000  0.500000  1
  Pd  Pd7  1  0.759784  0.755372  0.000000  1
  Pd  Pd8  1  0.004411  0.244628  0.000000  1
