# generated using pymatgen
data_Ga6TcRh
_symmetry_space_group_name_H-M   'P 1'
_cell_length_a   6.59049858
_cell_length_b   6.59049858
_cell_length_c   6.78986300
_cell_angle_alpha   90.00000000
_cell_angle_beta   90.00000000
_cell_angle_gamma   89.72063655
_symmetry_Int_Tables_number   1
_chemical_formula_structural   Ga6TcRh
_chemical_formula_sum   'Ga12 Tc2 Rh2'
_cell_volume   294.91196401
_cell_formula_units_Z   2
loop_
 _symmetry_equiv_pos_site_id
 _symmetry_equiv_pos_as_xyz
  1  'x, y, z'
loop_
 _atom_site_type_symbol
 _atom_site_label
 _atom_site_symmetry_multiplicity
 _atom_site_fract_x
 _atom_site_fract_y
 _atom_site_fract_z
 _atom_site_occupancy
  Ga  Ga0  1  0.000000  0.500000  0.500000  1
  Ga  Ga1  1  0.500000  0.000000  0.000000  1
  Ga  Ga2  1  0.500000  0.000000  0.500000  1
  Ga  Ga3  1  0.000000  0.500000  0.000000  1
  Ga  Ga4  1  0.347311  0.652689  0.238978  1
  Ga  Ga5  1  0.652689  0.347311  0.238978  1
  Ga  Ga6  1  0.156989  0.156989  0.731319  1
  Ga  Ga7  1  0.843011  0.843011  0.731319  1
  Ga  Ga8  1  0.652689  0.347311  0.761022  1
  Ga  Ga9  1  0.347311  0.652689  0.761022  1
  Ga  Ga10  1  0.843011  0.843011  0.268681  1
  Ga  Ga11  1  0.156989  0.156989  0.268681  1
  Tc  Tc12  1  0.160732  0.839268  0.500000  1
  Tc  Tc13  1  0.839268  0.160732  0.500000  1
  Rh  Rh14  1  0.342648  0.342648  0.000000  1
  Rh  Rh15  1  0.657352  0.657352  0.000000  1
