# generated using pymatgen
data_Tb3Ho8LuOs4
_symmetry_space_group_name_H-M   'P 1'
_cell_length_a   7.39902751
_cell_length_b   9.01940579
_cell_length_c   6.29678513
_cell_angle_alpha   90.18530898
_cell_angle_beta   90.00789034
_cell_angle_gamma   90.01667632
_symmetry_Int_Tables_number   1
_chemical_formula_structural   Tb3Ho8LuOs4
_chemical_formula_sum   'Tb3 Ho8 Lu1 Os4'
_cell_volume   420.21267517
_cell_formula_units_Z   1
loop_
 _symmetry_equiv_pos_site_id
 _symmetry_equiv_pos_as_xyz
  1  'x, y, z'
loop_
 _atom_site_type_symbol
 _atom_site_label
 _atom_site_symmetry_multiplicity
 _atom_site_fract_x
 _atom_site_fract_y
 _atom_site_fract_z
 _atom_site_occupancy
  Tb  Tb0  1  0.538004  0.249698  0.871819  1
  Tb  Tb1  1  0.039020  0.249281  0.628473  1
  Tb  Tb2  1  0.461205  0.750634  0.129333  1
  Ho  Ho3  1  0.676006  0.062426  0.333124  1
  Ho  Ho4  1  0.174832  0.436675  0.166811  1
  Ho  Ho5  1  0.324231  0.562896  0.666061  1
  Ho  Ho6  1  0.825758  0.937415  0.833146  1
  Ho  Ho7  1  0.323988  0.937682  0.666030  1
  Ho  Ho8  1  0.825106  0.563013  0.832771  1
  Ho  Ho9  1  0.675727  0.437532  0.333352  1
  Ho  Ho10  1  0.961711  0.750672  0.370612  1
  Lu  Lu11  1  0.173737  0.062701  0.166760  1
  Os  Os12  1  0.884020  0.249227  0.042607  1
  Os  Os13  1  0.382412  0.249091  0.456765  1
  Os  Os14  1  0.116837  0.751298  0.960962  1
  Os  Os15  1  0.617407  0.749761  0.541374  1
