# generated using pymatgen
data_Li3Dy2ThPt3
_symmetry_space_group_name_H-M   'P 1'
_cell_length_a   7.19956959
_cell_length_b   7.23244758
_cell_length_c   4.05487900
_cell_angle_alpha   90.00000000
_cell_angle_beta   90.00000000
_cell_angle_gamma   120.15118939
_symmetry_Int_Tables_number   1
_chemical_formula_structural   Li3Dy2ThPt3
_chemical_formula_sum   'Li3 Dy2 Th1 Pt3'
_cell_volume   182.57306262
_cell_formula_units_Z   1
loop_
 _symmetry_equiv_pos_site_id
 _symmetry_equiv_pos_as_xyz
  1  'x, y, z'
loop_
 _atom_site_type_symbol
 _atom_site_label
 _atom_site_symmetry_multiplicity
 _atom_site_fract_x
 _atom_site_fract_y
 _atom_site_fract_z
 _atom_site_occupancy
  Li  Li0  1  0.757050  0.764274  0.000000  1
  Li  Li1  1  0.242950  0.007224  0.000000  1
  Li  Li2  1  0.000000  0.227428  0.000000  1
  Dy  Dy3  1  0.401353  0.403302  0.500000  1
  Dy  Dy4  1  0.598647  0.001948  0.500000  1
  Th  Th5  1  0.000000  0.592358  0.500000  1
  Pt  Pt6  1  0.668575  0.337830  0.000000  1
  Pt  Pt7  1  0.331425  0.669256  0.000000  1
  Pt  Pt8  1  0.000000  0.996381  0.500000  1
