# generated using pymatgen
data_Ti8Ga14Co7As
_symmetry_space_group_name_H-M   'P 1'
_cell_length_a   8.42243447
_cell_length_b   8.42239082
_cell_length_c   8.42243400
_cell_angle_alpha   120.01633691
_cell_angle_beta   119.89515584
_cell_angle_gamma   90.07684819
_symmetry_Int_Tables_number   1
_chemical_formula_structural   Ti8Ga14Co7As
_chemical_formula_sum   'Ti8 Ga14 Co7 As1'
_cell_volume   422.75081495
_cell_formula_units_Z   1
loop_
 _symmetry_equiv_pos_site_id
 _symmetry_equiv_pos_as_xyz
  1  'x, y, z'
loop_
 _atom_site_type_symbol
 _atom_site_label
 _atom_site_symmetry_multiplicity
 _atom_site_fract_x
 _atom_site_fract_y
 _atom_site_fract_z
 _atom_site_occupancy
  Ti  Ti0  1  0.794942  0.288273  0.076812  1
  Ti  Ti1  1  0.211460  0.288273  0.493330  1
  Ti  Ti2  1  0.207864  0.707849  0.499985  1
  Ti  Ti3  1  0.211460  0.718129  0.923188  1
  Ti  Ti4  1  0.794943  0.718129  0.506669  1
  Ti  Ti5  1  0.786571  0.286569  0.499998  1
  Ti  Ti6  1  0.379657  0.122242  0.742585  1
  Ti  Ti7  1  0.379652  0.637062  0.257409  1
  Ga  Ga8  1  0.159382  0.344210  0.184827  1
  Ga  Ga9  1  0.159378  0.974553  0.815174  1
  Ga  Ga10  1  0.157394  0.344227  0.813168  1
  Ga  Ga11  1  0.531056  0.344227  0.186833  1
  Ga  Ga12  1  0.841638  0.657028  0.815392  1
  Ga  Ga13  1  0.841636  0.026243  0.184607  1
  Ga  Ga14  1  0.842179  0.657010  0.185172  1
  Ga  Ga15  1  0.471838  0.657010  0.814831  1
  Ga  Ga16  1  0.380032  0.121305  0.258731  1
  Ga  Ga17  1  0.862576  0.121305  0.741273  1
  Ga  Ga18  1  0.616974  0.873569  0.256595  1
  Ga  Ga19  1  0.616976  0.360390  0.743414  1
  Ga  Ga20  1  0.613822  0.877704  0.736123  1
  Ga  Ga21  1  0.141580  0.877704  0.263882  1
  Co  Co22  1  0.003503  0.001301  0.502956  1
  Co  Co23  1  0.498345  0.001301  0.997799  1
  Co  Co24  1  0.497208  0.497212  0.000003  1
  Co  Co25  1  0.498342  0.500555  0.497044  1
  Co  Co26  1  0.003511  0.500555  0.002213  1
  Co  Co27  1  0.000829  0.000828  0.999999  1
  Co  Co28  1  0.497621  0.997624  0.500004  1
  As  As29  1  0.997627  0.497614  0.499987  1
