# generated using pymatgen
data_La11Pr5Cd4(OsPt)2
_symmetry_space_group_name_H-M   'P 1'
_cell_length_a   10.11596898
_cell_length_b   10.10067038
_cell_length_c   10.19369632
_cell_angle_alpha   59.58186854
_cell_angle_beta   59.62047451
_cell_angle_gamma   59.73301263
_symmetry_Int_Tables_number   1
_chemical_formula_structural   La11Pr5Cd4(OsPt)2
_chemical_formula_sum   'La11 Pr5 Cd4 Os2 Pt2'
_cell_volume   730.56096660
_cell_formula_units_Z   1
loop_
 _symmetry_equiv_pos_site_id
 _symmetry_equiv_pos_as_xyz
  1  'x, y, z'
loop_
 _atom_site_type_symbol
 _atom_site_label
 _atom_site_symmetry_multiplicity
 _atom_site_fract_x
 _atom_site_fract_y
 _atom_site_fract_z
 _atom_site_occupancy
  La  La0  1  0.345850  0.345267  0.353569  1
  La  La1  1  0.347217  0.346885  0.952140  1
  La  La2  1  0.342907  0.960482  0.347582  1
  La  La3  1  0.960786  0.342534  0.346744  1
  La  La4  1  0.815212  0.190117  0.191765  1
  La  La5  1  0.189387  0.815142  0.802868  1
  La  La6  1  0.190149  0.816119  0.191052  1
  La  La7  1  0.814540  0.188913  0.803344  1
  La  La8  1  0.189624  0.188679  0.811057  1
  La  La9  1  0.802960  0.803767  0.195299  1
  La  La10  1  0.938083  0.558235  0.566048  1
  Pr  Pr11  1  0.558061  0.936988  0.937889  1
  Pr  Pr12  1  0.559941  0.938160  0.566318  1
  Pr  Pr13  1  0.937606  0.557916  0.938671  1
  Pr  Pr14  1  0.563041  0.564262  0.938331  1
  Pr  Pr15  1  0.937795  0.937870  0.561590  1
  Cd  Cd16  1  0.579102  0.579698  0.580201  1
  Cd  Cd17  1  0.580016  0.579966  0.259843  1
  Cd  Cd18  1  0.580429  0.258665  0.580370  1
  Cd  Cd19  1  0.258972  0.580567  0.580530  1
  Os  Os20  1  0.142984  0.142950  0.136592  1
  Os  Os21  1  0.141954  0.142954  0.579560  1
  Pt  Pt22  1  0.146526  0.577256  0.139063  1
  Pt  Pt23  1  0.576855  0.146606  0.139571  1
