# generated using pymatgen
data_Tm6Co14P12Ir3W
_symmetry_space_group_name_H-M   'P 1'
_cell_length_a   3.70585600
_cell_length_b   10.64147300
_cell_length_c   12.33327600
_cell_angle_alpha   90.00000000
_cell_angle_beta   90.00000000
_cell_angle_gamma   90.00000000
_symmetry_Int_Tables_number   1
_chemical_formula_structural   Tm6Co14P12Ir3W
_chemical_formula_sum   'Tm6 Co14 P12 Ir3 W1'
_cell_volume   486.37219333
_cell_formula_units_Z   1
loop_
 _symmetry_equiv_pos_site_id
 _symmetry_equiv_pos_as_xyz
  1  'x, y, z'
loop_
 _atom_site_type_symbol
 _atom_site_label
 _atom_site_symmetry_multiplicity
 _atom_site_fract_x
 _atom_site_fract_y
 _atom_site_fract_z
 _atom_site_occupancy
  Tm  Tm0  1  0.000000  0.500000  0.520481  1
  Tm  Tm1  1  0.500000  0.000000  0.479721  1
  Tm  Tm2  1  0.500000  0.814799  0.205541  1
  Tm  Tm3  1  0.500000  0.185201  0.205541  1
  Tm  Tm4  1  0.000000  0.685420  0.796129  1
  Tm  Tm5  1  0.000000  0.314580  0.796129  1
  Co  Co6  1  0.000000  0.500000  0.988222  1
  Co  Co7  1  0.500000  0.000000  0.011906  1
  Co  Co8  1  0.500000  0.332104  0.992032  1
  Co  Co9  1  0.500000  0.667896  0.992032  1
  Co  Co10  1  0.000000  0.168264  0.008069  1
  Co  Co11  1  0.000000  0.831736  0.008069  1
  Co  Co12  1  0.500000  0.298516  0.430518  1
  Co  Co13  1  0.500000  0.701484  0.430518  1
  Co  Co14  1  0.000000  0.200542  0.569964  1
  Co  Co15  1  0.000000  0.799458  0.569964  1
  Co  Co16  1  0.500000  0.879491  0.709956  1
  Co  Co17  1  0.500000  0.120509  0.709956  1
  Co  Co18  1  0.000000  0.620643  0.290678  1
  Co  Co19  1  0.000000  0.379357  0.290678  1
  P  P20  1  0.500000  0.500000  0.888021  1
  P  P21  1  0.000000  0.000000  0.110748  1
  P  P22  1  0.500000  0.500000  0.350786  1
  P  P23  1  0.000000  0.000000  0.648071  1
  P  P24  1  0.500000  0.303019  0.614071  1
  P  P25  1  0.500000  0.696981  0.614071  1
  P  P26  1  0.000000  0.196639  0.386363  1
  P  P27  1  0.000000  0.803361  0.386363  1
  P  P28  1  0.500000  0.844885  0.893086  1
  P  P29  1  0.500000  0.155115  0.893086  1
  P  P30  1  0.000000  0.656575  0.107069  1
  P  P31  1  0.000000  0.343425  0.107069  1
  Ir  Ir32  1  0.000000  0.000000  0.839167  1
  Ir  Ir33  1  0.500000  0.500000  0.701046  1
  Ir  Ir34  1  0.000000  0.000000  0.297500  1
  W  W35  1  0.500000  0.500000  0.157380  1
