# generated using pymatgen
data_Pr3Dy7(SiHg)4
_symmetry_space_group_name_H-M   'P 1'
_cell_length_a   9.19162875
_cell_length_b   8.64718652
_cell_length_c   7.62974571
_cell_angle_alpha   89.78901377
_cell_angle_beta   90.20690782
_cell_angle_gamma   129.26998590
_symmetry_Int_Tables_number   1
_chemical_formula_structural   Pr3Dy7(SiHg)4
_chemical_formula_sum   'Pr3 Dy7 Si4 Hg4'
_cell_volume   469.47365749
_cell_formula_units_Z   1
loop_
 _symmetry_equiv_pos_site_id
 _symmetry_equiv_pos_as_xyz
  1  'x, y, z'
loop_
 _atom_site_type_symbol
 _atom_site_label
 _atom_site_symmetry_multiplicity
 _atom_site_fract_x
 _atom_site_fract_y
 _atom_site_fract_z
 _atom_site_occupancy
  Pr  Pr0  1  0.068458  0.341084  0.320962  1
  Pr  Pr1  1  0.933098  0.659762  0.678929  1
  Pr  Pr2  1  0.430851  0.158633  0.824469  1
  Dy  Dy3  1  0.780731  0.538889  0.177327  1
  Dy  Dy4  1  0.568430  0.833041  0.174108  1
  Dy  Dy5  1  0.221211  0.466342  0.821925  1
  Dy  Dy6  1  0.718197  0.960260  0.677153  1
  Dy  Dy7  1  0.278322  0.040070  0.323763  1
  Dy  Dy8  1  0.000018  0.002451  0.999289  1
  Dy  Dy9  1  0.499101  0.501022  0.499351  1
  Si  Si10  1  0.382746  0.388359  0.120028  1
  Si  Si11  1  0.619100  0.617973  0.882292  1
  Si  Si12  1  0.118046  0.117505  0.620191  1
  Si  Si13  1  0.877295  0.883455  0.377927  1
  Hg  Hg14  1  0.818126  0.252600  0.975091  1
  Hg  Hg15  1  0.182174  0.737910  0.039702  1
  Hg  Hg16  1  0.675660  0.237092  0.469423  1
  Hg  Hg17  1  0.328434  0.763552  0.518069  1
