# generated using pymatgen
data_BeNb2P
_symmetry_space_group_name_H-M   'P 1'
_cell_length_a   4.91466318
_cell_length_b   3.48286700
_cell_length_c   6.87760131
_cell_angle_alpha   90.00000000
_cell_angle_beta   110.26888169
_cell_angle_gamma   90.00000000
_symmetry_Int_Tables_number   1
_chemical_formula_structural   BeNb2P
_chemical_formula_sum   'Be2 Nb4 P2'
_cell_volume   110.43487330
_cell_formula_units_Z   2
loop_
 _symmetry_equiv_pos_site_id
 _symmetry_equiv_pos_as_xyz
  1  'x, y, z'
loop_
 _atom_site_type_symbol
 _atom_site_label
 _atom_site_symmetry_multiplicity
 _atom_site_fract_x
 _atom_site_fract_y
 _atom_site_fract_z
 _atom_site_occupancy
  Be  Be0  1  0.145696  0.750000  0.285751  1
  Be  Be1  1  0.854304  0.250001  0.714247  1
  Nb  Nb2  1  0.291999  0.250001  0.073289  1
  Nb  Nb3  1  0.706046  0.750000  0.429232  1
  Nb  Nb4  1  0.293955  0.250001  0.570768  1
  Nb  Nb5  1  0.708000  0.750000  0.926710  1
  P  P6  1  0.865344  0.250001  0.217592  1
  P  P7  1  0.134655  0.750000  0.782408  1
