# generated using pymatgen
data_Ca3In3Hg2Pt
_symmetry_space_group_name_H-M   'P 1'
_cell_length_a   7.84849200
_cell_length_b   7.84849297
_cell_length_c   4.25867900
_cell_angle_alpha   90.00000000
_cell_angle_beta   90.00000000
_cell_angle_gamma   120.00000433
_symmetry_Int_Tables_number   1
_chemical_formula_structural   Ca3In3Hg2Pt
_chemical_formula_sum   'Ca3 In3 Hg2 Pt1'
_cell_volume   227.18414165
_cell_formula_units_Z   1
loop_
 _symmetry_equiv_pos_site_id
 _symmetry_equiv_pos_as_xyz
  1  'x, y, z'
loop_
 _atom_site_type_symbol
 _atom_site_label
 _atom_site_symmetry_multiplicity
 _atom_site_fract_x
 _atom_site_fract_y
 _atom_site_fract_z
 _atom_site_occupancy
  Ca  Ca0  1  0.000000  0.606025  0.500000  1
  Ca  Ca1  1  0.393975  0.393975  0.500000  1
  Ca  Ca2  1  0.606025  0.000000  0.500000  1
  In  In3  1  0.760841  0.760841  0.000000  1
  In  In4  1  0.000000  0.239159  0.000000  1
  In  In5  1  0.239159  0.000000  0.000000  1
  Hg  Hg6  1  0.333333  0.666667  0.000000  1
  Hg  Hg7  1  0.666667  0.333333  0.000000  1
  Pt  Pt8  1  0.000000  0.000000  0.500000  1
