# generated using pymatgen
data_EuPb3(CO3)4
_symmetry_space_group_name_H-M   'P 1'
_cell_length_a   5.22514600
_cell_length_b   6.25501338
_cell_length_c   8.59340227
_cell_angle_alpha   90.12300781
_cell_angle_beta   90.00000000
_cell_angle_gamma   90.00000000
_symmetry_Int_Tables_number   1
_chemical_formula_structural   EuPb3(CO3)4
_chemical_formula_sum   'Eu1 Pb3 C4 O12'
_cell_volume   280.86059673
_cell_formula_units_Z   1
loop_
 _symmetry_equiv_pos_site_id
 _symmetry_equiv_pos_as_xyz
  1  'x, y, z'
loop_
 _atom_site_type_symbol
 _atom_site_label
 _atom_site_symmetry_multiplicity
 _atom_site_fract_x
 _atom_site_fract_y
 _atom_site_fract_z
 _atom_site_occupancy
  Eu  Eu0  1  0.250000  0.757493  0.584512  1
  Pb  Pb1  1  0.250000  0.254208  0.918015  1
  Pb  Pb2  1  0.750000  0.248328  0.415113  1
  Pb  Pb3  1  0.750000  0.748148  0.082925  1
  C  C4  1  0.250000  0.415493  0.260990  1
  C  C5  1  0.750000  0.590228  0.737410  1
  C  C6  1  0.750000  0.080251  0.758045  1
  C  C7  1  0.250000  0.912155  0.243549  1
  O  O8  1  0.966015  0.076577  0.682506  1
  O  O9  1  0.465625  0.408471  0.184537  1
  O  O10  1  0.465015  0.908959  0.320335  1
  O  O11  1  0.750000  0.599450  0.585954  1
  O  O12  1  0.750000  0.098061  0.909326  1
  O  O13  1  0.533985  0.076577  0.682506  1
  O  O14  1  0.250000  0.905373  0.092071  1
  O  O15  1  0.250000  0.417717  0.412047  1
  O  O16  1  0.533400  0.592540  0.812643  1
  O  O17  1  0.966600  0.592540  0.812643  1
  O  O18  1  0.034375  0.408471  0.184537  1
  O  O19  1  0.034985  0.908959  0.320335  1
