# generated using pymatgen
data_TbEr5(B7W)2
_symmetry_space_group_name_H-M   'P 1'
_cell_length_a   8.11126511
_cell_length_b   8.11126620
_cell_length_c   9.46707700
_cell_angle_alpha   90.00000000
_cell_angle_beta   90.00000000
_cell_angle_gamma   155.52160851
_symmetry_Int_Tables_number   1
_chemical_formula_structural   TbEr5(B7W)2
_chemical_formula_sum   'Tb1 Er5 B14 W2'
_cell_volume   258.08367575
_cell_formula_units_Z   1
loop_
 _symmetry_equiv_pos_site_id
 _symmetry_equiv_pos_as_xyz
  1  'x, y, z'
loop_
 _atom_site_type_symbol
 _atom_site_label
 _atom_site_symmetry_multiplicity
 _atom_site_fract_x
 _atom_site_fract_y
 _atom_site_fract_z
 _atom_site_occupancy
  Tb  Tb0  1  0.753314  0.246686  0.750000  1
  Er  Er1  1  0.892688  0.107312  0.439583  1
  Er  Er2  1  0.107101  0.892899  0.559101  1
  Er  Er3  1  0.892688  0.107312  0.060417  1
  Er  Er4  1  0.107101  0.892899  0.940899  1
  Er  Er5  1  0.245228  0.754772  0.250000  1
  B  B6  1  0.728004  0.271996  0.465498  1
  B  B7  1  0.272584  0.727416  0.530565  1
  B  B8  1  0.728004  0.271996  0.034502  1
  B  B9  1  0.272584  0.727416  0.969435  1
  B  B10  1  0.635376  0.364624  0.147271  1
  B  B11  1  0.364759  0.635241  0.853997  1
  B  B12  1  0.635376  0.364624  0.352729  1
  B  B13  1  0.364759  0.635241  0.646003  1
  B  B14  1  0.519292  0.480708  0.091378  1
  B  B15  1  0.480774  0.519226  0.908632  1
  B  B16  1  0.519292  0.480708  0.408622  1
  B  B17  1  0.480774  0.519226  0.591368  1
  B  B18  1  0.453810  0.546190  0.250000  1
  B  B19  1  0.546406  0.453594  0.750000  1
  W  W20  1  0.053026  0.946974  0.250000  1
  W  W21  1  0.947060  0.052940  0.750000  1
