# generated using pymatgen
data_Al3Cr2Ru6W
_symmetry_space_group_name_H-M   'P 1'
_cell_length_a   4.28116600
_cell_length_b   6.05223500
_cell_length_c   12.78601700
_cell_angle_alpha   90.00000000
_cell_angle_beta   89.99899397
_cell_angle_gamma   90.00000000
_symmetry_Int_Tables_number   1
_chemical_formula_structural   Al3Cr2Ru6W
_chemical_formula_sum   'Al6 Cr4 Ru12 W2'
_cell_volume   331.29366237
_cell_formula_units_Z   2
loop_
 _symmetry_equiv_pos_site_id
 _symmetry_equiv_pos_as_xyz
  1  'x, y, z'
loop_
 _atom_site_type_symbol
 _atom_site_label
 _atom_site_symmetry_multiplicity
 _atom_site_fract_x
 _atom_site_fract_y
 _atom_site_fract_z
 _atom_site_occupancy
  Al  Al0  1  0.999986  0.500001  0.996495  1
  Al  Al1  1  0.499829  0.000000  0.169926  1
  Al  Al2  1  0.999815  0.500001  0.338407  1
  Al  Al3  1  0.499999  0.000000  0.501719  1
  Al  Al4  1  0.000216  0.500001  0.664981  1
  Al  Al5  1  0.500144  0.000000  0.828414  1
  Cr  Cr6  1  0.999832  0.000000  0.338226  1
  Cr  Cr7  1  0.499981  0.500001  0.503345  1
  Cr  Cr8  1  0.000209  0.000000  0.663375  1
  Cr  Cr9  1  0.500158  0.500001  0.828283  1
  Ru  Ru10  1  0.499988  0.250762  0.999777  1
  Ru  Ru11  1  0.499988  0.749238  0.999777  1
  Ru  Ru12  1  0.999851  0.249340  0.166732  1
  Ru  Ru13  1  0.999851  0.750660  0.166732  1
  Ru  Ru14  1  0.499844  0.248845  0.334985  1
  Ru  Ru15  1  0.499844  0.751154  0.334985  1
  Ru  Ru16  1  0.999997  0.249802  0.500716  1
  Ru  Ru17  1  0.999997  0.750198  0.500716  1
  Ru  Ru18  1  0.500189  0.249904  0.666186  1
  Ru  Ru19  1  0.500189  0.750095  0.666186  1
  Ru  Ru20  1  0.000132  0.251246  0.831588  1
  Ru  Ru21  1  0.000132  0.748754  0.831588  1
  W  W22  1  0.999995  0.000000  0.994870  1
  W  W23  1  0.499838  0.500001  0.171992  1
