# generated using pymatgen
data_Li12GeOsN8
_symmetry_space_group_name_H-M   'P 1'
_cell_length_a   6.68042000
_cell_length_b   6.68042000
_cell_length_c   4.88696900
_cell_angle_alpha   90.00000000
_cell_angle_beta   90.00000000
_cell_angle_gamma   90.00000000
_symmetry_Int_Tables_number   1
_chemical_formula_structural   Li12GeOsN8
_chemical_formula_sum   'Li12 Ge1 Os1 N8'
_cell_volume   218.09570813
_cell_formula_units_Z   1
loop_
 _symmetry_equiv_pos_site_id
 _symmetry_equiv_pos_as_xyz
  1  'x, y, z'
loop_
 _atom_site_type_symbol
 _atom_site_label
 _atom_site_symmetry_multiplicity
 _atom_site_fract_x
 _atom_site_fract_y
 _atom_site_fract_z
 _atom_site_occupancy
  Li  Li0  1  0.500000  0.000000  0.577237  1
  Li  Li1  1  0.000000  0.500000  0.883255  1
  Li  Li2  1  0.000000  0.500000  0.422763  1
  Li  Li3  1  0.500000  0.000000  0.116745  1
  Li  Li4  1  0.228905  0.228905  0.500000  1
  Li  Li5  1  0.771095  0.771095  0.500000  1
  Li  Li6  1  0.699446  0.699446  0.000000  1
  Li  Li7  1  0.300554  0.300554  0.000000  1
  Li  Li8  1  0.228905  0.771095  0.500000  1
  Li  Li9  1  0.771095  0.228905  0.500000  1
  Li  Li10  1  0.699446  0.300554  0.000000  1
  Li  Li11  1  0.300554  0.699446  0.000000  1
  Ge  Ge12  1  0.500000  0.500000  0.500000  1
  Os  Os13  1  0.000000  0.000000  0.000000  1
  N  N14  1  0.500000  0.250660  0.305952  1
  N  N15  1  0.500000  0.749340  0.305952  1
  N  N16  1  0.000000  0.770534  0.199176  1
  N  N17  1  0.000000  0.229466  0.199176  1
  N  N18  1  0.250660  0.500000  0.694048  1
  N  N19  1  0.749340  0.500000  0.694048  1
  N  N20  1  0.770534  0.000000  0.800824  1
  N  N21  1  0.229466  0.000000  0.800824  1
