# generated using pymatgen
data_DyTm2ThPt4
_symmetry_space_group_name_H-M   'P 1'
_cell_length_a   4.56215900
_cell_length_b   5.61430260
_cell_length_c   7.03097965
_cell_angle_alpha   89.93037404
_cell_angle_beta   90.00000000
_cell_angle_gamma   90.00000000
_symmetry_Int_Tables_number   1
_chemical_formula_structural   DyTm2ThPt4
_chemical_formula_sum   'Dy1 Tm2 Th1 Pt4'
_cell_volume   180.08674735
_cell_formula_units_Z   1
loop_
 _symmetry_equiv_pos_site_id
 _symmetry_equiv_pos_as_xyz
  1  'x, y, z'
loop_
 _atom_site_type_symbol
 _atom_site_label
 _atom_site_symmetry_multiplicity
 _atom_site_fract_x
 _atom_site_fract_y
 _atom_site_fract_z
 _atom_site_occupancy
  Dy  Dy0  1  0.750000  0.355890  0.813732  1
  Tm  Tm1  1  0.750000  0.142660  0.321423  1
  Tm  Tm2  1  0.250000  0.859196  0.682828  1
  Th  Th3  1  0.250000  0.641898  0.183117  1
  Pt  Pt4  1  0.250000  0.156865  0.044070  1
  Pt  Pt5  1  0.750000  0.843643  0.951209  1
  Pt  Pt6  1  0.750000  0.660849  0.460951  1
  Pt  Pt7  1  0.250000  0.338998  0.542671  1
