# generated using pymatgen
data_Ba2SrCa2(SnAs3)2
_symmetry_space_group_name_H-M   'P 1'
_cell_length_a   4.33160700
_cell_length_b   12.65149600
_cell_length_c   14.16255500
_cell_angle_alpha   90.00000000
_cell_angle_beta   90.00000000
_cell_angle_gamma   90.00000000
_symmetry_Int_Tables_number   1
_chemical_formula_structural   Ba2SrCa2(SnAs3)2
_chemical_formula_sum   'Ba4 Sr2 Ca4 Sn4 As12'
_cell_volume   776.12654760
_cell_formula_units_Z   2
loop_
 _symmetry_equiv_pos_site_id
 _symmetry_equiv_pos_as_xyz
  1  'x, y, z'
loop_
 _atom_site_type_symbol
 _atom_site_label
 _atom_site_symmetry_multiplicity
 _atom_site_fract_x
 _atom_site_fract_y
 _atom_site_fract_z
 _atom_site_occupancy
  Ba  Ba0  1  0.000000  0.869939  0.435337  1
  Ba  Ba1  1  0.000000  0.130061  0.564663  1
  Ba  Ba2  1  0.000000  0.369939  0.064663  1
  Ba  Ba3  1  0.000000  0.630061  0.935337  1
  Sr  Sr4  1  0.000000  0.500000  0.500000  1
  Sr  Sr5  1  0.000000  0.000000  0.000000  1
  Ca  Ca6  1  0.000000  0.623938  0.259262  1
  Ca  Ca7  1  0.000000  0.376062  0.740738  1
  Ca  Ca8  1  0.000000  0.123938  0.240738  1
  Ca  Ca9  1  0.000000  0.876062  0.759262  1
  Sn  Sn10  1  0.500000  0.788461  0.102429  1
  Sn  Sn11  1  0.500000  0.211539  0.897571  1
  Sn  Sn12  1  0.500000  0.288461  0.397571  1
  Sn  Sn13  1  0.500000  0.711539  0.602429  1
  As  As14  1  0.500000  0.580474  0.119989  1
  As  As15  1  0.500000  0.419526  0.880011  1
  As  As16  1  0.500000  0.080474  0.380011  1
  As  As17  1  0.500000  0.919526  0.619989  1
  As  As18  1  0.500000  0.662832  0.416809  1
  As  As19  1  0.500000  0.337168  0.583191  1
  As  As20  1  0.500000  0.162832  0.083191  1
  As  As21  1  0.500000  0.837168  0.916809  1
  As  As22  1  0.000000  0.869786  0.194146  1
  As  As23  1  0.000000  0.130214  0.805854  1
  As  As24  1  0.000000  0.369786  0.305854  1
  As  As25  1  0.000000  0.630214  0.694146  1
