# generated using pymatgen
data_TbTiNb5Sn5Bi
_symmetry_space_group_name_H-M   'P 1'
_cell_length_a   5.80656100
_cell_length_b   5.82032703
_cell_length_c   9.62979900
_cell_angle_alpha   90.00000000
_cell_angle_beta   90.00000000
_cell_angle_gamma   119.92178612
_symmetry_Int_Tables_number   1
_chemical_formula_structural   TbTiNb5Sn5Bi
_chemical_formula_sum   'Tb1 Ti1 Nb5 Sn5 Bi1'
_cell_volume   282.06940164
_cell_formula_units_Z   1
loop_
 _symmetry_equiv_pos_site_id
 _symmetry_equiv_pos_as_xyz
  1  'x, y, z'
loop_
 _atom_site_type_symbol
 _atom_site_label
 _atom_site_symmetry_multiplicity
 _atom_site_fract_x
 _atom_site_fract_y
 _atom_site_fract_z
 _atom_site_occupancy
  Tb  Tb0  1  0.000000  0.000000  0.995837  1
  Ti  Ti1  1  0.500000  0.000000  0.753806  1
  Nb  Nb2  1  0.000000  0.500000  0.753577  1
  Nb  Nb3  1  0.500000  0.500000  0.753577  1
  Nb  Nb4  1  0.000000  0.500000  0.251138  1
  Nb  Nb5  1  0.500000  0.500000  0.251138  1
  Nb  Nb6  1  0.500000  0.000000  0.252235  1
  Sn  Sn7  1  0.665372  0.330744  0.501920  1
  Sn  Sn8  1  0.334628  0.669256  0.501920  1
  Sn  Sn9  1  0.665074  0.330148  0.000812  1
  Sn  Sn10  1  0.334926  0.669852  0.000812  1
  Sn  Sn11  1  0.000000  0.000000  0.322073  1
  Bi  Bi12  1  0.000000  0.000000  0.661155  1
