# generated using pymatgen
data_Nd3Si6TcIr8
_symmetry_space_group_name_H-M   'P 1'
_cell_length_a   4.01764900
_cell_length_b   11.26915400
_cell_length_c   12.90712900
_cell_angle_alpha   90.00000000
_cell_angle_beta   90.00000000
_cell_angle_gamma   90.00000000
_symmetry_Int_Tables_number   1
_chemical_formula_structural   Nd3Si6TcIr8
_chemical_formula_sum   'Nd6 Si12 Tc2 Ir16'
_cell_volume   584.37678743
_cell_formula_units_Z   2
loop_
 _symmetry_equiv_pos_site_id
 _symmetry_equiv_pos_as_xyz
  1  'x, y, z'
loop_
 _atom_site_type_symbol
 _atom_site_label
 _atom_site_symmetry_multiplicity
 _atom_site_fract_x
 _atom_site_fract_y
 _atom_site_fract_z
 _atom_site_occupancy
  Nd  Nd0  1  0.000000  0.500000  0.523891  1
  Nd  Nd1  1  0.500000  0.000000  0.476109  1
  Nd  Nd2  1  0.500000  0.816865  0.204587  1
  Nd  Nd3  1  0.500000  0.183135  0.204587  1
  Nd  Nd4  1  0.000000  0.683135  0.795413  1
  Nd  Nd5  1  0.000000  0.316865  0.795413  1
  Si  Si6  1  0.500000  0.500000  0.880119  1
  Si  Si7  1  0.000000  0.000000  0.119881  1
  Si  Si8  1  0.500000  0.500000  0.335993  1
  Si  Si9  1  0.000000  0.000000  0.664007  1
  Si  Si10  1  0.500000  0.303184  0.616008  1
  Si  Si11  1  0.500000  0.696816  0.616008  1
  Si  Si12  1  0.000000  0.196816  0.383992  1
  Si  Si13  1  0.000000  0.803184  0.383992  1
  Si  Si14  1  0.500000  0.850429  0.893766  1
  Si  Si15  1  0.500000  0.149571  0.893766  1
  Si  Si16  1  0.000000  0.649571  0.106234  1
  Si  Si17  1  0.000000  0.350429  0.106234  1
  Tc  Tc18  1  0.500000  0.500000  0.150275  1
  Tc  Tc19  1  0.000000  0.000000  0.849725  1
  Ir  Ir20  1  0.500000  0.500000  0.693750  1
  Ir  Ir21  1  0.000000  0.000000  0.306250  1
  Ir  Ir22  1  0.000000  0.500000  0.981864  1
  Ir  Ir23  1  0.500000  0.000000  0.018136  1
  Ir  Ir24  1  0.500000  0.330987  0.990971  1
  Ir  Ir25  1  0.500000  0.669013  0.990971  1
  Ir  Ir26  1  0.000000  0.169013  0.009029  1
  Ir  Ir27  1  0.000000  0.830987  0.009029  1
  Ir  Ir28  1  0.500000  0.302523  0.430920  1
  Ir  Ir29  1  0.500000  0.697477  0.430920  1
  Ir  Ir30  1  0.000000  0.197477  0.569080  1
  Ir  Ir31  1  0.000000  0.802523  0.569080  1
  Ir  Ir32  1  0.500000  0.878822  0.711678  1
  Ir  Ir33  1  0.500000  0.121178  0.711678  1
  Ir  Ir34  1  0.000000  0.621178  0.288322  1
  Ir  Ir35  1  0.000000  0.378822  0.288322  1
