# generated using pymatgen
data_Li8Tb2Y6Sn7Bi
_symmetry_space_group_name_H-M   'P 1'
_cell_length_a   9.41145963
_cell_length_b   9.41150561
_cell_length_c   7.32746298
_cell_angle_alpha   90.09420618
_cell_angle_beta   89.91244135
_cell_angle_gamma   119.97075550
_symmetry_Int_Tables_number   1
_chemical_formula_structural   Li8Tb2Y6Sn7Bi
_chemical_formula_sum   'Li8 Tb2 Y6 Sn7 Bi1'
_cell_volume   562.24749347
_cell_formula_units_Z   1
loop_
 _symmetry_equiv_pos_site_id
 _symmetry_equiv_pos_as_xyz
  1  'x, y, z'
loop_
 _atom_site_type_symbol
 _atom_site_label
 _atom_site_symmetry_multiplicity
 _atom_site_fract_x
 _atom_site_fract_y
 _atom_site_fract_z
 _atom_site_occupancy
  Li  Li0  1  0.166659  0.833400  0.196243  1
  Li  Li1  1  0.335709  0.171105  0.690205  1
  Li  Li2  1  0.828854  0.664317  0.690194  1
  Li  Li3  1  0.168109  0.334514  0.193003  1
  Li  Li4  1  0.665463  0.831916  0.192983  1
  Li  Li5  1  0.833230  0.166641  0.693876  1
  Li  Li6  1  0.335468  0.664577  0.815558  1
  Li  Li7  1  0.666019  0.333860  0.313705  1
  Tb  Tb8  1  0.513166  0.486821  0.991830  1
  Tb  Tb9  1  0.022488  0.507497  0.488740  1
  Y  Y10  1  0.492563  0.977545  0.488739  1
  Y  Y11  1  0.518163  0.027790  0.994150  1
  Y  Y12  1  0.972225  0.481835  0.994175  1
  Y  Y13  1  0.486838  0.513229  0.490473  1
  Y  Y14  1  0.997261  0.002733  0.988401  1
  Y  Y15  1  0.997872  0.002115  0.483349  1
  Sn  Sn16  1  0.333326  0.165928  0.256937  1
  Sn  Sn17  1  0.834041  0.666749  0.256866  1
  Sn  Sn18  1  0.165955  0.333273  0.757119  1
  Sn  Sn19  1  0.666723  0.834072  0.757038  1
  Sn  Sn20  1  0.833537  0.166368  0.256097  1
  Sn  Sn21  1  0.332689  0.667393  0.223414  1
  Sn  Sn22  1  0.666907  0.332940  0.722912  1
  Bi  Bi23  1  0.166733  0.833382  0.753997  1
