# generated using pymatgen
data_NaLu7(Si4W3)4
_symmetry_space_group_name_H-M   'P 1'
_cell_length_a   6.67795980
_cell_length_b   6.87533427
_cell_length_c   12.84170480
_cell_angle_alpha   89.88933025
_cell_angle_beta   89.90288833
_cell_angle_gamma   89.77627774
_symmetry_Int_Tables_number   1
_chemical_formula_structural   NaLu7(Si4W3)4
_chemical_formula_sum   'Na1 Lu7 Si16 W12'
_cell_volume   589.59740220
_cell_formula_units_Z   1
loop_
 _symmetry_equiv_pos_site_id
 _symmetry_equiv_pos_as_xyz
  1  'x, y, z'
loop_
 _atom_site_type_symbol
 _atom_site_label
 _atom_site_symmetry_multiplicity
 _atom_site_fract_x
 _atom_site_fract_y
 _atom_site_fract_z
 _atom_site_occupancy
  Na  Na0  1  0.991374  0.834459  0.586341  1
  Lu  Lu1  1  0.497799  0.670324  0.593186  1
  Lu  Lu2  1  0.997158  0.828871  0.907073  1
  Lu  Lu3  1  0.505215  0.329842  0.092629  1
  Lu  Lu4  1  0.004137  0.166962  0.410547  1
  Lu  Lu5  1  0.503072  0.331041  0.408986  1
  Lu  Lu6  1  0.006070  0.169235  0.093219  1
  Lu  Lu7  1  0.496404  0.671303  0.905421  1
  Si  Si8  1  0.661489  0.958725  0.454962  1
  Si  Si9  1  0.165459  0.542934  0.044928  1
  Si  Si10  1  0.335049  0.042018  0.955128  1
  Si  Si11  1  0.839462  0.462699  0.546858  1
  Si  Si12  1  0.332804  0.037384  0.546512  1
  Si  Si13  1  0.835413  0.456760  0.955783  1
  Si  Si14  1  0.666258  0.958034  0.045005  1
  Si  Si15  1  0.161131  0.543556  0.454626  1
  Si  Si16  1  0.467257  0.377909  0.751067  1
  Si  Si17  1  0.968542  0.121851  0.748643  1
  Si  Si18  1  0.531605  0.623587  0.249892  1
  Si  Si19  1  0.032685  0.871933  0.251479  1
  Si  Si20  1  0.705896  0.863145  0.746561  1
  Si  Si21  1  0.194165  0.644491  0.745452  1
  Si  Si22  1  0.300907  0.137460  0.250750  1
  Si  Si23  1  0.801718  0.359041  0.251297  1
  W  W24  1  0.664756  0.167800  0.624995  1
  W  W25  1  0.171404  0.340729  0.875563  1
  W  W26  1  0.331155  0.838268  0.125310  1
  W  W27  1  0.824480  0.658830  0.374338  1
  W  W28  1  0.332079  0.837390  0.374551  1
  W  W29  1  0.828335  0.659063  0.125028  1
  W  W30  1  0.669618  0.162106  0.874458  1
  W  W31  1  0.171902  0.336084  0.626414  1
  W  W32  1  0.838400  0.494710  0.752117  1
  W  W33  1  0.338156  0.002532  0.751998  1
  W  W34  1  0.163812  0.499606  0.249709  1
  W  W35  1  0.664837  0.999321  0.249175  1
