# generated using pymatgen
data_Dy3Ho3Al24GaOs7
_symmetry_space_group_name_H-M   'P 1'
_cell_length_a   8.86571617
_cell_length_b   8.86389185
_cell_length_c   9.54835508
_cell_angle_alpha   90.15815825
_cell_angle_beta   89.82507215
_cell_angle_gamma   119.92183213
_symmetry_Int_Tables_number   1
_chemical_formula_structural   Dy3Ho3Al24GaOs7
_chemical_formula_sum   'Dy3 Ho3 Al24 Ga1 Os7'
_cell_volume   650.33412063
_cell_formula_units_Z   1
loop_
 _symmetry_equiv_pos_site_id
 _symmetry_equiv_pos_as_xyz
  1  'x, y, z'
loop_
 _atom_site_type_symbol
 _atom_site_label
 _atom_site_symmetry_multiplicity
 _atom_site_fract_x
 _atom_site_fract_y
 _atom_site_fract_z
 _atom_site_occupancy
  Dy  Dy0  1  0.192098  0.384332  0.244983  1
  Dy  Dy1  1  0.807773  0.616105  0.755010  1
  Dy  Dy2  1  0.615695  0.807750  0.245177  1
  Ho  Ho3  1  0.386012  0.192539  0.754437  1
  Ho  Ho4  1  0.195051  0.804443  0.256211  1
  Ho  Ho5  1  0.804555  0.195151  0.743583  1
  Al  Al6  1  0.327368  0.672854  0.022553  1
  Al  Al7  1  0.672657  0.327608  0.976664  1
  Al  Al8  1  0.665806  0.334259  0.519655  1
  Al  Al9  1  0.334147  0.665669  0.480609  1
  Al  Al10  1  0.162471  0.325695  0.571684  1
  Al  Al11  1  0.837567  0.673977  0.428660  1
  Al  Al12  1  0.673950  0.837394  0.571744  1
  Al  Al13  1  0.852596  0.678341  0.082624  1
  Al  Al14  1  0.325763  0.162325  0.428776  1
  Al  Al15  1  0.147478  0.321422  0.917240  1
  Al  Al16  1  0.162704  0.837268  0.576727  1
  Al  Al17  1  0.321470  0.147385  0.082102  1
  Al  Al18  1  0.837132  0.162725  0.423494  1
  Al  Al19  1  0.678424  0.852839  0.917288  1
  Al  Al20  1  0.836660  0.163167  0.076033  1
  Al  Al21  1  0.163126  0.837151  0.923493  1
  Al  Al22  1  0.561982  0.120503  0.249410  1
  Al  Al23  1  0.437505  0.879270  0.750419  1
  Al  Al24  1  0.879137  0.437534  0.249616  1
  Al  Al25  1  0.120431  0.562136  0.750520  1
  Al  Al26  1  0.565904  0.433856  0.258451  1
  Al  Al27  1  0.433680  0.565545  0.742044  1
  Al  Al28  1  0.000105  0.999947  0.250838  1
  Al  Al29  1  0.001712  0.001061  0.749361  1
  Ga  Ga30  1  0.499977  0.500093  0.000249  1
  Os  Os31  1  0.499977  0.000310  0.999634  1
  Os  Os32  1  0.000030  0.499961  0.000113  1
  Os  Os33  1  0.499860  0.999970  0.500089  1
  Os  Os34  1  0.999960  0.499883  0.500016  1
  Os  Os35  1  0.499898  0.499776  0.500321  1
  Os  Os36  1  0.999689  0.999920  0.000072  1
  Os  Os37  1  0.999649  0.999835  0.500097  1
