# generated using pymatgen
data_HoTm2Al3Si2Rh
_symmetry_space_group_name_H-M   'P 1'
_cell_length_a   6.83850200
_cell_length_b   6.84397995
_cell_length_c   4.20160600
_cell_angle_alpha   90.00000000
_cell_angle_beta   90.00000000
_cell_angle_gamma   119.97352639
_symmetry_Int_Tables_number   1
_chemical_formula_structural   HoTm2Al3Si2Rh
_chemical_formula_sum   'Ho1 Tm2 Al3 Si2 Rh1'
_cell_volume   170.34581011
_cell_formula_units_Z   1
loop_
 _symmetry_equiv_pos_site_id
 _symmetry_equiv_pos_as_xyz
  1  'x, y, z'
loop_
 _atom_site_type_symbol
 _atom_site_label
 _atom_site_symmetry_multiplicity
 _atom_site_fract_x
 _atom_site_fract_y
 _atom_site_fract_z
 _atom_site_occupancy
  Ho  Ho0  1  0.416380  0.000000  0.000000  1
  Tm  Tm1  1  0.000291  0.415856  0.000000  1
  Tm  Tm2  1  0.584435  0.584144  0.000000  1
  Al  Al3  1  0.764639  0.000000  0.500000  1
  Al  Al4  1  0.235613  0.235855  0.500000  1
  Al  Al5  1  0.999759  0.764146  0.500000  1
  Si  Si6  1  0.667267  0.334219  0.500000  1
  Si  Si7  1  0.333049  0.665781  0.500000  1
  Rh  Rh8  1  0.998565  0.000000  0.000000  1
