# generated using pymatgen
data_Pr10AlSi5
_symmetry_space_group_name_H-M   'P 1'
_cell_length_a   9.13189492
_cell_length_b   9.13189505
_cell_length_c   9.13189487
_cell_angle_alpha   129.14728879
_cell_angle_beta   129.14729526
_cell_angle_gamma   74.77369561
_symmetry_Int_Tables_number   1
_chemical_formula_structural   Pr10AlSi5
_chemical_formula_sum   'Pr10 Al1 Si5'
_cell_volume   446.15962782
_cell_formula_units_Z   1
loop_
 _symmetry_equiv_pos_site_id
 _symmetry_equiv_pos_as_xyz
  1  'x, y, z'
loop_
 _atom_site_type_symbol
 _atom_site_label
 _atom_site_symmetry_multiplicity
 _atom_site_fract_x
 _atom_site_fract_y
 _atom_site_fract_z
 _atom_site_occupancy
  Pr  Pr0  1  0.026603  0.026603  0.000000  1
  Pr  Pr1  1  0.473397  0.473397  0.000000  1
  Pr  Pr2  1  0.170257  0.691848  0.145630  1
  Pr  Pr3  1  0.475374  0.953782  0.145630  1
  Pr  Pr4  1  0.024626  0.170257  0.478409  1
  Pr  Pr5  1  0.329743  0.475374  0.521591  1
  Pr  Pr6  1  0.691848  0.546218  0.521591  1
  Pr  Pr7  1  0.953782  0.808152  0.478409  1
  Pr  Pr8  1  0.546218  0.024626  0.854370  1
  Pr  Pr9  1  0.808152  0.329743  0.854370  1
  Al  Al10  1  0.250000  0.250000  0.000000  1
  Si  Si11  1  0.750000  0.750000  0.000000  1
  Si  Si12  1  0.885879  0.385878  0.271755  1
  Si  Si13  1  0.385878  0.114122  0.500000  1
  Si  Si14  1  0.614122  0.885879  0.500000  1
  Si  Si15  1  0.114122  0.614122  0.728245  1
