# generated using pymatgen
data_LiEu2Fe2N3
_symmetry_space_group_name_H-M   'P 1'
_cell_length_a   6.34658063
_cell_length_b   6.34658027
_cell_length_c   6.38713900
_cell_angle_alpha   88.89951339
_cell_angle_beta   88.89951346
_cell_angle_gamma   119.69714456
_symmetry_Int_Tables_number   1
_chemical_formula_structural   LiEu2Fe2N3
_chemical_formula_sum   'Li2 Eu4 Fe4 N6'
_cell_volume   223.31410636
_cell_formula_units_Z   2
loop_
 _symmetry_equiv_pos_site_id
 _symmetry_equiv_pos_as_xyz
  1  'x, y, z'
loop_
 _atom_site_type_symbol
 _atom_site_label
 _atom_site_symmetry_multiplicity
 _atom_site_fract_x
 _atom_site_fract_y
 _atom_site_fract_z
 _atom_site_occupancy
  Li  Li0  1  0.810298  0.189702  0.750000  1
  Li  Li1  1  0.189702  0.810298  0.250000  1
  Eu  Eu2  1  0.823227  0.684340  0.902984  1
  Eu  Eu3  1  0.315660  0.176773  0.597016  1
  Eu  Eu4  1  0.176773  0.315660  0.097016  1
  Eu  Eu5  1  0.684340  0.823227  0.402984  1
  Fe  Fe6  1  0.573316  0.169369  0.104778  1
  Fe  Fe7  1  0.426684  0.830631  0.895222  1
  Fe  Fe8  1  0.830631  0.426684  0.395222  1
  Fe  Fe9  1  0.169369  0.573316  0.604778  1
  N  N10  1  0.422779  0.577221  0.750000  1
  N  N11  1  0.577221  0.422779  0.250000  1
  N  N12  1  0.996852  0.729249  0.524037  1
  N  N13  1  0.729249  0.996852  0.024037  1
  N  N14  1  0.003148  0.270751  0.475963  1
  N  N15  1  0.270751  0.003148  0.975963  1
