# generated using pymatgen
data_Ho4Mg(SiB4)2
_symmetry_space_group_name_H-M   'P 1'
_cell_length_a   7.15413800
_cell_length_b   7.15413800
_cell_length_c   7.81794700
_cell_angle_alpha   90.00000000
_cell_angle_beta   90.00000000
_cell_angle_gamma   90.00000000
_symmetry_Int_Tables_number   1
_chemical_formula_structural   Ho4Mg(SiB4)2
_chemical_formula_sum   'Ho8 Mg2 Si4 B16'
_cell_volume   400.13574388
_cell_formula_units_Z   2
loop_
 _symmetry_equiv_pos_site_id
 _symmetry_equiv_pos_as_xyz
  1  'x, y, z'
loop_
 _atom_site_type_symbol
 _atom_site_label
 _atom_site_symmetry_multiplicity
 _atom_site_fract_x
 _atom_site_fract_y
 _atom_site_fract_z
 _atom_site_occupancy
  Ho  Ho0  1  0.682537  0.182537  0.232545  1
  Ho  Ho1  1  0.317463  0.817463  0.767455  1
  Ho  Ho2  1  0.317463  0.817463  0.232545  1
  Ho  Ho3  1  0.817463  0.682537  0.232545  1
  Ho  Ho4  1  0.817463  0.682537  0.767455  1
  Ho  Ho5  1  0.682537  0.182537  0.767455  1
  Ho  Ho6  1  0.182537  0.317463  0.767455  1
  Ho  Ho7  1  0.182537  0.317463  0.232545  1
  Mg  Mg8  1  0.000000  0.000000  0.500000  1
  Mg  Mg9  1  0.500000  0.500000  0.500000  1
  Si  Si10  1  0.115407  0.615407  0.500000  1
  Si  Si11  1  0.884593  0.384593  0.500000  1
  Si  Si12  1  0.384593  0.115407  0.500000  1
  Si  Si13  1  0.615407  0.884593  0.500000  1
  B  B14  1  0.173783  0.039970  0.000000  1
  B  B15  1  0.826217  0.960030  0.000000  1
  B  B16  1  0.960030  0.173783  0.000000  1
  B  B17  1  0.326217  0.539970  0.000000  1
  B  B18  1  0.039970  0.826217  0.000000  1
  B  B19  1  0.673783  0.460030  0.000000  1
  B  B20  1  0.539970  0.673783  0.000000  1
  B  B21  1  0.460030  0.326217  0.000000  1
  B  B22  1  0.089041  0.589041  0.000000  1
  B  B23  1  0.910959  0.410959  0.000000  1
  B  B24  1  0.410959  0.089041  0.000000  1
  B  B25  1  0.589041  0.910959  0.000000  1
  B  B26  1  0.000000  0.000000  0.163155  1
  B  B27  1  0.000000  0.000000  0.836845  1
  B  B28  1  0.500000  0.500000  0.836845  1
  B  B29  1  0.500000  0.500000  0.163155  1
