# generated using pymatgen
data_Er2PaV(Co4P3)2
_symmetry_space_group_name_H-M   'P 1'
_cell_length_a   3.69950400
_cell_length_b   10.53138800
_cell_length_c   12.11840600
_cell_angle_alpha   90.00000000
_cell_angle_beta   90.00000000
_cell_angle_gamma   90.00000000
_symmetry_Int_Tables_number   1
_chemical_formula_structural   Er2PaV(Co4P3)2
_chemical_formula_sum   'Er4 Pa2 V2 Co16 P12'
_cell_volume   472.14415013
_cell_formula_units_Z   2
loop_
 _symmetry_equiv_pos_site_id
 _symmetry_equiv_pos_as_xyz
  1  'x, y, z'
loop_
 _atom_site_type_symbol
 _atom_site_label
 _atom_site_symmetry_multiplicity
 _atom_site_fract_x
 _atom_site_fract_y
 _atom_site_fract_z
 _atom_site_occupancy
  Er  Er0  1  0.250000  0.932817  0.796549  1
  Er  Er1  1  0.250000  0.567183  0.796549  1
  Er  Er2  1  0.750000  0.067183  0.203451  1
  Er  Er3  1  0.750000  0.432817  0.203451  1
  Pa  Pa4  1  0.750000  0.250000  0.470131  1
  Pa  Pa5  1  0.250000  0.750000  0.529869  1
  V  V6  1  0.250000  0.250000  0.846484  1
  V  V7  1  0.750000  0.750000  0.153516  1
  Co  Co8  1  0.250000  0.250000  0.303273  1
  Co  Co9  1  0.750000  0.750000  0.696727  1
  Co  Co10  1  0.750000  0.250000  0.013664  1
  Co  Co11  1  0.250000  0.750000  0.986336  1
  Co  Co12  1  0.250000  0.416785  0.007913  1
  Co  Co13  1  0.250000  0.083215  0.007913  1
  Co  Co14  1  0.750000  0.583215  0.992087  1
  Co  Co15  1  0.750000  0.916785  0.992087  1
  Co  Co16  1  0.250000  0.450966  0.566698  1
  Co  Co17  1  0.250000  0.049034  0.566698  1
  Co  Co18  1  0.750000  0.549034  0.433302  1
  Co  Co19  1  0.750000  0.950966  0.433302  1
  Co  Co20  1  0.250000  0.870278  0.291760  1
  Co  Co21  1  0.250000  0.629722  0.291760  1
  Co  Co22  1  0.750000  0.129722  0.708240  1
  Co  Co23  1  0.750000  0.370278  0.708240  1
  P  P24  1  0.250000  0.250000  0.121233  1
  P  P25  1  0.750000  0.750000  0.878767  1
  P  P26  1  0.250000  0.250000  0.654537  1
  P  P27  1  0.750000  0.750000  0.345463  1
  P  P28  1  0.250000  0.442110  0.381668  1
  P  P29  1  0.250000  0.057890  0.381668  1
  P  P30  1  0.750000  0.557890  0.618332  1
  P  P31  1  0.750000  0.942110  0.618332  1
  P  P32  1  0.250000  0.904193  0.107554  1
  P  P33  1  0.250000  0.595807  0.107554  1
  P  P34  1  0.750000  0.095807  0.892446  1
  P  P35  1  0.750000  0.404193  0.892446  1
