# generated using pymatgen
data_La14Nd2Cd4Tc3Ni
_symmetry_space_group_name_H-M   'P 1'
_cell_length_a   9.99350867
_cell_length_b   10.14455034
_cell_length_c   10.12977300
_cell_angle_alpha   60.04816504
_cell_angle_beta   59.54790402
_cell_angle_gamma   59.37493971
_symmetry_Int_Tables_number   1
_chemical_formula_structural   La14Nd2Cd4Tc3Ni
_chemical_formula_sum   'La14 Nd2 Cd4 Tc3 Ni1'
_cell_volume   720.45179590
_cell_formula_units_Z   1
loop_
 _symmetry_equiv_pos_site_id
 _symmetry_equiv_pos_as_xyz
  1  'x, y, z'
loop_
 _atom_site_type_symbol
 _atom_site_label
 _atom_site_symmetry_multiplicity
 _atom_site_fract_x
 _atom_site_fract_y
 _atom_site_fract_z
 _atom_site_occupancy
  La  La0  1  0.598412  0.594253  0.594879  1
  La  La1  1  0.598412  0.594253  0.212457  1
  La  La2  1  0.597964  0.211271  0.595383  1
  La  La3  1  0.214314  0.593555  0.596065  1
  La  La4  1  0.063769  0.439228  0.438656  1
  La  La5  1  0.439615  0.061178  0.060754  1
  La  La6  1  0.439615  0.061178  0.438453  1
  La  La7  1  0.063769  0.439228  0.058346  1
  La  La8  1  0.438818  0.439372  0.060905  1
  La  La9  1  0.065120  0.058483  0.438198  1
  La  La10  1  0.190128  0.808328  0.807709  1
  La  La11  1  0.807060  0.189430  0.188122  1
  La  La12  1  0.807060  0.189430  0.815389  1
  La  La13  1  0.190128  0.808328  0.193836  1
  Nd  Nd14  1  0.808181  0.814118  0.188851  1
  Nd  Nd15  1  0.191389  0.194305  0.807154  1
  Cd  Cd16  1  0.827581  0.828587  0.830486  1
  Cd  Cd17  1  0.827581  0.828587  0.513346  1
  Cd  Cd18  1  0.829854  0.512825  0.828661  1
  Cd  Cd19  1  0.513111  0.829983  0.828453  1
  Tc  Tc20  1  0.385641  0.384008  0.384582  1
  Tc  Tc21  1  0.385641  0.384008  0.845770  1
  Tc  Tc22  1  0.384733  0.847331  0.383969  1
  Ni  Ni23  1  0.832109  0.388735  0.389577  1
