# generated using pymatgen
data_Ta3Al2TcC
_symmetry_space_group_name_H-M   'P 1'
_cell_length_a   8.33168760
_cell_length_b   8.33168733
_cell_length_c   8.33168600
_cell_angle_alpha   59.99999734
_cell_angle_beta   59.99999840
_cell_angle_gamma   59.99999787
_symmetry_Int_Tables_number   1
_chemical_formula_structural   Ta3Al2TcC
_chemical_formula_sum   'Ta12 Al8 Tc4 C4'
_cell_volume   408.96281004
_cell_formula_units_Z   4
loop_
 _symmetry_equiv_pos_site_id
 _symmetry_equiv_pos_as_xyz
  1  'x, y, z'
loop_
 _atom_site_type_symbol
 _atom_site_label
 _atom_site_symmetry_multiplicity
 _atom_site_fract_x
 _atom_site_fract_y
 _atom_site_fract_z
 _atom_site_occupancy
  Ta  Ta0  1  0.559726  0.940274  0.559726  1
  Ta  Ta1  1  0.309726  0.690274  0.690274  1
  Ta  Ta2  1  0.690274  0.309726  0.309726  1
  Ta  Ta3  1  0.309726  0.690274  0.309726  1
  Ta  Ta4  1  0.690274  0.690274  0.309726  1
  Ta  Ta5  1  0.309726  0.309726  0.690274  1
  Ta  Ta6  1  0.559726  0.559726  0.940274  1
  Ta  Ta7  1  0.940274  0.559726  0.559726  1
  Ta  Ta8  1  0.559726  0.940274  0.940274  1
  Ta  Ta9  1  0.940274  0.940274  0.559726  1
  Ta  Ta10  1  0.690274  0.309726  0.690274  1
  Ta  Ta11  1  0.940274  0.559726  0.940274  1
  Al  Al12  1  0.915740  0.915740  0.915740  1
  Al  Al13  1  0.997218  0.334260  0.334260  1
  Al  Al14  1  0.334260  0.997218  0.334260  1
  Al  Al15  1  0.334260  0.334260  0.997218  1
  Al  Al16  1  0.915740  0.252782  0.915740  1
  Al  Al17  1  0.915740  0.915740  0.252782  1
  Al  Al18  1  0.252782  0.915740  0.915740  1
  Al  Al19  1  0.334260  0.334260  0.334260  1
  Tc  Tc20  1  0.125000  0.125000  0.125000  1
  Tc  Tc21  1  0.625000  0.125000  0.125000  1
  Tc  Tc22  1  0.125000  0.625000  0.125000  1
  Tc  Tc23  1  0.125000  0.125000  0.625000  1
  C  C24  1  0.625000  0.625000  0.625000  1
  C  C25  1  0.125000  0.625000  0.625000  1
  C  C26  1  0.625000  0.125000  0.625000  1
  C  C27  1  0.625000  0.625000  0.125000  1
