# generated using pymatgen
data_La6AlCuSb14
_symmetry_space_group_name_H-M   'P 1'
_cell_length_a   12.65468982
_cell_length_b   12.65469012
_cell_length_c   4.29963400
_cell_angle_alpha   80.19372117
_cell_angle_beta   80.19371633
_cell_angle_gamma   101.01069733
_symmetry_Int_Tables_number   1
_chemical_formula_structural   La6AlCuSb14
_chemical_formula_sum   'La6 Al1 Cu1 Sb14'
_cell_volume   651.18820039
_cell_formula_units_Z   1
loop_
 _symmetry_equiv_pos_site_id
 _symmetry_equiv_pos_as_xyz
  1  'x, y, z'
loop_
 _atom_site_type_symbol
 _atom_site_label
 _atom_site_symmetry_multiplicity
 _atom_site_fract_x
 _atom_site_fract_y
 _atom_site_fract_z
 _atom_site_occupancy
  La  La0  1  0.329794  0.677482  0.929305  1
  La  La1  1  0.677482  0.329794  0.929305  1
  La  La2  1  0.272690  0.007165  0.792644  1
  La  La3  1  0.728862  0.998510  0.069679  1
  La  La4  1  0.998510  0.728862  0.069679  1
  La  La5  1  0.007165  0.272690  0.792644  1
  Al  Al6  1  0.370358  0.370358  0.061844  1
  Cu  Cu7  1  0.270852  0.270852  0.661452  1
  Sb  Sb8  1  0.556676  0.556676  0.880488  1
  Sb  Sb9  1  0.471966  0.253218  0.571716  1
  Sb  Sb10  1  0.551882  0.743525  0.285870  1
  Sb  Sb11  1  0.743525  0.551882  0.285870  1
  Sb  Sb12  1  0.253218  0.471966  0.571716  1
  Sb  Sb13  1  0.516174  0.911621  0.721132  1
  Sb  Sb14  1  0.488912  0.082290  0.144677  1
  Sb  Sb15  1  0.082290  0.488912  0.144677  1
  Sb  Sb16  1  0.911621  0.516174  0.721132  1
  Sb  Sb17  1  0.166595  0.166595  0.265126  1
  Sb  Sb18  1  0.861057  0.861057  0.570905  1
  Sb  Sb19  1  0.202478  0.802636  0.429990  1
  Sb  Sb20  1  0.802636  0.202478  0.429990  1
  Sb  Sb21  1  0.995859  0.995859  0.937460  1
