# generated using pymatgen
data_CsRb5(NaPb4)2
_symmetry_space_group_name_H-M   'P 1'
_cell_length_a   9.41892595
_cell_length_b   9.41892562
_cell_length_c   11.23800427
_cell_angle_alpha   89.90748813
_cell_angle_beta   90.09251286
_cell_angle_gamma   135.62656672
_symmetry_Int_Tables_number   1
_chemical_formula_structural   CsRb5(NaPb4)2
_chemical_formula_sum   'Cs1 Rb5 Na2 Pb8'
_cell_volume   697.22776283
_cell_formula_units_Z   1
loop_
 _symmetry_equiv_pos_site_id
 _symmetry_equiv_pos_as_xyz
  1  'x, y, z'
loop_
 _atom_site_type_symbol
 _atom_site_label
 _atom_site_symmetry_multiplicity
 _atom_site_fract_x
 _atom_site_fract_y
 _atom_site_fract_z
 _atom_site_occupancy
  Cs  Cs0  1  0.387709  0.612291  0.056967  1
  Rb  Rb1  1  0.612507  0.387493  0.551669  1
  Rb  Rb2  1  0.613006  0.386994  0.947905  1
  Rb  Rb3  1  0.387541  0.612459  0.448911  1
  Rb  Rb4  1  0.764614  0.235386  0.250982  1
  Rb  Rb5  1  0.234596  0.765404  0.749104  1
  Na  Na6  1  0.000219  0.999781  0.499942  1
  Na  Na7  1  0.000245  0.999755  0.998827  1
  Pb  Pb8  1  0.287260  0.189972  0.251538  1
  Pb  Pb9  1  0.826331  0.173669  0.885489  1
  Pb  Pb10  1  0.825856  0.174144  0.610345  1
  Pb  Pb11  1  0.190877  0.288391  0.748104  1
  Pb  Pb12  1  0.711609  0.809123  0.748104  1
  Pb  Pb13  1  0.174923  0.825077  0.387832  1
  Pb  Pb14  1  0.810028  0.712740  0.251538  1
  Pb  Pb15  1  0.172677  0.827323  0.112743  1
