# generated using pymatgen
data_Zr5AgBi2Pb
_symmetry_space_group_name_H-M   'P 1'
_cell_length_a   8.90650219
_cell_length_b   8.90650183
_cell_length_c   5.99963600
_cell_angle_alpha   90.00000000
_cell_angle_beta   90.00000000
_cell_angle_gamma   119.88882072
_symmetry_Int_Tables_number   1
_chemical_formula_structural   Zr5AgBi2Pb
_chemical_formula_sum   'Zr10 Ag2 Bi4 Pb2'
_cell_volume   412.62480542
_cell_formula_units_Z   2
loop_
 _symmetry_equiv_pos_site_id
 _symmetry_equiv_pos_as_xyz
  1  'x, y, z'
loop_
 _atom_site_type_symbol
 _atom_site_label
 _atom_site_symmetry_multiplicity
 _atom_site_fract_x
 _atom_site_fract_y
 _atom_site_fract_z
 _atom_site_occupancy
  Zr  Zr0  1  0.666699  0.333099  0.001037  1
  Zr  Zr1  1  0.333099  0.666699  0.001037  1
  Zr  Zr2  1  0.333099  0.666699  0.498963  1
  Zr  Zr3  1  0.666699  0.333099  0.498963  1
  Zr  Zr4  1  0.721586  0.721586  0.750000  1
  Zr  Zr5  1  0.278217  0.000162  0.750000  1
  Zr  Zr6  1  0.000162  0.278217  0.750000  1
  Zr  Zr7  1  0.277886  0.277886  0.250000  1
  Zr  Zr8  1  0.722047  0.001031  0.250000  1
  Zr  Zr9  1  0.001031  0.722047  0.250000  1
  Ag  Ag10  1  0.000508  0.000508  0.000393  1
  Ag  Ag11  1  0.000508  0.000508  0.499607  1
  Bi  Bi12  1  0.379333  0.379333  0.750000  1
  Bi  Bi13  1  0.619974  0.000580  0.750000  1
  Bi  Bi14  1  0.000580  0.619974  0.750000  1
  Bi  Bi15  1  0.620227  0.620227  0.250000  1
  Pb  Pb16  1  0.378498  0.999848  0.250000  1
  Pb  Pb17  1  0.999848  0.378498  0.250000  1
