# generated using pymatgen
data_PrB2OsRu
_symmetry_space_group_name_H-M   'P 1'
_cell_length_a   6.82624297
_cell_length_b   6.02120540
_cell_length_c   5.63156464
_cell_angle_alpha   71.63090522
_cell_angle_beta   56.83751292
_cell_angle_gamma   51.86410312
_symmetry_Int_Tables_number   1
_chemical_formula_structural   PrB2OsRu
_chemical_formula_sum   'Pr2 B4 Os2 Ru2'
_cell_volume   152.31805409
_cell_formula_units_Z   2
loop_
 _symmetry_equiv_pos_site_id
 _symmetry_equiv_pos_as_xyz
  1  'x, y, z'
loop_
 _atom_site_type_symbol
 _atom_site_label
 _atom_site_symmetry_multiplicity
 _atom_site_fract_x
 _atom_site_fract_y
 _atom_site_fract_z
 _atom_site_occupancy
  Pr  Pr0  1  0.996850  0.996850  0.003150  1
  Pr  Pr1  1  0.253150  0.253150  0.246850  1
  B  B2  1  0.682683  0.318660  0.683139  1
  B  B3  1  0.318660  0.682683  0.315518  1
  B  B4  1  0.931340  0.567317  0.934482  1
  B  B5  1  0.567317  0.931340  0.566861  1
  Os  Os6  1  0.615201  0.615201  0.884799  1
  Os  Os7  1  0.634799  0.634799  0.365200  1
  Ru  Ru8  1  0.362025  0.362026  0.637974  1
  Ru  Ru9  1  0.887975  0.887974  0.612025  1
