# generated using pymatgen
data_Dy5Y3MgCdPt2
_symmetry_space_group_name_H-M   'P 1'
_cell_length_a   9.74444322
_cell_length_b   9.74444240
_cell_length_c   9.74365000
_cell_angle_alpha   60.00269674
_cell_angle_beta   60.00269953
_cell_angle_gamma   59.91153724
_symmetry_Int_Tables_number   1
_chemical_formula_structural   Dy5Y3MgCdPt2
_chemical_formula_sum   'Dy10 Y6 Mg2 Cd2 Pt4'
_cell_volume   653.80342975
_cell_formula_units_Z   2
loop_
 _symmetry_equiv_pos_site_id
 _symmetry_equiv_pos_as_xyz
  1  'x, y, z'
loop_
 _atom_site_type_symbol
 _atom_site_label
 _atom_site_symmetry_multiplicity
 _atom_site_fract_x
 _atom_site_fract_y
 _atom_site_fract_z
 _atom_site_occupancy
  Dy  Dy0  1  0.350884  0.350884  0.349262  1
  Dy  Dy1  1  0.350884  0.350884  0.948970  1
  Dy  Dy2  1  0.352078  0.946462  0.350730  1
  Dy  Dy3  1  0.946462  0.352078  0.350730  1
  Dy  Dy4  1  0.811056  0.189482  0.189374  1
  Dy  Dy5  1  0.189482  0.811056  0.810089  1
  Dy  Dy6  1  0.189482  0.811056  0.189374  1
  Dy  Dy7  1  0.811056  0.189482  0.810089  1
  Dy  Dy8  1  0.191830  0.191830  0.808170  1
  Dy  Dy9  1  0.812716  0.812716  0.187284  1
  Y  Y10  1  0.937503  0.564309  0.564274  1
  Y  Y11  1  0.564309  0.937503  0.933915  1
  Y  Y12  1  0.564309  0.937503  0.564274  1
  Y  Y13  1  0.937503  0.564309  0.933915  1
  Y  Y14  1  0.566641  0.566641  0.933359  1
  Y  Y15  1  0.937008  0.937008  0.562992  1
  Mg  Mg16  1  0.575974  0.575974  0.581305  1
  Mg  Mg17  1  0.575974  0.575974  0.266749  1
  Cd  Cd18  1  0.581854  0.253703  0.582222  1
  Cd  Cd19  1  0.253703  0.581854  0.582222  1
  Pt  Pt20  1  0.143013  0.143013  0.143853  1
  Pt  Pt21  1  0.143013  0.143013  0.570122  1
  Pt  Pt22  1  0.141687  0.571583  0.143365  1
  Pt  Pt23  1  0.571583  0.141687  0.143365  1
