# generated using pymatgen
data_Ho4Th(CoO6)2
_symmetry_space_group_name_H-M   'P 1'
_cell_length_a   6.79257342
_cell_length_b   6.79257381
_cell_length_c   7.16752755
_cell_angle_alpha   74.78816260
_cell_angle_beta   74.78815870
_cell_angle_gamma   50.41674141
_symmetry_Int_Tables_number   1
_chemical_formula_structural   Ho4Th(CoO6)2
_chemical_formula_sum   'Ho4 Th1 Co2 O12'
_cell_volume   243.91928216
_cell_formula_units_Z   1
loop_
 _symmetry_equiv_pos_site_id
 _symmetry_equiv_pos_as_xyz
  1  'x, y, z'
loop_
 _atom_site_type_symbol
 _atom_site_label
 _atom_site_symmetry_multiplicity
 _atom_site_fract_x
 _atom_site_fract_y
 _atom_site_fract_z
 _atom_site_occupancy
  Ho  Ho0  1  0.308143  0.308143  0.349547  1
  Ho  Ho1  1  0.691857  0.691857  0.650453  1
  Ho  Ho2  1  0.303938  0.303938  0.844659  1
  Ho  Ho3  1  0.696062  0.696062  0.155341  1
  Th  Th4  1  0.000000  0.000000  0.500000  1
  Co  Co5  1  0.752968  0.247032  0.000000  1
  Co  Co6  1  0.247032  0.752968  0.000000  1
  O  O7  1  0.901590  0.418757  0.919969  1
  O  O8  1  0.418757  0.901590  0.919969  1
  O  O9  1  0.098410  0.581243  0.080031  1
  O  O10  1  0.581243  0.098410  0.080031  1
  O  O11  1  0.095946  0.595157  0.576914  1
  O  O12  1  0.595157  0.095946  0.576914  1
  O  O13  1  0.904054  0.404843  0.423086  1
  O  O14  1  0.404843  0.904054  0.423086  1
  O  O15  1  0.999988  0.999988  0.827002  1
  O  O16  1  0.000012  0.000012  0.172998  1
  O  O17  1  0.499283  0.499283  0.821892  1
  O  O18  1  0.500717  0.500717  0.178108  1
