# generated using pymatgen
data_Dy9Tm(Ir2Ru)2
_symmetry_space_group_name_H-M   'P 1'
_cell_length_a   10.82643700
_cell_length_b   10.82643700
_cell_length_c   6.42562200
_cell_angle_alpha   90.00000000
_cell_angle_beta   90.00000000
_cell_angle_gamma   90.00000000
_symmetry_Int_Tables_number   1
_chemical_formula_structural   Dy9Tm(Ir2Ru)2
_chemical_formula_sum   'Dy18 Tm2 Ir8 Ru4'
_cell_volume   753.15832309
_cell_formula_units_Z   2
loop_
 _symmetry_equiv_pos_site_id
 _symmetry_equiv_pos_as_xyz
  1  'x, y, z'
loop_
 _atom_site_type_symbol
 _atom_site_label
 _atom_site_symmetry_multiplicity
 _atom_site_fract_x
 _atom_site_fract_y
 _atom_site_fract_z
 _atom_site_occupancy
  Dy  Dy0  1  0.292629  0.086769  0.378480  1
  Dy  Dy1  1  0.292629  0.913231  0.878480  1
  Dy  Dy2  1  0.707371  0.086769  0.878480  1
  Dy  Dy3  1  0.707371  0.913231  0.378480  1
  Dy  Dy4  1  0.586941  0.793638  0.878796  1
  Dy  Dy5  1  0.586941  0.206362  0.378796  1
  Dy  Dy6  1  0.413059  0.793638  0.378796  1
  Dy  Dy7  1  0.413059  0.206362  0.878796  1
  Dy  Dy8  1  0.206362  0.413059  0.621204  1
  Dy  Dy9  1  0.206362  0.586941  0.121204  1
  Dy  Dy10  1  0.793638  0.413059  0.121204  1
  Dy  Dy11  1  0.793638  0.586941  0.621204  1
  Dy  Dy12  1  0.913231  0.707371  0.121520  1
  Dy  Dy13  1  0.913231  0.292629  0.621520  1
  Dy  Dy14  1  0.086769  0.707371  0.621520  1
  Dy  Dy15  1  0.086769  0.292629  0.121520  1
  Dy  Dy16  1  0.500000  0.500000  0.000000  1
  Dy  Dy17  1  0.500000  0.500000  0.500000  1
  Tm  Tm18  1  0.000000  0.000000  0.500000  1
  Tm  Tm19  1  0.000000  0.000000  0.000000  1
  Ir  Ir20  1  0.848871  0.151129  0.250000  1
  Ir  Ir21  1  0.848871  0.848871  0.750000  1
  Ir  Ir22  1  0.151129  0.151129  0.750000  1
  Ir  Ir23  1  0.151129  0.848871  0.250000  1
  Ir  Ir24  1  0.652344  0.347656  0.750000  1
  Ir  Ir25  1  0.652344  0.652344  0.250000  1
  Ir  Ir26  1  0.347656  0.347656  0.250000  1
  Ir  Ir27  1  0.347656  0.652344  0.750000  1
  Ru  Ru28  1  0.500000  0.000000  0.123558  1
  Ru  Ru29  1  0.500000  0.000000  0.623558  1
  Ru  Ru30  1  0.000000  0.500000  0.876442  1
  Ru  Ru31  1  0.000000  0.500000  0.376442  1
