# generated using pymatgen
data_DyCuAgPt3
_symmetry_space_group_name_H-M   'P 1'
_cell_length_a   5.17351555
_cell_length_b   5.17351526
_cell_length_c   5.17351498
_cell_angle_alpha   62.94989417
_cell_angle_beta   62.94989980
_cell_angle_gamma   62.94988680
_symmetry_Int_Tables_number   1
_chemical_formula_structural   DyCuAgPt3
_chemical_formula_sum   'Dy1 Cu1 Ag1 Pt3'
_cell_volume   104.32817121
_cell_formula_units_Z   1
loop_
 _symmetry_equiv_pos_site_id
 _symmetry_equiv_pos_as_xyz
  1  'x, y, z'
loop_
 _atom_site_type_symbol
 _atom_site_label
 _atom_site_symmetry_multiplicity
 _atom_site_fract_x
 _atom_site_fract_y
 _atom_site_fract_z
 _atom_site_occupancy
  Dy  Dy0  1  0.001355  0.001355  0.001355  1
  Cu  Cu1  1  0.624417  0.624417  0.624417  1
  Ag  Ag2  1  0.250567  0.250567  0.250567  1
  Pt  Pt3  1  0.623845  0.623845  0.125970  1
  Pt  Pt4  1  0.623845  0.125970  0.623845  1
  Pt  Pt5  1  0.125970  0.623845  0.623845  1
