# generated using pymatgen
data_Ho2Er2HfPt15
_symmetry_space_group_name_H-M   'P 1'
_cell_length_a   4.09760900
_cell_length_b   4.09760900
_cell_length_c   20.43353300
_cell_angle_alpha   90.00000000
_cell_angle_beta   90.00000000
_cell_angle_gamma   90.00000000
_symmetry_Int_Tables_number   1
_chemical_formula_structural   Ho2Er2HfPt15
_chemical_formula_sum   'Ho2 Er2 Hf1 Pt15'
_cell_volume   343.08718261
_cell_formula_units_Z   1
loop_
 _symmetry_equiv_pos_site_id
 _symmetry_equiv_pos_as_xyz
  1  'x, y, z'
loop_
 _atom_site_type_symbol
 _atom_site_label
 _atom_site_symmetry_multiplicity
 _atom_site_fract_x
 _atom_site_fract_y
 _atom_site_fract_z
 _atom_site_occupancy
  Ho  Ho0  1  0.000000  0.000000  0.600477  1
  Ho  Ho1  1  0.000000  0.000000  0.801158  1
  Er  Er2  1  0.000000  0.000000  0.198832  1
  Er  Er3  1  0.000000  0.000000  0.399524  1
  Hf  Hf4  1  0.000000  0.000000  0.000020  1
  Pt  Pt5  1  0.500000  0.500000  0.000037  1
  Pt  Pt6  1  0.500000  0.500000  0.196798  1
  Pt  Pt7  1  0.500000  0.500000  0.399133  1
  Pt  Pt8  1  0.500000  0.500000  0.600836  1
  Pt  Pt9  1  0.500000  0.500000  0.803211  1
  Pt  Pt10  1  0.500000  0.000000  0.095196  1
  Pt  Pt11  1  0.500000  0.000000  0.298259  1
  Pt  Pt12  1  0.500000  0.000000  0.499838  1
  Pt  Pt13  1  0.500000  0.000000  0.701737  1
  Pt  Pt14  1  0.500000  0.000000  0.904957  1
  Pt  Pt15  1  0.000000  0.500000  0.095196  1
  Pt  Pt16  1  0.000000  0.500000  0.298259  1
  Pt  Pt17  1  0.000000  0.500000  0.499838  1
  Pt  Pt18  1  0.000000  0.500000  0.701737  1
  Pt  Pt19  1  0.000000  0.500000  0.904957  1
