# generated using pymatgen
data_Nd11Dy(SiBr3)4
_symmetry_space_group_name_H-M   'P 1'
_cell_length_a   10.42171233
_cell_length_b   10.41478801
_cell_length_c   10.42179748
_cell_angle_alpha   109.54265961
_cell_angle_beta   109.36393618
_cell_angle_gamma   109.53769626
_symmetry_Int_Tables_number   1
_chemical_formula_structural   Nd11Dy(SiBr3)4
_chemical_formula_sum   'Nd11 Dy1 Si4 Br12'
_cell_volume   870.45224095
_cell_formula_units_Z   1
loop_
 _symmetry_equiv_pos_site_id
 _symmetry_equiv_pos_as_xyz
  1  'x, y, z'
loop_
 _atom_site_type_symbol
 _atom_site_label
 _atom_site_symmetry_multiplicity
 _atom_site_fract_x
 _atom_site_fract_y
 _atom_site_fract_z
 _atom_site_occupancy
  Nd  Nd0  1  0.750217  0.237745  0.261268  1
  Nd  Nd1  1  0.238751  0.262250  0.749768  1
  Nd  Nd2  1  0.476384  0.487480  0.238539  1
  Nd  Nd3  1  0.261430  0.012459  0.023591  1
  Nd  Nd4  1  0.239018  0.476417  0.486540  1
  Nd  Nd5  1  0.013482  0.023573  0.261003  1
  Nd  Nd6  1  0.013441  0.488549  0.750366  1
  Nd  Nd7  1  0.488233  0.240132  0.476536  1
  Nd  Nd8  1  0.749653  0.011497  0.486593  1
  Nd  Nd9  1  0.023488  0.259885  0.011751  1
  Nd  Nd10  1  0.261474  0.750007  0.238481  1
  Dy  Dy11  1  0.483025  0.749998  0.016961  1
  Si  Si12  1  0.250496  0.249989  0.249477  1
  Si  Si13  1  0.000349  0.250003  0.499656  1
  Si  Si14  1  0.251285  0.501234  0.999988  1
  Si  Si15  1  0.500026  0.998778  0.248742  1
  Br  Br16  1  0.995446  0.989979  0.743748  1
  Br  Br17  1  0.744119  0.744111  0.236324  1
  Br  Br18  1  0.990657  0.744179  0.994314  1
  Br  Br19  1  0.250335  0.995642  0.504567  1
  Br  Br20  1  0.738386  0.986172  0.991828  1
  Br  Br21  1  0.505040  0.249977  0.994943  1
  Br  Br22  1  0.746019  0.250017  0.754011  1
  Br  Br23  1  0.505646  0.755799  0.509261  1
  Br  Br24  1  0.756247  0.510031  0.504572  1
  Br  Br25  1  0.263707  0.755933  0.755861  1
  Br  Br26  1  0.508201  0.513834  0.761632  1
  Br  Br27  1  0.995444  0.504333  0.249677  1
