# generated using pymatgen
data_LaNd3Cu(AuO4)3
_symmetry_space_group_name_H-M   'P 1'
_cell_length_a   4.00786337
_cell_length_b   5.65399000
_cell_length_c   13.00623168
_cell_angle_alpha   90.00000000
_cell_angle_beta   89.02595769
_cell_angle_gamma   90.00000000
_symmetry_Int_Tables_number   1
_chemical_formula_structural   LaNd3Cu(AuO4)3
_chemical_formula_sum   'La1 Nd3 Cu1 Au3 O12'
_cell_volume   294.68407681
_cell_formula_units_Z   1
loop_
 _symmetry_equiv_pos_site_id
 _symmetry_equiv_pos_as_xyz
  1  'x, y, z'
loop_
 _atom_site_type_symbol
 _atom_site_label
 _atom_site_symmetry_multiplicity
 _atom_site_fract_x
 _atom_site_fract_y
 _atom_site_fract_z
 _atom_site_occupancy
  La  La0  1  0.720907  0.750000  0.585515  1
  Nd  Nd1  1  0.260795  0.750000  0.078651  1
  Nd  Nd2  1  0.252913  0.250000  0.424168  1
  Nd  Nd3  1  0.744786  0.250000  0.917334  1
  Cu  Cu4  1  0.072945  0.250000  0.670622  1
  Au  Au5  1  0.082930  0.750000  0.824795  1
  Au  Au6  1  0.929932  0.250000  0.168821  1
  Au  Au7  1  0.927492  0.750000  0.330728  1
  O  O8  1  0.182507  0.500115  0.248883  1
  O  O9  1  0.844417  0.016182  0.747875  1
  O  O10  1  0.844417  0.483818  0.747875  1
  O  O11  1  0.182507  0.999885  0.248883  1
  O  O12  1  0.742220  0.497919  0.075223  1
  O  O13  1  0.735524  0.501274  0.424704  1
  O  O14  1  0.262215  0.996555  0.919714  1
  O  O15  1  0.236767  0.017777  0.583285  1
  O  O16  1  0.735524  0.998726  0.424704  1
  O  O17  1  0.742220  0.002081  0.075223  1
  O  O18  1  0.236767  0.482223  0.583285  1
  O  O19  1  0.262215  0.503445  0.919714  1
