# generated using pymatgen
data_YbEuBC11
_symmetry_space_group_name_H-M   'P 1'
_cell_length_a   4.39914008
_cell_length_b   4.39777725
_cell_length_c   9.11056847
_cell_angle_alpha   91.09720172
_cell_angle_beta   89.07011515
_cell_angle_gamma   120.05262330
_symmetry_Int_Tables_number   1
_chemical_formula_structural   YbEuBC11
_chemical_formula_sum   'Yb1 Eu1 B1 C11'
_cell_volume   152.52961488
_cell_formula_units_Z   1
loop_
 _symmetry_equiv_pos_site_id
 _symmetry_equiv_pos_as_xyz
  1  'x, y, z'
loop_
 _atom_site_type_symbol
 _atom_site_label
 _atom_site_symmetry_multiplicity
 _atom_site_fract_x
 _atom_site_fract_y
 _atom_site_fract_z
 _atom_site_occupancy
  Yb  Yb0  1  0.692674  0.341704  0.751041  1
  Eu  Eu1  1  0.342796  0.695792  0.248025  1
  B  B2  1  0.324644  0.324686  0.508502  1
  C  C3  1  0.659121  0.991801  0.510123  1
  C  C4  1  0.991918  0.658954  0.508643  1
  C  C5  1  0.670225  0.670087  0.509699  1
  C  C6  1  0.980590  0.325620  0.504973  1
  C  C7  1  0.325772  0.980661  0.513855  1
  C  C8  1  0.668795  0.668425  0.991079  1
  C  C9  1  0.335459  0.001476  0.988513  1
  C  C10  1  0.001785  0.335180  0.993053  1
  C  C11  1  0.335485  0.335277  0.990269  1
  C  C12  1  0.002012  0.668469  0.992573  1
  C  C13  1  0.668722  0.001867  0.989652  1
