# generated using pymatgen
data_Pr2Er4TiCo17P12
_symmetry_space_group_name_H-M   'P 1'
_cell_length_a   3.71301100
_cell_length_b   10.59111200
_cell_length_c   12.27417200
_cell_angle_alpha   90.00000000
_cell_angle_beta   90.00000000
_cell_angle_gamma   90.00000000
_symmetry_Int_Tables_number   1
_chemical_formula_structural   Pr2Er4TiCo17P12
_chemical_formula_sum   'Pr2 Er4 Ti1 Co17 P12'
_cell_volume   482.68077499
_cell_formula_units_Z   1
loop_
 _symmetry_equiv_pos_site_id
 _symmetry_equiv_pos_as_xyz
  1  'x, y, z'
loop_
 _atom_site_type_symbol
 _atom_site_label
 _atom_site_symmetry_multiplicity
 _atom_site_fract_x
 _atom_site_fract_y
 _atom_site_fract_z
 _atom_site_occupancy
  Pr  Pr0  1  0.750000  0.250000  0.473937  1
  Pr  Pr1  1  0.250000  0.750000  0.522946  1
  Er  Er2  1  0.250000  0.930485  0.794847  1
  Er  Er3  1  0.250000  0.569515  0.794847  1
  Er  Er4  1  0.750000  0.067941  0.202304  1
  Er  Er5  1  0.750000  0.432059  0.202304  1
  Ti  Ti6  1  0.250000  0.250000  0.851689  1
  Co  Co7  1  0.750000  0.750000  0.157775  1
  Co  Co8  1  0.250000  0.250000  0.293001  1
  Co  Co9  1  0.750000  0.750000  0.707611  1
  Co  Co10  1  0.750000  0.250000  0.013814  1
  Co  Co11  1  0.250000  0.750000  0.986664  1
  Co  Co12  1  0.250000  0.420262  0.008047  1
  Co  Co13  1  0.250000  0.079738  0.008047  1
  Co  Co14  1  0.750000  0.585410  0.995915  1
  Co  Co15  1  0.750000  0.914590  0.995915  1
  Co  Co16  1  0.250000  0.454776  0.569772  1
  Co  Co17  1  0.250000  0.045224  0.569772  1
  Co  Co18  1  0.750000  0.546425  0.428232  1
  Co  Co19  1  0.750000  0.953575  0.428232  1
  Co  Co20  1  0.250000  0.870073  0.287997  1
  Co  Co21  1  0.250000  0.629927  0.287997  1
  Co  Co22  1  0.750000  0.128325  0.710980  1
  Co  Co23  1  0.750000  0.371675  0.710980  1
  P  P24  1  0.250000  0.250000  0.116516  1
  P  P25  1  0.750000  0.750000  0.884177  1
  P  P26  1  0.250000  0.250000  0.652700  1
  P  P27  1  0.750000  0.750000  0.338860  1
  P  P28  1  0.250000  0.443618  0.380327  1
  P  P29  1  0.250000  0.056382  0.380327  1
  P  P30  1  0.750000  0.557414  0.617240  1
  P  P31  1  0.750000  0.942586  0.617240  1
  P  P32  1  0.250000  0.900813  0.108444  1
  P  P33  1  0.250000  0.599187  0.108444  1
  P  P34  1  0.750000  0.090460  0.896052  1
  P  P35  1  0.750000  0.409540  0.896052  1
