# generated using pymatgen
data_Yb4Cu5Rh3
_symmetry_space_group_name_H-M   'P 1'
_cell_length_a   5.15129456
_cell_length_b   5.15129393
_cell_length_c   8.73888200
_cell_angle_alpha   90.00000000
_cell_angle_beta   90.00000000
_cell_angle_gamma   121.15695978
_symmetry_Int_Tables_number   1
_chemical_formula_structural   Yb4Cu5Rh3
_chemical_formula_sum   'Yb4 Cu5 Rh3'
_cell_volume   198.44360157
_cell_formula_units_Z   1
loop_
 _symmetry_equiv_pos_site_id
 _symmetry_equiv_pos_as_xyz
  1  'x, y, z'
loop_
 _atom_site_type_symbol
 _atom_site_label
 _atom_site_symmetry_multiplicity
 _atom_site_fract_x
 _atom_site_fract_y
 _atom_site_fract_z
 _atom_site_occupancy
  Yb  Yb0  1  0.332508  0.667492  0.433525  1
  Yb  Yb1  1  0.665703  0.334297  0.558499  1
  Yb  Yb2  1  0.665703  0.334297  0.941501  1
  Yb  Yb3  1  0.332508  0.667492  0.066475  1
  Cu  Cu4  1  0.832964  0.665244  0.250000  1
  Cu  Cu5  1  0.334756  0.167036  0.250000  1
  Cu  Cu6  1  0.172195  0.827805  0.750000  1
  Cu  Cu7  1  0.171813  0.337808  0.750000  1
  Cu  Cu8  1  0.662192  0.828187  0.750000  1
  Rh  Rh9  1  0.000409  0.999591  0.504710  1
  Rh  Rh10  1  0.000409  0.999591  0.995290  1
  Rh  Rh11  1  0.828841  0.171159  0.250000  1
