# generated using pymatgen
data_DyTlBi4(SbO7)2
_symmetry_space_group_name_H-M   'P 1'
_cell_length_a   6.55974262
_cell_length_b   6.71123101
_cell_length_c   7.71930578
_cell_angle_alpha   106.77609348
_cell_angle_beta   89.56172897
_cell_angle_gamma   98.77697769
_symmetry_Int_Tables_number   1
_chemical_formula_structural   DyTlBi4(SbO7)2
_chemical_formula_sum   'Dy1 Tl1 Bi4 Sb2 O14'
_cell_volume   321.32288282
_cell_formula_units_Z   1
loop_
 _symmetry_equiv_pos_site_id
 _symmetry_equiv_pos_as_xyz
  1  'x, y, z'
loop_
 _atom_site_type_symbol
 _atom_site_label
 _atom_site_symmetry_multiplicity
 _atom_site_fract_x
 _atom_site_fract_y
 _atom_site_fract_z
 _atom_site_occupancy
  Dy  Dy0  1  0.454669  0.004014  0.248252  1
  Tl  Tl1  1  0.534560  0.998563  0.751783  1
  Bi  Bi2  1  0.252162  0.516980  0.881354  1
  Bi  Bi3  1  0.742270  0.481056  0.121064  1
  Bi  Bi4  1  0.736694  0.465819  0.607446  1
  Bi  Bi5  1  0.268674  0.538960  0.390313  1
  Sb  Sb6  1  0.998104  0.000283  0.499505  1
  Sb  Sb7  1  0.998040  0.999502  0.000055  1
  O  O8  1  0.456701  0.653703  0.177139  1
  O  O9  1  0.544784  0.339216  0.817262  1
  O  O10  1  0.290006  0.945550  0.961317  1
  O  O11  1  0.710944  0.052631  0.053201  1
  O  O12  1  0.284380  0.922109  0.503384  1
  O  O13  1  0.717663  0.079030  0.481422  1
  O  O14  1  0.531205  0.353913  0.353012  1
  O  O15  1  0.470474  0.656784  0.654703  1
  O  O16  1  0.918319  0.683550  0.954765  1
  O  O17  1  0.083195  0.313761  0.045417  1
  O  O18  1  0.098921  0.310371  0.613634  1
  O  O19  1  0.899999  0.689147  0.386513  1
  O  O20  1  0.910908  0.947043  0.736378  1
  O  O21  1  0.097327  0.048014  0.262080  1
