# generated using pymatgen
data_Tb5Y5Cd3Fe
_symmetry_space_group_name_H-M   'P 1'
_cell_length_a   9.61984686
_cell_length_b   9.61984757
_cell_length_c   9.85176083
_cell_angle_alpha   89.91231071
_cell_angle_beta   90.08768922
_cell_angle_gamma   120.05301037
_symmetry_Int_Tables_number   1
_chemical_formula_structural   Tb5Y5Cd3Fe
_chemical_formula_sum   'Tb10 Y10 Cd6 Fe2'
_cell_volume   789.12886354
_cell_formula_units_Z   2
loop_
 _symmetry_equiv_pos_site_id
 _symmetry_equiv_pos_as_xyz
  1  'x, y, z'
loop_
 _atom_site_type_symbol
 _atom_site_label
 _atom_site_symmetry_multiplicity
 _atom_site_fract_x
 _atom_site_fract_y
 _atom_site_fract_z
 _atom_site_occupancy
  Tb  Tb0  1  0.211998  0.788002  0.435883  1
  Tb  Tb1  1  0.212278  0.424508  0.435795  1
  Tb  Tb2  1  0.575492  0.787722  0.435795  1
  Tb  Tb3  1  0.787948  0.212052  0.564178  1
  Tb  Tb4  1  0.787875  0.575765  0.564040  1
  Tb  Tb5  1  0.424235  0.212125  0.564040  1
  Tb  Tb6  1  0.787833  0.212167  0.935694  1
  Tb  Tb7  1  0.787915  0.575628  0.935930  1
  Tb  Tb8  1  0.424372  0.212085  0.935930  1
  Tb  Tb9  1  0.212393  0.787607  0.064585  1
  Y  Y10  1  0.999998  0.000002  0.500086  1
  Y  Y11  1  0.000054  0.999946  0.999827  1
  Y  Y12  1  0.541757  0.458243  0.250069  1
  Y  Y13  1  0.541649  0.083376  0.250060  1
  Y  Y14  1  0.916624  0.458351  0.250060  1
  Y  Y15  1  0.458279  0.541721  0.749945  1
  Y  Y16  1  0.458402  0.916658  0.749972  1
  Y  Y17  1  0.083342  0.541598  0.749972  1
  Y  Y18  1  0.211924  0.423784  0.063544  1
  Y  Y19  1  0.576216  0.788076  0.063544  1
  Cd  Cd20  1  0.885377  0.114623  0.249871  1
  Cd  Cd21  1  0.885380  0.770779  0.249894  1
  Cd  Cd22  1  0.229221  0.114620  0.249894  1
  Cd  Cd23  1  0.114595  0.885405  0.750050  1
  Cd  Cd24  1  0.114555  0.229244  0.750241  1
  Cd  Cd25  1  0.770756  0.885445  0.750241  1
  Fe  Fe26  1  0.332845  0.667155  0.251024  1
  Fe  Fe27  1  0.666687  0.333313  0.749833  1
