# generated using pymatgen
data_HoTm4(RhO6)2
_symmetry_space_group_name_H-M   'P 1'
_cell_length_a   6.77706106
_cell_length_b   6.77706058
_cell_length_c   7.19862304
_cell_angle_alpha   74.51902982
_cell_angle_beta   74.51903156
_cell_angle_gamma   51.26765308
_symmetry_Int_Tables_number   1
_chemical_formula_structural   HoTm4(RhO6)2
_chemical_formula_sum   'Ho1 Tm4 Rh2 O12'
_cell_volume   246.34890123
_cell_formula_units_Z   1
loop_
 _symmetry_equiv_pos_site_id
 _symmetry_equiv_pos_as_xyz
  1  'x, y, z'
loop_
 _atom_site_type_symbol
 _atom_site_label
 _atom_site_symmetry_multiplicity
 _atom_site_fract_x
 _atom_site_fract_y
 _atom_site_fract_z
 _atom_site_occupancy
  Ho  Ho0  1  0.000000  0.000000  0.500000  1
  Tm  Tm1  1  0.301657  0.301657  0.360874  1
  Tm  Tm2  1  0.698343  0.698343  0.639126  1
  Tm  Tm3  1  0.309249  0.309249  0.828491  1
  Tm  Tm4  1  0.690751  0.690751  0.171509  1
  Rh  Rh5  1  0.752745  0.247255  0.000000  1
  Rh  Rh6  1  0.247255  0.752745  0.000000  1
  O  O7  1  0.902079  0.433957  0.914101  1
  O  O8  1  0.433957  0.902079  0.914101  1
  O  O9  1  0.097921  0.566043  0.085899  1
  O  O10  1  0.566043  0.097921  0.085899  1
  O  O11  1  0.097101  0.595680  0.574093  1
  O  O12  1  0.595680  0.097101  0.574093  1
  O  O13  1  0.902899  0.404320  0.425907  1
  O  O14  1  0.404320  0.902899  0.425907  1
  O  O15  1  0.999810  0.999810  0.814996  1
  O  O16  1  0.000190  0.000190  0.185004  1
  O  O17  1  0.500220  0.500220  0.805128  1
  O  O18  1  0.499780  0.499780  0.194872  1
