# generated using pymatgen
data_CaTm(MgPt)2
_symmetry_space_group_name_H-M   'P 1'
_cell_length_a   4.14254800
_cell_length_b   7.10075664
_cell_length_c   8.65009700
_cell_angle_alpha   90.38540103
_cell_angle_beta   90.00000000
_cell_angle_gamma   90.00000000
_symmetry_Int_Tables_number   1
_chemical_formula_structural   CaTm(MgPt)2
_chemical_formula_sum   'Ca2 Tm2 Mg4 Pt4'
_cell_volume   254.43879512
_cell_formula_units_Z   2
loop_
 _symmetry_equiv_pos_site_id
 _symmetry_equiv_pos_as_xyz
  1  'x, y, z'
loop_
 _atom_site_type_symbol
 _atom_site_label
 _atom_site_symmetry_multiplicity
 _atom_site_fract_x
 _atom_site_fract_y
 _atom_site_fract_z
 _atom_site_occupancy
  Ca  Ca0  1  0.750000  0.961621  0.675794  1
  Ca  Ca1  1  0.250000  0.038379  0.324206  1
  Tm  Tm2  1  0.250000  0.540039  0.173665  1
  Tm  Tm3  1  0.750000  0.459961  0.826335  1
  Mg  Mg4  1  0.250000  0.638088  0.560917  1
  Mg  Mg5  1  0.750000  0.361912  0.439083  1
  Mg  Mg6  1  0.750000  0.863561  0.060859  1
  Mg  Mg7  1  0.250000  0.136439  0.939141  1
  Pt  Pt8  1  0.250000  0.740347  0.881320  1
  Pt  Pt9  1  0.750000  0.259653  0.118680  1
  Pt  Pt10  1  0.750000  0.729120  0.362799  1
  Pt  Pt11  1  0.250000  0.270880  0.637201  1
