# generated using pymatgen
data_Li5Zr12Os6Rh
_symmetry_space_group_name_H-M   'P 1'
_cell_length_a   4.66883300
_cell_length_b   6.60977800
_cell_length_c   14.01578901
_cell_angle_alpha   90.00014292
_cell_angle_beta   89.99687986
_cell_angle_gamma   89.99958334
_symmetry_Int_Tables_number   1
_chemical_formula_structural   Li5Zr12Os6Rh
_chemical_formula_sum   'Li5 Zr12 Os6 Rh1'
_cell_volume   432.52654250
_cell_formula_units_Z   1
loop_
 _symmetry_equiv_pos_site_id
 _symmetry_equiv_pos_as_xyz
  1  'x, y, z'
loop_
 _atom_site_type_symbol
 _atom_site_label
 _atom_site_symmetry_multiplicity
 _atom_site_fract_x
 _atom_site_fract_y
 _atom_site_fract_z
 _atom_site_occupancy
  Li  Li0  1  0.499318  0.500000  0.166837  1
  Li  Li1  1  0.999308  0.000001  0.333523  1
  Li  Li2  1  0.500000  0.500001  0.500000  1
  Li  Li3  1  0.000692  0.999999  0.666477  1
  Li  Li4  1  0.500682  0.500002  0.833163  1
  Zr  Zr5  1  0.499998  0.250242  0.999999  1
  Zr  Zr6  1  0.500002  0.749757  0.000001  1
  Zr  Zr7  1  0.999585  0.251252  0.166127  1
  Zr  Zr8  1  0.999588  0.748751  0.166126  1
  Zr  Zr9  1  0.499575  0.249425  0.333054  1
  Zr  Zr10  1  0.499579  0.750579  0.333055  1
  Zr  Zr11  1  0.000002  0.250727  0.500000  1
  Zr  Zr12  1  0.999998  0.749273  0.500000  1
  Zr  Zr13  1  0.500421  0.249420  0.666945  1
  Zr  Zr14  1  0.500425  0.750574  0.666946  1
  Zr  Zr15  1  0.000412  0.251249  0.833874  1
  Zr  Zr16  1  0.000415  0.748748  0.833873  1
  Os  Os17  1  0.000000  0.500001  0.000000  1
  Os  Os18  1  0.499605  0.000006  0.168151  1
  Os  Os19  1  0.999569  0.500003  0.333863  1
  Os  Os20  1  0.500000  0.000000  0.500000  1
  Os  Os21  1  0.000431  0.499999  0.666137  1
  Os  Os22  1  0.500395  0.999994  0.831849  1
  Rh  Rh23  1  0.000000  0.000000  0.000000  1
