# generated using pymatgen
data_Sr2CdSi4(PPd10)2
_symmetry_space_group_name_H-M   'P 1'
_cell_length_a   8.74730334
_cell_length_b   8.74730329
_cell_length_c   8.75295500
_cell_angle_alpha   59.97862839
_cell_angle_beta   59.97862856
_cell_angle_gamma   60.04273979
_symmetry_Int_Tables_number   1
_chemical_formula_structural   Sr2CdSi4(PPd10)2
_chemical_formula_sum   'Sr2 Cd1 Si4 P2 Pd20'
_cell_volume   473.57383211
_cell_formula_units_Z   1
loop_
 _symmetry_equiv_pos_site_id
 _symmetry_equiv_pos_as_xyz
  1  'x, y, z'
loop_
 _atom_site_type_symbol
 _atom_site_label
 _atom_site_symmetry_multiplicity
 _atom_site_fract_x
 _atom_site_fract_y
 _atom_site_fract_z
 _atom_site_occupancy
  Sr  Sr0  1  0.250000  0.250000  0.250000  1
  Sr  Sr1  1  0.750000  0.750000  0.750000  1
  Cd  Cd2  1  0.000000  0.000000  0.000000  1
  Si  Si3  1  0.733594  0.266406  0.266406  1
  Si  Si4  1  0.266406  0.733594  0.733594  1
  Si  Si5  1  0.266406  0.733594  0.266406  1
  Si  Si6  1  0.733594  0.266406  0.733594  1
  P  P7  1  0.267560  0.267560  0.732440  1
  P  P8  1  0.732440  0.732440  0.267560  1
  Pd  Pd9  1  0.386507  0.386507  0.388217  1
  Pd  Pd10  1  0.613493  0.613493  0.611783  1
  Pd  Pd11  1  0.386507  0.386507  0.838768  1
  Pd  Pd12  1  0.388217  0.838768  0.386507  1
  Pd  Pd13  1  0.613493  0.613493  0.161232  1
  Pd  Pd14  1  0.611783  0.161232  0.613493  1
  Pd  Pd15  1  0.838768  0.388217  0.386507  1
  Pd  Pd16  1  0.161232  0.611783  0.613493  1
  Pd  Pd17  1  0.342608  0.002098  0.997902  1
  Pd  Pd18  1  0.657392  0.997902  0.002098  1
  Pd  Pd19  1  0.002098  0.342608  0.657392  1
  Pd  Pd20  1  0.997902  0.657392  0.342608  1
  Pd  Pd21  1  0.002098  0.342608  0.997902  1
  Pd  Pd22  1  0.657392  0.997902  0.342608  1
  Pd  Pd23  1  0.997902  0.657392  0.002098  1
  Pd  Pd24  1  0.342608  0.002098  0.657392  1
  Pd  Pd25  1  0.000000  0.000000  0.344050  1
  Pd  Pd26  1  0.000000  0.000000  0.655950  1
  Pd  Pd27  1  0.655950  0.344050  0.000000  1
  Pd  Pd28  1  0.344050  0.655950  0.000000  1
