# generated using pymatgen
data_Ho6Er10Cd4IrPt3
_symmetry_space_group_name_H-M   'P 1'
_cell_length_a   9.62256518
_cell_length_b   9.60354432
_cell_length_c   9.60354400
_cell_angle_alpha   60.00000109
_cell_angle_beta   60.06536809
_cell_angle_gamma   60.06536235
_symmetry_Int_Tables_number   1
_chemical_formula_structural   Ho6Er10Cd4IrPt3
_chemical_formula_sum   'Ho6 Er10 Cd4 Ir1 Pt3'
_cell_volume   628.15571842
_cell_formula_units_Z   1
loop_
 _symmetry_equiv_pos_site_id
 _symmetry_equiv_pos_as_xyz
  1  'x, y, z'
loop_
 _atom_site_type_symbol
 _atom_site_label
 _atom_site_symmetry_multiplicity
 _atom_site_fract_x
 _atom_site_fract_y
 _atom_site_fract_z
 _atom_site_occupancy
  Ho  Ho0  1  0.184488  0.815274  0.815274  1
  Ho  Ho1  1  0.815792  0.185683  0.185683  1
  Ho  Ho2  1  0.815792  0.185683  0.812842  1
  Ho  Ho3  1  0.184488  0.815274  0.184964  1
  Ho  Ho4  1  0.815792  0.812842  0.185683  1
  Ho  Ho5  1  0.184488  0.184964  0.815274  1
  Er  Er6  1  0.602849  0.599034  0.599034  1
  Er  Er7  1  0.602849  0.599034  0.199086  1
  Er  Er8  1  0.602849  0.199086  0.599034  1
  Er  Er9  1  0.195417  0.601528  0.601528  1
  Er  Er10  1  0.058240  0.438810  0.438810  1
  Er  Er11  1  0.439587  0.060496  0.060496  1
  Er  Er12  1  0.439587  0.060496  0.439421  1
  Er  Er13  1  0.058240  0.438810  0.064139  1
  Er  Er14  1  0.439587  0.439421  0.060496  1
  Er  Er15  1  0.058240  0.064139  0.438810  1
  Cd  Cd16  1  0.831837  0.831497  0.831497  1
  Cd  Cd17  1  0.831837  0.831497  0.505170  1
  Cd  Cd18  1  0.831837  0.505170  0.831497  1
  Cd  Cd19  1  0.505310  0.831563  0.831563  1
  Ir  Ir20  1  0.823444  0.392186  0.392186  1
  Pt  Pt21  1  0.392485  0.392665  0.392665  1
  Pt  Pt22  1  0.392485  0.392665  0.822187  1
  Pt  Pt23  1  0.392485  0.822187  0.392665  1
