# generated using pymatgen
data_Tb5Lu3(Si3Ir)4
_symmetry_space_group_name_H-M   'P 1'
_cell_length_a   8.17889700
_cell_length_b   8.17889848
_cell_length_c   7.96590800
_cell_angle_alpha   90.00000000
_cell_angle_beta   90.00000000
_cell_angle_gamma   119.99999805
_symmetry_Int_Tables_number   1
_chemical_formula_structural   Tb5Lu3(Si3Ir)4
_chemical_formula_sum   'Tb5 Lu3 Si12 Ir4'
_cell_volume   461.48276202
_cell_formula_units_Z   1
loop_
 _symmetry_equiv_pos_site_id
 _symmetry_equiv_pos_as_xyz
  1  'x, y, z'
loop_
 _atom_site_type_symbol
 _atom_site_label
 _atom_site_symmetry_multiplicity
 _atom_site_fract_x
 _atom_site_fract_y
 _atom_site_fract_z
 _atom_site_occupancy
  Tb  Tb0  1  0.000000  0.000000  0.250000  1
  Tb  Tb1  1  0.000000  0.000000  0.750000  1
  Tb  Tb2  1  0.507842  0.492158  0.250000  1
  Tb  Tb3  1  0.507842  0.015687  0.250000  1
  Tb  Tb4  1  0.984313  0.492158  0.250000  1
  Lu  Lu5  1  0.489760  0.510240  0.750000  1
  Lu  Lu6  1  0.489760  0.979518  0.750000  1
  Lu  Lu7  1  0.020482  0.510240  0.750000  1
  Si  Si8  1  0.166626  0.833374  0.503076  1
  Si  Si9  1  0.166626  0.333253  0.503076  1
  Si  Si10  1  0.666747  0.833374  0.503076  1
  Si  Si11  1  0.832359  0.167641  0.503804  1
  Si  Si12  1  0.832359  0.664716  0.503804  1
  Si  Si13  1  0.335284  0.167641  0.503804  1
  Si  Si14  1  0.832359  0.167641  0.996196  1
  Si  Si15  1  0.832359  0.664716  0.996196  1
  Si  Si16  1  0.335284  0.167641  0.996196  1
  Si  Si17  1  0.166626  0.833374  0.996924  1
  Si  Si18  1  0.166626  0.333253  0.996924  1
  Si  Si19  1  0.666747  0.833374  0.996924  1
  Ir  Ir20  1  0.333333  0.666667  0.479640  1
  Ir  Ir21  1  0.666667  0.333333  0.542760  1
  Ir  Ir22  1  0.666667  0.333333  0.957240  1
  Ir  Ir23  1  0.333333  0.666667  0.020360  1
