# generated using pymatgen
data_Sc4Zn2B4Ir7Ru3
_symmetry_space_group_name_H-M   'P 1'
_cell_length_a   9.45980352
_cell_length_b   9.44639454
_cell_length_c   3.01207200
_cell_angle_alpha   90.00000000
_cell_angle_beta   90.00000000
_cell_angle_gamma   89.91615117
_symmetry_Int_Tables_number   1
_chemical_formula_structural   Sc4Zn2B4Ir7Ru3
_chemical_formula_sum   'Sc4 Zn2 B4 Ir7 Ru3'
_cell_volume   269.16158721
_cell_formula_units_Z   1
loop_
 _symmetry_equiv_pos_site_id
 _symmetry_equiv_pos_as_xyz
  1  'x, y, z'
loop_
 _atom_site_type_symbol
 _atom_site_label
 _atom_site_symmetry_multiplicity
 _atom_site_fract_x
 _atom_site_fract_y
 _atom_site_fract_z
 _atom_site_occupancy
  Sc  Sc0  1  0.672955  0.173819  0.000000  1
  Sc  Sc1  1  0.175279  0.323413  0.000000  1
  Sc  Sc2  1  0.826771  0.673556  0.000000  1
  Sc  Sc3  1  0.325707  0.828700  0.000000  1
  Zn  Zn4  1  0.001290  0.000152  0.000000  1
  Zn  Zn5  1  0.499831  0.499784  0.000000  1
  B  B6  1  0.373826  0.122669  0.000000  1
  B  B7  1  0.876865  0.376819  0.000000  1
  B  B8  1  0.122921  0.622969  0.000000  1
  B  B9  1  0.622763  0.877822  0.000000  1
  Ir  Ir10  1  0.929565  0.215372  0.500001  1
  Ir  Ir11  1  0.429895  0.284276  0.500001  1
  Ir  Ir12  1  0.715773  0.430699  0.500001  1
  Ir  Ir13  1  0.283951  0.570175  0.500001  1
  Ir  Ir14  1  0.570724  0.715768  0.500001  1
  Ir  Ir15  1  0.070161  0.784322  0.500001  1
  Ir  Ir16  1  0.784554  0.929770  0.500001  1
  Ru  Ru17  1  0.500409  0.000463  0.500001  1
  Ru  Ru18  1  0.216320  0.070480  0.500001  1
  Ru  Ru19  1  0.000436  0.498969  0.500001  1
