# generated using pymatgen
data_Dy3Y6Tm7Cd3AgIr4
_symmetry_space_group_name_H-M   'P 1'
_cell_length_a   9.59652026
_cell_length_b   9.59440741
_cell_length_c   9.59440700
_cell_angle_alpha   59.99999795
_cell_angle_beta   60.00728081
_cell_angle_gamma   60.00728043
_symmetry_Int_Tables_number   1
_chemical_formula_structural   Dy3Y6Tm7Cd3AgIr4
_chemical_formula_sum   'Dy3 Y6 Tm7 Cd3 Ag1 Ir4'
_cell_volume   624.71632822
_cell_formula_units_Z   1
loop_
 _symmetry_equiv_pos_site_id
 _symmetry_equiv_pos_as_xyz
  1  'x, y, z'
loop_
 _atom_site_type_symbol
 _atom_site_label
 _atom_site_symmetry_multiplicity
 _atom_site_fract_x
 _atom_site_fract_y
 _atom_site_fract_z
 _atom_site_occupancy
  Dy  Dy0  1  0.349262  0.349596  0.349596  1
  Dy  Dy1  1  0.349539  0.349776  0.950957  1
  Dy  Dy2  1  0.349539  0.950957  0.349776  1
  Y  Y3  1  0.936200  0.561377  0.561377  1
  Y  Y4  1  0.562658  0.937468  0.937468  1
  Y  Y5  1  0.562600  0.935523  0.561689  1
  Y  Y6  1  0.938267  0.561278  0.938220  1
  Y  Y7  1  0.562600  0.561689  0.935523  1
  Y  Y8  1  0.938267  0.938220  0.561278  1
  Tm  Tm9  1  0.952714  0.349002  0.349002  1
  Tm  Tm10  1  0.812210  0.187838  0.187838  1
  Tm  Tm11  1  0.186889  0.812818  0.812818  1
  Tm  Tm12  1  0.186713  0.812870  0.187685  1
  Tm  Tm13  1  0.812201  0.188011  0.812062  1
  Tm  Tm14  1  0.186713  0.187685  0.812870  1
  Tm  Tm15  1  0.812201  0.812062  0.188011  1
  Cd  Cd16  1  0.581063  0.579835  0.261091  1
  Cd  Cd17  1  0.581063  0.261091  0.579835  1
  Cd  Cd18  1  0.260800  0.580321  0.580321  1
  Ag  Ag19  1  0.582438  0.581344  0.581344  1
  Ir  Ir20  1  0.139997  0.142267  0.142267  1
  Ir  Ir21  1  0.139892  0.142272  0.575520  1
  Ir  Ir22  1  0.139892  0.575520  0.142272  1
  Ir  Ir23  1  0.576284  0.141185  0.141185  1
