# generated using pymatgen
data_Dy5Sc2P12Rh17
_symmetry_space_group_name_H-M   'P 1'
_cell_length_a   12.87206907
_cell_length_b   12.73476335
_cell_length_c   3.92258100
_cell_angle_alpha   90.00000000
_cell_angle_beta   90.00000000
_cell_angle_gamma   119.64775626
_symmetry_Int_Tables_number   1
_chemical_formula_structural   Dy5Sc2P12Rh17
_chemical_formula_sum   'Dy5 Sc2 P12 Rh17'
_cell_volume   558.82056252
_cell_formula_units_Z   1
loop_
 _symmetry_equiv_pos_site_id
 _symmetry_equiv_pos_as_xyz
  1  'x, y, z'
loop_
 _atom_site_type_symbol
 _atom_site_label
 _atom_site_symmetry_multiplicity
 _atom_site_fract_x
 _atom_site_fract_y
 _atom_site_fract_z
 _atom_site_occupancy
  Dy  Dy0  1  0.663185  0.331776  0.000000  1
  Dy  Dy1  1  0.336815  0.668593  0.000000  1
  Dy  Dy2  1  0.188614  0.186917  0.500000  1
  Dy  Dy3  1  0.811386  0.998303  0.500000  1
  Dy  Dy4  1  0.000000  0.809491  0.500000  1
  Sc  Sc5  1  0.556991  0.556761  0.000000  1
  Sc  Sc6  1  0.443009  0.999770  0.000000  1
  P  P7  1  0.352758  0.357327  0.000000  1
  P  P8  1  0.647242  0.004568  0.000000  1
  P  P9  1  0.000000  0.638144  0.000000  1
  P  P10  1  0.830433  0.313056  0.500000  1
  P  P11  1  0.684741  0.514109  0.500000  1
  P  P12  1  0.481513  0.168258  0.500000  1
  P  P13  1  0.315259  0.829368  0.500000  1
  P  P14  1  0.518487  0.686745  0.500000  1
  P  P15  1  0.169567  0.482623  0.500000  1
  P  P16  1  0.824608  0.823674  0.000000  1
  P  P17  1  0.175392  0.999066  0.000000  1
  P  P18  1  0.000000  0.180776  0.000000  1
  Rh  Rh19  1  0.000000  0.458305  0.000000  1
  Rh  Rh20  1  0.825477  0.203695  0.000000  1
  Rh  Rh21  1  0.806773  0.622788  0.000000  1
  Rh  Rh22  1  0.370330  0.177294  0.000000  1
  Rh  Rh23  1  0.193227  0.816015  0.000000  1
  Rh  Rh24  1  0.629670  0.806965  0.000000  1
  Rh  Rh25  1  0.174523  0.378218  0.000000  1
  Rh  Rh26  1  0.644429  0.127712  0.500000  1
  Rh  Rh27  1  0.867683  0.508705  0.500000  1
  Rh  Rh28  1  0.486875  0.355791  0.500000  1
  Rh  Rh29  1  0.132317  0.641021  0.500000  1
  Rh  Rh30  1  0.513125  0.868916  0.500000  1
  Rh  Rh31  1  0.355571  0.483283  0.500000  1
  Rh  Rh32  1  0.723454  0.719686  0.500000  1
  Rh  Rh33  1  0.276546  0.996232  0.500000  1
  Rh  Rh34  1  0.000000  0.283490  0.500000  1
  Rh  Rh35  1  0.000000  0.002566  0.000000  1
