# generated using pymatgen
data_Tm8ReSi16W11
_symmetry_space_group_name_H-M   'P 1'
_cell_length_a   6.73042013
_cell_length_b   6.89429724
_cell_length_c   12.82764690
_cell_angle_alpha   89.94012032
_cell_angle_beta   90.01443644
_cell_angle_gamma   90.03367025
_symmetry_Int_Tables_number   1
_chemical_formula_structural   Tm8ReSi16W11
_chemical_formula_sum   'Tm8 Re1 Si16 W11'
_cell_volume   595.22182844
_cell_formula_units_Z   1
loop_
 _symmetry_equiv_pos_site_id
 _symmetry_equiv_pos_as_xyz
  1  'x, y, z'
loop_
 _atom_site_type_symbol
 _atom_site_label
 _atom_site_symmetry_multiplicity
 _atom_site_fract_x
 _atom_site_fract_y
 _atom_site_fract_z
 _atom_site_occupancy
  Tm  Tm0  1  0.995361  0.167661  0.092910  1
  Tm  Tm1  1  0.004053  0.830697  0.906854  1
  Tm  Tm2  1  0.504770  0.668057  0.906750  1
  Tm  Tm3  1  0.004268  0.831755  0.593086  1
  Tm  Tm4  1  0.496623  0.331678  0.093394  1
  Tm  Tm5  1  0.995367  0.167336  0.406947  1
  Tm  Tm6  1  0.495087  0.333535  0.406199  1
  Tm  Tm7  1  0.504375  0.668420  0.593225  1
  Re  Re8  1  0.171095  0.656336  0.123382  1
  Si  Si9  1  0.033599  0.128098  0.750264  1
  Si  Si10  1  0.967683  0.870766  0.247063  1
  Si  Si11  1  0.464895  0.630230  0.249081  1
  Si  Si12  1  0.534431  0.370711  0.750516  1
  Si  Si13  1  0.301163  0.863984  0.750079  1
  Si  Si14  1  0.698249  0.136599  0.250832  1
  Si  Si15  1  0.197230  0.364738  0.249690  1
  Si  Si16  1  0.800941  0.635955  0.750039  1
  Si  Si17  1  0.162079  0.459109  0.545969  1
  Si  Si18  1  0.837258  0.541714  0.453321  1
  Si  Si19  1  0.339467  0.959187  0.453178  1
  Si  Si20  1  0.839513  0.542715  0.047886  1
  Si  Si21  1  0.662307  0.041987  0.546270  1
  Si  Si22  1  0.162176  0.458216  0.954291  1
  Si  Si23  1  0.662166  0.041132  0.953527  1
  Si  Si24  1  0.337855  0.954765  0.048483  1
  W  W25  1  0.164811  0.500442  0.750186  1
  W  W26  1  0.833693  0.498249  0.250053  1
  W  W27  1  0.333865  0.002663  0.249435  1
  W  W28  1  0.665270  0.998074  0.750442  1
  W  W29  1  0.330660  0.163056  0.625033  1
  W  W30  1  0.671549  0.838207  0.375143  1
  W  W31  1  0.168062  0.664715  0.372297  1
  W  W32  1  0.669881  0.840252  0.126103  1
  W  W33  1  0.830679  0.338006  0.625342  1
  W  W34  1  0.328668  0.161723  0.876395  1
  W  W35  1  0.830853  0.339231  0.876335  1
