# generated using pymatgen
data_Dy2Cu(P2Rh3)3
_symmetry_space_group_name_H-M   'P 1'
_cell_length_a   3.93870000
_cell_length_b   10.81560200
_cell_length_c   12.55330400
_cell_angle_alpha   90.00000000
_cell_angle_beta   90.00000000
_cell_angle_gamma   90.00000000
_symmetry_Int_Tables_number   1
_chemical_formula_structural   Dy2Cu(P2Rh3)3
_chemical_formula_sum   'Dy4 Cu2 P12 Rh18'
_cell_volume   534.76336400
_cell_formula_units_Z   2
loop_
 _symmetry_equiv_pos_site_id
 _symmetry_equiv_pos_as_xyz
  1  'x, y, z'
loop_
 _atom_site_type_symbol
 _atom_site_label
 _atom_site_symmetry_multiplicity
 _atom_site_fract_x
 _atom_site_fract_y
 _atom_site_fract_z
 _atom_site_occupancy
  Dy  Dy0  1  0.250000  0.577455  0.704119  1
  Dy  Dy1  1  0.250000  0.922545  0.204119  1
  Dy  Dy2  1  0.750000  0.425949  0.299536  1
  Dy  Dy3  1  0.750000  0.074051  0.799536  1
  Cu  Cu4  1  0.250000  0.722172  0.994764  1
  Cu  Cu5  1  0.250000  0.777828  0.494764  1
  P  P6  1  0.250000  0.429026  0.115895  1
  P  P7  1  0.250000  0.070974  0.615895  1
  P  P8  1  0.750000  0.570932  0.881527  1
  P  P9  1  0.750000  0.929068  0.381527  1
  P  P10  1  0.250000  0.259558  0.867309  1
  P  P11  1  0.250000  0.240442  0.367309  1
  P  P12  1  0.750000  0.737453  0.140533  1
  P  P13  1  0.750000  0.762547  0.640533  1
  P  P14  1  0.250000  0.605601  0.390175  1
  P  P15  1  0.250000  0.894399  0.890175  1
  P  P16  1  0.750000  0.400321  0.607527  1
  P  P17  1  0.750000  0.099679  0.107527  1
  Rh  Rh18  1  0.750000  0.273223  0.000275  1
  Rh  Rh19  1  0.750000  0.226777  0.500275  1
  Rh  Rh20  1  0.250000  0.413310  0.480979  1
  Rh  Rh21  1  0.250000  0.086690  0.980979  1
  Rh  Rh22  1  0.750000  0.595122  0.524157  1
  Rh  Rh23  1  0.750000  0.904878  0.024157  1
  Rh  Rh24  1  0.250000  0.234318  0.175907  1
  Rh  Rh25  1  0.250000  0.265682  0.675907  1
  Rh  Rh26  1  0.750000  0.769427  0.827305  1
  Rh  Rh27  1  0.750000  0.730573  0.327305  1
  Rh  Rh28  1  0.250000  0.875351  0.700181  1
  Rh  Rh29  1  0.250000  0.624649  0.200181  1
  Rh  Rh30  1  0.750000  0.119057  0.292888  1
  Rh  Rh31  1  0.750000  0.380943  0.792888  1
  Rh  Rh32  1  0.250000  0.459995  0.930440  1
  Rh  Rh33  1  0.250000  0.040005  0.430440  1
  Rh  Rh34  1  0.750000  0.540211  0.066484  1
  Rh  Rh35  1  0.750000  0.959789  0.566484  1
