# generated using pymatgen
data_YHo2PaHg2Rh3
_symmetry_space_group_name_H-M   'P 1'
_cell_length_a   7.79827600
_cell_length_b   7.79005878
_cell_length_c   3.84360100
_cell_angle_alpha   90.00000000
_cell_angle_beta   90.00000000
_cell_angle_gamma   121.79207380
_symmetry_Int_Tables_number   1
_chemical_formula_structural   YHo2PaHg2Rh3
_chemical_formula_sum   'Y1 Ho2 Pa1 Hg2 Rh3'
_cell_volume   198.46273633
_cell_formula_units_Z   1
loop_
 _symmetry_equiv_pos_site_id
 _symmetry_equiv_pos_as_xyz
  1  'x, y, z'
loop_
 _atom_site_type_symbol
 _atom_site_label
 _atom_site_symmetry_multiplicity
 _atom_site_fract_x
 _atom_site_fract_y
 _atom_site_fract_z
 _atom_site_occupancy
  Y  Y0  1  0.962094  0.403825  0.500000  1
  Ho  Ho1  1  0.642716  0.642792  0.500000  1
  Ho  Ho2  1  0.403949  0.962169  0.500000  1
  Pa  Pa3  1  0.267476  0.267277  0.000000  1
  Hg  Hg4  1  0.013273  0.737958  0.000000  1
  Hg  Hg5  1  0.736991  0.012644  0.000000  1
  Rh  Rh6  1  0.325920  0.620888  0.000000  1
  Rh  Rh7  1  0.028142  0.027736  0.500000  1
  Rh  Rh8  1  0.619442  0.324714  0.000000  1
