# generated using pymatgen
data_Tb5Yb(SiPd)6
_symmetry_space_group_name_H-M   'P 1'
_cell_length_a   4.34576700
_cell_length_b   7.46069467
_cell_length_c   21.21788089
_cell_angle_alpha   90.04846255
_cell_angle_beta   90.00000000
_cell_angle_gamma   90.00000000
_symmetry_Int_Tables_number   1
_chemical_formula_structural   Tb5Yb(SiPd)6
_chemical_formula_sum   'Tb10 Yb2 Si12 Pd12'
_cell_volume   687.93523871
_cell_formula_units_Z   2
loop_
 _symmetry_equiv_pos_site_id
 _symmetry_equiv_pos_as_xyz
  1  'x, y, z'
loop_
 _atom_site_type_symbol
 _atom_site_label
 _atom_site_symmetry_multiplicity
 _atom_site_fract_x
 _atom_site_fract_y
 _atom_site_fract_z
 _atom_site_occupancy
  Tb  Tb0  1  0.750000  0.203720  0.167481  1
  Tb  Tb1  1  0.250000  0.796280  0.832519  1
  Tb  Tb2  1  0.250000  0.795302  0.166796  1
  Tb  Tb3  1  0.750000  0.204698  0.833204  1
  Tb  Tb4  1  0.750000  0.296151  0.333875  1
  Tb  Tb5  1  0.250000  0.703849  0.666125  1
  Tb  Tb6  1  0.250000  0.710361  0.000916  1
  Tb  Tb7  1  0.750000  0.289639  0.999084  1
  Tb  Tb8  1  0.750000  0.208012  0.499528  1
  Tb  Tb9  1  0.250000  0.791988  0.500472  1
  Yb  Yb10  1  0.250000  0.704807  0.332335  1
  Yb  Yb11  1  0.750000  0.295193  0.667665  1
  Si  Si12  1  0.250000  0.090740  0.070824  1
  Si  Si13  1  0.750000  0.909260  0.929176  1
  Si  Si14  1  0.750000  0.588230  0.432949  1
  Si  Si15  1  0.250000  0.411770  0.567051  1
  Si  Si16  1  0.250000  0.087127  0.272190  1
  Si  Si17  1  0.750000  0.912873  0.727810  1
  Si  Si18  1  0.750000  0.584070  0.226376  1
  Si  Si19  1  0.250000  0.415930  0.773624  1
  Si  Si20  1  0.250000  0.088506  0.394371  1
  Si  Si21  1  0.750000  0.911494  0.605629  1
  Si  Si22  1  0.750000  0.587846  0.104690  1
  Si  Si23  1  0.250000  0.412154  0.895310  1
  Pd  Pd24  1  0.250000  0.417440  0.236391  1
  Pd  Pd25  1  0.750000  0.582560  0.763609  1
  Pd  Pd26  1  0.750000  0.915684  0.262731  1
  Pd  Pd27  1  0.250000  0.084316  0.737269  1
  Pd  Pd28  1  0.250000  0.416835  0.436762  1
  Pd  Pd29  1  0.750000  0.583165  0.563238  1
  Pd  Pd30  1  0.750000  0.917182  0.062202  1
  Pd  Pd31  1  0.250000  0.082818  0.937798  1
  Pd  Pd32  1  0.250000  0.420607  0.093818  1
  Pd  Pd33  1  0.750000  0.579393  0.906182  1
  Pd  Pd34  1  0.750000  0.917556  0.406543  1
  Pd  Pd35  1  0.250000  0.082444  0.593457  1
