# generated using pymatgen
data_Cs2Ce2MnPtS6
_symmetry_space_group_name_H-M   'P 1'
_cell_length_a   8.05556137
_cell_length_b   8.05556241
_cell_length_c   10.69177800
_cell_angle_alpha   90.00000000
_cell_angle_beta   90.00000000
_cell_angle_gamma   150.26632306
_symmetry_Int_Tables_number   1
_chemical_formula_structural   Cs2Ce2MnPtS6
_chemical_formula_sum   'Cs2 Ce2 Mn1 Pt1 S6'
_cell_volume   344.10918554
_cell_formula_units_Z   1
loop_
 _symmetry_equiv_pos_site_id
 _symmetry_equiv_pos_as_xyz
  1  'x, y, z'
loop_
 _atom_site_type_symbol
 _atom_site_label
 _atom_site_symmetry_multiplicity
 _atom_site_fract_x
 _atom_site_fract_y
 _atom_site_fract_z
 _atom_site_occupancy
  Cs  Cs0  1  0.258055  0.741945  0.250000  1
  Cs  Cs1  1  0.738655  0.261345  0.750000  1
  Ce  Ce2  1  0.003647  0.996353  0.013405  1
  Ce  Ce3  1  0.003647  0.996353  0.486595  1
  Mn  Mn4  1  0.465573  0.534427  0.750000  1
  Pt  Pt5  1  0.529756  0.470244  0.250000  1
  S  S6  1  0.614528  0.385472  0.056929  1
  S  S7  1  0.388875  0.611125  0.936023  1
  S  S8  1  0.388875  0.611125  0.563977  1
  S  S9  1  0.614528  0.385472  0.443071  1
  S  S10  1  0.944749  0.055251  0.250000  1
  S  S11  1  0.049115  0.950885  0.750000  1
