# generated using pymatgen
data_Pr2NdMg2CdSn2Pd
_symmetry_space_group_name_H-M   'P 1'
_cell_length_a   7.65807600
_cell_length_b   7.65807706
_cell_length_c   4.63398000
_cell_angle_alpha   90.00000000
_cell_angle_beta   90.00000000
_cell_angle_gamma   119.96464156
_symmetry_Int_Tables_number   1
_chemical_formula_structural   Pr2NdMg2CdSn2Pd
_chemical_formula_sum   'Pr2 Nd1 Mg2 Cd1 Sn2 Pd1'
_cell_volume   235.43922417
_cell_formula_units_Z   1
loop_
 _symmetry_equiv_pos_site_id
 _symmetry_equiv_pos_as_xyz
  1  'x, y, z'
loop_
 _atom_site_type_symbol
 _atom_site_label
 _atom_site_symmetry_multiplicity
 _atom_site_fract_x
 _atom_site_fract_y
 _atom_site_fract_z
 _atom_site_occupancy
  Pr  Pr0  1  0.596137  0.999762  0.000000  1
  Pr  Pr1  1  0.001444  0.600506  0.000000  1
  Nd  Nd2  1  0.400478  0.398844  0.000000  1
  Mg  Mg3  1  0.001313  0.229873  0.500000  1
  Mg  Mg4  1  0.771126  0.770227  0.500000  1
  Cd  Cd5  1  0.232948  0.000474  0.500000  1
  Sn  Sn6  1  0.334572  0.663060  0.500000  1
  Sn  Sn7  1  0.669073  0.336136  0.500000  1
  Pd  Pd8  1  0.992909  0.001119  0.000000  1
