# generated using pymatgen
data_HoLu(Ni2P)4
_symmetry_space_group_name_H-M   'P 1'
_cell_length_a   7.04918696
_cell_length_b   7.04918696
_cell_length_c   3.59356600
_cell_angle_alpha   90.00000000
_cell_angle_beta   90.00000000
_cell_angle_gamma   90.05985458
_symmetry_Int_Tables_number   1
_chemical_formula_structural   HoLu(Ni2P)4
_chemical_formula_sum   'Ho1 Lu1 Ni8 P4'
_cell_volume   178.56792298
_cell_formula_units_Z   1
loop_
 _symmetry_equiv_pos_site_id
 _symmetry_equiv_pos_as_xyz
  1  'x, y, z'
loop_
 _atom_site_type_symbol
 _atom_site_label
 _atom_site_symmetry_multiplicity
 _atom_site_fract_x
 _atom_site_fract_y
 _atom_site_fract_z
 _atom_site_occupancy
  Ho  Ho0  1  0.500000  0.500000  0.000000  1
  Lu  Lu1  1  0.000000  0.000000  0.500000  1
  Ni  Ni2  1  0.163000  0.584966  0.500000  1
  Ni  Ni3  1  0.837000  0.415034  0.500000  1
  Ni  Ni4  1  0.334551  0.084233  0.000000  1
  Ni  Ni5  1  0.665449  0.915767  0.000000  1
  Ni  Ni6  1  0.584966  0.163000  0.500000  1
  Ni  Ni7  1  0.415034  0.837000  0.500000  1
  Ni  Ni8  1  0.084233  0.334551  0.000000  1
  Ni  Ni9  1  0.915767  0.665449  0.000000  1
  P  P10  1  0.721337  0.721337  0.500000  1
  P  P11  1  0.278663  0.278663  0.500000  1
  P  P12  1  0.781365  0.218635  0.000000  1
  P  P13  1  0.218635  0.781365  0.000000  1
