# generated using pymatgen
data_Tm5Co16(P4Os)3
_symmetry_space_group_name_H-M   'P 1'
_cell_length_a   11.96225800
_cell_length_b   11.96225909
_cell_length_c   3.69792000
_cell_angle_alpha   90.00000000
_cell_angle_beta   90.00000000
_cell_angle_gamma   120.00000251
_symmetry_Int_Tables_number   1
_chemical_formula_structural   Tm5Co16(P4Os)3
_chemical_formula_sum   'Tm5 Co16 P12 Os3'
_cell_volume   458.26269187
_cell_formula_units_Z   1
loop_
 _symmetry_equiv_pos_site_id
 _symmetry_equiv_pos_as_xyz
  1  'x, y, z'
loop_
 _atom_site_type_symbol
 _atom_site_label
 _atom_site_symmetry_multiplicity
 _atom_site_fract_x
 _atom_site_fract_y
 _atom_site_fract_z
 _atom_site_occupancy
  Tm  Tm0  1  0.666667  0.333333  0.000000  1
  Tm  Tm1  1  0.333333  0.666667  0.000000  1
  Tm  Tm2  1  0.815436  0.815436  0.500000  1
  Tm  Tm3  1  0.184564  0.000000  0.500000  1
  Tm  Tm4  1  0.000000  0.184564  0.500000  1
  Co  Co5  1  0.873805  0.358876  0.500000  1
  Co  Co6  1  0.641124  0.514928  0.500000  1
  Co  Co7  1  0.485072  0.126195  0.500000  1
  Co  Co8  1  0.358876  0.873805  0.500000  1
  Co  Co9  1  0.514928  0.641124  0.500000  1
  Co  Co10  1  0.126195  0.485072  0.500000  1
  Co  Co11  1  0.803946  0.180107  0.000000  1
  Co  Co12  1  0.819893  0.623838  0.000000  1
  Co  Co13  1  0.376162  0.196054  0.000000  1
  Co  Co14  1  0.180107  0.803946  0.000000  1
  Co  Co15  1  0.623838  0.819893  0.000000  1
  Co  Co16  1  0.196054  0.376162  0.000000  1
  Co  Co17  1  0.283088  0.283088  0.500000  1
  Co  Co18  1  0.716912  0.000000  0.500000  1
  Co  Co19  1  0.000000  0.716912  0.500000  1
  Co  Co20  1  0.000000  0.000000  0.000000  1
  P  P21  1  0.687387  0.166863  0.500000  1
  P  P22  1  0.833137  0.520525  0.500000  1
  P  P23  1  0.479475  0.312613  0.500000  1
  P  P24  1  0.166863  0.687387  0.500000  1
  P  P25  1  0.520525  0.833137  0.500000  1
  P  P26  1  0.312613  0.479475  0.500000  1
  P  P27  1  0.178657  0.178657  0.000000  1
  P  P28  1  0.821343  0.000000  0.000000  1
  P  P29  1  0.000000  0.821343  0.000000  1
  P  P30  1  0.638392  0.638392  0.000000  1
  P  P31  1  0.361608  0.000000  0.000000  1
  P  P32  1  0.000000  0.361608  0.000000  1
  Os  Os33  1  0.446283  0.446283  0.000000  1
  Os  Os34  1  0.553717  0.000000  0.000000  1
  Os  Os35  1  0.000000  0.553717  0.000000  1
