# generated using pymatgen
data_Sc10Pb6C
_symmetry_space_group_name_H-M   'P 1'
_cell_length_a   8.56388400
_cell_length_b   8.56388341
_cell_length_c   6.20277400
_cell_angle_alpha   90.00000000
_cell_angle_beta   90.00000000
_cell_angle_gamma   119.99999454
_symmetry_Int_Tables_number   1
_chemical_formula_structural   Sc10Pb6C
_chemical_formula_sum   'Sc10 Pb6 C1'
_cell_volume   393.96544913
_cell_formula_units_Z   1
loop_
 _symmetry_equiv_pos_site_id
 _symmetry_equiv_pos_as_xyz
  1  'x, y, z'
loop_
 _atom_site_type_symbol
 _atom_site_label
 _atom_site_symmetry_multiplicity
 _atom_site_fract_x
 _atom_site_fract_y
 _atom_site_fract_z
 _atom_site_occupancy
  Sc  Sc0  1  0.000000  0.780275  0.278181  1
  Sc  Sc1  1  0.219725  0.219725  0.278181  1
  Sc  Sc2  1  0.780275  0.000000  0.278181  1
  Sc  Sc3  1  0.000000  0.219725  0.721819  1
  Sc  Sc4  1  0.780275  0.780275  0.721819  1
  Sc  Sc5  1  0.219725  0.000000  0.721819  1
  Sc  Sc6  1  0.333333  0.666667  0.000000  1
  Sc  Sc7  1  0.666667  0.333333  0.000000  1
  Sc  Sc8  1  0.666667  0.333333  0.500000  1
  Sc  Sc9  1  0.333333  0.666667  0.500000  1
  Pb  Pb10  1  0.000000  0.398969  0.248985  1
  Pb  Pb11  1  0.601031  0.601031  0.248985  1
  Pb  Pb12  1  0.398969  0.000000  0.248985  1
  Pb  Pb13  1  0.000000  0.601031  0.751015  1
  Pb  Pb14  1  0.398969  0.398969  0.751015  1
  Pb  Pb15  1  0.601031  0.000000  0.751015  1
  C  C16  1  0.000000  0.000000  0.500000  1
