# generated using pymatgen
data_LuZr2Sc(Al3Rh)6
_symmetry_space_group_name_H-M   'P 1'
_cell_length_a   7.48779447
_cell_length_b   7.48162533
_cell_length_c   9.30332200
_cell_angle_alpha   90.00162588
_cell_angle_beta   89.99900355
_cell_angle_gamma   119.66754200
_symmetry_Int_Tables_number   1
_chemical_formula_structural   LuZr2Sc(Al3Rh)6
_chemical_formula_sum   'Lu1 Zr2 Sc1 Al18 Rh6'
_cell_volume   452.85977261
_cell_formula_units_Z   1
loop_
 _symmetry_equiv_pos_site_id
 _symmetry_equiv_pos_as_xyz
  1  'x, y, z'
loop_
 _atom_site_type_symbol
 _atom_site_label
 _atom_site_symmetry_multiplicity
 _atom_site_fract_x
 _atom_site_fract_y
 _atom_site_fract_z
 _atom_site_occupancy
  Lu  Lu0  1  0.328798  0.006626  0.750019  1
  Zr  Zr1  1  0.995019  0.672556  0.249995  1
  Zr  Zr2  1  0.004904  0.327252  0.750000  1
  Sc  Sc3  1  0.671660  0.993948  0.249991  1
  Al  Al4  1  0.121881  0.122002  0.250003  1
  Al  Al5  1  0.873532  0.875739  0.749997  1
  Al  Al6  1  0.995999  0.333980  0.078279  1
  Al  Al7  1  0.000870  0.663083  0.924370  1
  Al  Al8  1  0.000861  0.663086  0.575622  1
  Al  Al9  1  0.336074  0.998055  0.419298  1
  Al  Al10  1  0.996002  0.333986  0.421713  1
  Al  Al11  1  0.666778  0.001751  0.575499  1
  Al  Al12  1  0.666787  0.001750  0.924496  1
  Al  Al13  1  0.336079  0.998071  0.080697  1
  Al  Al14  1  0.331190  0.333163  0.554867  1
  Al  Al15  1  0.669155  0.669543  0.441927  1
  Al  Al16  1  0.669157  0.669548  0.058063  1
  Al  Al17  1  0.331198  0.333174  0.945123  1
  Al  Al18  1  0.337782  0.554007  0.250011  1
  Al  Al19  1  0.664343  0.450339  0.749994  1
  Al  Al20  1  0.557465  0.341911  0.249994  1
  Al  Al21  1  0.444336  0.656903  0.750013  1
  Rh  Rh22  1  0.672540  0.327528  0.999354  1
  Rh  Rh23  1  0.326781  0.672509  0.000472  1
  Rh  Rh24  1  0.326765  0.672488  0.499565  1
  Rh  Rh25  1  0.672531  0.327524  0.500634  1
  Rh  Rh26  1  0.000766  0.999742  0.999737  1
  Rh  Rh27  1  0.000746  0.999735  0.500265  1
