# generated using pymatgen
data_Mg3Zn2GePd10
_symmetry_space_group_name_H-M   'P 1'
_cell_length_a   4.16275800
_cell_length_b   5.48650620
_cell_length_c   10.71091802
_cell_angle_alpha   91.20075498
_cell_angle_beta   90.00000000
_cell_angle_gamma   90.00000000
_symmetry_Int_Tables_number   1
_chemical_formula_structural   Mg3Zn2GePd10
_chemical_formula_sum   'Mg3 Zn2 Ge1 Pd10'
_cell_volume   244.57291219
_cell_formula_units_Z   1
loop_
 _symmetry_equiv_pos_site_id
 _symmetry_equiv_pos_as_xyz
  1  'x, y, z'
loop_
 _atom_site_type_symbol
 _atom_site_label
 _atom_site_symmetry_multiplicity
 _atom_site_fract_x
 _atom_site_fract_y
 _atom_site_fract_z
 _atom_site_occupancy
  Mg  Mg0  1  0.500000  0.828091  0.862671  1
  Mg  Mg1  1  0.500000  0.334486  0.643250  1
  Mg  Mg2  1  0.500000  0.655119  0.356938  1
  Zn  Zn3  1  0.000000  0.514632  0.999178  1
  Zn  Zn4  1  0.500000  0.177593  0.138339  1
  Ge  Ge5  1  0.000000  0.997382  0.499527  1
  Pd  Pd6  1  0.500000  0.172840  0.392323  1
  Pd  Pd7  1  0.500000  0.818599  0.603668  1
  Pd  Pd8  1  0.500000  0.317285  0.894900  1
  Pd  Pd9  1  0.500000  0.694017  0.110104  1
  Pd  Pd10  1  0.000000  0.405455  0.235126  1
  Pd  Pd11  1  0.000000  0.582672  0.759124  1
  Pd  Pd12  1  0.000000  0.079069  0.739164  1
  Pd  Pd13  1  0.000000  0.912016  0.262517  1
  Pd  Pd14  1  0.000000  0.015173  0.005027  1
  Pd  Pd15  1  0.000000  0.495570  0.498143  1
