# generated using pymatgen
data_Ti3B4Mo7P2
_symmetry_space_group_name_H-M   'P 1'
_cell_length_a   6.98649643
_cell_length_b   6.97714728
_cell_length_c   6.98840811
_cell_angle_alpha   129.14594097
_cell_angle_beta   129.18231065
_cell_angle_gamma   74.67584936
_symmetry_Int_Tables_number   1
_chemical_formula_structural   Ti3B4Mo7P2
_chemical_formula_sum   'Ti3 B4 Mo7 P2'
_cell_volume   199.58912135
_cell_formula_units_Z   1
loop_
 _symmetry_equiv_pos_site_id
 _symmetry_equiv_pos_as_xyz
  1  'x, y, z'
loop_
 _atom_site_type_symbol
 _atom_site_label
 _atom_site_symmetry_multiplicity
 _atom_site_fract_x
 _atom_site_fract_y
 _atom_site_fract_z
 _atom_site_occupancy
  Ti  Ti0  1  0.000097  0.998755  0.999860  1
  Ti  Ti1  1  0.809234  0.978537  0.500000  1
  Ti  Ti2  1  0.500237  0.498896  0.000140  1
  B  B3  1  0.384699  0.883578  0.267229  1
  B  B4  1  0.881076  0.617653  0.500000  1
  B  B5  1  0.617470  0.116350  0.732771  1
  B  B6  1  0.116887  0.381351  0.500000  1
  Mo  Mo7  1  0.306073  0.805470  0.833950  1
  Mo  Mo8  1  0.193706  0.028837  0.500000  1
  Mo  Mo9  1  0.530069  0.694433  0.500000  1
  Mo  Mo10  1  0.026634  0.526893  0.834025  1
  Mo  Mo11  1  0.692609  0.192868  0.165975  1
  Mo  Mo12  1  0.972124  0.471520  0.166050  1
  Mo  Mo13  1  0.471041  0.307739  0.500000  1
  P  P14  1  0.748511  0.748049  0.998978  1
  P  P15  1  0.249533  0.249071  0.001022  1
