# generated using pymatgen
data_HoEr3Fe13Co
_symmetry_space_group_name_H-M   'P 1'
_cell_length_a   12.31362912
_cell_length_b   12.31362924
_cell_length_c   12.31363002
_cell_angle_alpha   23.68895539
_cell_angle_beta   23.68895435
_cell_angle_gamma   23.68895726
_symmetry_Int_Tables_number   1
_chemical_formula_structural   HoEr3Fe13Co
_chemical_formula_sum   'Ho1 Er3 Fe13 Co1'
_cell_volume   264.71964237
_cell_formula_units_Z   1
loop_
 _symmetry_equiv_pos_site_id
 _symmetry_equiv_pos_as_xyz
  1  'x, y, z'
loop_
 _atom_site_type_symbol
 _atom_site_label
 _atom_site_symmetry_multiplicity
 _atom_site_fract_x
 _atom_site_fract_y
 _atom_site_fract_z
 _atom_site_occupancy
  Ho  Ho0  1  0.947761  0.947761  0.947761  1
  Er  Er1  1  0.149632  0.149632  0.149632  1
  Er  Er2  1  0.052242  0.052242  0.052242  1
  Er  Er3  1  0.850364  0.850364  0.850364  1
  Fe  Fe4  1  0.612279  0.612279  0.612279  1
  Fe  Fe5  1  0.387709  0.387709  0.387709  1
  Fe  Fe6  1  0.107823  0.610103  0.610103  1
  Fe  Fe7  1  0.389897  0.389897  0.892102  1
  Fe  Fe8  1  0.610103  0.610103  0.107823  1
  Fe  Fe9  1  0.610103  0.107823  0.610103  1
  Fe  Fe10  1  0.389897  0.892102  0.389897  1
  Fe  Fe11  1  0.500063  0.999966  0.500063  1
  Fe  Fe12  1  0.721075  0.721075  0.721075  1
  Fe  Fe13  1  0.892102  0.389897  0.389897  1
  Fe  Fe14  1  0.999966  0.500063  0.500063  1
  Fe  Fe15  1  0.278912  0.278912  0.278912  1
  Fe  Fe16  1  0.500063  0.500063  0.999966  1
  Co  Co17  1  0.500006  0.500006  0.500006  1
