# generated using pymatgen
data_CaY3(Rh2O7)2
_symmetry_space_group_name_H-M   'P 1'
_cell_length_a   7.24823110
_cell_length_b   7.24405151
_cell_length_c   7.24823100
_cell_angle_alpha   59.98090810
_cell_angle_beta   59.99999587
_cell_angle_gamma   59.98090948
_symmetry_Int_Tables_number   1
_chemical_formula_structural   CaY3(Rh2O7)2
_chemical_formula_sum   'Ca1 Y3 Rh4 O14'
_cell_volume   269.03277669
_cell_formula_units_Z   1
loop_
 _symmetry_equiv_pos_site_id
 _symmetry_equiv_pos_as_xyz
  1  'x, y, z'
loop_
 _atom_site_type_symbol
 _atom_site_label
 _atom_site_symmetry_multiplicity
 _atom_site_fract_x
 _atom_site_fract_y
 _atom_site_fract_z
 _atom_site_occupancy
  Ca  Ca0  1  0.125000  0.625000  0.125000  1
  Y  Y1  1  0.125000  0.125000  0.625000  1
  Y  Y2  1  0.625000  0.125000  0.125000  1
  Y  Y3  1  0.125000  0.125000  0.125000  1
  Rh  Rh4  1  0.625000  0.625000  0.625000  1
  Rh  Rh5  1  0.125000  0.625000  0.625000  1
  Rh  Rh6  1  0.625000  0.625000  0.125000  1
  Rh  Rh7  1  0.625000  0.125000  0.625000  1
  O  O8  1  0.293823  0.713754  0.698600  1
  O  O9  1  0.540650  0.960362  0.958338  1
  O  O10  1  0.698600  0.713754  0.293823  1
  O  O11  1  0.291662  0.289638  0.709350  1
  O  O12  1  0.997680  0.006958  0.997680  1
  O  O13  1  0.293823  0.713754  0.293823  1
  O  O14  1  0.709350  0.289638  0.709350  1
  O  O15  1  0.956177  0.536246  0.956177  1
  O  O16  1  0.551400  0.536246  0.956177  1
  O  O17  1  0.958338  0.960362  0.540650  1
  O  O18  1  0.252320  0.243042  0.252320  1
  O  O19  1  0.540650  0.960362  0.540650  1
  O  O20  1  0.709350  0.289638  0.291662  1
  O  O21  1  0.956177  0.536246  0.551400  1
