# generated using pymatgen
data_TbCr2(ReTc4)2
_symmetry_space_group_name_H-M   'P 1'
_cell_length_a   4.91091176
_cell_length_b   6.89548359
_cell_length_c   6.84316491
_cell_angle_alpha   82.70198485
_cell_angle_beta   69.62736800
_cell_angle_gamma   68.48716550
_symmetry_Int_Tables_number   1
_chemical_formula_structural   TbCr2(ReTc4)2
_chemical_formula_sum   'Tb1 Cr2 Re2 Tc8'
_cell_volume   202.10203385
_cell_formula_units_Z   1
loop_
 _symmetry_equiv_pos_site_id
 _symmetry_equiv_pos_as_xyz
  1  'x, y, z'
loop_
 _atom_site_type_symbol
 _atom_site_label
 _atom_site_symmetry_multiplicity
 _atom_site_fract_x
 _atom_site_fract_y
 _atom_site_fract_z
 _atom_site_occupancy
  Tb  Tb0  1  0.000000  0.000000  0.000000  1
  Cr  Cr1  1  0.500000  0.000000  0.500000  1
  Cr  Cr2  1  0.000000  0.500000  0.000000  1
  Re  Re3  1  0.000000  0.000000  0.500000  1
  Re  Re4  1  0.500000  0.500000  0.000000  1
  Tc  Tc5  1  0.004250  0.359039  0.640961  1
  Tc  Tc6  1  0.995750  0.640961  0.359039  1
  Tc  Tc7  1  0.640191  0.359809  0.359809  1
  Tc  Tc8  1  0.359809  0.640191  0.640191  1
  Tc  Tc9  1  0.510657  0.779546  0.220454  1
  Tc  Tc10  1  0.489343  0.220454  0.779546  1
  Tc  Tc11  1  0.720305  0.779695  0.779695  1
  Tc  Tc12  1  0.279695  0.220305  0.220305  1
