# generated using pymatgen
data_Li(Zn3Cu2)5
_symmetry_space_group_name_H-M   'P 1'
_cell_length_a   7.64313215
_cell_length_b   7.68195025
_cell_length_c   7.68195025
_cell_angle_alpha   109.57335973
_cell_angle_beta   109.36889229
_cell_angle_gamma   109.36889575
_symmetry_Int_Tables_number   1
_chemical_formula_structural   Li(Zn3Cu2)5
_chemical_formula_sum   'Li1 Zn15 Cu10'
_cell_volume   347.64766216
_cell_formula_units_Z   1
loop_
 _symmetry_equiv_pos_site_id
 _symmetry_equiv_pos_as_xyz
  1  'x, y, z'
loop_
 _atom_site_type_symbol
 _atom_site_label
 _atom_site_symmetry_multiplicity
 _atom_site_fract_x
 _atom_site_fract_y
 _atom_site_fract_z
 _atom_site_occupancy
  Li  Li0  1  0.220963  0.000000  0.000000  1
  Zn  Zn1  1  0.002563  0.217862  0.000000  1
  Zn  Zn2  1  0.002563  0.000000  0.217862  1
  Zn  Zn3  1  0.784701  0.782138  0.782138  1
  Zn  Zn4  1  0.346699  0.722961  0.000000  1
  Zn  Zn5  1  0.623737  0.277039  0.277039  1
  Zn  Zn6  1  0.346699  0.000000  0.722961  1
  Zn  Zn7  1  0.718625  0.346272  0.000000  1
  Zn  Zn8  1  0.000129  0.348344  0.720673  1
  Zn  Zn9  1  0.279456  0.627672  0.279327  1
  Zn  Zn10  1  0.279456  0.279327  0.627672  1
  Zn  Zn11  1  0.000129  0.720673  0.348344  1
  Zn  Zn12  1  0.718625  0.000000  0.346272  1
  Zn  Zn13  1  0.651784  0.651656  0.372328  1
  Zn  Zn14  1  0.372353  0.653728  0.653728  1
  Zn  Zn15  1  0.651784  0.372328  0.651656  1
  Cu  Cu16  1  0.654136  0.000000  0.000000  1
  Cu  Cu17  1  0.999619  0.655075  0.000000  1
  Cu  Cu18  1  0.999619  0.000000  0.655075  1
  Cu  Cu19  1  0.344544  0.344925  0.344925  1
  Cu  Cu20  1  0.999811  0.644396  0.644396  1
  Cu  Cu21  1  0.355415  0.000000  0.355604  1
  Cu  Cu22  1  0.355415  0.355604  0.000000  1
  Cu  Cu23  1  0.999695  0.353955  0.353955  1
  Cu  Cu24  1  0.645741  0.000000  0.646045  1
  Cu  Cu25  1  0.645741  0.646045  0.000000  1
