# generated using pymatgen
data_Hf18CrRe7SiGe
_symmetry_space_group_name_H-M   'P 1'
_cell_length_a   8.56804500
_cell_length_b   8.56804384
_cell_length_c   8.61944300
_cell_angle_alpha   90.00000000
_cell_angle_beta   90.00000000
_cell_angle_gamma   120.00000835
_symmetry_Int_Tables_number   1
_chemical_formula_structural   Hf18CrRe7SiGe
_chemical_formula_sum   'Hf18 Cr1 Re7 Si1 Ge1'
_cell_volume   547.99073501
_cell_formula_units_Z   1
loop_
 _symmetry_equiv_pos_site_id
 _symmetry_equiv_pos_as_xyz
  1  'x, y, z'
loop_
 _atom_site_type_symbol
 _atom_site_label
 _atom_site_symmetry_multiplicity
 _atom_site_fract_x
 _atom_site_fract_y
 _atom_site_fract_z
 _atom_site_occupancy
  Hf  Hf0  1  0.192225  0.807775  0.452603  1
  Hf  Hf1  1  0.192225  0.384449  0.452603  1
  Hf  Hf2  1  0.615551  0.807775  0.452603  1
  Hf  Hf3  1  0.806265  0.193735  0.548403  1
  Hf  Hf4  1  0.806265  0.612529  0.548403  1
  Hf  Hf5  1  0.387471  0.193735  0.548403  1
  Hf  Hf6  1  0.805110  0.194890  0.952196  1
  Hf  Hf7  1  0.805110  0.610220  0.952196  1
  Hf  Hf8  1  0.389780  0.194890  0.952196  1
  Hf  Hf9  1  0.193527  0.806473  0.046645  1
  Hf  Hf10  1  0.193527  0.387055  0.046645  1
  Hf  Hf11  1  0.612945  0.806473  0.046645  1
  Hf  Hf12  1  0.540391  0.459609  0.250648  1
  Hf  Hf13  1  0.540391  0.080782  0.250648  1
  Hf  Hf14  1  0.919218  0.459609  0.250648  1
  Hf  Hf15  1  0.460636  0.539364  0.749441  1
  Hf  Hf16  1  0.460636  0.921272  0.749441  1
  Hf  Hf17  1  0.078728  0.539364  0.749441  1
  Cr  Cr18  1  0.000000  0.000000  0.499350  1
  Re  Re19  1  0.891781  0.108219  0.253825  1
  Re  Re20  1  0.891781  0.783561  0.253825  1
  Re  Re21  1  0.216439  0.108219  0.253825  1
  Re  Re22  1  0.108180  0.891820  0.746058  1
  Re  Re23  1  0.108180  0.216360  0.746058  1
  Re  Re24  1  0.783640  0.891820  0.746058  1
  Re  Re25  1  0.000000  0.000000  0.000267  1
  Si  Si26  1  0.666667  0.333333  0.749339  1
  Ge  Ge27  1  0.333333  0.666667  0.251590  1
