# generated using pymatgen
data_DyLu9Co4
_symmetry_space_group_name_H-M   'P 1'
_cell_length_a   6.18279453
_cell_length_b   6.83251172
_cell_length_c   8.30741361
_cell_angle_alpha   96.49257638
_cell_angle_beta   111.75076547
_cell_angle_gamma   89.92953330
_symmetry_Int_Tables_number   1
_chemical_formula_structural   DyLu9Co4
_chemical_formula_sum   'Dy1 Lu9 Co4'
_cell_volume   323.54812559
_cell_formula_units_Z   1
loop_
 _symmetry_equiv_pos_site_id
 _symmetry_equiv_pos_as_xyz
  1  'x, y, z'
loop_
 _atom_site_type_symbol
 _atom_site_label
 _atom_site_symmetry_multiplicity
 _atom_site_fract_x
 _atom_site_fract_y
 _atom_site_fract_z
 _atom_site_occupancy
  Dy  Dy0  1  0.517448  0.086508  0.810393  1
  Lu  Lu1  1  0.482390  0.913042  0.189003  1
  Lu  Lu2  1  0.705000  0.412505  0.187998  1
  Lu  Lu3  1  0.294888  0.587461  0.813829  1
  Lu  Lu4  1  0.285038  0.318336  0.433767  1
  Lu  Lu5  1  0.715819  0.683582  0.564820  1
  Lu  Lu6  1  0.852616  0.184882  0.564158  1
  Lu  Lu7  1  0.149009  0.813957  0.433747  1
  Lu  Lu8  1  0.072449  0.250329  0.000434  1
  Lu  Lu9  1  0.927133  0.748964  0.000618  1
  Co  Co10  1  0.324361  0.571402  0.218932  1
  Co  Co11  1  0.675496  0.429952  0.779060  1
  Co  Co12  1  0.099420  0.927823  0.780180  1
  Co  Co13  1  0.898931  0.071257  0.223060  1
