# generated using pymatgen
data_Ca3TmAs6Rh7
_symmetry_space_group_name_H-M   'P 1'
_cell_length_a   7.26260505
_cell_length_b   7.29997283
_cell_length_c   7.26260429
_cell_angle_alpha   109.57548416
_cell_angle_beta   109.36675684
_cell_angle_gamma   109.57547749
_symmetry_Int_Tables_number   1
_chemical_formula_structural   Ca3TmAs6Rh7
_chemical_formula_sum   'Ca3 Tm1 As6 Rh7'
_cell_volume   296.02183495
_cell_formula_units_Z   1
loop_
 _symmetry_equiv_pos_site_id
 _symmetry_equiv_pos_as_xyz
  1  'x, y, z'
loop_
 _atom_site_type_symbol
 _atom_site_label
 _atom_site_symmetry_multiplicity
 _atom_site_fract_x
 _atom_site_fract_y
 _atom_site_fract_z
 _atom_site_occupancy
  Ca  Ca0  1  0.500000  0.500000  0.500000  1
  Ca  Ca1  1  0.500000  0.000000  0.000000  1
  Ca  Ca2  1  0.000000  0.000000  0.500000  1
  Tm  Tm3  1  0.000000  0.500000  0.000000  1
  As  As4  1  0.678126  0.998563  0.678126  1
  As  As5  1  0.678126  0.679563  0.000000  1
  As  As6  1  0.321874  0.320437  0.000000  1
  As  As7  1  0.000000  0.679563  0.678126  1
  As  As8  1  0.000000  0.320437  0.321874  1
  As  As9  1  0.321874  0.001437  0.321874  1
  Rh  Rh10  1  0.496040  0.748020  0.248020  1
  Rh  Rh11  1  0.751980  0.251980  0.503960  1
  Rh  Rh12  1  0.248020  0.748020  0.496040  1
  Rh  Rh13  1  0.248020  0.500000  0.751980  1
  Rh  Rh14  1  0.000000  0.000000  0.000000  1
  Rh  Rh15  1  0.503960  0.251980  0.751980  1
  Rh  Rh16  1  0.751980  0.500000  0.248020  1
