# generated using pymatgen
data_Tb2MnP4Rh5
_symmetry_space_group_name_H-M   'P 1'
_cell_length_a   3.92039900
_cell_length_b   11.20966800
_cell_length_c   12.74664800
_cell_angle_alpha   90.00000000
_cell_angle_beta   90.00000000
_cell_angle_gamma   90.00000000
_symmetry_Int_Tables_number   1
_chemical_formula_structural   Tb2MnP4Rh5
_chemical_formula_sum   'Tb6 Mn3 P12 Rh15'
_cell_volume   560.16892479
_cell_formula_units_Z   3
loop_
 _symmetry_equiv_pos_site_id
 _symmetry_equiv_pos_as_xyz
  1  'x, y, z'
loop_
 _atom_site_type_symbol
 _atom_site_label
 _atom_site_symmetry_multiplicity
 _atom_site_fract_x
 _atom_site_fract_y
 _atom_site_fract_z
 _atom_site_occupancy
  Tb  Tb0  1  0.000000  0.500000  0.518510  1
  Tb  Tb1  1  0.500000  0.000000  0.481562  1
  Tb  Tb2  1  0.500000  0.815716  0.203048  1
  Tb  Tb3  1  0.500000  0.184284  0.203048  1
  Tb  Tb4  1  0.000000  0.677801  0.797866  1
  Tb  Tb5  1  0.000000  0.322199  0.797866  1
  Mn  Mn6  1  0.500000  0.500000  0.160372  1
  Mn  Mn7  1  0.000000  0.000000  0.837793  1
  Mn  Mn8  1  0.000000  0.500000  0.988795  1
  P  P9  1  0.500000  0.500000  0.883162  1
  P  P10  1  0.000000  0.000000  0.119767  1
  P  P11  1  0.500000  0.500000  0.345762  1
  P  P12  1  0.000000  0.000000  0.653696  1
  P  P13  1  0.500000  0.312854  0.618883  1
  P  P14  1  0.500000  0.687146  0.618883  1
  P  P15  1  0.000000  0.186783  0.382076  1
  P  P16  1  0.000000  0.813217  0.382076  1
  P  P17  1  0.500000  0.843873  0.891574  1
  P  P18  1  0.500000  0.156127  0.891574  1
  P  P19  1  0.000000  0.648956  0.105784  1
  P  P20  1  0.000000  0.351044  0.105784  1
  Rh  Rh21  1  0.500000  0.500000  0.699553  1
  Rh  Rh22  1  0.000000  0.000000  0.299028  1
  Rh  Rh23  1  0.500000  0.000000  0.016494  1
  Rh  Rh24  1  0.500000  0.335638  0.995287  1
  Rh  Rh25  1  0.500000  0.664362  0.995287  1
  Rh  Rh26  1  0.000000  0.167298  0.003706  1
  Rh  Rh27  1  0.000000  0.832702  0.003706  1
  Rh  Rh28  1  0.500000  0.294503  0.430638  1
  Rh  Rh29  1  0.500000  0.705497  0.430638  1
  Rh  Rh30  1  0.000000  0.206851  0.568989  1
  Rh  Rh31  1  0.000000  0.793149  0.568989  1
  Rh  Rh32  1  0.500000  0.873945  0.711612  1
  Rh  Rh33  1  0.500000  0.126055  0.711612  1
  Rh  Rh34  1  0.000000  0.625511  0.288288  1
  Rh  Rh35  1  0.000000  0.374489  0.288288  1
