# generated using pymatgen
data_Dy3Tm5(CdRu)2
_symmetry_space_group_name_H-M   'P 1'
_cell_length_a   9.53566290
_cell_length_b   9.53566283
_cell_length_c   9.53566300
_cell_angle_alpha   59.99999593
_cell_angle_beta   59.99999620
_cell_angle_gamma   60.00000120
_symmetry_Int_Tables_number   1
_chemical_formula_structural   Dy3Tm5(CdRu)2
_chemical_formula_sum   'Dy6 Tm10 Cd4 Ru4'
_cell_volume   613.10894272
_cell_formula_units_Z   2
loop_
 _symmetry_equiv_pos_site_id
 _symmetry_equiv_pos_as_xyz
  1  'x, y, z'
loop_
 _atom_site_type_symbol
 _atom_site_label
 _atom_site_symmetry_multiplicity
 _atom_site_fract_x
 _atom_site_fract_y
 _atom_site_fract_z
 _atom_site_occupancy
  Dy  Dy0  1  0.190420  0.809580  0.809580  1
  Dy  Dy1  1  0.809580  0.190420  0.190420  1
  Dy  Dy2  1  0.809580  0.190420  0.809580  1
  Dy  Dy3  1  0.190420  0.809580  0.190420  1
  Dy  Dy4  1  0.809580  0.809580  0.190420  1
  Dy  Dy5  1  0.190420  0.190420  0.809580  1
  Tm  Tm6  1  0.596751  0.596751  0.596751  1
  Tm  Tm7  1  0.596751  0.596751  0.209747  1
  Tm  Tm8  1  0.596751  0.209747  0.596751  1
  Tm  Tm9  1  0.209747  0.596751  0.596751  1
  Tm  Tm10  1  0.062336  0.437664  0.437664  1
  Tm  Tm11  1  0.437664  0.062336  0.062336  1
  Tm  Tm12  1  0.437664  0.062336  0.437664  1
  Tm  Tm13  1  0.062336  0.437664  0.062336  1
  Tm  Tm14  1  0.437664  0.437664  0.062336  1
  Tm  Tm15  1  0.062336  0.062336  0.437664  1
  Cd  Cd16  1  0.830341  0.830341  0.830341  1
  Cd  Cd17  1  0.830341  0.830341  0.508978  1
  Cd  Cd18  1  0.830341  0.508978  0.830341  1
  Cd  Cd19  1  0.508978  0.830341  0.830341  1
  Ru  Ru20  1  0.389889  0.389889  0.389889  1
  Ru  Ru21  1  0.389889  0.389889  0.830333  1
  Ru  Ru22  1  0.389889  0.830333  0.389889  1
  Ru  Ru23  1  0.830333  0.389889  0.389889  1
