# generated using pymatgen
data_SmDy(CrN3)2
_symmetry_space_group_name_H-M   'P 1'
_cell_length_a   6.99828116
_cell_length_b   6.99828137
_cell_length_c   5.87437510
_cell_angle_alpha   77.36074761
_cell_angle_beta   77.36076318
_cell_angle_gamma   85.95126022
_symmetry_Int_Tables_number   1
_chemical_formula_structural   SmDy(CrN3)2
_chemical_formula_sum   'Sm2 Dy2 Cr4 N12'
_cell_volume   273.85020016
_cell_formula_units_Z   2
loop_
 _symmetry_equiv_pos_site_id
 _symmetry_equiv_pos_as_xyz
  1  'x, y, z'
loop_
 _atom_site_type_symbol
 _atom_site_label
 _atom_site_symmetry_multiplicity
 _atom_site_fract_x
 _atom_site_fract_y
 _atom_site_fract_z
 _atom_site_occupancy
  Sm  Sm0  1  0.331348  0.668652  0.750000  1
  Sm  Sm1  1  0.668652  0.331348  0.250000  1
  Dy  Dy2  1  0.090646  0.909354  0.250000  1
  Dy  Dy3  1  0.909354  0.090646  0.750000  1
  Cr  Cr4  1  0.377608  0.198707  0.757101  1
  Cr  Cr5  1  0.622392  0.801293  0.242899  1
  Cr  Cr6  1  0.801293  0.622392  0.742899  1
  Cr  Cr7  1  0.198707  0.377608  0.257101  1
  N  N8  1  0.996280  0.775264  0.653896  1
  N  N9  1  0.874936  0.396507  0.842311  1
  N  N10  1  0.775264  0.996280  0.153896  1
  N  N11  1  0.125064  0.603493  0.157689  1
  N  N12  1  0.003720  0.224736  0.346104  1
  N  N13  1  0.224736  0.003720  0.846104  1
  N  N14  1  0.603493  0.125064  0.657689  1
  N  N15  1  0.624615  0.675333  0.996729  1
  N  N16  1  0.375385  0.324667  0.003271  1
  N  N17  1  0.396507  0.874936  0.342311  1
  N  N18  1  0.675333  0.624615  0.496729  1
  N  N19  1  0.324667  0.375385  0.503271  1
