# generated using pymatgen
data_TbTm3(OsO4)4
_symmetry_space_group_name_H-M   'P 1'
_cell_length_a   5.32451179
_cell_length_b   7.69332309
_cell_length_c   7.40378682
_cell_angle_alpha   79.71047795
_cell_angle_beta   91.20816676
_cell_angle_gamma   94.27680748
_symmetry_Int_Tables_number   1
_chemical_formula_structural   TbTm3(OsO4)4
_chemical_formula_sum   'Tb1 Tm3 Os4 O16'
_cell_volume   297.56498936
_cell_formula_units_Z   1
loop_
 _symmetry_equiv_pos_site_id
 _symmetry_equiv_pos_as_xyz
  1  'x, y, z'
loop_
 _atom_site_type_symbol
 _atom_site_label
 _atom_site_symmetry_multiplicity
 _atom_site_fract_x
 _atom_site_fract_y
 _atom_site_fract_z
 _atom_site_occupancy
  Tb  Tb0  1  0.740620  0.386260  0.386965  1
  Tm  Tm1  1  0.261383  0.611263  0.614200  1
  Tm  Tm2  1  0.195850  0.670040  0.103534  1
  Tm  Tm3  1  0.808758  0.334197  0.895926  1
  Os  Os4  1  0.753529  0.836994  0.793132  1
  Os  Os5  1  0.714569  0.835126  0.300856  1
  Os  Os6  1  0.286015  0.164553  0.700974  1
  Os  Os7  1  0.246337  0.162786  0.205798  1
  O  O8  1  0.050933  0.970696  0.712660  1
  O  O9  1  0.408050  0.939960  0.193838  1
  O  O10  1  0.605790  0.824829  0.550534  1
  O  O11  1  0.850229  0.816415  0.055434  1
  O  O12  1  0.447092  0.698353  0.870830  1
  O  O13  1  0.951339  0.613196  0.820375  1
  O  O14  1  0.982484  0.665656  0.384427  1
  O  O15  1  0.487870  0.609269  0.321765  1
  O  O16  1  0.509337  0.391415  0.682688  1
  O  O17  1  0.024100  0.339010  0.619918  1
  O  O18  1  0.053474  0.390113  0.173198  1
  O  O19  1  0.552203  0.299145  0.125485  1
  O  O20  1  0.144962  0.177462  0.945722  1
  O  O21  1  0.384776  0.172856  0.450054  1
  O  O22  1  0.592847  0.060173  0.804790  1
  O  O23  1  0.947455  0.030233  0.286897  1
