# generated using pymatgen
data_Yb4Ni2SbRuO12
_symmetry_space_group_name_H-M   'P 1'
_cell_length_a   5.32633708
_cell_length_b   5.58737393
_cell_length_c   7.63499800
_cell_angle_alpha   90.50156472
_cell_angle_beta   89.29773939
_cell_angle_gamma   89.97461708
_symmetry_Int_Tables_number   1
_chemical_formula_structural   Yb4Ni2SbRuO12
_chemical_formula_sum   'Yb4 Ni2 Sb1 Ru1 O12'
_cell_volume   227.19354248
_cell_formula_units_Z   1
loop_
 _symmetry_equiv_pos_site_id
 _symmetry_equiv_pos_as_xyz
  1  'x, y, z'
loop_
 _atom_site_type_symbol
 _atom_site_label
 _atom_site_symmetry_multiplicity
 _atom_site_fract_x
 _atom_site_fract_y
 _atom_site_fract_z
 _atom_site_occupancy
  Yb  Yb0  1  0.520324  0.932931  0.752888  1
  Yb  Yb1  1  0.020399  0.567595  0.250893  1
  Yb  Yb2  1  0.979601  0.432405  0.749107  1
  Yb  Yb3  1  0.479676  0.067069  0.247112  1
  Ni  Ni4  1  0.000000  0.000000  0.500000  1
  Ni  Ni5  1  0.500000  0.500000  0.000000  1
  Sb  Sb6  1  0.000000  0.000000  0.000000  1
  Ru  Ru7  1  0.500000  0.500000  0.500000  1
  O  O8  1  0.204720  0.313768  0.451103  1
  O  O9  1  0.681640  0.210374  0.552692  1
  O  O10  1  0.302188  0.804569  0.054438  1
  O  O11  1  0.809261  0.702781  0.941012  1
  O  O12  1  0.795280  0.686232  0.548897  1
  O  O13  1  0.318360  0.789626  0.447308  1
  O  O14  1  0.697812  0.195431  0.945562  1
  O  O15  1  0.190739  0.297219  0.058988  1
  O  O16  1  0.599290  0.468990  0.262350  1
  O  O17  1  0.109538  0.034135  0.749796  1
  O  O18  1  0.890462  0.965865  0.250204  1
  O  O19  1  0.400710  0.531010  0.737650  1
