# generated using pymatgen
data_MnGa10Pb3O20
_symmetry_space_group_name_H-M   'P 1'
_cell_length_a   9.88457841
_cell_length_b   9.88457796
_cell_length_c   5.18748217
_cell_angle_alpha   74.90391712
_cell_angle_beta   74.90391930
_cell_angle_gamma   73.69724213
_symmetry_Int_Tables_number   1
_chemical_formula_structural   MnGa10Pb3O20
_chemical_formula_sum   'Mn1 Ga10 Pb3 O20'
_cell_volume   459.97845557
_cell_formula_units_Z   1
loop_
 _symmetry_equiv_pos_site_id
 _symmetry_equiv_pos_as_xyz
  1  'x, y, z'
loop_
 _atom_site_type_symbol
 _atom_site_label
 _atom_site_symmetry_multiplicity
 _atom_site_fract_x
 _atom_site_fract_y
 _atom_site_fract_z
 _atom_site_occupancy
  Mn  Mn0  1  0.500000  0.500000  0.000000  1
  Ga  Ga1  1  0.633655  0.366345  0.500000  1
  Ga  Ga2  1  0.366345  0.633655  0.500000  1
  Ga  Ga3  1  0.279683  0.007251  0.373155  1
  Ga  Ga4  1  0.992749  0.720317  0.626845  1
  Ga  Ga5  1  0.720317  0.992749  0.626845  1
  Ga  Ga6  1  0.007251  0.279683  0.373155  1
  Ga  Ga7  1  0.578211  0.150747  0.106182  1
  Ga  Ga8  1  0.849253  0.421789  0.893818  1
  Ga  Ga9  1  0.421789  0.849253  0.893818  1
  Ga  Ga10  1  0.150747  0.578211  0.106182  1
  Pb  Pb11  1  0.000000  0.000000  0.000000  1
  Pb  Pb12  1  0.722806  0.722806  0.218656  1
  Pb  Pb13  1  0.277194  0.277194  0.781344  1
  O  O14  1  0.566647  0.566647  0.253731  1
  O  O15  1  0.433353  0.433353  0.746269  1
  O  O16  1  0.097064  0.097064  0.304975  1
  O  O17  1  0.902936  0.902936  0.695025  1
  O  O18  1  0.396136  0.123992  0.132497  1
  O  O19  1  0.876008  0.603864  0.867503  1
  O  O20  1  0.603864  0.876008  0.867503  1
  O  O21  1  0.123992  0.396136  0.132497  1
  O  O22  1  0.338593  0.828060  0.268794  1
  O  O23  1  0.171940  0.661407  0.731206  1
  O  O24  1  0.661407  0.171940  0.731206  1
  O  O25  1  0.828060  0.338593  0.268794  1
  O  O26  1  0.991469  0.281815  0.735316  1
  O  O27  1  0.718185  0.008531  0.264684  1
  O  O28  1  0.008531  0.718185  0.264684  1
  O  O29  1  0.281815  0.991469  0.735316  1
  O  O30  1  0.684560  0.454120  0.755481  1
  O  O31  1  0.545880  0.315440  0.244519  1
  O  O32  1  0.315440  0.545880  0.244519  1
  O  O33  1  0.454120  0.684560  0.755481  1
