# generated using pymatgen
data_Hf5Co16Si7Au
_symmetry_space_group_name_H-M   'P 1'
_cell_length_a   7.97904144
_cell_length_b   7.98695661
_cell_length_c   7.98695692
_cell_angle_alpha   59.93444346
_cell_angle_beta   60.03278610
_cell_angle_gamma   60.03278817
_symmetry_Int_Tables_number   1
_chemical_formula_structural   Hf5Co16Si7Au
_chemical_formula_sum   'Hf5 Co16 Si7 Au1'
_cell_volume   359.91305115
_cell_formula_units_Z   1
loop_
 _symmetry_equiv_pos_site_id
 _symmetry_equiv_pos_as_xyz
  1  'x, y, z'
loop_
 _atom_site_type_symbol
 _atom_site_label
 _atom_site_symmetry_multiplicity
 _atom_site_fract_x
 _atom_site_fract_y
 _atom_site_fract_z
 _atom_site_occupancy
  Hf  Hf0  1  0.792719  0.788685  0.207281  1
  Hf  Hf1  1  0.790589  0.209411  0.209411  1
  Hf  Hf2  1  0.211315  0.207281  0.788685  1
  Hf  Hf3  1  0.792719  0.207281  0.788685  1
  Hf  Hf4  1  0.211315  0.788685  0.207281  1
  Co  Co5  1  0.621524  0.616657  0.140295  1
  Co  Co6  1  0.171865  0.482938  0.173334  1
  Co  Co7  1  0.859705  0.378476  0.378476  1
  Co  Co8  1  0.517062  0.828135  0.828135  1
  Co  Co9  1  0.497204  0.167028  0.167028  1
  Co  Co10  1  0.832972  0.831259  0.502796  1
  Co  Co11  1  0.171865  0.173334  0.482938  1
  Co  Co12  1  0.144746  0.620095  0.620095  1
  Co  Co13  1  0.168741  0.167028  0.167028  1
  Co  Co14  1  0.379905  0.384934  0.855254  1
  Co  Co15  1  0.615066  0.620095  0.620095  1
  Co  Co16  1  0.379905  0.855254  0.384934  1
  Co  Co17  1  0.383343  0.378476  0.378476  1
  Co  Co18  1  0.826666  0.828135  0.828135  1
  Co  Co19  1  0.621524  0.140295  0.616657  1
  Co  Co20  1  0.832972  0.502796  0.831259  1
  Si  Si21  1  0.500126  0.995647  0.499874  1
  Si  Si22  1  0.500126  0.499874  0.995647  1
  Si  Si23  1  0.503369  0.496631  0.496631  1
  Si  Si24  1  0.004353  0.995647  0.499874  1
  Si  Si25  1  0.004353  0.499874  0.995647  1
  Si  Si26  1  0.999030  0.500970  0.500970  1
  Si  Si27  1  0.499030  0.000970  0.000970  1
  Au  Au28  1  0.165890  0.834110  0.834110  1
