# generated using pymatgen
data_TbY3Ho4(B6Os)4
_symmetry_space_group_name_H-M   'P 1'
_cell_length_a   3.65286800
_cell_length_b   9.15529601
_cell_length_c   11.53763101
_cell_angle_alpha   89.99434067
_cell_angle_beta   90.00000000
_cell_angle_gamma   90.00000000
_symmetry_Int_Tables_number   1
_chemical_formula_structural   TbY3Ho4(B6Os)4
_chemical_formula_sum   'Tb1 Y3 Ho4 B24 Os4'
_cell_volume   385.85400547
_cell_formula_units_Z   1
loop_
 _symmetry_equiv_pos_site_id
 _symmetry_equiv_pos_as_xyz
  1  'x, y, z'
loop_
 _atom_site_type_symbol
 _atom_site_label
 _atom_site_symmetry_multiplicity
 _atom_site_fract_x
 _atom_site_fract_y
 _atom_site_fract_z
 _atom_site_occupancy
  Tb  Tb0  1  0.000000  0.177756  0.913737  1
  Y  Y1  1  0.000000  0.321982  0.413818  1
  Y  Y2  1  0.000000  0.678027  0.586167  1
  Y  Y3  1  0.000000  0.821957  0.086212  1
  Ho  Ho4  1  0.000000  0.944116  0.373002  1
  Ho  Ho5  1  0.000000  0.055853  0.626969  1
  Ho  Ho6  1  0.000000  0.444166  0.127047  1
  Ho  Ho7  1  0.000000  0.555907  0.872983  1
  B  B8  1  0.500000  0.554052  0.432854  1
  B  B9  1  0.500000  0.445964  0.567151  1
  B  B10  1  0.500000  0.054095  0.067217  1
  B  B11  1  0.500000  0.945917  0.932795  1
  B  B12  1  0.500000  0.748249  0.419778  1
  B  B13  1  0.500000  0.251768  0.580214  1
  B  B14  1  0.500000  0.248278  0.080293  1
  B  B15  1  0.500000  0.751713  0.919799  1
  B  B16  1  0.500000  0.791209  0.266854  1
  B  B17  1  0.500000  0.208871  0.733092  1
  B  B18  1  0.500000  0.291208  0.233189  1
  B  B19  1  0.500000  0.708770  0.766848  1
  B  B20  1  0.500000  0.631704  0.185381  1
  B  B21  1  0.500000  0.368360  0.814604  1
  B  B22  1  0.500000  0.131678  0.314641  1
  B  B23  1  0.500000  0.868302  0.685339  1
  B  B24  1  0.500000  0.983478  0.213361  1
  B  B25  1  0.500000  0.016417  0.786644  1
  B  B26  1  0.500000  0.483495  0.286671  1
  B  B27  1  0.500000  0.516535  0.713309  1
  B  B28  1  0.500000  0.607999  0.029873  1
  B  B29  1  0.500000  0.392237  0.970190  1
  B  B30  1  0.500000  0.108014  0.470109  1
  B  B31  1  0.500000  0.891983  0.529880  1
  Os  Os32  1  0.000000  0.637728  0.321156  1
  Os  Os33  1  0.000000  0.362304  0.678843  1
  Os  Os34  1  0.000000  0.137719  0.178882  1
  Os  Os35  1  0.000000  0.862189  0.821099  1
