# generated using pymatgen
data_Y5TiNb2(Co4P3)4
_symmetry_space_group_name_H-M   'P 1'
_cell_length_a   12.21050100
_cell_length_b   12.19990764
_cell_length_c   3.70598600
_cell_angle_alpha   90.00000000
_cell_angle_beta   90.00000000
_cell_angle_gamma   120.02871964
_symmetry_Int_Tables_number   1
_chemical_formula_structural   Y5TiNb2(Co4P3)4
_chemical_formula_sum   'Y5 Ti1 Nb2 Co16 P12'
_cell_volume   477.96783958
_cell_formula_units_Z   1
loop_
 _symmetry_equiv_pos_site_id
 _symmetry_equiv_pos_as_xyz
  1  'x, y, z'
loop_
 _atom_site_type_symbol
 _atom_site_label
 _atom_site_symmetry_multiplicity
 _atom_site_fract_x
 _atom_site_fract_y
 _atom_site_fract_z
 _atom_site_occupancy
  Y  Y0  1  0.814560  0.000000  0.500000  1
  Y  Y1  1  0.001007  0.816527  0.500000  1
  Y  Y2  1  0.184480  0.183473  0.500000  1
  Y  Y3  1  0.332853  0.666500  0.000000  1
  Y  Y4  1  0.666355  0.333500  0.000000  1
  Ti  Ti5  1  0.439491  0.000000  0.000000  1
  Nb  Nb6  1  0.999743  0.443558  0.000000  1
  Nb  Nb7  1  0.556184  0.556442  0.000000  1
  Co  Co8  1  0.281819  0.000000  0.500000  1
  Co  Co9  1  0.999773  0.278614  0.500000  1
  Co  Co10  1  0.721159  0.721386  0.500000  1
  Co  Co11  1  0.625620  0.803431  0.000000  1
  Co  Co12  1  0.199371  0.823529  0.000000  1
  Co  Co13  1  0.176989  0.373606  0.000000  1
  Co  Co14  1  0.375841  0.176471  0.000000  1
  Co  Co15  1  0.803382  0.626394  0.000000  1
  Co  Co16  1  0.822189  0.196569  0.000000  1
  Co  Co17  1  0.519027  0.874984  0.500000  1
  Co  Co18  1  0.126489  0.646121  0.500000  1
  Co  Co19  1  0.354306  0.481038  0.500000  1
  Co  Co20  1  0.480368  0.353879  0.500000  1
  Co  Co21  1  0.873267  0.518962  0.500000  1
  Co  Co22  1  0.644043  0.125016  0.500000  1
  Co  Co23  1  0.000771  0.000000  0.000000  1
  P  P24  1  0.180111  0.000000  0.000000  1
  P  P25  1  0.999706  0.178226  0.000000  1
  P  P26  1  0.821481  0.821774  0.000000  1
  P  P27  1  0.521342  0.690062  0.500000  1
  P  P28  1  0.313107  0.833610  0.500000  1
  P  P29  1  0.167722  0.478802  0.500000  1
  P  P30  1  0.479497  0.166390  0.500000  1
  P  P31  1  0.688919  0.521198  0.500000  1
  P  P32  1  0.831279  0.309938  0.500000  1
  P  P33  1  0.639877  0.000000  0.000000  1
  P  P34  1  0.000730  0.643587  0.000000  1
  P  P35  1  0.357143  0.356413  0.000000  1
