# generated using pymatgen
data_TbY3(Al8Pt3)3
_symmetry_space_group_name_H-M   'P 1'
_cell_length_a   7.52919841
_cell_length_b   7.55080781
_cell_length_c   13.18807831
_cell_angle_alpha   84.57774478
_cell_angle_beta   79.13222526
_cell_angle_gamma   59.97233218
_symmetry_Int_Tables_number   1
_chemical_formula_structural   TbY3(Al8Pt3)3
_chemical_formula_sum   'Tb1 Y3 Al24 Pt9'
_cell_volume   637.48995636
_cell_formula_units_Z   1
loop_
 _symmetry_equiv_pos_site_id
 _symmetry_equiv_pos_as_xyz
  1  'x, y, z'
loop_
 _atom_site_type_symbol
 _atom_site_label
 _atom_site_symmetry_multiplicity
 _atom_site_fract_x
 _atom_site_fract_y
 _atom_site_fract_z
 _atom_site_occupancy
  Tb  Tb0  1  0.265952  0.501533  0.192286  1
  Y  Y1  1  0.393337  0.168441  0.807973  1
  Y  Y2  1  0.606642  0.831535  0.192023  1
  Y  Y3  1  0.734112  0.498446  0.807695  1
  Al  Al4  1  0.684583  0.833695  0.944634  1
  Al  Al5  1  0.315434  0.166231  0.055372  1
  Al  Al6  1  0.146882  0.832352  0.561166  1
  Al  Al7  1  0.853120  0.167649  0.438837  1
  Al  Al8  1  0.479732  0.166800  0.558601  1
  Al  Al9  1  0.520272  0.833192  0.441399  1
  Al  Al10  1  0.217020  0.165188  0.330239  1
  Al  Al11  1  0.782965  0.834736  0.669784  1
  Al  Al12  1  0.437981  0.506147  0.669785  1
  Al  Al13  1  0.562110  0.493852  0.330217  1
  Al  Al14  1  0.109753  0.160036  0.669004  1
  Al  Al15  1  0.890132  0.840066  0.331030  1
  Al  Al16  1  0.353010  0.499226  0.944781  1
  Al  Al17  1  0.647026  0.500794  0.055220  1
  Al  Al18  1  0.014915  0.167686  0.953318  1
  Al  Al19  1  0.985034  0.832349  0.046680  1
  Al  Al20  1  0.186717  0.498933  0.441310  1
  Al  Al21  1  0.813279  0.501074  0.558690  1
  Al  Al22  1  0.734439  0.163909  0.183419  1
  Al  Al23  1  0.265618  0.836088  0.816570  1
  Al  Al24  1  0.061840  0.631591  0.815354  1
  Al  Al25  1  0.938116  0.368374  0.184631  1
  Al  Al26  1  0.855090  0.041533  0.815899  1
  Al  Al27  1  0.144869  0.958565  0.184090  1
  Pt  Pt28  1  0.120178  0.492343  0.638581  1
  Pt  Pt29  1  0.879821  0.507648  0.361431  1
  Pt  Pt30  1  0.657371  0.171116  0.999934  1
  Pt  Pt31  1  0.342651  0.828872  0.000030  1
  Pt  Pt32  1  0.538202  0.166696  0.361413  1
  Pt  Pt33  1  0.461814  0.833278  0.638613  1
  Pt  Pt34  1  0.779173  0.174749  0.637102  1
  Pt  Pt35  1  0.220797  0.825293  0.362912  1
  Pt  Pt36  1  0.000010  0.499983  0.999979  1
