# generated using pymatgen
data_Tb16Tl2InAgRh4
_symmetry_space_group_name_H-M   'P 1'
_cell_length_a   9.68594608
_cell_length_b   9.66579019
_cell_length_c   9.69459300
_cell_angle_alpha   59.90138103
_cell_angle_beta   59.97046781
_cell_angle_gamma   59.92047283
_symmetry_Int_Tables_number   1
_chemical_formula_structural   Tb16Tl2InAgRh4
_chemical_formula_sum   'Tb16 Tl2 In1 Ag1 Rh4'
_cell_volume   640.78330343
_cell_formula_units_Z   1
loop_
 _symmetry_equiv_pos_site_id
 _symmetry_equiv_pos_as_xyz
  1  'x, y, z'
loop_
 _atom_site_type_symbol
 _atom_site_label
 _atom_site_symmetry_multiplicity
 _atom_site_fract_x
 _atom_site_fract_y
 _atom_site_fract_z
 _atom_site_occupancy
  Tb  Tb0  1  0.812119  0.810828  0.188527  1
  Tb  Tb1  1  0.811835  0.190678  0.808373  1
  Tb  Tb2  1  0.189993  0.190325  0.809841  1
  Tb  Tb3  1  0.648858  0.051230  0.649955  1
  Tb  Tb4  1  0.065863  0.057648  0.438245  1
  Tb  Tb5  1  0.437761  0.435273  0.063483  1
  Tb  Tb6  1  0.650608  0.649163  0.652077  1
  Tb  Tb7  1  0.811835  0.190678  0.189113  1
  Tb  Tb8  1  0.188466  0.813179  0.810236  1
  Tb  Tb9  1  0.051651  0.648284  0.650033  1
  Tb  Tb10  1  0.438422  0.055930  0.068135  1
  Tb  Tb11  1  0.438422  0.055930  0.437514  1
  Tb  Tb12  1  0.061874  0.435825  0.064564  1
  Tb  Tb13  1  0.650608  0.649163  0.048152  1
  Tb  Tb14  1  0.188466  0.813179  0.188118  1
  Tb  Tb15  1  0.061874  0.435825  0.437737  1
  Tl  Tl16  1  0.415233  0.419494  0.413253  1
  Tl  Tl17  1  0.415233  0.419494  0.752020  1
  In  In18  1  0.744891  0.423121  0.415993  1
  Ag  Ag19  1  0.416870  0.754035  0.414547  1
  Rh  Rh20  1  0.857641  0.426994  0.857683  1
  Rh  Rh21  1  0.857184  0.858042  0.857094  1
  Rh  Rh22  1  0.857184  0.858042  0.427681  1
  Rh  Rh23  1  0.427111  0.857640  0.857625  1
