# generated using pymatgen
data_Er3Mg2CdPb2Au
_symmetry_space_group_name_H-M   'P 1'
_cell_length_a   7.53443900
_cell_length_b   7.48891075
_cell_length_c   4.54161000
_cell_angle_alpha   90.00000000
_cell_angle_beta   90.00000000
_cell_angle_gamma   120.20130583
_symmetry_Int_Tables_number   1
_chemical_formula_structural   Er3Mg2CdPb2Au
_chemical_formula_sum   'Er3 Mg2 Cd1 Pb2 Au1'
_cell_volume   221.47540468
_cell_formula_units_Z   1
loop_
 _symmetry_equiv_pos_site_id
 _symmetry_equiv_pos_as_xyz
  1  'x, y, z'
loop_
 _atom_site_type_symbol
 _atom_site_label
 _atom_site_symmetry_multiplicity
 _atom_site_fract_x
 _atom_site_fract_y
 _atom_site_fract_z
 _atom_site_occupancy
  Er  Er0  1  0.591109  0.000000  0.000000  1
  Er  Er1  1  0.003722  0.598746  0.000000  1
  Er  Er2  1  0.404976  0.401254  0.000000  1
  Mg  Mg3  1  0.000777  0.231517  0.500000  1
  Mg  Mg4  1  0.769261  0.768483  0.500000  1
  Cd  Cd5  1  0.235138  0.000000  0.500000  1
  Pb  Pb6  1  0.335510  0.662340  0.500000  1
  Pb  Pb7  1  0.673171  0.337660  0.500000  1
  Au  Au8  1  0.986336  0.000000  0.000000  1
