# generated using pymatgen
data_TmLuHf2(Al3Rh)6
_symmetry_space_group_name_H-M   'P 1'
_cell_length_a   7.49286204
_cell_length_b   7.48246150
_cell_length_c   9.30308800
_cell_angle_alpha   90.00000000
_cell_angle_beta   90.00000000
_cell_angle_gamma   119.67097621
_symmetry_Int_Tables_number   1
_chemical_formula_structural   TmLuHf2(Al3Rh)6
_chemical_formula_sum   'Tm1 Lu1 Hf2 Al18 Rh6'
_cell_volume   453.19003107
_cell_formula_units_Z   1
loop_
 _symmetry_equiv_pos_site_id
 _symmetry_equiv_pos_as_xyz
  1  'x, y, z'
loop_
 _atom_site_type_symbol
 _atom_site_label
 _atom_site_symmetry_multiplicity
 _atom_site_fract_x
 _atom_site_fract_y
 _atom_site_fract_z
 _atom_site_occupancy
  Tm  Tm0  1  0.671148  0.993718  0.250000  1
  Lu  Lu1  1  0.328760  0.006261  0.750000  1
  Hf  Hf2  1  0.995258  0.671667  0.250000  1
  Hf  Hf3  1  0.004791  0.328330  0.750000  1
  Al  Al4  1  0.125212  0.123278  0.250000  1
  Al  Al5  1  0.874956  0.876797  0.750000  1
  Al  Al6  1  0.998972  0.337087  0.076550  1
  Al  Al7  1  0.001179  0.663055  0.923333  1
  Al  Al8  1  0.001179  0.663055  0.576667  1
  Al  Al9  1  0.332664  0.997592  0.420840  1
  Al  Al10  1  0.998972  0.337087  0.423450  1
  Al  Al11  1  0.667205  0.002427  0.579390  1
  Al  Al12  1  0.667205  0.002427  0.920610  1
  Al  Al13  1  0.332664  0.997592  0.079160  1
  Al  Al14  1  0.330720  0.333005  0.557212  1
  Al  Al15  1  0.669287  0.666871  0.442913  1
  Al  Al16  1  0.669287  0.666871  0.057087  1
  Al  Al17  1  0.330720  0.333005  0.942788  1
  Al  Al18  1  0.334912  0.549257  0.250000  1
  Al  Al19  1  0.664946  0.450556  0.750000  1
  Al  Al20  1  0.556265  0.343279  0.250000  1
  Al  Al21  1  0.443661  0.656777  0.750000  1
  Rh  Rh22  1  0.673296  0.327609  0.999202  1
  Rh  Rh23  1  0.326636  0.672381  0.000724  1
  Rh  Rh24  1  0.326636  0.672381  0.499276  1
  Rh  Rh25  1  0.673296  0.327609  0.500798  1
  Rh  Rh26  1  0.000088  0.000011  0.999950  1
  Rh  Rh27  1  0.000088  0.000011  0.500050  1
