# generated using pymatgen
data_HoMnSbO6
_symmetry_space_group_name_H-M   'P 1'
_cell_length_a   5.13398128
_cell_length_b   5.13401739
_cell_length_c   4.89626964
_cell_angle_alpha   90.02883182
_cell_angle_beta   90.02828427
_cell_angle_gamma   119.99880625
_symmetry_Int_Tables_number   1
_chemical_formula_structural   HoMnSbO6
_chemical_formula_sum   'Ho1 Mn1 Sb1 O6'
_cell_volume   111.76673990
_cell_formula_units_Z   1
loop_
 _symmetry_equiv_pos_site_id
 _symmetry_equiv_pos_as_xyz
  1  'x, y, z'
loop_
 _atom_site_type_symbol
 _atom_site_label
 _atom_site_symmetry_multiplicity
 _atom_site_fract_x
 _atom_site_fract_y
 _atom_site_fract_z
 _atom_site_occupancy
  Ho  Ho0  1  0.482461  0.517536  0.499999  1
  Mn  Mn1  1  0.815827  0.184187  0.000014  1
  Sb  Sb2  1  0.149132  0.850875  0.999985  1
  O  O3  1  0.116953  0.161998  0.221120  1
  O  O4  1  0.492639  0.883434  0.221500  1
  O  O5  1  0.838279  0.507702  0.221354  1
  O  O6  1  0.492302  0.161721  0.778635  1
  O  O7  1  0.116563  0.507358  0.778488  1
  O  O8  1  0.838000  0.883049  0.778875  1
