# generated using pymatgen
data_Sr2ThCu2Se5
_symmetry_space_group_name_H-M   'P 1'
_cell_length_a   4.20890383
_cell_length_b   7.14633736
_cell_length_c   9.42475317
_cell_angle_alpha   101.81226363
_cell_angle_beta   102.90232850
_cell_angle_gamma   107.12633822
_symmetry_Int_Tables_number   1
_chemical_formula_structural   Sr2ThCu2Se5
_chemical_formula_sum   'Sr2 Th1 Cu2 Se5'
_cell_volume   252.69484231
_cell_formula_units_Z   1
loop_
 _symmetry_equiv_pos_site_id
 _symmetry_equiv_pos_as_xyz
  1  'x, y, z'
loop_
 _atom_site_type_symbol
 _atom_site_label
 _atom_site_symmetry_multiplicity
 _atom_site_fract_x
 _atom_site_fract_y
 _atom_site_fract_z
 _atom_site_occupancy
  Sr  Sr0  1  0.480873  0.650600  0.311147  1
  Sr  Sr1  1  0.519127  0.349400  0.688853  1
  Th  Th2  1  0.000000  0.000000  0.000000  1
  Cu  Cu3  1  0.733903  0.178028  0.289780  1
  Cu  Cu4  1  0.266097  0.821972  0.710220  1
  Se  Se5  1  0.692742  0.315382  0.070103  1
  Se  Se6  1  0.155155  0.994794  0.315516  1
  Se  Se7  1  0.000001  0.500001  0.500000  1
  Se  Se8  1  0.844845  0.005206  0.684485  1
  Se  Se9  1  0.307259  0.684620  0.929897  1
