# generated using pymatgen
data_Tb5Ho11(LuPb4)4
_symmetry_space_group_name_H-M   'P 1'
_cell_length_a   8.14831604
_cell_length_b   8.23333202
_cell_length_c   15.57565700
_cell_angle_alpha   90.00338208
_cell_angle_beta   89.99447315
_cell_angle_gamma   89.99776649
_symmetry_Int_Tables_number   1
_chemical_formula_structural   Tb5Ho11(LuPb4)4
_chemical_formula_sum   'Tb5 Ho11 Lu4 Pb16'
_cell_volume   1044.93641946
_cell_formula_units_Z   1
loop_
 _symmetry_equiv_pos_site_id
 _symmetry_equiv_pos_as_xyz
  1  'x, y, z'
loop_
 _atom_site_type_symbol
 _atom_site_label
 _atom_site_symmetry_multiplicity
 _atom_site_fract_x
 _atom_site_fract_y
 _atom_site_fract_z
 _atom_site_occupancy
  Tb  Tb0  1  0.963917  0.823535  0.099767  1
  Tb  Tb1  1  0.464010  0.676381  0.099633  1
  Tb  Tb2  1  0.963932  0.823574  0.400281  1
  Tb  Tb3  1  0.536026  0.323590  0.599611  1
  Tb  Tb4  1  0.036016  0.176455  0.900361  1
  Ho  Ho5  1  0.376552  0.841695  0.879022  1
  Ho  Ho6  1  0.876624  0.658352  0.621046  1
  Ho  Ho7  1  0.623382  0.158312  0.378940  1
  Ho  Ho8  1  0.123350  0.341622  0.121104  1
  Ho  Ho9  1  0.623448  0.158339  0.121004  1
  Ho  Ho10  1  0.123410  0.341597  0.379012  1
  Ho  Ho11  1  0.376546  0.841715  0.620914  1
  Ho  Ho12  1  0.876457  0.658277  0.878939  1
  Ho  Ho13  1  0.536183  0.323677  0.900204  1
  Ho  Ho14  1  0.036212  0.176381  0.599807  1
  Ho  Ho15  1  0.463776  0.676322  0.400235  1
  Lu  Lu16  1  0.208514  0.504574  0.750050  1
  Lu  Lu17  1  0.708451  0.995386  0.750048  1
  Lu  Lu18  1  0.791515  0.495417  0.249977  1
  Lu  Lu19  1  0.291631  0.004670  0.250006  1
  Pb  Pb20  1  0.282110  0.033435  0.043985  1
  Pb  Pb21  1  0.781441  0.467182  0.455978  1
  Pb  Pb22  1  0.718598  0.967027  0.543971  1
  Pb  Pb23  1  0.218275  0.532951  0.956082  1
  Pb  Pb24  1  0.717378  0.966858  0.956277  1
  Pb  Pb25  1  0.217663  0.533471  0.543369  1
  Pb  Pb26  1  0.282202  0.033547  0.456459  1
  Pb  Pb27  1  0.782101  0.466010  0.043471  1
  Pb  Pb28  1  0.570881  0.625823  0.749912  1
  Pb  Pb29  1  0.071282  0.874106  0.750123  1
  Pb  Pb30  1  0.429050  0.374099  0.249878  1
  Pb  Pb31  1  0.928728  0.126135  0.250115  1
  Pb  Pb32  1  0.348093  0.155346  0.750265  1
  Pb  Pb33  1  0.847998  0.344682  0.749658  1
  Pb  Pb34  1  0.651715  0.844717  0.250318  1
  Pb  Pb35  1  0.152534  0.654740  0.250177  1
