# generated using pymatgen
data_Ho4Ga18Ni2Ir3Ru
_symmetry_space_group_name_H-M   'P 1'
_cell_length_a   7.54572028
_cell_length_b   7.54572124
_cell_length_c   9.45669423
_cell_angle_alpha   89.95335719
_cell_angle_beta   89.95335678
_cell_angle_gamma   120.22591592
_symmetry_Int_Tables_number   1
_chemical_formula_structural   Ho4Ga18Ni2Ir3Ru
_chemical_formula_sum   'Ho4 Ga18 Ni2 Ir3 Ru1'
_cell_volume   465.24068617
_cell_formula_units_Z   1
loop_
 _symmetry_equiv_pos_site_id
 _symmetry_equiv_pos_as_xyz
  1  'x, y, z'
loop_
 _atom_site_type_symbol
 _atom_site_label
 _atom_site_symmetry_multiplicity
 _atom_site_fract_x
 _atom_site_fract_y
 _atom_site_fract_z
 _atom_site_occupancy
  Ho  Ho0  1  0.996065  0.660849  0.250256  1
  Ho  Ho1  1  0.003963  0.339104  0.749917  1
  Ho  Ho2  1  0.660896  0.996037  0.250083  1
  Ho  Ho3  1  0.339151  0.003935  0.749744  1
  Ga  Ga4  1  0.112565  0.113206  0.250223  1
  Ga  Ga5  1  0.886794  0.887435  0.749777  1
  Ga  Ga6  1  0.999681  0.327061  0.078415  1
  Ga  Ga7  1  0.000058  0.673419  0.921234  1
  Ga  Ga8  1  0.998301  0.670815  0.577417  1
  Ga  Ga9  1  0.329185  0.001699  0.422583  1
  Ga  Ga10  1  0.997642  0.327080  0.422600  1
  Ga  Ga11  1  0.672920  0.002358  0.577400  1
  Ga  Ga12  1  0.672939  0.000319  0.921585  1
  Ga  Ga13  1  0.326581  0.999942  0.078766  1
  Ga  Ga14  1  0.330960  0.328671  0.563592  1
  Ga  Ga15  1  0.671329  0.669040  0.436408  1
  Ga  Ga16  1  0.671429  0.671703  0.065390  1
  Ga  Ga17  1  0.328297  0.328571  0.934610  1
  Ga  Ga18  1  0.336516  0.541803  0.250209  1
  Ga  Ga19  1  0.663145  0.455895  0.748206  1
  Ga  Ga20  1  0.544105  0.336855  0.251794  1
  Ga  Ga21  1  0.458197  0.663484  0.749791  1
  Ni  Ni22  1  0.999840  0.000160  0.000000  1
  Ni  Ni23  1  0.999954  0.000046  0.500000  1
  Ir  Ir24  1  0.671980  0.328020  0.000000  1
  Ir  Ir25  1  0.327529  0.672471  0.000000  1
  Ir  Ir26  1  0.327502  0.672498  0.500000  1
  Ru  Ru27  1  0.672474  0.327526  0.500000  1
