# generated using pymatgen
data_Hf5AlGeSb2
_symmetry_space_group_name_H-M   'P 1'
_cell_length_a   8.52645106
_cell_length_b   8.55843006
_cell_length_c   5.79203200
_cell_angle_alpha   90.00000000
_cell_angle_beta   90.00000000
_cell_angle_gamma   120.12415214
_symmetry_Int_Tables_number   1
_chemical_formula_structural   Hf5AlGeSb2
_chemical_formula_sum   'Hf10 Al2 Ge2 Sb4'
_cell_volume   365.57737775
_cell_formula_units_Z   2
loop_
 _symmetry_equiv_pos_site_id
 _symmetry_equiv_pos_as_xyz
  1  'x, y, z'
loop_
 _atom_site_type_symbol
 _atom_site_label
 _atom_site_symmetry_multiplicity
 _atom_site_fract_x
 _atom_site_fract_y
 _atom_site_fract_z
 _atom_site_occupancy
  Hf  Hf0  1  0.662818  0.329928  0.994493  1
  Hf  Hf1  1  0.337182  0.667111  0.994493  1
  Hf  Hf2  1  0.337182  0.667111  0.505507  1
  Hf  Hf3  1  0.662818  0.329928  0.505507  1
  Hf  Hf4  1  0.720615  0.731170  0.750000  1
  Hf  Hf5  1  0.279385  0.010554  0.750000  1
  Hf  Hf6  1  0.000000  0.269767  0.750000  1
  Hf  Hf7  1  0.262464  0.260273  0.250000  1
  Hf  Hf8  1  0.737536  0.997808  0.250000  1
  Hf  Hf9  1  0.000000  0.738085  0.250000  1
  Al  Al10  1  0.390290  0.391597  0.750000  1
  Al  Al11  1  0.609710  0.001307  0.750000  1
  Ge  Ge12  1  0.000000  0.999998  0.990587  1
  Ge  Ge13  1  0.000000  0.999998  0.509413  1
  Sb  Sb14  1  0.000000  0.613149  0.750000  1
  Sb  Sb15  1  0.600773  0.599409  0.250000  1
  Sb  Sb16  1  0.399227  0.998636  0.250000  1
  Sb  Sb17  1  0.000000  0.394170  0.250000  1
