# generated using pymatgen
data_Zr6Ti3Al13Ir2Pt5
_symmetry_space_group_name_H-M   'P 1'
_cell_length_a   8.83475853
_cell_length_b   8.83306677
_cell_length_c   8.83306588
_cell_angle_alpha   59.75811805
_cell_angle_beta   59.82278924
_cell_angle_gamma   59.82278988
_symmetry_Int_Tables_number   1
_chemical_formula_structural   Zr6Ti3Al13Ir2Pt5
_chemical_formula_sum   'Zr6 Ti3 Al13 Ir2 Pt5'
_cell_volume   485.21951222
_cell_formula_units_Z   1
loop_
 _symmetry_equiv_pos_site_id
 _symmetry_equiv_pos_as_xyz
  1  'x, y, z'
loop_
 _atom_site_type_symbol
 _atom_site_label
 _atom_site_symmetry_multiplicity
 _atom_site_fract_x
 _atom_site_fract_y
 _atom_site_fract_z
 _atom_site_occupancy
  Zr  Zr0  1  0.689465  0.687396  0.310795  1
  Zr  Zr1  1  0.310983  0.686621  0.312292  1
  Zr  Zr2  1  0.688533  0.311049  0.311049  1
  Zr  Zr3  1  0.310983  0.312292  0.686621  1
  Zr  Zr4  1  0.689465  0.310795  0.687396  1
  Zr  Zr5  1  0.308684  0.689890  0.689890  1
  Ti  Ti6  1  0.882342  0.874998  0.358254  1
  Ti  Ti7  1  0.882342  0.358254  0.874998  1
  Ti  Ti8  1  0.357105  0.879988  0.879988  1
  Al  Al9  1  0.883095  0.881988  0.881988  1
  Al  Al10  1  0.117568  0.123510  0.641741  1
  Al  Al11  1  0.117568  0.641741  0.123510  1
  Al  Al12  1  0.643308  0.119511  0.119511  1
  Al  Al13  1  0.118877  0.120720  0.120720  1
  Al  Al14  1  0.664994  0.664581  0.006112  1
  Al  Al15  1  0.664994  0.006112  0.664581  1
  Al  Al16  1  0.006914  0.664208  0.664208  1
  Al  Al17  1  0.663534  0.662826  0.662826  1
  Al  Al18  1  0.335968  0.335805  0.993406  1
  Al  Al19  1  0.335968  0.993406  0.335805  1
  Al  Al20  1  0.993717  0.337032  0.337032  1
  Al  Al21  1  0.333012  0.336368  0.336368  1
  Ir  Ir22  1  0.002562  0.001774  0.001774  1
  Ir  Ir23  1  0.997741  0.502085  0.502085  1
  Pt  Pt24  1  0.999152  0.999159  0.499361  1
  Pt  Pt25  1  0.501030  0.999025  0.500513  1
  Pt  Pt26  1  0.501030  0.500513  0.999025  1
  Pt  Pt27  1  0.999152  0.499361  0.999159  1
  Pt  Pt28  1  0.499915  0.998990  0.998990  1
