# generated using pymatgen
data_TbEr11TlCo4Rh
_symmetry_space_group_name_H-M   'P 1'
_cell_length_a   8.26646108
_cell_length_b   8.27030648
_cell_length_c   8.26646260
_cell_angle_alpha   110.85882176
_cell_angle_beta   110.72057057
_cell_angle_gamma   106.84733354
_symmetry_Int_Tables_number   1
_chemical_formula_structural   TbEr11TlCo4Rh
_chemical_formula_sum   'Tb1 Er11 Tl1 Co4 Rh1'
_cell_volume   434.46994200
_cell_formula_units_Z   1
loop_
 _symmetry_equiv_pos_site_id
 _symmetry_equiv_pos_as_xyz
  1  'x, y, z'
loop_
 _atom_site_type_symbol
 _atom_site_label
 _atom_site_symmetry_multiplicity
 _atom_site_fract_x
 _atom_site_fract_y
 _atom_site_fract_z
 _atom_site_occupancy
  Tb  Tb0  1  0.313051  0.617316  0.304265  1
  Er  Er1  1  0.686413  0.381042  0.694630  1
  Er  Er2  1  0.314078  0.008965  0.694886  1
  Er  Er3  1  0.686534  0.992164  0.305630  1
  Er  Er4  1  0.407961  0.211758  0.195169  1
  Er  Er5  1  0.592914  0.788041  0.805643  1
  Er  Er6  1  0.016589  0.211758  0.803797  1
  Er  Er7  1  0.982398  0.788041  0.195128  1
  Er  Er8  1  0.185939  0.290241  0.477389  1
  Er  Er9  1  0.814990  0.709248  0.523178  1
  Er  Er10  1  0.186070  0.709248  0.894258  1
  Er  Er11  1  0.812853  0.290241  0.104302  1
  Tl  Tl12  1  0.500460  0.499826  0.999366  1
  Co  Co13  1  0.111053  0.611487  0.500433  1
  Co  Co14  1  0.887319  0.386910  0.499591  1
  Co  Co15  1  0.379979  0.001759  0.380406  1
  Co  Co16  1  0.621354  0.001759  0.621780  1
  Rh  Rh17  1  0.000047  0.000195  0.000148  1
