# generated using pymatgen
data_Eu2Sb2IrPt
_symmetry_space_group_name_H-M   'P 1'
_cell_length_a   4.67553800
_cell_length_b   7.51733300
_cell_length_c   7.94599000
_cell_angle_alpha   90.00000000
_cell_angle_beta   90.00000000
_cell_angle_gamma   90.00000000
_symmetry_Int_Tables_number   1
_chemical_formula_structural   Eu2Sb2IrPt
_chemical_formula_sum   'Eu4 Sb4 Ir2 Pt2'
_cell_volume   279.28228822
_cell_formula_units_Z   2
loop_
 _symmetry_equiv_pos_site_id
 _symmetry_equiv_pos_as_xyz
  1  'x, y, z'
loop_
 _atom_site_type_symbol
 _atom_site_label
 _atom_site_symmetry_multiplicity
 _atom_site_fract_x
 _atom_site_fract_y
 _atom_site_fract_z
 _atom_site_occupancy
  Eu  Eu0  1  0.750000  0.487447  0.806947  1
  Eu  Eu1  1  0.250000  0.012231  0.303832  1
  Eu  Eu2  1  0.750000  0.987447  0.693053  1
  Eu  Eu3  1  0.250000  0.512231  0.196168  1
  Sb  Sb4  1  0.250000  0.677984  0.593527  1
  Sb  Sb5  1  0.250000  0.177984  0.906473  1
  Sb  Sb6  1  0.750000  0.317950  0.418554  1
  Sb  Sb7  1  0.750000  0.817950  0.081446  1
  Ir  Ir8  1  0.250000  0.805561  0.911989  1
  Ir  Ir9  1  0.250000  0.305561  0.588011  1
  Pt  Pt10  1  0.750000  0.698827  0.411309  1
  Pt  Pt11  1  0.750000  0.198827  0.088691  1
