# generated using pymatgen
data_Th4OsPd3
_symmetry_space_group_name_H-M   'P 1'
_cell_length_a   7.28647718
_cell_length_b   4.53332600
_cell_length_c   5.87607540
_cell_angle_alpha   90.00000000
_cell_angle_beta   90.41494233
_cell_angle_gamma   90.00000000
_symmetry_Int_Tables_number   1
_chemical_formula_structural   Th4OsPd3
_chemical_formula_sum   'Th4 Os1 Pd3'
_cell_volume   194.09329430
_cell_formula_units_Z   1
loop_
 _symmetry_equiv_pos_site_id
 _symmetry_equiv_pos_as_xyz
  1  'x, y, z'
loop_
 _atom_site_type_symbol
 _atom_site_label
 _atom_site_symmetry_multiplicity
 _atom_site_fract_x
 _atom_site_fract_y
 _atom_site_fract_z
 _atom_site_occupancy
  Th  Th0  1  0.177306  0.250001  0.139271  1
  Th  Th1  1  0.828763  0.750000  0.845916  1
  Th  Th2  1  0.685028  0.250001  0.366082  1
  Th  Th3  1  0.307652  0.750000  0.641176  1
  Os  Os4  1  0.048514  0.250001  0.668133  1
  Pd  Pd5  1  0.948680  0.750000  0.337036  1
  Pd  Pd6  1  0.546412  0.250001  0.852354  1
  Pd  Pd7  1  0.457645  0.750000  0.150035  1
