# generated using pymatgen
data_Li3Cr2Co7Ni2P7
_symmetry_space_group_name_H-M   'P 1'
_cell_length_a   8.94716140
_cell_length_b   8.93294002
_cell_length_c   3.53394700
_cell_angle_alpha   90.00000000
_cell_angle_beta   90.00000000
_cell_angle_gamma   119.45888362
_symmetry_Int_Tables_number   1
_chemical_formula_structural   Li3Cr2Co7Ni2P7
_chemical_formula_sum   'Li3 Cr2 Co7 Ni2 P7'
_cell_volume   245.93066096
_cell_formula_units_Z   1
loop_
 _symmetry_equiv_pos_site_id
 _symmetry_equiv_pos_as_xyz
  1  'x, y, z'
loop_
 _atom_site_type_symbol
 _atom_site_label
 _atom_site_symmetry_multiplicity
 _atom_site_fract_x
 _atom_site_fract_y
 _atom_site_fract_z
 _atom_site_occupancy
  Li  Li0  1  0.225038  0.100325  0.500000  1
  Li  Li1  1  0.330508  0.664929  0.000000  1
  Li  Li2  1  0.667272  0.336930  0.500000  1
  Cr  Cr3  1  0.877036  0.785137  0.500000  1
  Cr  Cr4  1  0.904253  0.122929  0.500000  1
  Co  Co5  1  0.720126  0.881440  0.000000  1
  Co  Co6  1  0.164081  0.282493  0.000000  1
  Co  Co7  1  0.118310  0.837344  0.000000  1
  Co  Co8  1  0.629642  0.573890  0.000000  1
  Co  Co9  1  0.559004  0.945207  0.500000  1
  Co  Co10  1  0.391263  0.436577  0.500000  1
  Co  Co11  1  0.045108  0.605816  0.500000  1
  Ni  Ni12  1  0.934349  0.368619  0.000000  1
  Ni  Ni13  1  0.433411  0.061611  0.000000  1
  P  P14  1  0.584779  0.709633  0.500000  1
  P  P15  1  0.128068  0.411799  0.500000  1
  P  P16  1  0.284064  0.866933  0.500000  1
  P  P17  1  0.999400  0.000686  0.000000  1
  P  P18  1  0.879841  0.586504  0.000000  1
  P  P19  1  0.699211  0.115296  0.000000  1
  P  P20  1  0.425235  0.305905  0.000000  1
