# generated using pymatgen
data_Zr6ZnC2Se
_symmetry_space_group_name_H-M   'P 1'
_cell_length_a   5.93093600
_cell_length_b   5.93093647
_cell_length_c   8.80139700
_cell_angle_alpha   90.00000000
_cell_angle_beta   90.00000000
_cell_angle_gamma   145.63004226
_symmetry_Int_Tables_number   1
_chemical_formula_structural   Zr6ZnC2Se
_chemical_formula_sum   'Zr6 Zn1 C2 Se1'
_cell_volume   174.77867623
_cell_formula_units_Z   1
loop_
 _symmetry_equiv_pos_site_id
 _symmetry_equiv_pos_as_xyz
  1  'x, y, z'
loop_
 _atom_site_type_symbol
 _atom_site_label
 _atom_site_symmetry_multiplicity
 _atom_site_fract_x
 _atom_site_fract_y
 _atom_site_fract_z
 _atom_site_occupancy
  Zr  Zr0  1  0.871690  0.128307  0.055163  1
  Zr  Zr1  1  0.562321  0.437677  0.250000  1
  Zr  Zr2  1  0.871690  0.128307  0.444836  1
  Zr  Zr3  1  0.127379  0.872618  0.549882  1
  Zr  Zr4  1  0.445524  0.554474  0.750000  1
  Zr  Zr5  1  0.127379  0.872618  0.950119  1
  Zn  Zn6  1  0.749382  0.250615  0.750000  1
  C  C7  1  0.498740  0.501258  0.002931  1
  C  C8  1  0.498740  0.501258  0.497070  1
  Se  Se9  1  0.247139  0.752858  0.250000  1
