# generated using pymatgen
data_La16Cd4NiIr3
_symmetry_space_group_name_H-M   'P 1'
_cell_length_a   10.09834138
_cell_length_b   10.15674518
_cell_length_c   10.15674600
_cell_angle_alpha   60.00000385
_cell_angle_beta   59.80850197
_cell_angle_gamma   59.80849916
_symmetry_Int_Tables_number   1
_chemical_formula_structural   La16Cd4NiIr3
_chemical_formula_sum   'La16 Cd4 Ni1 Ir3'
_cell_volume   734.48183158
_cell_formula_units_Z   1
loop_
 _symmetry_equiv_pos_site_id
 _symmetry_equiv_pos_as_xyz
  1  'x, y, z'
loop_
 _atom_site_type_symbol
 _atom_site_label
 _atom_site_symmetry_multiplicity
 _atom_site_fract_x
 _atom_site_fract_y
 _atom_site_fract_z
 _atom_site_occupancy
  La  La0  1  0.600894  0.595807  0.595807  1
  La  La1  1  0.600894  0.595807  0.207493  1
  La  La2  1  0.600894  0.207493  0.595807  1
  La  La3  1  0.209305  0.596899  0.596899  1
  La  La4  1  0.056908  0.441748  0.441748  1
  La  La5  1  0.437784  0.060130  0.060130  1
  La  La6  1  0.437784  0.060130  0.441957  1
  La  La7  1  0.056908  0.441748  0.059596  1
  La  La8  1  0.437784  0.441957  0.060130  1
  La  La9  1  0.056908  0.059596  0.441748  1
  La  La10  1  0.190787  0.809350  0.809350  1
  La  La11  1  0.807651  0.188274  0.188274  1
  La  La12  1  0.807651  0.188274  0.815801  1
  La  La13  1  0.190787  0.809350  0.190512  1
  La  La14  1  0.807651  0.815801  0.188274  1
  La  La15  1  0.190787  0.190512  0.809350  1
  Cd  Cd16  1  0.829254  0.829719  0.829719  1
  Cd  Cd17  1  0.829254  0.829719  0.511309  1
  Cd  Cd18  1  0.829254  0.511309  0.829719  1
  Cd  Cd19  1  0.512634  0.829122  0.829122  1
  Ni  Ni20  1  0.825641  0.391453  0.391453  1
  Ir  Ir21  1  0.394196  0.389999  0.389999  1
  Ir  Ir22  1  0.394196  0.389999  0.825807  1
  Ir  Ir23  1  0.394196  0.825807  0.389999  1
