# generated using pymatgen
data_LiMoCl5
_symmetry_space_group_name_H-M   'P 1'
_cell_length_a   6.31656355
_cell_length_b   9.06802869
_cell_length_c   13.04225800
_cell_angle_alpha   86.40909897
_cell_angle_beta   79.64024001
_cell_angle_gamma   69.61739108
_symmetry_Int_Tables_number   1
_chemical_formula_structural   LiMoCl5
_chemical_formula_sum   'Li4 Mo4 Cl20'
_cell_volume   688.85467306
_cell_formula_units_Z   4
loop_
 _symmetry_equiv_pos_site_id
 _symmetry_equiv_pos_as_xyz
  1  'x, y, z'
loop_
 _atom_site_type_symbol
 _atom_site_label
 _atom_site_symmetry_multiplicity
 _atom_site_fract_x
 _atom_site_fract_y
 _atom_site_fract_z
 _atom_site_occupancy
  Li  Li0  1  0.940924  0.618154  0.250000  1
  Li  Li1  1  0.059076  0.381846  0.750000  1
  Li  Li2  1  0.350495  0.799011  0.250000  1
  Li  Li3  1  0.649505  0.200989  0.750000  1
  Mo  Mo4  1  0.566090  0.367820  0.250000  1
  Mo  Mo5  1  0.433910  0.632180  0.750000  1
  Mo  Mo6  1  0.724557  0.050887  0.250000  1
  Mo  Mo7  1  0.275443  0.949113  0.750000  1
  Cl  Cl8  1  0.226401  0.790657  0.624092  1
  Cl  Cl9  1  0.482942  0.790657  0.875908  1
  Cl  Cl10  1  0.773599  0.209343  0.375908  1
  Cl  Cl11  1  0.517058  0.209343  0.124092  1
  Cl  Cl12  1  0.110116  0.605329  0.855981  1
  Cl  Cl13  1  0.784556  0.605329  0.644019  1
  Cl  Cl14  1  0.889884  0.394671  0.144019  1
  Cl  Cl15  1  0.215444  0.394671  0.355981  1
  Cl  Cl16  1  0.924084  0.975981  0.855270  1
  Cl  Cl17  1  0.599935  0.975981  0.644730  1
  Cl  Cl18  1  0.075916  0.024019  0.144730  1
  Cl  Cl19  1  0.400065  0.024019  0.355270  1
  Cl  Cl20  1  0.419940  0.416835  0.646231  1
  Cl  Cl21  1  0.663225  0.416835  0.853769  1
  Cl  Cl22  1  0.580060  0.583165  0.353769  1
  Cl  Cl23  1  0.336775  0.583165  0.146231  1
  Cl  Cl24  1  0.047491  0.164471  0.645764  1
  Cl  Cl25  1  0.288039  0.164471  0.854236  1
  Cl  Cl26  1  0.952509  0.835529  0.354236  1
  Cl  Cl27  1  0.711961  0.835529  0.145764  1
