# generated using pymatgen
data_AgSnIrS4
_symmetry_space_group_name_H-M   'P 1'
_cell_length_a   7.45818688
_cell_length_b   7.45818668
_cell_length_c   7.45818648
_cell_angle_alpha   120.24256805
_cell_angle_beta   119.46547245
_cell_angle_gamma   90.25433497
_symmetry_Int_Tables_number   1
_chemical_formula_structural   AgSnIrS4
_chemical_formula_sum   'Ag2 Sn2 Ir2 S8'
_cell_volume   293.97643779
_cell_formula_units_Z   2
loop_
 _symmetry_equiv_pos_site_id
 _symmetry_equiv_pos_as_xyz
  1  'x, y, z'
loop_
 _atom_site_type_symbol
 _atom_site_label
 _atom_site_symmetry_multiplicity
 _atom_site_fract_x
 _atom_site_fract_y
 _atom_site_fract_z
 _atom_site_occupancy
  Ag  Ag0  1  0.885390  0.635390  0.250000  1
  Ag  Ag1  1  0.114610  0.364610  0.750000  1
  Sn  Sn2  1  0.500000  0.000000  0.500000  1
  Sn  Sn3  1  0.000000  0.000000  0.000000  1
  Ir  Ir4  1  0.500000  0.000000  0.000000  1
  Ir  Ir5  1  0.500000  0.500000  0.500000  1
  S  S6  1  0.727023  0.735566  0.508543  1
  S  S7  1  0.727023  0.218479  0.991457  1
  S  S8  1  0.711140  0.755754  0.955387  1
  S  S9  1  0.300366  0.755754  0.544613  1
  S  S10  1  0.272977  0.264434  0.491457  1
  S  S11  1  0.272977  0.781521  0.008543  1
  S  S12  1  0.288860  0.244246  0.044613  1
  S  S13  1  0.699634  0.244246  0.455387  1
