# generated using pymatgen
data_Ho4Sc4Pt3Rh
_symmetry_space_group_name_H-M   'P 1'
_cell_length_a   4.56001600
_cell_length_b   6.98419753
_cell_length_c   8.43370898
_cell_angle_alpha   89.85065571
_cell_angle_beta   90.00000000
_cell_angle_gamma   90.00000000
_symmetry_Int_Tables_number   1
_chemical_formula_structural   Ho4Sc4Pt3Rh
_chemical_formula_sum   'Ho4 Sc4 Pt3 Rh1'
_cell_volume   268.59629404
_cell_formula_units_Z   1
loop_
 _symmetry_equiv_pos_site_id
 _symmetry_equiv_pos_as_xyz
  1  'x, y, z'
loop_
 _atom_site_type_symbol
 _atom_site_label
 _atom_site_symmetry_multiplicity
 _atom_site_fract_x
 _atom_site_fract_y
 _atom_site_fract_z
 _atom_site_occupancy
  Ho  Ho0  1  0.250000  0.518046  0.176349  1
  Ho  Ho1  1  0.750000  0.483662  0.825328  1
  Ho  Ho2  1  0.750000  0.982690  0.675240  1
  Ho  Ho3  1  0.250000  0.018312  0.325555  1
  Sc  Sc4  1  0.250000  0.638112  0.574098  1
  Sc  Sc5  1  0.750000  0.358665  0.428545  1
  Sc  Sc6  1  0.750000  0.859533  0.072567  1
  Sc  Sc7  1  0.250000  0.142322  0.927714  1
  Pt  Pt8  1  0.250000  0.755025  0.900550  1
  Pt  Pt9  1  0.750000  0.246120  0.100016  1
  Pt  Pt10  1  0.750000  0.744703  0.400605  1
  Rh  Rh11  1  0.250000  0.252808  0.593433  1
