# generated using pymatgen
data_CrCo2(TcO4)6
_symmetry_space_group_name_H-M   'P 1'
_cell_length_a   9.76993095
_cell_length_b   9.76993111
_cell_length_c   9.76993144
_cell_angle_alpha   56.18839287
_cell_angle_beta   56.18839369
_cell_angle_gamma   56.18839275
_symmetry_Int_Tables_number   1
_chemical_formula_structural   CrCo2(TcO4)6
_chemical_formula_sum   'Cr1 Co2 Tc6 O24'
_cell_volume   601.23711207
_cell_formula_units_Z   1
loop_
 _symmetry_equiv_pos_site_id
 _symmetry_equiv_pos_as_xyz
  1  'x, y, z'
loop_
 _atom_site_type_symbol
 _atom_site_label
 _atom_site_symmetry_multiplicity
 _atom_site_fract_x
 _atom_site_fract_y
 _atom_site_fract_z
 _atom_site_occupancy
  Cr  Cr0  1  0.852409  0.852409  0.852409  1
  Co  Co1  1  0.358535  0.358535  0.358535  1
  Co  Co2  1  0.640423  0.640423  0.640423  1
  Tc  Tc3  1  0.476973  0.739313  0.034519  1
  Tc  Tc4  1  0.739313  0.034519  0.476973  1
  Tc  Tc5  1  0.034519  0.476973  0.739313  1
  Tc  Tc6  1  0.960646  0.541308  0.248061  1
  Tc  Tc7  1  0.248061  0.960646  0.541308  1
  Tc  Tc8  1  0.541308  0.248061  0.960646  1
  O  O9  1  0.499618  0.293312  0.133418  1
  O  O10  1  0.133418  0.499618  0.293312  1
  O  O11  1  0.329481  0.950533  0.000021  1
  O  O12  1  0.293312  0.133418  0.499618  1
  O  O13  1  0.678841  0.728182  0.008404  1
  O  O14  1  0.386525  0.599174  0.244179  1
  O  O15  1  0.599174  0.244179  0.386525  1
  O  O16  1  0.950533  0.000021  0.329481  1
  O  O17  1  0.244179  0.386525  0.599174  1
  O  O18  1  0.974754  0.691881  0.027769  1
  O  O19  1  0.967602  0.345010  0.285175  1
  O  O20  1  0.285175  0.967602  0.345010  1
  O  O21  1  0.728182  0.008404  0.678841  1
  O  O22  1  0.008404  0.678841  0.728182  1
  O  O23  1  0.000021  0.329481  0.950533  1
  O  O24  1  0.758301  0.633594  0.394618  1
  O  O25  1  0.027769  0.974754  0.691881  1
  O  O26  1  0.394618  0.758301  0.633594  1
  O  O27  1  0.633594  0.394618  0.758301  1
  O  O28  1  0.345010  0.285175  0.967602  1
  O  O29  1  0.667941  0.879818  0.522025  1
  O  O30  1  0.691881  0.027769  0.974754  1
  O  O31  1  0.879818  0.522025  0.667941  1
  O  O32  1  0.522025  0.667941  0.879818  1
