# generated using pymatgen
data_Zr10In3Ga2SnPb2
_symmetry_space_group_name_H-M   'P 1'
_cell_length_a   8.80461220
_cell_length_b   8.80461222
_cell_length_c   5.93189600
_cell_angle_alpha   90.00000000
_cell_angle_beta   90.00000000
_cell_angle_gamma   120.02422319
_symmetry_Int_Tables_number   1
_chemical_formula_structural   Zr10In3Ga2SnPb2
_chemical_formula_sum   'Zr10 In3 Ga2 Sn1 Pb2'
_cell_volume   398.14252543
_cell_formula_units_Z   1
loop_
 _symmetry_equiv_pos_site_id
 _symmetry_equiv_pos_as_xyz
  1  'x, y, z'
loop_
 _atom_site_type_symbol
 _atom_site_label
 _atom_site_symmetry_multiplicity
 _atom_site_fract_x
 _atom_site_fract_y
 _atom_site_fract_z
 _atom_site_occupancy
  Zr  Zr0  1  0.666158  0.335618  0.997650  1
  Zr  Zr1  1  0.335618  0.666158  0.997650  1
  Zr  Zr2  1  0.335618  0.666158  0.502350  1
  Zr  Zr3  1  0.666158  0.335618  0.502350  1
  Zr  Zr4  1  0.735634  0.735634  0.750000  1
  Zr  Zr5  1  0.263560  0.000253  0.750000  1
  Zr  Zr6  1  0.000253  0.263560  0.750000  1
  Zr  Zr7  1  0.263064  0.263064  0.250000  1
  Zr  Zr8  1  0.737946  0.995542  0.250000  1
  Zr  Zr9  1  0.995542  0.737946  0.250000  1
  In  In10  1  0.385710  0.385710  0.750000  1
  In  In11  1  0.615020  0.000999  0.750000  1
  In  In12  1  0.000999  0.615020  0.750000  1
  Ga  Ga13  1  0.000427  0.000427  0.995742  1
  Ga  Ga14  1  0.000427  0.000427  0.504258  1
  Sn  Sn15  1  0.610699  0.610699  0.250000  1
  Pb  Pb16  1  0.387963  0.999204  0.250000  1
  Pb  Pb17  1  0.999204  0.387963  0.250000  1
