# generated using pymatgen
data_Dy16Cd2NiHg2Ir3
_symmetry_space_group_name_H-M   'P 1'
_cell_length_a   9.57192132
_cell_length_b   9.57192107
_cell_length_c   9.57246402
_cell_angle_alpha   60.36869979
_cell_angle_beta   60.36870181
_cell_angle_gamma   60.38580909
_symmetry_Int_Tables_number   1
_chemical_formula_structural   Dy16Cd2NiHg2Ir3
_chemical_formula_sum   'Dy16 Cd2 Ni1 Hg2 Ir3'
_cell_volume   625.41636235
_cell_formula_units_Z   1
loop_
 _symmetry_equiv_pos_site_id
 _symmetry_equiv_pos_as_xyz
  1  'x, y, z'
loop_
 _atom_site_type_symbol
 _atom_site_label
 _atom_site_symmetry_multiplicity
 _atom_site_fract_x
 _atom_site_fract_y
 _atom_site_fract_z
 _atom_site_occupancy
  Dy  Dy0  1  0.598993  0.598993  0.598598  1
  Dy  Dy1  1  0.599010  0.599010  0.201486  1
  Dy  Dy2  1  0.599861  0.199444  0.599336  1
  Dy  Dy3  1  0.199444  0.599861  0.599336  1
  Dy  Dy4  1  0.060594  0.440072  0.440792  1
  Dy  Dy5  1  0.438142  0.059826  0.059862  1
  Dy  Dy6  1  0.440072  0.060594  0.440792  1
  Dy  Dy7  1  0.059826  0.438142  0.059862  1
  Dy  Dy8  1  0.439816  0.439816  0.061145  1
  Dy  Dy9  1  0.059166  0.059166  0.439152  1
  Dy  Dy10  1  0.188453  0.811388  0.811911  1
  Dy  Dy11  1  0.813681  0.186405  0.188358  1
  Dy  Dy12  1  0.811388  0.188453  0.811911  1
  Dy  Dy13  1  0.186405  0.813681  0.188358  1
  Dy  Dy14  1  0.811166  0.811166  0.189786  1
  Dy  Dy15  1  0.187138  0.187138  0.814244  1
  Cd  Cd16  1  0.830948  0.506832  0.831528  1
  Cd  Cd17  1  0.506832  0.830948  0.831528  1
  Ni  Ni18  1  0.392031  0.392031  0.392299  1
  Hg  Hg19  1  0.833450  0.833450  0.835334  1
  Hg  Hg20  1  0.834883  0.834883  0.494933  1
  Ir  Ir21  1  0.392418  0.392418  0.823858  1
  Ir  Ir22  1  0.392151  0.824130  0.392794  1
  Ir  Ir23  1  0.824130  0.392151  0.392794  1
