# generated using pymatgen
data_Tb4Dy4Tc3B24Os
_symmetry_space_group_name_H-M   'P 1'
_cell_length_a   3.68951300
_cell_length_b   9.17504898
_cell_length_c   11.56773401
_cell_angle_alpha   89.95661584
_cell_angle_beta   90.00000000
_cell_angle_gamma   90.00000000
_symmetry_Int_Tables_number   1
_chemical_formula_structural   Tb4Dy4Tc3B24Os
_chemical_formula_sum   'Tb4 Dy4 Tc3 B24 Os1'
_cell_volume   391.58460200
_cell_formula_units_Z   1
loop_
 _symmetry_equiv_pos_site_id
 _symmetry_equiv_pos_as_xyz
  1  'x, y, z'
loop_
 _atom_site_type_symbol
 _atom_site_label
 _atom_site_symmetry_multiplicity
 _atom_site_fract_x
 _atom_site_fract_y
 _atom_site_fract_z
 _atom_site_occupancy
  Tb  Tb0  1  0.000000  0.323763  0.413878  1
  Tb  Tb1  1  0.000000  0.675440  0.584405  1
  Tb  Tb2  1  0.000000  0.823056  0.087199  1
  Tb  Tb3  1  0.000000  0.177791  0.914553  1
  Dy  Dy4  1  0.000000  0.942360  0.369889  1
  Dy  Dy5  1  0.000000  0.058433  0.630183  1
  Dy  Dy6  1  0.000000  0.442685  0.130419  1
  Dy  Dy7  1  0.000000  0.557166  0.869256  1
  Tc  Tc8  1  0.000000  0.638334  0.320520  1
  Tc  Tc9  1  0.000000  0.361731  0.679990  1
  Tc  Tc10  1  0.000000  0.137808  0.178392  1
  B  B11  1  0.500000  0.553249  0.432598  1
  B  B12  1  0.500000  0.446747  0.567147  1
  B  B13  1  0.500000  0.053204  0.067251  1
  B  B14  1  0.500000  0.946180  0.932590  1
  B  B15  1  0.500000  0.748213  0.418288  1
  B  B16  1  0.500000  0.251465  0.581719  1
  B  B17  1  0.500000  0.248750  0.081733  1
  B  B18  1  0.500000  0.751640  0.917976  1
  B  B19  1  0.500000  0.791187  0.265732  1
  B  B20  1  0.500000  0.209040  0.734763  1
  B  B21  1  0.500000  0.291103  0.234476  1
  B  B22  1  0.500000  0.709600  0.765537  1
  B  B23  1  0.500000  0.630879  0.185921  1
  B  B24  1  0.500000  0.369026  0.814577  1
  B  B25  1  0.500000  0.130425  0.313794  1
  B  B26  1  0.500000  0.869135  0.686068  1
  B  B27  1  0.500000  0.982270  0.211814  1
  B  B28  1  0.500000  0.016574  0.788215  1
  B  B29  1  0.500000  0.482615  0.288022  1
  B  B30  1  0.500000  0.517180  0.711759  1
  B  B31  1  0.500000  0.601673  0.028129  1
  B  B32  1  0.500000  0.399278  0.971740  1
  B  B33  1  0.500000  0.101537  0.471798  1
  B  B34  1  0.500000  0.898544  0.528621  1
  Os  Os35  1  0.000000  0.861917  0.821049  1
