# generated using pymatgen
data_Be7SiW4
_symmetry_space_group_name_H-M   'P 1'
_cell_length_a   4.48742900
_cell_length_b   4.48742881
_cell_length_c   7.43413600
_cell_angle_alpha   90.00000000
_cell_angle_beta   90.00000000
_cell_angle_gamma   120.00000880
_symmetry_Int_Tables_number   1
_chemical_formula_structural   Be7SiW4
_chemical_formula_sum   'Be7 Si1 W4'
_cell_volume   129.64514471
_cell_formula_units_Z   1
loop_
 _symmetry_equiv_pos_site_id
 _symmetry_equiv_pos_as_xyz
  1  'x, y, z'
loop_
 _atom_site_type_symbol
 _atom_site_label
 _atom_site_symmetry_multiplicity
 _atom_site_fract_x
 _atom_site_fract_y
 _atom_site_fract_z
 _atom_site_occupancy
  Be  Be0  1  0.000000  0.000000  0.000000  1
  Be  Be1  1  0.828434  0.171566  0.243262  1
  Be  Be2  1  0.828434  0.656868  0.243262  1
  Be  Be3  1  0.343132  0.171566  0.243262  1
  Be  Be4  1  0.171566  0.828434  0.756738  1
  Be  Be5  1  0.171566  0.343132  0.756738  1
  Be  Be6  1  0.656868  0.828434  0.756738  1
  Si  Si7  1  0.000000  0.000000  0.500000  1
  W  W8  1  0.333333  0.666667  0.436263  1
  W  W9  1  0.666667  0.333333  0.563737  1
  W  W10  1  0.666667  0.333333  0.938594  1
  W  W11  1  0.333333  0.666667  0.061406  1
