# generated using pymatgen
data_Ho4Pb3
_symmetry_space_group_name_H-M   'P 1'
_cell_length_a   8.10821261
_cell_length_b   8.10821283
_cell_length_c   8.10821300
_cell_angle_alpha   109.47122356
_cell_angle_beta   109.47122410
_cell_angle_gamma   109.47121663
_symmetry_Int_Tables_number   1
_chemical_formula_structural   Ho4Pb3
_chemical_formula_sum   'Ho8 Pb6'
_cell_volume   410.34912671
_cell_formula_units_Z   2
loop_
 _symmetry_equiv_pos_site_id
 _symmetry_equiv_pos_as_xyz
  1  'x, y, z'
loop_
 _atom_site_type_symbol
 _atom_site_label
 _atom_site_symmetry_multiplicity
 _atom_site_fract_x
 _atom_site_fract_y
 _atom_site_fract_z
 _atom_site_occupancy
  Ho  Ho0  1  0.142174  0.000000  0.000000  1
  Ho  Ho1  1  0.642175  0.000000  0.000000  1
  Ho  Ho2  1  0.500000  0.500000  0.142174  1
  Ho  Ho3  1  0.357826  0.857826  0.357826  1
  Ho  Ho4  1  0.000000  0.142174  0.500000  1
  Ho  Ho5  1  0.000000  0.642175  0.500000  1
  Ho  Ho6  1  0.500000  0.500000  0.642175  1
  Ho  Ho7  1  0.857826  0.357826  0.857826  1
  Pb  Pb8  1  0.875000  0.750000  0.125000  1
  Pb  Pb9  1  0.125000  0.375000  0.250000  1
  Pb  Pb10  1  0.625000  0.250000  0.375000  1
  Pb  Pb11  1  0.750000  0.875000  0.625000  1
  Pb  Pb12  1  0.375001  0.125001  0.750000  1
  Pb  Pb13  1  0.250000  0.625000  0.875000  1
