# generated using pymatgen
data_AcPrZn5Sn
_symmetry_space_group_name_H-M   'P 1'
_cell_length_a   8.71953928
_cell_length_b   8.71954012
_cell_length_c   9.23999600
_cell_angle_alpha   90.00000000
_cell_angle_beta   90.00000000
_cell_angle_gamma   149.30702255
_symmetry_Int_Tables_number   1
_chemical_formula_structural   AcPrZn5Sn
_chemical_formula_sum   'Ac2 Pr2 Zn10 Sn2'
_cell_volume   358.59274258
_cell_formula_units_Z   2
loop_
 _symmetry_equiv_pos_site_id
 _symmetry_equiv_pos_as_xyz
  1  'x, y, z'
loop_
 _atom_site_type_symbol
 _atom_site_label
 _atom_site_symmetry_multiplicity
 _atom_site_fract_x
 _atom_site_fract_y
 _atom_site_fract_z
 _atom_site_occupancy
  Ac  Ac0  1  0.000000  0.000000  0.500000  1
  Ac  Ac1  1  0.000000  0.000000  0.000000  1
  Pr  Pr2  1  0.207758  0.792242  0.250000  1
  Pr  Pr3  1  0.792242  0.207758  0.750000  1
  Zn  Zn4  1  0.811951  0.188049  0.389986  1
  Zn  Zn5  1  0.188049  0.811951  0.610014  1
  Zn  Zn6  1  0.811951  0.188049  0.110014  1
  Zn  Zn7  1  0.188049  0.811951  0.889986  1
  Zn  Zn8  1  0.659546  0.340454  0.485818  1
  Zn  Zn9  1  0.340454  0.659546  0.514182  1
  Zn  Zn10  1  0.659546  0.340454  0.014182  1
  Zn  Zn11  1  0.340454  0.659546  0.985818  1
  Zn  Zn12  1  0.396422  0.603578  0.250000  1
  Zn  Zn13  1  0.603578  0.396422  0.750000  1
  Sn  Sn14  1  0.561050  0.438950  0.250000  1
  Sn  Sn15  1  0.438950  0.561050  0.750000  1
