# generated using pymatgen
data_MnNb3Os2N
_symmetry_space_group_name_H-M   'P 1'
_cell_length_a   8.28463898
_cell_length_b   8.28723083
_cell_length_c   8.28387111
_cell_angle_alpha   59.99573895
_cell_angle_beta   59.98552755
_cell_angle_gamma   59.99888840
_symmetry_Int_Tables_number   1
_chemical_formula_structural   MnNb3Os2N
_chemical_formula_sum   'Mn4 Nb12 Os8 N4'
_cell_volume   402.10197191
_cell_formula_units_Z   4
loop_
 _symmetry_equiv_pos_site_id
 _symmetry_equiv_pos_as_xyz
  1  'x, y, z'
loop_
 _atom_site_type_symbol
 _atom_site_label
 _atom_site_symmetry_multiplicity
 _atom_site_fract_x
 _atom_site_fract_y
 _atom_site_fract_z
 _atom_site_occupancy
  Mn  Mn0  1  0.125000  0.625000  0.625000  1
  Mn  Mn1  1  0.625000  0.125000  0.625000  1
  Mn  Mn2  1  0.625000  0.625000  0.125000  1
  Mn  Mn3  1  0.625000  0.625000  0.625000  1
  Nb  Nb4  1  0.805829  0.805822  0.194150  1
  Nb  Nb5  1  0.194114  0.194196  0.805849  1
  Nb  Nb6  1  0.805857  0.194157  0.805863  1
  Nb  Nb7  1  0.194191  0.805811  0.194188  1
  Nb  Nb8  1  0.194146  0.805827  0.805836  1
  Nb  Nb9  1  0.805840  0.194205  0.194121  1
  Nb  Nb10  1  0.444171  0.444178  0.055850  1
  Nb  Nb11  1  0.055886  0.055804  0.444151  1
  Nb  Nb12  1  0.444143  0.055843  0.444137  1
  Nb  Nb13  1  0.055809  0.444189  0.055812  1
  Nb  Nb14  1  0.055854  0.444173  0.444164  1
  Nb  Nb15  1  0.444160  0.055795  0.055879  1
  Os  Os16  1  0.746495  0.417871  0.417772  1
  Os  Os17  1  0.417857  0.746448  0.417803  1
  Os  Os18  1  0.417825  0.417870  0.746440  1
  Os  Os19  1  0.417839  0.417886  0.417794  1
  Os  Os20  1  0.503505  0.832129  0.832228  1
  Os  Os21  1  0.832143  0.503552  0.832197  1
  Os  Os22  1  0.832175  0.832130  0.503560  1
  Os  Os23  1  0.832161  0.832114  0.832206  1
  N  N24  1  0.625000  0.125000  0.125000  1
  N  N25  1  0.125000  0.625000  0.125000  1
  N  N26  1  0.125000  0.125000  0.625000  1
  N  N27  1  0.125000  0.125000  0.125000  1
