# generated using pymatgen
data_Ba6SiPI4
_symmetry_space_group_name_H-M   'P 1'
_cell_length_a   16.32390872
_cell_length_b   15.56976268
_cell_length_c   8.63121807
_cell_angle_alpha   79.18207658
_cell_angle_beta   69.52923692
_cell_angle_gamma   31.28868383
_symmetry_Int_Tables_number   1
_chemical_formula_structural   Ba6SiPI4
_chemical_formula_sum   'Ba12 Si2 P2 I8'
_cell_volume   1039.11788306
_cell_formula_units_Z   2
loop_
 _symmetry_equiv_pos_site_id
 _symmetry_equiv_pos_as_xyz
  1  'x, y, z'
loop_
 _atom_site_type_symbol
 _atom_site_label
 _atom_site_symmetry_multiplicity
 _atom_site_fract_x
 _atom_site_fract_y
 _atom_site_fract_z
 _atom_site_occupancy
  Ba  Ba0  1  0.373253  0.943725  0.590620  1
  Ba  Ba1  1  0.590620  0.092404  0.373253  1
  Ba  Ba2  1  0.306071  0.874360  0.156335  1
  Ba  Ba3  1  0.943725  0.373253  0.092404  1
  Ba  Ba4  1  0.461169  0.038831  0.038831  1
  Ba  Ba5  1  0.874360  0.306071  0.663233  1
  Ba  Ba6  1  0.092404  0.590620  0.943725  1
  Ba  Ba7  1  0.663233  0.156335  0.874360  1
  Ba  Ba8  1  0.793638  0.206362  0.206362  1
  Ba  Ba9  1  0.206362  0.793638  0.793638  1
  Ba  Ba10  1  0.156335  0.663233  0.306071  1
  Ba  Ba11  1  0.038831  0.461169  0.461169  1
  Si  Si12  1  0.164444  0.164444  0.335556  1
  Si  Si13  1  0.335556  0.335556  0.164444  1
  P  P14  1  0.082807  0.082807  0.917193  1
  P  P15  1  0.917193  0.917193  0.082807  1
  I  I16  1  0.671531  0.671531  0.828469  1
  I  I17  1  0.746550  0.746550  0.253450  1
  I  I18  1  0.253450  0.253450  0.746550  1
  I  I19  1  0.577510  0.577510  0.422490  1
  I  I20  1  0.996245  0.996245  0.503755  1
  I  I21  1  0.828469  0.828469  0.671531  1
  I  I22  1  0.422490  0.422490  0.577510  1
  I  I23  1  0.503755  0.503755  0.996245  1
