# generated using pymatgen
data_Ac5Sc(SnPt)6
_symmetry_space_group_name_H-M   'P 1'
_cell_length_a   7.85067003
_cell_length_b   7.77975571
_cell_length_c   8.52439200
_cell_angle_alpha   90.00000000
_cell_angle_beta   90.00000000
_cell_angle_gamma   119.87294113
_symmetry_Int_Tables_number   1
_chemical_formula_structural   Ac5Sc(SnPt)6
_chemical_formula_sum   'Ac5 Sc1 Sn6 Pt6'
_cell_volume   451.46215089
_cell_formula_units_Z   1
loop_
 _symmetry_equiv_pos_site_id
 _symmetry_equiv_pos_as_xyz
  1  'x, y, z'
loop_
 _atom_site_type_symbol
 _atom_site_label
 _atom_site_symmetry_multiplicity
 _atom_site_fract_x
 _atom_site_fract_y
 _atom_site_fract_z
 _atom_site_occupancy
  Ac  Ac0  1  0.412795  0.002388  0.250000  1
  Ac  Ac1  1  0.586962  0.587492  0.250000  1
  Ac  Ac2  1  0.999324  0.421874  0.250000  1
  Ac  Ac3  1  0.414469  0.997419  0.750000  1
  Ac  Ac4  1  0.581204  0.582582  0.750000  1
  Sc  Sc5  1  0.994566  0.393987  0.750000  1
  Sn  Sn6  1  0.238654  0.248026  0.997162  1
  Sn  Sn7  1  0.000032  0.750983  0.985368  1
  Sn  Sn8  1  0.000032  0.750983  0.514632  1
  Sn  Sn9  1  0.758828  0.006653  0.502415  1
  Sn  Sn10  1  0.238654  0.248026  0.502838  1
  Sn  Sn11  1  0.758828  0.006653  0.997585  1
  Pt  Pt12  1  0.997994  0.014758  0.750000  1
  Pt  Pt13  1  0.998725  0.001815  0.250000  1
  Pt  Pt14  1  0.693965  0.339657  0.981596  1
  Pt  Pt15  1  0.315501  0.653524  0.510288  1
  Pt  Pt16  1  0.315501  0.653524  0.989712  1
  Pt  Pt17  1  0.693965  0.339657  0.518404  1
