# generated using pymatgen
data_Hf6Zr12VRe6Ni2W
_symmetry_space_group_name_H-M   'P 1'
_cell_length_a   8.73021500
_cell_length_b   8.73021528
_cell_length_c   8.47763000
_cell_angle_alpha   90.00000000
_cell_angle_beta   90.00000000
_cell_angle_gamma   120.00000275
_symmetry_Int_Tables_number   1
_chemical_formula_structural   Hf6Zr12VRe6Ni2W
_chemical_formula_sum   'Hf6 Zr12 V1 Re6 Ni2 W1'
_cell_volume   559.57070516
_cell_formula_units_Z   1
loop_
 _symmetry_equiv_pos_site_id
 _symmetry_equiv_pos_as_xyz
  1  'x, y, z'
loop_
 _atom_site_type_symbol
 _atom_site_label
 _atom_site_symmetry_multiplicity
 _atom_site_fract_x
 _atom_site_fract_y
 _atom_site_fract_z
 _atom_site_occupancy
  Hf  Hf0  1  0.804008  0.195992  0.943472  1
  Hf  Hf1  1  0.804008  0.608016  0.943472  1
  Hf  Hf2  1  0.391984  0.195992  0.943472  1
  Hf  Hf3  1  0.195992  0.804008  0.056528  1
  Hf  Hf4  1  0.195992  0.391984  0.056528  1
  Hf  Hf5  1  0.608016  0.804008  0.056528  1
  Zr  Zr6  1  0.198541  0.801459  0.442360  1
  Zr  Zr7  1  0.198541  0.397082  0.442360  1
  Zr  Zr8  1  0.602918  0.801459  0.442360  1
  Zr  Zr9  1  0.801459  0.198541  0.557640  1
  Zr  Zr10  1  0.801459  0.602918  0.557640  1
  Zr  Zr11  1  0.397082  0.198541  0.557640  1
  Zr  Zr12  1  0.541813  0.458187  0.247215  1
  Zr  Zr13  1  0.541813  0.083626  0.247215  1
  Zr  Zr14  1  0.916374  0.458187  0.247215  1
  Zr  Zr15  1  0.458187  0.541813  0.752785  1
  Zr  Zr16  1  0.458187  0.916374  0.752785  1
  Zr  Zr17  1  0.083626  0.541813  0.752785  1
  V  V18  1  0.000000  0.000000  0.000000  1
  Re  Re19  1  0.891515  0.108485  0.244885  1
  Re  Re20  1  0.891515  0.783027  0.244885  1
  Re  Re21  1  0.216973  0.108485  0.244885  1
  Re  Re22  1  0.108485  0.891515  0.755115  1
  Re  Re23  1  0.108485  0.216973  0.755115  1
  Re  Re24  1  0.783027  0.891515  0.755115  1
  Ni  Ni25  1  0.333333  0.666667  0.245303  1
  Ni  Ni26  1  0.666667  0.333333  0.754697  1
  W  W27  1  0.000000  0.000000  0.500000  1
