# generated using pymatgen
data_BaNi2SnSb11Os2
_symmetry_space_group_name_H-M   'P 1'
_cell_length_a   8.12287129
_cell_length_b   8.14292889
_cell_length_c   8.15574613
_cell_angle_alpha   109.62694172
_cell_angle_beta   109.36789714
_cell_angle_gamma   109.61556531
_symmetry_Int_Tables_number   1
_chemical_formula_structural   BaNi2SnSb11Os2
_chemical_formula_sum   'Ba1 Ni2 Sn1 Sb11 Os2'
_cell_volume   414.25800192
_cell_formula_units_Z   1
loop_
 _symmetry_equiv_pos_site_id
 _symmetry_equiv_pos_as_xyz
  1  'x, y, z'
loop_
 _atom_site_type_symbol
 _atom_site_label
 _atom_site_symmetry_multiplicity
 _atom_site_fract_x
 _atom_site_fract_y
 _atom_site_fract_z
 _atom_site_occupancy
  Ba  Ba0  1  0.999674  0.999695  0.999833  1
  Ni  Ni1  1  0.997002  0.998681  0.496574  1
  Ni  Ni2  1  0.000722  0.501639  0.001009  1
  Sn  Sn3  1  0.340126  0.181754  0.837437  1
  Sb  Sb4  1  0.660210  0.817254  0.161566  1
  Sb  Sb5  1  0.658992  0.497511  0.842004  1
  Sb  Sb6  1  0.338599  0.499923  0.156212  1
  Sb  Sb7  1  0.180766  0.840214  0.342594  1
  Sb  Sb8  1  0.820782  0.161419  0.659379  1
  Sb  Sb9  1  0.500011  0.843877  0.658712  1
  Sb  Sb10  1  0.499667  0.157966  0.341832  1
  Sb  Sb11  1  0.841143  0.342866  0.180707  1
  Sb  Sb12  1  0.157681  0.656727  0.818231  1
  Sb  Sb13  1  0.843363  0.661857  0.499642  1
  Sb  Sb14  1  0.158499  0.338609  0.502409  1
  Os  Os15  1  0.501771  0.997881  0.001582  1
  Os  Os16  1  0.500990  0.502128  0.500276  1
