# generated using pymatgen
data_Pr4Ag2PdAu
_symmetry_space_group_name_H-M   'P 1'
_cell_length_a   4.83398300
_cell_length_b   5.93907069
_cell_length_c   7.52344300
_cell_angle_alpha   90.89073877
_cell_angle_beta   90.00000000
_cell_angle_gamma   90.00000000
_symmetry_Int_Tables_number   1
_chemical_formula_structural   Pr4Ag2PdAu
_chemical_formula_sum   'Pr4 Ag2 Pd1 Au1'
_cell_volume   215.96718323
_cell_formula_units_Z   1
loop_
 _symmetry_equiv_pos_site_id
 _symmetry_equiv_pos_as_xyz
  1  'x, y, z'
loop_
 _atom_site_type_symbol
 _atom_site_label
 _atom_site_symmetry_multiplicity
 _atom_site_fract_x
 _atom_site_fract_y
 _atom_site_fract_z
 _atom_site_occupancy
  Pr  Pr0  1  0.250000  0.362911  0.694103  1
  Pr  Pr1  1  0.250000  0.150387  0.170616  1
  Pr  Pr2  1  0.750000  0.632342  0.309335  1
  Pr  Pr3  1  0.750000  0.857444  0.828228  1
  Ag  Ag4  1  0.250000  0.862346  0.533751  1
  Ag  Ag5  1  0.750000  0.133709  0.464058  1
  Pd  Pd6  1  0.750000  0.349407  0.956364  1
  Au  Au7  1  0.250000  0.651453  0.043544  1
