# generated using pymatgen
data_SmEu(SeO3)3
_symmetry_space_group_name_H-M   'P 1'
_cell_length_a   7.25700776
_cell_length_b   8.23434622
_cell_length_c   9.22949174
_cell_angle_alpha   71.17740092
_cell_angle_beta   70.49347266
_cell_angle_gamma   65.96408655
_symmetry_Int_Tables_number   1
_chemical_formula_structural   SmEu(SeO3)3
_chemical_formula_sum   'Sm2 Eu2 Se6 O18'
_cell_volume   463.49898541
_cell_formula_units_Z   2
loop_
 _symmetry_equiv_pos_site_id
 _symmetry_equiv_pos_as_xyz
  1  'x, y, z'
loop_
 _atom_site_type_symbol
 _atom_site_label
 _atom_site_symmetry_multiplicity
 _atom_site_fract_x
 _atom_site_fract_y
 _atom_site_fract_z
 _atom_site_occupancy
  Sm  Sm0  1  0.332980  0.731495  0.588081  1
  Sm  Sm1  1  0.667020  0.268505  0.411919  1
  Eu  Eu2  1  0.741453  0.733821  0.802235  1
  Eu  Eu3  1  0.258547  0.266179  0.197765  1
  Se  Se4  1  0.426857  0.776021  0.198377  1
  Se  Se5  1  0.573143  0.223979  0.801623  1
  Se  Se6  1  0.153106  0.751563  0.961852  1
  Se  Se7  1  0.846894  0.248437  0.038148  1
  Se  Se8  1  0.885698  0.756422  0.417438  1
  Se  Se9  1  0.114302  0.243578  0.582562  1
  O  O10  1  0.644691  0.792807  0.056854  1
  O  O11  1  0.355309  0.207193  0.943146  1
  O  O12  1  0.357596  0.943010  0.303995  1
  O  O13  1  0.642404  0.056990  0.696005  1
  O  O14  1  0.514456  0.595822  0.349728  1
  O  O15  1  0.485544  0.404178  0.650272  1
  O  O16  1  0.169272  0.572961  0.120481  1
  O  O17  1  0.830728  0.427039  0.879519  1
  O  O18  1  0.406903  0.709190  0.849276  1
  O  O19  1  0.593097  0.290810  0.150724  1
  O  O20  1  0.343357  0.246529  0.439021  1
  O  O21  1  0.656643  0.753471  0.560979  1
  O  O22  1  0.967744  0.296365  0.446346  1
  O  O23  1  0.032256  0.703635  0.553654  1
  O  O24  1  0.151829  0.018752  0.656764  1
  O  O25  1  0.848171  0.981248  0.343236  1
  O  O26  1  0.931104  0.306678  0.163930  1
  O  O27  1  0.068896  0.693322  0.836070  1
