# generated using pymatgen
data_MgTa3(TiOs3)2
_symmetry_space_group_name_H-M   'P 1'
_cell_length_a   4.44426500
_cell_length_b   6.28728600
_cell_length_c   13.36253200
_cell_angle_alpha   90.00000000
_cell_angle_beta   90.00005580
_cell_angle_gamma   90.00000000
_symmetry_Int_Tables_number   1
_chemical_formula_structural   MgTa3(TiOs3)2
_chemical_formula_sum   'Mg2 Ta6 Ti4 Os12'
_cell_volume   373.38074800
_cell_formula_units_Z   2
loop_
 _symmetry_equiv_pos_site_id
 _symmetry_equiv_pos_as_xyz
  1  'x, y, z'
loop_
 _atom_site_type_symbol
 _atom_site_label
 _atom_site_symmetry_multiplicity
 _atom_site_fract_x
 _atom_site_fract_y
 _atom_site_fract_z
 _atom_site_occupancy
  Mg  Mg0  1  0.000003  0.499999  0.000531  1
  Mg  Mg1  1  0.499961  0.000000  0.166126  1
  Ta  Ta2  1  0.000005  0.000000  0.003322  1
  Ta  Ta3  1  0.499957  0.499999  0.163308  1
  Ta  Ta4  1  0.999960  0.000000  0.329891  1
  Ta  Ta5  1  0.499997  0.499999  0.499468  1
  Ta  Ta6  1  0.000044  0.000000  0.667202  1
  Ta  Ta7  1  0.500043  0.499999  0.836796  1
  Ti  Ti8  1  0.999950  0.499999  0.331895  1
  Ti  Ti9  1  0.499998  0.000000  0.499744  1
  Ti  Ti10  1  0.000052  0.499999  0.666957  1
  Ti  Ti11  1  0.500046  0.000000  0.834729  1
  Os  Os12  1  0.500003  0.247645  0.997414  1
  Os  Os13  1  0.500003  0.752355  0.997414  1
  Os  Os14  1  0.999955  0.252304  0.169232  1
  Os  Os15  1  0.999955  0.747696  0.169232  1
  Os  Os16  1  0.499955  0.252337  0.335748  1
  Os  Os17  1  0.499955  0.747663  0.335748  1
  Os  Os18  1  0.999999  0.250092  0.500031  1
  Os  Os19  1  0.999999  0.749908  0.500031  1
  Os  Os20  1  0.500044  0.249912  0.666669  1
  Os  Os21  1  0.500044  0.750088  0.666669  1
  Os  Os22  1  0.000038  0.247677  0.830920  1
  Os  Os23  1  0.000038  0.752323  0.830920  1
