# generated using pymatgen
data_Tb15YCd4CoNi3
_symmetry_space_group_name_H-M   'P 1'
_cell_length_a   9.58941587
_cell_length_b   9.58941525
_cell_length_c   9.57009121
_cell_angle_alpha   59.97394739
_cell_angle_beta   59.97394773
_cell_angle_gamma   60.04630515
_symmetry_Int_Tables_number   1
_chemical_formula_structural   Tb15YCd4CoNi3
_chemical_formula_sum   'Tb15 Y1 Cd4 Co1 Ni3'
_cell_volume   622.25136687
_cell_formula_units_Z   1
loop_
 _symmetry_equiv_pos_site_id
 _symmetry_equiv_pos_as_xyz
  1  'x, y, z'
loop_
 _atom_site_type_symbol
 _atom_site_label
 _atom_site_symmetry_multiplicity
 _atom_site_fract_x
 _atom_site_fract_y
 _atom_site_fract_z
 _atom_site_occupancy
  Tb  Tb0  1  0.598674  0.598674  0.597419  1
  Tb  Tb1  1  0.596258  0.596258  0.208447  1
  Tb  Tb2  1  0.597450  0.205619  0.596694  1
  Tb  Tb3  1  0.205619  0.597450  0.596694  1
  Tb  Tb4  1  0.064277  0.438479  0.439594  1
  Tb  Tb5  1  0.438563  0.061020  0.060063  1
  Tb  Tb6  1  0.438479  0.064277  0.439594  1
  Tb  Tb7  1  0.061020  0.438563  0.060063  1
  Tb  Tb8  1  0.439439  0.439439  0.063440  1
  Tb  Tb9  1  0.061133  0.061133  0.438799  1
  Tb  Tb10  1  0.187200  0.812596  0.813955  1
  Tb  Tb11  1  0.811696  0.187469  0.186199  1
  Tb  Tb12  1  0.812596  0.187200  0.813955  1
  Tb  Tb13  1  0.187469  0.811696  0.186199  1
  Tb  Tb14  1  0.813806  0.813806  0.185948  1
  Y  Y15  1  0.187060  0.187060  0.811938  1
  Cd  Cd16  1  0.830196  0.830196  0.830563  1
  Cd  Cd17  1  0.830423  0.830423  0.507750  1
  Cd  Cd18  1  0.831101  0.506290  0.831094  1
  Cd  Cd19  1  0.506290  0.831101  0.831094  1
  Co  Co20  1  0.392549  0.392549  0.392514  1
  Ni  Ni21  1  0.392592  0.392592  0.823113  1
  Ni  Ni22  1  0.392361  0.823752  0.392436  1
  Ni  Ni23  1  0.823752  0.392361  0.392436  1
