# generated using pymatgen
data_Tb3Dy(In2Pd3)4
_symmetry_space_group_name_H-M   'P 1'
_cell_length_a   4.63892800
_cell_length_b   9.81307303
_cell_length_c   10.37417500
_cell_angle_alpha   89.99546915
_cell_angle_beta   90.00000000
_cell_angle_gamma   90.00000000
_symmetry_Int_Tables_number   1
_chemical_formula_structural   Tb3Dy(In2Pd3)4
_chemical_formula_sum   'Tb3 Dy1 In8 Pd12'
_cell_volume   472.25463746
_cell_formula_units_Z   1
loop_
 _symmetry_equiv_pos_site_id
 _symmetry_equiv_pos_as_xyz
  1  'x, y, z'
loop_
 _atom_site_type_symbol
 _atom_site_label
 _atom_site_symmetry_multiplicity
 _atom_site_fract_x
 _atom_site_fract_y
 _atom_site_fract_z
 _atom_site_occupancy
  Tb  Tb0  1  0.250000  0.445884  0.724657  1
  Tb  Tb1  1  0.250000  0.054139  0.224552  1
  Tb  Tb2  1  0.750000  0.554150  0.275383  1
  Dy  Dy3  1  0.750000  0.945777  0.775638  1
  In  In4  1  0.250000  0.886454  0.513440  1
  In  In5  1  0.250000  0.613559  0.013397  1
  In  In6  1  0.750000  0.113494  0.486807  1
  In  In7  1  0.750000  0.386468  0.986551  1
  In  In8  1  0.250000  0.162987  0.894173  1
  In  In9  1  0.250000  0.336793  0.394380  1
  In  In10  1  0.750000  0.836906  0.105543  1
  In  In11  1  0.750000  0.663357  0.605834  1
  Pd  Pd12  1  0.250000  0.143783  0.624660  1
  Pd  Pd13  1  0.250000  0.355901  0.124398  1
  Pd  Pd14  1  0.750000  0.855904  0.375535  1
  Pd  Pd15  1  0.750000  0.644304  0.875527  1
  Pd  Pd16  1  0.250000  0.744708  0.740610  1
  Pd  Pd17  1  0.250000  0.755829  0.240575  1
  Pd  Pd18  1  0.750000  0.255758  0.259478  1
  Pd  Pd19  1  0.750000  0.243778  0.759471  1
  Pd  Pd20  1  0.250000  0.896395  0.973019  1
  Pd  Pd21  1  0.250000  0.603731  0.473411  1
  Pd  Pd22  1  0.750000  0.103557  0.026329  1
  Pd  Pd23  1  0.750000  0.396385  0.526628  1
