# generated using pymatgen
data_TmLu(PuB8)2
_symmetry_space_group_name_H-M   'P 1'
_cell_length_a   7.07001269
_cell_length_b   7.07717569
_cell_length_c   3.99709200
_cell_angle_alpha   90.00000000
_cell_angle_beta   90.00000000
_cell_angle_gamma   90.07914465
_symmetry_Int_Tables_number   1
_chemical_formula_structural   TmLu(PuB8)2
_chemical_formula_sum   'Tm1 Lu1 Pu2 B16'
_cell_volume   199.99719290
_cell_formula_units_Z   1
loop_
 _symmetry_equiv_pos_site_id
 _symmetry_equiv_pos_as_xyz
  1  'x, y, z'
loop_
 _atom_site_type_symbol
 _atom_site_label
 _atom_site_symmetry_multiplicity
 _atom_site_fract_x
 _atom_site_fract_y
 _atom_site_fract_z
 _atom_site_occupancy
  Tm  Tm0  1  0.183208  0.682641  0.000000  1
  Lu  Lu1  1  0.683085  0.817473  0.000000  1
  Pu  Pu2  1  0.313852  0.186852  0.000000  1
  Pu  Pu3  1  0.813736  0.313047  0.000000  1
  B  B4  1  0.323148  0.463670  0.500000  1
  B  B5  1  0.677573  0.540467  0.500000  1
  B  B6  1  0.538516  0.325135  0.500000  1
  B  B7  1  0.462094  0.679218  0.500000  1
  B  B8  1  0.999943  0.996128  0.201246  1
  B  B9  1  0.500364  0.503965  0.798753  1
  B  B10  1  0.999943  0.996128  0.798754  1
  B  B11  1  0.500364  0.503965  0.201247  1
  B  B12  1  0.587787  0.087909  0.500000  1
  B  B13  1  0.087658  0.411937  0.500000  1
  B  B14  1  0.914179  0.585724  0.500000  1
  B  B15  1  0.414338  0.914154  0.500000  1
  B  B16  1  0.038347  0.174871  0.500000  1
  B  B17  1  0.177377  0.959725  0.500000  1
  B  B18  1  0.822903  0.036171  0.500000  1
  B  B19  1  0.961591  0.820820  0.500000  1
