# generated using pymatgen
data_CaNd4SiBi2
_symmetry_space_group_name_H-M   'P 1'
_cell_length_a   8.34020800
_cell_length_b   9.36974700
_cell_length_c   12.47137900
_cell_angle_alpha   90.00000000
_cell_angle_beta   90.00000000
_cell_angle_gamma   90.00000000
_symmetry_Int_Tables_number   1
_chemical_formula_structural   CaNd4SiBi2
_chemical_formula_sum   'Ca4 Nd16 Si4 Bi8'
_cell_volume   974.58387976
_cell_formula_units_Z   4
loop_
 _symmetry_equiv_pos_site_id
 _symmetry_equiv_pos_as_xyz
  1  'x, y, z'
loop_
 _atom_site_type_symbol
 _atom_site_label
 _atom_site_symmetry_multiplicity
 _atom_site_fract_x
 _atom_site_fract_y
 _atom_site_fract_z
 _atom_site_occupancy
  Ca  Ca0  1  0.540992  0.750000  0.498983  1
  Ca  Ca1  1  0.040992  0.250000  0.001017  1
  Ca  Ca2  1  0.459008  0.250000  0.501017  1
  Ca  Ca3  1  0.959008  0.750000  0.998983  1
  Nd  Nd4  1  0.317720  0.957842  0.065265  1
  Nd  Nd5  1  0.817720  0.042158  0.434735  1
  Nd  Nd6  1  0.682280  0.457842  0.934735  1
  Nd  Nd7  1  0.182280  0.542158  0.565265  1
  Nd  Nd8  1  0.682280  0.042158  0.934735  1
  Nd  Nd9  1  0.182280  0.957842  0.565265  1
  Nd  Nd10  1  0.317720  0.542158  0.065265  1
  Nd  Nd11  1  0.817720  0.457842  0.434735  1
  Nd  Nd12  1  0.663203  0.750000  0.208905  1
  Nd  Nd13  1  0.163203  0.250000  0.291095  1
  Nd  Nd14  1  0.336797  0.250000  0.791095  1
  Nd  Nd15  1  0.836797  0.750000  0.708905  1
  Nd  Nd16  1  0.139409  0.750000  0.294935  1
  Nd  Nd17  1  0.639409  0.250000  0.205065  1
  Nd  Nd18  1  0.860591  0.250000  0.705065  1
  Nd  Nd19  1  0.360591  0.750000  0.794935  1
  Si  Si20  1  0.571553  0.750000  0.982983  1
  Si  Si21  1  0.071553  0.250000  0.517017  1
  Si  Si22  1  0.428447  0.250000  0.017017  1
  Si  Si23  1  0.928447  0.750000  0.482983  1
  Bi  Bi24  1  0.932224  0.007855  0.172297  1
  Bi  Bi25  1  0.432224  0.992145  0.327703  1
  Bi  Bi26  1  0.067776  0.507855  0.827703  1
  Bi  Bi27  1  0.567776  0.492145  0.672297  1
  Bi  Bi28  1  0.067776  0.992145  0.827703  1
  Bi  Bi29  1  0.567776  0.007855  0.672297  1
  Bi  Bi30  1  0.932224  0.492145  0.172297  1
  Bi  Bi31  1  0.432224  0.507855  0.327703  1
