# generated using pymatgen
data_Ca(Ni2Sb)2
_symmetry_space_group_name_H-M   'P 1'
_cell_length_a   6.71861177
_cell_length_b   6.71861153
_cell_length_c   6.71861268
_cell_angle_alpha   109.24985316
_cell_angle_beta   109.24985702
_cell_angle_gamma   109.91486689
_symmetry_Int_Tables_number   1
_chemical_formula_structural   Ca(Ni2Sb)2
_chemical_formula_sum   'Ca2 Ni8 Sb4'
_cell_volume   233.45180347
_cell_formula_units_Z   2
loop_
 _symmetry_equiv_pos_site_id
 _symmetry_equiv_pos_as_xyz
  1  'x, y, z'
loop_
 _atom_site_type_symbol
 _atom_site_label
 _atom_site_symmetry_multiplicity
 _atom_site_fract_x
 _atom_site_fract_y
 _atom_site_fract_z
 _atom_site_occupancy
  Ca  Ca0  1  0.750000  0.750000  0.000000  1
  Ca  Ca1  1  0.250000  0.250000  0.000000  1
  Ni  Ni2  1  0.976553  0.194598  0.500000  1
  Ni  Ni3  1  0.194598  0.694598  0.218045  1
  Ni  Ni4  1  0.476553  0.976553  0.781955  1
  Ni  Ni5  1  0.805402  0.305402  0.781955  1
  Ni  Ni6  1  0.523447  0.023447  0.218045  1
  Ni  Ni7  1  0.694598  0.476553  0.500000  1
  Ni  Ni8  1  0.305402  0.523447  0.500000  1
  Ni  Ni9  1  0.023447  0.805402  0.500000  1
  Sb  Sb10  1  0.657575  0.842425  0.500000  1
  Sb  Sb11  1  0.842425  0.342425  0.184850  1
  Sb  Sb12  1  0.157575  0.657575  0.815150  1
  Sb  Sb13  1  0.342425  0.157575  0.500000  1
