# generated using pymatgen
data_Sm6Th2GaPd24
_symmetry_space_group_name_H-M   'P 1'
_cell_length_a   8.45572374
_cell_length_b   8.45572374
_cell_length_c   8.45572374
_cell_angle_alpha   90.03399680
_cell_angle_beta   90.03399680
_cell_angle_gamma   90.03399680
_symmetry_Int_Tables_number   1
_chemical_formula_structural   Sm6Th2GaPd24
_chemical_formula_sum   'Sm6 Th2 Ga1 Pd24'
_cell_volume   604.57770527
_cell_formula_units_Z   1
loop_
 _symmetry_equiv_pos_site_id
 _symmetry_equiv_pos_as_xyz
  1  'x, y, z'
loop_
 _atom_site_type_symbol
 _atom_site_label
 _atom_site_symmetry_multiplicity
 _atom_site_fract_x
 _atom_site_fract_y
 _atom_site_fract_z
 _atom_site_occupancy
  Sm  Sm0  1  0.747951  0.747951  0.251713  1
  Sm  Sm1  1  0.747951  0.251713  0.747951  1
  Sm  Sm2  1  0.252049  0.252049  0.748287  1
  Sm  Sm3  1  0.252049  0.748287  0.252049  1
  Sm  Sm4  1  0.251713  0.747951  0.747951  1
  Sm  Sm5  1  0.748287  0.252049  0.252049  1
  Th  Th6  1  0.252473  0.252473  0.252473  1
  Th  Th7  1  0.747527  0.747527  0.747527  1
  Ga  Ga8  1  0.000000  0.000000  0.000000  1
  Pd  Pd9  1  0.260344  0.499357  0.000737  1
  Pd  Pd10  1  0.739656  0.500643  0.999263  1
  Pd  Pd11  1  0.000737  0.260344  0.499357  1
  Pd  Pd12  1  0.499357  0.260344  0.000737  1
  Pd  Pd13  1  0.999263  0.739656  0.500643  1
  Pd  Pd14  1  0.500643  0.739656  0.999263  1
  Pd  Pd15  1  0.499357  0.000737  0.260344  1
  Pd  Pd16  1  0.260344  0.000737  0.499357  1
  Pd  Pd17  1  0.500643  0.999263  0.739656  1
  Pd  Pd18  1  0.739656  0.999263  0.500643  1
  Pd  Pd19  1  0.000737  0.499357  0.260344  1
  Pd  Pd20  1  0.999263  0.500643  0.739656  1
  Pd  Pd21  1  0.253059  0.499370  0.499370  1
  Pd  Pd22  1  0.746941  0.500630  0.500630  1
  Pd  Pd23  1  0.499370  0.253059  0.499370  1
  Pd  Pd24  1  0.500630  0.746941  0.500630  1
  Pd  Pd25  1  0.499370  0.499370  0.253059  1
  Pd  Pd26  1  0.500630  0.500630  0.746941  1
  Pd  Pd27  1  0.292507  0.000243  0.000243  1
  Pd  Pd28  1  0.707493  0.999757  0.999757  1
  Pd  Pd29  1  0.000243  0.292507  0.000243  1
  Pd  Pd30  1  0.999757  0.707493  0.999757  1
  Pd  Pd31  1  0.000243  0.000243  0.292507  1
  Pd  Pd32  1  0.999757  0.999757  0.707493  1
