# generated using pymatgen
data_Nd3Zn3CuIrPd
_symmetry_space_group_name_H-M   'P 1'
_cell_length_a   7.33581000
_cell_length_b   7.33580829
_cell_length_c   4.02305400
_cell_angle_alpha   90.00000000
_cell_angle_beta   90.00000000
_cell_angle_gamma   119.99998966
_symmetry_Int_Tables_number   1
_chemical_formula_structural   Nd3Zn3CuIrPd
_chemical_formula_sum   'Nd3 Zn3 Cu1 Ir1 Pd1'
_cell_volume   187.49193304
_cell_formula_units_Z   1
loop_
 _symmetry_equiv_pos_site_id
 _symmetry_equiv_pos_as_xyz
  1  'x, y, z'
loop_
 _atom_site_type_symbol
 _atom_site_label
 _atom_site_symmetry_multiplicity
 _atom_site_fract_x
 _atom_site_fract_y
 _atom_site_fract_z
 _atom_site_occupancy
  Nd  Nd0  1  0.413619  0.404934  0.000000  1
  Nd  Nd1  1  0.595066  0.008684  0.000000  1
  Nd  Nd2  1  0.991316  0.586381  0.000000  1
  Zn  Zn3  1  0.762374  0.759320  0.500000  1
  Zn  Zn4  1  0.240680  0.003053  0.500000  1
  Zn  Zn5  1  0.996947  0.237626  0.500000  1
  Cu  Cu6  1  0.000000  0.000000  0.000000  1
  Ir  Ir7  1  0.666667  0.333333  0.500000  1
  Pd  Pd8  1  0.333333  0.666667  0.500000  1
