# generated using pymatgen
data_Y6Al24Ir3Os5
_symmetry_space_group_name_H-M   'P 1'
_cell_length_a   8.84967885
_cell_length_b   8.83770625
_cell_length_c   9.55310921
_cell_angle_alpha   90.20514733
_cell_angle_beta   89.99947562
_cell_angle_gamma   119.81197884
_symmetry_Int_Tables_number   1
_chemical_formula_structural   Y6Al24Ir3Os5
_chemical_formula_sum   'Y6 Al24 Ir3 Os5'
_cell_volume   648.27380089
_cell_formula_units_Z   1
loop_
 _symmetry_equiv_pos_site_id
 _symmetry_equiv_pos_as_xyz
  1  'x, y, z'
loop_
 _atom_site_type_symbol
 _atom_site_label
 _atom_site_symmetry_multiplicity
 _atom_site_fract_x
 _atom_site_fract_y
 _atom_site_fract_z
 _atom_site_occupancy
  Y  Y0  1  0.189219  0.387436  0.250764  1
  Y  Y1  1  0.810781  0.612564  0.749236  1
  Y  Y2  1  0.613983  0.809593  0.251340  1
  Y  Y3  1  0.386017  0.190407  0.748660  1
  Y  Y4  1  0.192225  0.804233  0.251059  1
  Y  Y5  1  0.807775  0.195767  0.748941  1
  Al  Al6  1  0.332339  0.666102  0.021719  1
  Al  Al7  1  0.667661  0.333898  0.978281  1
  Al  Al8  1  0.667266  0.332648  0.519884  1
  Al  Al9  1  0.332734  0.667352  0.480116  1
  Al  Al10  1  0.162622  0.326338  0.575854  1
  Al  Al11  1  0.837378  0.673662  0.424146  1
  Al  Al12  1  0.674666  0.838368  0.577054  1
  Al  Al13  1  0.837784  0.673857  0.075667  1
  Al  Al14  1  0.325334  0.161632  0.422946  1
  Al  Al15  1  0.162216  0.326143  0.924333  1
  Al  Al16  1  0.164302  0.836367  0.575024  1
  Al  Al17  1  0.325095  0.163233  0.076644  1
  Al  Al18  1  0.835698  0.163633  0.424976  1
  Al  Al19  1  0.674905  0.836767  0.923356  1
  Al  Al20  1  0.837568  0.165200  0.074652  1
  Al  Al21  1  0.162432  0.834800  0.925348  1
  Al  Al22  1  0.560404  0.123052  0.250401  1
  Al  Al23  1  0.439596  0.876948  0.749599  1
  Al  Al24  1  0.875446  0.438585  0.249532  1
  Al  Al25  1  0.124554  0.561415  0.750468  1
  Al  Al26  1  0.559965  0.439220  0.249415  1
  Al  Al27  1  0.440035  0.560780  0.750585  1
  Al  Al28  1  0.999362  0.000462  0.250032  1
  Al  Al29  1  0.000638  0.999538  0.749968  1
  Ir  Ir30  1  0.500000  0.000000  0.000000  1
  Ir  Ir31  1  0.500000  0.500000  0.000000  1
  Ir  Ir32  1  0.500000  0.500000  0.500000  1
  Os  Os33  1  0.000000  0.500000  0.000000  1
  Os  Os34  1  0.500000  0.000000  0.500000  1
  Os  Os35  1  0.000000  0.500000  0.500000  1
  Os  Os36  1  0.000000  0.000000  0.000000  1
  Os  Os37  1  0.000000  0.000000  0.500000  1
