# generated using pymatgen
data_Nd5Y3(MoO6)4
_symmetry_space_group_name_H-M   'P 1'
_cell_length_a   10.15890884
_cell_length_b   10.15890896
_cell_length_c   5.50570207
_cell_angle_alpha   75.11376606
_cell_angle_beta   75.11377112
_cell_angle_gamma   68.41189550
_symmetry_Int_Tables_number   1
_chemical_formula_structural   Nd5Y3(MoO6)4
_chemical_formula_sum   'Nd5 Y3 Mo4 O24'
_cell_volume   502.21172755
_cell_formula_units_Z   1
loop_
 _symmetry_equiv_pos_site_id
 _symmetry_equiv_pos_as_xyz
  1  'x, y, z'
loop_
 _atom_site_type_symbol
 _atom_site_label
 _atom_site_symmetry_multiplicity
 _atom_site_fract_x
 _atom_site_fract_y
 _atom_site_fract_z
 _atom_site_occupancy
  Nd  Nd0  1  0.787061  0.552747  0.619102  1
  Nd  Nd1  1  0.447253  0.212939  0.880898  1
  Nd  Nd2  1  0.213248  0.449350  0.379972  1
  Nd  Nd3  1  0.550650  0.786752  0.120028  1
  Nd  Nd4  1  0.865325  0.134675  0.750000  1
  Y  Y5  1  0.137022  0.862978  0.250000  1
  Y  Y6  1  0.394822  0.605178  0.750000  1
  Y  Y7  1  0.602807  0.397193  0.250000  1
  Mo  Mo8  1  0.991864  0.706067  0.935130  1
  Mo  Mo9  1  0.293933  0.008136  0.564870  1
  Mo  Mo10  1  0.009201  0.294931  0.065435  1
  Mo  Mo11  1  0.705069  0.990799  0.434565  1
  O  O12  1  0.428411  0.394638  0.075955  1
  O  O13  1  0.605362  0.571589  0.424045  1
  O  O14  1  0.571021  0.606133  0.922358  1
  O  O15  1  0.393867  0.428979  0.577642  1
  O  O16  1  0.193079  0.668122  0.071662  1
  O  O17  1  0.331878  0.806921  0.428338  1
  O  O18  1  0.808273  0.336270  0.937133  1
  O  O19  1  0.663730  0.191727  0.562867  1
  O  O20  1  0.112404  0.675810  0.625357  1
  O  O21  1  0.324190  0.887596  0.874643  1
  O  O22  1  0.889323  0.328850  0.374233  1
  O  O23  1  0.671150  0.110677  0.125767  1
  O  O24  1  0.711655  0.821040  0.365155  1
  O  O25  1  0.178960  0.288345  0.134845  1
  O  O26  1  0.286566  0.177427  0.635412  1
  O  O27  1  0.822573  0.713434  0.864588  1
  O  O28  1  0.888524  0.952312  0.475661  1
  O  O29  1  0.047688  0.111476  0.024339  1
  O  O30  1  0.113408  0.044031  0.514489  1
  O  O31  1  0.955969  0.886592  0.985511  1
  O  O32  1  0.573869  0.975026  0.736157  1
  O  O33  1  0.024974  0.426131  0.763843  1
  O  O34  1  0.427122  0.022253  0.267282  1
  O  O35  1  0.977747  0.572878  0.232718  1
