# generated using pymatgen
data_DyPa3(InPd2)2
_symmetry_space_group_name_H-M   'P 1'
_cell_length_a   7.79769100
_cell_length_b   7.79769007
_cell_length_c   3.66510400
_cell_angle_alpha   90.00000000
_cell_angle_beta   90.00000000
_cell_angle_gamma   89.20953655
_symmetry_Int_Tables_number   1
_chemical_formula_structural   DyPa3(InPd2)2
_chemical_formula_sum   'Dy1 Pa3 In2 Pd4'
_cell_volume   222.83169393
_cell_formula_units_Z   1
loop_
 _symmetry_equiv_pos_site_id
 _symmetry_equiv_pos_as_xyz
  1  'x, y, z'
loop_
 _atom_site_type_symbol
 _atom_site_label
 _atom_site_symmetry_multiplicity
 _atom_site_fract_x
 _atom_site_fract_y
 _atom_site_fract_z
 _atom_site_occupancy
  Dy  Dy0  1  0.675074  0.175074  0.500000  1
  Pa  Pa1  1  0.328676  0.828676  0.500000  1
  Pa  Pa2  1  0.826256  0.673212  0.500000  1
  Pa  Pa3  1  0.173212  0.326256  0.500000  1
  In  In4  1  0.994359  0.002320  0.000000  1
  In  In5  1  0.502320  0.494359  0.000000  1
  Pd  Pd6  1  0.363104  0.123850  0.000000  1
  Pd  Pd7  1  0.879604  0.379604  0.000000  1
  Pd  Pd8  1  0.133545  0.633545  0.000000  1
  Pd  Pd9  1  0.623850  0.863104  0.000000  1
