# generated using pymatgen
data_CeCoNiGe2
_symmetry_space_group_name_H-M   'P 1'
_cell_length_a   5.73672299
_cell_length_b   5.73672239
_cell_length_c   5.73672163
_cell_angle_alpha   138.10305809
_cell_angle_beta   138.10305791
_cell_angle_gamma   60.74520672
_symmetry_Int_Tables_number   1
_chemical_formula_structural   CeCoNiGe2
_chemical_formula_sum   'Ce1 Co1 Ni1 Ge2'
_cell_volume   83.28366215
_cell_formula_units_Z   1
loop_
 _symmetry_equiv_pos_site_id
 _symmetry_equiv_pos_as_xyz
  1  'x, y, z'
loop_
 _atom_site_type_symbol
 _atom_site_label
 _atom_site_symmetry_multiplicity
 _atom_site_fract_x
 _atom_site_fract_y
 _atom_site_fract_z
 _atom_site_occupancy
  Ce  Ce0  1  0.000000  0.000000  0.000000  1
  Co  Co1  1  0.250000  0.750000  0.500000  1
  Ni  Ni2  1  0.750000  0.250000  0.500000  1
  Ge  Ge3  1  0.629179  0.629179  0.000000  1
  Ge  Ge4  1  0.370821  0.370821  0.000000  1
