# generated using pymatgen
data_HoTm2Al3Ge2Pt
_symmetry_space_group_name_H-M   'P 1'
_cell_length_a   6.92943300
_cell_length_b   6.93791372
_cell_length_c   4.20567600
_cell_angle_alpha   90.00000000
_cell_angle_beta   90.00000000
_cell_angle_gamma   119.95956767
_symmetry_Int_Tables_number   1
_chemical_formula_structural   HoTm2Al3Ge2Pt
_chemical_formula_sum   'Ho1 Tm2 Al3 Ge2 Pt1'
_cell_volume   175.17407624
_cell_formula_units_Z   1
loop_
 _symmetry_equiv_pos_site_id
 _symmetry_equiv_pos_as_xyz
  1  'x, y, z'
loop_
 _atom_site_type_symbol
 _atom_site_label
 _atom_site_symmetry_multiplicity
 _atom_site_fract_x
 _atom_site_fract_y
 _atom_site_fract_z
 _atom_site_occupancy
  Ho  Ho0  1  0.414517  0.000000  0.000000  1
  Tm  Tm1  1  0.000301  0.414344  0.000000  1
  Tm  Tm2  1  0.585958  0.585656  0.000000  1
  Al  Al3  1  0.766373  0.000000  0.499999  1
  Al  Al4  1  0.233851  0.233809  0.499999  1
  Al  Al5  1  0.000042  0.766191  0.499999  1
  Ge  Ge6  1  0.667248  0.334146  0.499999  1
  Ge  Ge7  1  0.333102  0.665854  0.499999  1
  Pt  Pt8  1  0.998606  0.000000  0.000000  1
