# generated using pymatgen
data_PI7
_symmetry_space_group_name_H-M   'P 1'
_cell_length_a   9.45607800
_cell_length_b   9.70320600
_cell_length_c   19.50199600
_cell_angle_alpha   90.00000000
_cell_angle_beta   90.00000000
_cell_angle_gamma   90.00000000
_symmetry_Int_Tables_number   1
_chemical_formula_structural   PI7
_chemical_formula_sum   'P4 I28'
_cell_volume   1789.39146086
_cell_formula_units_Z   4
loop_
 _symmetry_equiv_pos_site_id
 _symmetry_equiv_pos_as_xyz
  1  'x, y, z'
loop_
 _atom_site_type_symbol
 _atom_site_label
 _atom_site_symmetry_multiplicity
 _atom_site_fract_x
 _atom_site_fract_y
 _atom_site_fract_z
 _atom_site_occupancy
  P  P0  1  0.750000  0.878407  0.126521  1
  P  P1  1  0.750000  0.378407  0.373479  1
  P  P2  1  0.250000  0.621593  0.626521  1
  P  P3  1  0.250000  0.121593  0.873479  1
  I  I4  1  0.250000  0.348840  0.162834  1
  I  I5  1  0.750000  0.898312  0.756301  1
  I  I6  1  0.750000  0.893099  0.251668  1
  I  I7  1  0.532428  0.757377  0.087348  1
  I  I8  1  0.250000  0.601688  0.256301  1
  I  I9  1  0.467572  0.742623  0.587348  1
  I  I10  1  0.250000  0.606901  0.751668  1
  I  I11  1  0.250000  0.114527  0.477096  1
  I  I12  1  0.750000  0.612404  0.426350  1
  I  I13  1  0.467572  0.242623  0.912652  1
  I  I14  1  0.250000  0.887596  0.926350  1
  I  I15  1  0.750000  0.393099  0.248332  1
  I  I16  1  0.532428  0.257377  0.412652  1
  I  I17  1  0.750000  0.151160  0.662834  1
  I  I18  1  0.250000  0.848840  0.337166  1
  I  I19  1  0.967572  0.257377  0.412652  1
  I  I20  1  0.750000  0.885473  0.522904  1
  I  I21  1  0.967572  0.757377  0.087348  1
  I  I22  1  0.250000  0.101688  0.243699  1
  I  I23  1  0.750000  0.112404  0.073650  1
  I  I24  1  0.750000  0.651160  0.837166  1
  I  I25  1  0.750000  0.398312  0.743699  1
  I  I26  1  0.250000  0.614527  0.022904  1
  I  I27  1  0.032428  0.742623  0.587348  1
  I  I28  1  0.750000  0.385473  0.977096  1
  I  I29  1  0.250000  0.387596  0.573650  1
  I  I30  1  0.250000  0.106901  0.748332  1
  I  I31  1  0.032428  0.242623  0.912652  1
