# generated using pymatgen
data_Nd5(Th3Os2)3
_symmetry_space_group_name_H-M   'P 1'
_cell_length_a   9.92705142
_cell_length_b   10.13128171
_cell_length_c   6.41974639
_cell_angle_alpha   89.40746986
_cell_angle_beta   90.59869226
_cell_angle_gamma   120.64714429
_symmetry_Int_Tables_number   1
_chemical_formula_structural   Nd5(Th3Os2)3
_chemical_formula_sum   'Nd5 Th9 Os6'
_cell_volume   555.43458827
_cell_formula_units_Z   1
loop_
 _symmetry_equiv_pos_site_id
 _symmetry_equiv_pos_as_xyz
  1  'x, y, z'
loop_
 _atom_site_type_symbol
 _atom_site_label
 _atom_site_symmetry_multiplicity
 _atom_site_fract_x
 _atom_site_fract_y
 _atom_site_fract_z
 _atom_site_occupancy
  Nd  Nd0  1  0.461877  0.536724  0.299668  1
  Nd  Nd1  1  0.072941  0.535386  0.295910  1
  Nd  Nd2  1  0.925413  0.460396  0.794389  1
  Nd  Nd3  1  0.250532  0.125784  0.509414  1
  Nd  Nd4  1  0.539732  0.075105  0.796262  1
  Th  Th5  1  0.748833  0.874784  0.010195  1
  Th  Th6  1  0.666091  0.332911  0.266719  1
  Th  Th7  1  0.128415  0.874157  0.002472  1
  Th  Th8  1  0.462210  0.924118  0.304121  1
  Th  Th9  1  0.535209  0.463191  0.801673  1
  Th  Th10  1  0.876542  0.129770  0.506869  1
  Th  Th11  1  0.124750  0.249265  0.005161  1
  Th  Th12  1  0.875111  0.747185  0.506880  1
  Th  Th13  1  0.333395  0.667235  0.768596  1
  Os  Os14  1  0.810022  0.631599  0.045631  1
  Os  Os15  1  0.814925  0.179428  0.061869  1
  Os  Os16  1  0.633834  0.819338  0.547265  1
  Os  Os17  1  0.371609  0.189984  0.042178  1
  Os  Os18  1  0.183372  0.374187  0.568084  1
  Os  Os19  1  0.185188  0.809454  0.550643  1
