# generated using pymatgen
data_YbDy3Y2HoFeI12
_symmetry_space_group_name_H-M   'P 1'
_cell_length_a   9.80396885
_cell_length_b   9.72332598
_cell_length_c   9.72799414
_cell_angle_alpha   106.72484832
_cell_angle_beta   106.86404701
_cell_angle_gamma   107.15712224
_symmetry_Int_Tables_number   1
_chemical_formula_structural   YbDy3Y2HoFeI12
_chemical_formula_sum   'Yb1 Dy3 Y2 Ho1 Fe1 I12'
_cell_volume   774.06730448
_cell_formula_units_Z   1
loop_
 _symmetry_equiv_pos_site_id
 _symmetry_equiv_pos_as_xyz
  1  'x, y, z'
loop_
 _atom_site_type_symbol
 _atom_site_label
 _atom_site_symmetry_multiplicity
 _atom_site_fract_x
 _atom_site_fract_y
 _atom_site_fract_z
 _atom_site_occupancy
  Yb  Yb0  1  0.499987  0.500001  0.500029  1
  Dy  Dy1  1  0.975863  0.907433  0.713784  1
  Dy  Dy2  1  0.092249  0.286816  0.023942  1
  Dy  Dy3  1  0.300508  0.024508  0.096878  1
  Y  Y4  1  0.907036  0.712709  0.975724  1
  Y  Y5  1  0.024163  0.092929  0.286709  1
  Ho  Ho6  1  0.701591  0.975522  0.903430  1
  Fe  Fe7  1  0.000343  0.000236  0.999586  1
  I  I8  1  0.072830  0.224213  0.682619  1
  I  I9  1  0.377380  0.149855  0.456661  1
  I  I10  1  0.622575  0.850641  0.544537  1
  I  I11  1  0.222697  0.680423  0.072151  1
  I  I12  1  0.776410  0.318344  0.927720  1
  I  I13  1  0.681503  0.072667  0.224542  1
  I  I14  1  0.544884  0.622170  0.850694  1
  I  I15  1  0.848833  0.544138  0.621180  1
  I  I16  1  0.927106  0.775700  0.317568  1
  I  I17  1  0.318167  0.926924  0.774263  1
  I  I18  1  0.454764  0.378931  0.149304  1
  I  I19  1  0.151113  0.455841  0.378678  1
