# generated using pymatgen
data_Ti5Fe5Co5GeB4
_symmetry_space_group_name_H-M   'P 1'
_cell_length_a   8.58474200
_cell_length_b   8.55216968
_cell_length_c   2.91695900
_cell_angle_alpha   90.00000000
_cell_angle_beta   90.00000000
_cell_angle_gamma   90.07201867
_symmetry_Int_Tables_number   1
_chemical_formula_structural   Ti5Fe5Co5GeB4
_chemical_formula_sum   'Ti5 Fe5 Co5 Ge1 B4'
_cell_volume   214.15762318
_cell_formula_units_Z   1
loop_
 _symmetry_equiv_pos_site_id
 _symmetry_equiv_pos_as_xyz
  1  'x, y, z'
loop_
 _atom_site_type_symbol
 _atom_site_label
 _atom_site_symmetry_multiplicity
 _atom_site_fract_x
 _atom_site_fract_y
 _atom_site_fract_z
 _atom_site_occupancy
  Ti  Ti0  1  0.500642  0.499157  0.000000  1
  Ti  Ti1  1  0.831830  0.320742  0.000000  1
  Ti  Ti2  1  0.320916  0.169109  0.000000  1
  Ti  Ti3  1  0.674577  0.831764  0.000000  1
  Ti  Ti4  1  0.172219  0.676656  0.000000  1
  Fe  Fe5  1  0.499231  0.000012  0.500000  1
  Fe  Fe6  1  0.000396  0.502075  0.500000  1
  Fe  Fe7  1  0.072999  0.217854  0.500000  1
  Fe  Fe8  1  0.215963  0.925129  0.500000  1
  Fe  Fe9  1  0.782927  0.071299  0.500000  1
  Co  Co10  1  0.926192  0.783118  0.500000  1
  Co  Co11  1  0.430450  0.718590  0.500000  1
  Co  Co12  1  0.570803  0.280823  0.500000  1
  Co  Co13  1  0.719900  0.572022  0.500000  1
  Co  Co14  1  0.281208  0.430460  0.500000  1
  Ge  Ge15  1  0.000084  0.000815  0.000000  1
  B  B16  1  0.623041  0.121862  0.000000  1
  B  B17  1  0.122340  0.377667  0.000000  1
  B  B18  1  0.877652  0.623048  0.000000  1
  B  B19  1  0.376627  0.877796  0.000000  1
