# generated using pymatgen
data_Ho2Al5ZnCu4
_symmetry_space_group_name_H-M   'P 1'
_cell_length_a   4.06031000
_cell_length_b   5.25028300
_cell_length_c   9.21331400
_cell_angle_alpha   90.00000000
_cell_angle_beta   90.00000000
_cell_angle_gamma   90.00000000
_symmetry_Int_Tables_number   1
_chemical_formula_structural   Ho2Al5ZnCu4
_chemical_formula_sum   'Ho2 Al5 Zn1 Cu4'
_cell_volume   196.40736930
_cell_formula_units_Z   1
loop_
 _symmetry_equiv_pos_site_id
 _symmetry_equiv_pos_as_xyz
  1  'x, y, z'
loop_
 _atom_site_type_symbol
 _atom_site_label
 _atom_site_symmetry_multiplicity
 _atom_site_fract_x
 _atom_site_fract_y
 _atom_site_fract_z
 _atom_site_occupancy
  Ho  Ho0  1  0.000000  0.500000  0.000000  1
  Ho  Ho1  1  0.000000  0.000000  0.500000  1
  Al  Al2  1  0.500000  0.000000  0.000000  1
  Al  Al3  1  0.500000  0.750522  0.254449  1
  Al  Al4  1  0.500000  0.249478  0.745551  1
  Al  Al5  1  0.500000  0.249478  0.254449  1
  Al  Al6  1  0.500000  0.750522  0.745551  1
  Zn  Zn7  1  0.500000  0.500000  0.500000  1
  Cu  Cu8  1  0.000000  0.500000  0.331116  1
  Cu  Cu9  1  0.000000  0.000000  0.831750  1
  Cu  Cu10  1  0.000000  0.000000  0.168250  1
  Cu  Cu11  1  0.000000  0.500000  0.668884  1
