# generated using pymatgen
data_Ti12Al5Si3(PtN)4
_symmetry_space_group_name_H-M   'P 1'
_cell_length_a   8.13661736
_cell_length_b   8.13136188
_cell_length_c   8.13661617
_cell_angle_alpha   59.99286052
_cell_angle_beta   60.02249560
_cell_angle_gamma   59.99285875
_symmetry_Int_Tables_number   1
_chemical_formula_structural   Ti12Al5Si3(PtN)4
_chemical_formula_sum   'Ti12 Al5 Si3 Pt4 N4'
_cell_volume   380.68248710
_cell_formula_units_Z   1
loop_
 _symmetry_equiv_pos_site_id
 _symmetry_equiv_pos_as_xyz
  1  'x, y, z'
loop_
 _atom_site_type_symbol
 _atom_site_label
 _atom_site_symmetry_multiplicity
 _atom_site_fract_x
 _atom_site_fract_y
 _atom_site_fract_z
 _atom_site_occupancy
  Ti  Ti0  1  0.818074  0.818450  0.185216  1
  Ti  Ti1  1  0.068339  0.431801  0.431224  1
  Ti  Ti2  1  0.432190  0.064430  0.071027  1
  Ti  Ti3  1  0.071027  0.064430  0.432190  1
  Ti  Ti4  1  0.068752  0.431442  0.068752  1
  Ti  Ti5  1  0.432417  0.064142  0.432417  1
  Ti  Ti6  1  0.182331  0.817676  0.182331  1
  Ti  Ti7  1  0.185216  0.818450  0.818074  1
  Ti  Ti8  1  0.818438  0.178099  0.184762  1
  Ti  Ti9  1  0.819621  0.180527  0.819621  1
  Ti  Ti10  1  0.431224  0.431801  0.068339  1
  Ti  Ti11  1  0.184762  0.178099  0.818438  1
  Al  Al12  1  0.836643  0.834536  0.836643  1
  Al  Al13  1  0.753928  0.413976  0.415926  1
  Al  Al14  1  0.415198  0.413046  0.415198  1
  Al  Al15  1  0.415926  0.413976  0.753928  1
  Al  Al16  1  0.835777  0.495143  0.835777  1
  Si  Si17  1  0.413523  0.759187  0.413523  1
  Si  Si18  1  0.840258  0.836499  0.487264  1
  Si  Si19  1  0.487264  0.836499  0.840258  1
  Pt  Pt20  1  0.625068  0.117186  0.625068  1
  Pt  Pt21  1  0.618883  0.631406  0.124586  1
  Pt  Pt22  1  0.124586  0.631406  0.618883  1
  Pt  Pt23  1  0.622539  0.634621  0.622539  1
  N  N24  1  0.124444  0.626011  0.124444  1
  N  N25  1  0.124926  0.125702  0.623993  1
  N  N26  1  0.623993  0.125702  0.124926  1
  N  N27  1  0.124653  0.125755  0.124653  1
