# generated using pymatgen
data_La6Pr3Nd(Sn3Br)2
_symmetry_space_group_name_H-M   'P 1'
_cell_length_a   9.68111100
_cell_length_b   9.68111206
_cell_length_c   6.93725800
_cell_angle_alpha   90.00000000
_cell_angle_beta   90.00000000
_cell_angle_gamma   119.99999979
_symmetry_Int_Tables_number   1
_chemical_formula_structural   La6Pr3Nd(Sn3Br)2
_chemical_formula_sum   'La6 Pr3 Nd1 Sn6 Br2'
_cell_volume   563.07847520
_cell_formula_units_Z   1
loop_
 _symmetry_equiv_pos_site_id
 _symmetry_equiv_pos_as_xyz
  1  'x, y, z'
loop_
 _atom_site_type_symbol
 _atom_site_label
 _atom_site_symmetry_multiplicity
 _atom_site_fract_x
 _atom_site_fract_y
 _atom_site_fract_z
 _atom_site_occupancy
  La  La0  1  0.268800  0.268760  0.750031  1
  La  La1  1  0.999959  0.731200  0.750031  1
  La  La2  1  0.731240  0.000041  0.750031  1
  La  La3  1  0.999959  0.268760  0.249969  1
  La  La4  1  0.731240  0.731200  0.249969  1
  La  La5  1  0.268800  0.000041  0.249969  1
  Pr  Pr6  1  0.333333  0.666667  0.500000  1
  Pr  Pr7  1  0.666667  0.333333  0.500000  1
  Pr  Pr8  1  0.333333  0.666667  0.000000  1
  Nd  Nd9  1  0.666667  0.333333  0.000000  1
  Sn  Sn10  1  0.613169  0.000164  0.249898  1
  Sn  Sn11  1  0.999836  0.386831  0.750102  1
  Sn  Sn12  1  0.386995  0.000164  0.750102  1
  Sn  Sn13  1  0.613169  0.613005  0.750102  1
  Sn  Sn14  1  0.999836  0.613005  0.249898  1
  Sn  Sn15  1  0.386995  0.386831  0.249898  1
  Br  Br16  1  0.000000  0.000000  0.000000  1
  Br  Br17  1  0.000000  0.000000  0.500000  1
