# generated using pymatgen
data_TbLuAl2IrPd
_symmetry_space_group_name_H-M   'P 1'
_cell_length_a   4.31437200
_cell_length_b   6.82337300
_cell_length_c   7.87425200
_cell_angle_alpha   90.00000000
_cell_angle_beta   90.00000000
_cell_angle_gamma   90.00000000
_symmetry_Int_Tables_number   1
_chemical_formula_structural   TbLuAl2IrPd
_chemical_formula_sum   'Tb2 Lu2 Al4 Ir2 Pd2'
_cell_volume   231.80671411
_cell_formula_units_Z   2
loop_
 _symmetry_equiv_pos_site_id
 _symmetry_equiv_pos_as_xyz
  1  'x, y, z'
loop_
 _atom_site_type_symbol
 _atom_site_label
 _atom_site_symmetry_multiplicity
 _atom_site_fract_x
 _atom_site_fract_y
 _atom_site_fract_z
 _atom_site_occupancy
  Tb  Tb0  1  0.250000  0.034418  0.324082  1
  Tb  Tb1  1  0.250000  0.534418  0.175918  1
  Lu  Lu2  1  0.750000  0.972799  0.683497  1
  Lu  Lu3  1  0.750000  0.472799  0.816503  1
  Al  Al4  1  0.250000  0.138025  0.933379  1
  Al  Al5  1  0.250000  0.638025  0.566621  1
  Al  Al6  1  0.750000  0.856522  0.055529  1
  Al  Al7  1  0.750000  0.356522  0.444471  1
  Ir  Ir8  1  0.250000  0.266382  0.623168  1
  Ir  Ir9  1  0.250000  0.766382  0.876832  1
  Pd  Pd10  1  0.750000  0.731855  0.381016  1
  Pd  Pd11  1  0.750000  0.231855  0.118984  1
