# generated using pymatgen
data_SmPdAuO4
_symmetry_space_group_name_H-M   'P 1'
_cell_length_a   6.61757649
_cell_length_b   6.61757613
_cell_length_c   6.61156213
_cell_angle_alpha   125.44252399
_cell_angle_beta   126.10969628
_cell_angle_gamma   80.31934720
_symmetry_Int_Tables_number   1
_chemical_formula_structural   SmPdAuO4
_chemical_formula_sum   'Sm2 Pd2 Au2 O8'
_cell_volume   183.82109534
_cell_formula_units_Z   2
loop_
 _symmetry_equiv_pos_site_id
 _symmetry_equiv_pos_as_xyz
  1  'x, y, z'
loop_
 _atom_site_type_symbol
 _atom_site_label
 _atom_site_symmetry_multiplicity
 _atom_site_fract_x
 _atom_site_fract_y
 _atom_site_fract_z
 _atom_site_occupancy
  Sm  Sm0  1  0.751572  0.251572  0.500000  1
  Sm  Sm1  1  0.998428  0.998428  0.000000  1
  Pd  Pd2  1  0.375000  0.625000  0.250000  1
  Pd  Pd3  1  0.375000  0.125000  0.750000  1
  Au  Au4  1  0.875000  0.625000  0.250000  1
  Au  Au5  1  0.375000  0.625000  0.750000  1
  O  O6  1  0.608321  0.961142  0.964492  1
  O  O7  1  0.395898  0.856957  0.146624  1
  O  O8  1  0.710335  0.249274  0.853376  1
  O  O9  1  0.996649  0.643829  0.035508  1
  O  O10  1  0.141679  0.288858  0.535508  1
  O  O11  1  0.354102  0.393043  0.353376  1
  O  O12  1  0.753351  0.606171  0.464492  1
  O  O13  1  0.039665  0.000726  0.646624  1
