# generated using pymatgen
data_Nd16Cd2TcHg2Pt3
_symmetry_space_group_name_H-M   'P 1'
_cell_length_a   10.02291810
_cell_length_b   10.02283007
_cell_length_c   10.03823600
_cell_angle_alpha   59.42940175
_cell_angle_beta   59.43155821
_cell_angle_gamma   59.51706579
_symmetry_Int_Tables_number   1
_chemical_formula_structural   Nd16Cd2TcHg2Pt3
_chemical_formula_sum   'Nd16 Cd2 Tc1 Hg2 Pt3'
_cell_volume   704.29037720
_cell_formula_units_Z   1
loop_
 _symmetry_equiv_pos_site_id
 _symmetry_equiv_pos_as_xyz
  1  'x, y, z'
loop_
 _atom_site_type_symbol
 _atom_site_label
 _atom_site_symmetry_multiplicity
 _atom_site_fract_x
 _atom_site_fract_y
 _atom_site_fract_z
 _atom_site_occupancy
  Nd  Nd0  1  0.352416  0.352422  0.351863  1
  Nd  Nd1  1  0.348121  0.348113  0.953075  1
  Nd  Nd2  1  0.348740  0.951386  0.348445  1
  Nd  Nd3  1  0.951382  0.348740  0.348451  1
  Nd  Nd4  1  0.815582  0.188114  0.189405  1
  Nd  Nd5  1  0.188695  0.806873  0.807229  1
  Nd  Nd6  1  0.188115  0.815585  0.189401  1
  Nd  Nd7  1  0.806877  0.188691  0.807229  1
  Nd  Nd8  1  0.188287  0.188293  0.815959  1
  Nd  Nd9  1  0.805677  0.805677  0.190457  1
  Nd  Nd10  1  0.936102  0.563694  0.564479  1
  Nd  Nd11  1  0.556290  0.938012  0.938676  1
  Nd  Nd12  1  0.563694  0.936103  0.564480  1
  Nd  Nd13  1  0.938012  0.556294  0.938670  1
  Nd  Nd14  1  0.563531  0.563528  0.937743  1
  Nd  Nd15  1  0.937955  0.937953  0.556980  1
  Cd  Cd16  1  0.579500  0.258348  0.580426  1
  Cd  Cd17  1  0.258350  0.579501  0.580425  1
  Tc  Tc18  1  0.141898  0.141898  0.142408  1
  Hg  Hg19  1  0.583036  0.583034  0.585388  1
  Hg  Hg20  1  0.583976  0.583977  0.244802  1
  Pt  Pt21  1  0.145071  0.145070  0.573694  1
  Pt  Pt22  1  0.144911  0.573781  0.145157  1
  Pt  Pt23  1  0.573780  0.144912  0.145162  1
