# generated using pymatgen
data_HoLu11Co5Pb
_symmetry_space_group_name_H-M   'P 1'
_cell_length_a   8.11003034
_cell_length_b   8.11552585
_cell_length_c   8.11552579
_cell_angle_alpha   110.99806293
_cell_angle_beta   110.99283444
_cell_angle_gamma   106.48995322
_symmetry_Int_Tables_number   1
_chemical_formula_structural   HoLu11Co5Pb
_chemical_formula_sum   'Ho1 Lu11 Co5 Pb1'
_cell_volume   410.21337907
_cell_formula_units_Z   1
loop_
 _symmetry_equiv_pos_site_id
 _symmetry_equiv_pos_as_xyz
  1  'x, y, z'
loop_
 _atom_site_type_symbol
 _atom_site_label
 _atom_site_symmetry_multiplicity
 _atom_site_fract_x
 _atom_site_fract_y
 _atom_site_fract_z
 _atom_site_occupancy
  Ho  Ho0  1  0.018436  0.212654  0.805782  1
  Lu  Lu1  1  0.814854  0.712501  0.528258  1
  Lu  Lu2  1  0.184252  0.285708  0.469287  1
  Lu  Lu3  1  0.184252  0.714964  0.898544  1
  Lu  Lu4  1  0.814854  0.286597  0.102353  1
  Lu  Lu5  1  0.686633  0.381359  0.693078  1
  Lu  Lu6  1  0.313457  0.619862  0.307614  1
  Lu  Lu7  1  0.686633  0.993555  0.305273  1
  Lu  Lu8  1  0.313457  0.005844  0.693598  1
  Lu  Lu9  1  0.593140  0.787443  0.805697  1
  Lu  Lu10  1  0.407737  0.212294  0.195443  1
  Lu  Lu11  1  0.982521  0.787737  0.194784  1
  Co  Co12  1  0.623543  0.999269  0.624273  1
  Co  Co13  1  0.375282  0.000484  0.374798  1
  Co  Co14  1  0.113531  0.613108  0.500423  1
  Co  Co15  1  0.886024  0.387335  0.498691  1
  Co  Co16  1  0.000332  0.998744  0.001588  1
  Pb  Pb17  1  0.501062  0.500546  0.000517  1
