# generated using pymatgen
data_Tl4(BSe)9
_symmetry_space_group_name_H-M   'P 1'
_cell_length_a   10.34609933
_cell_length_b   10.50497871
_cell_length_c   10.87397800
_cell_angle_alpha   91.86274744
_cell_angle_beta   104.15085777
_cell_angle_gamma   109.60202222
_symmetry_Int_Tables_number   1
_chemical_formula_structural   Tl4(BSe)9
_chemical_formula_sum   'Tl8 B18 Se18'
_cell_volume   1071.04889642
_cell_formula_units_Z   2
loop_
 _symmetry_equiv_pos_site_id
 _symmetry_equiv_pos_as_xyz
  1  'x, y, z'
loop_
 _atom_site_type_symbol
 _atom_site_label
 _atom_site_symmetry_multiplicity
 _atom_site_fract_x
 _atom_site_fract_y
 _atom_site_fract_z
 _atom_site_occupancy
  Tl  Tl0  1  0.370392  0.000997  0.631064  1
  Tl  Tl1  1  0.629608  0.999003  0.368936  1
  Tl  Tl2  1  0.393133  0.616393  0.878186  1
  Tl  Tl3  1  0.606867  0.383607  0.121814  1
  Tl  Tl4  1  0.299955  0.391953  0.534696  1
  Tl  Tl5  1  0.700045  0.608047  0.465304  1
  Tl  Tl6  1  0.106573  0.570049  0.275710  1
  Tl  Tl7  1  0.893427  0.429951  0.724290  1
  B  B8  1  0.872467  0.858387  0.913231  1
  B  B9  1  0.127533  0.141613  0.086769  1
  B  B10  1  0.876298  0.022753  0.876000  1
  B  B11  1  0.123702  0.977247  0.124000  1
  B  B12  1  0.835147  0.964812  0.018705  1
  B  B13  1  0.164853  0.035188  0.981295  1
  B  B14  1  0.941495  0.867154  0.081587  1
  B  B15  1  0.058505  0.132846  0.918413  1
  B  B16  1  0.050166  0.864352  0.977702  1
  B  B17  1  0.949834  0.135648  0.022298  1
  B  B18  1  0.010583  0.961129  0.851888  1
  B  B19  1  0.989417  0.038871  0.148112  1
  B  B20  1  0.637103  0.818682  0.680525  1
  B  B21  1  0.362897  0.181318  0.319475  1
  B  B22  1  0.667433  0.753554  0.147777  1
  B  B23  1  0.332567  0.246446  0.852223  1
  B  B24  1  0.090751  0.747197  0.742917  1
  B  B25  1  0.909249  0.252803  0.257083  1
  Se  Se26  1  0.713126  0.703651  0.795283  1
  Se  Se27  1  0.286874  0.296349  0.204717  1
  Se  Se28  1  0.720244  0.019484  0.721239  1
  Se  Se29  1  0.279756  0.980516  0.278761  1
  Se  Se30  1  0.643062  0.905673  0.054213  1
  Se  Se31  1  0.356938  0.094327  0.945787  1
  Se  Se32  1  0.848878  0.718873  0.177663  1
  Se  Se33  1  0.151122  0.281127  0.822337  1
  Se  Se34  1  0.107611  0.710403  0.923503  1
  Se  Se35  1  0.892389  0.289597  0.076497  1
  Se  Se36  1  0.029100  0.897692  0.682065  1
  Se  Se37  1  0.970900  0.102308  0.317935  1
  Se  Se38  1  0.484212  0.739812  0.526215  1
  Se  Se39  1  0.515788  0.260188  0.473785  1
  Se  Se40  1  0.510731  0.635045  0.202456  1
  Se  Se41  1  0.489269  0.364955  0.797544  1
  Se  Se42  1  0.126395  0.627663  0.627854  1
  Se  Se43  1  0.873605  0.372337  0.372146  1
