# generated using pymatgen
data_Sm3Th(Si3Ni5)4
_symmetry_space_group_name_H-M   'P 1'
_cell_length_a   3.84206800
_cell_length_b   6.60025803
_cell_length_c   18.88207146
_cell_angle_alpha   90.08536881
_cell_angle_beta   90.00000000
_cell_angle_gamma   90.00000000
_symmetry_Int_Tables_number   1
_chemical_formula_structural   Sm3Th(Si3Ni5)4
_chemical_formula_sum   'Sm3 Th1 Si12 Ni20'
_cell_volume   478.82312403
_cell_formula_units_Z   1
loop_
 _symmetry_equiv_pos_site_id
 _symmetry_equiv_pos_as_xyz
  1  'x, y, z'
loop_
 _atom_site_type_symbol
 _atom_site_label
 _atom_site_symmetry_multiplicity
 _atom_site_fract_x
 _atom_site_fract_y
 _atom_site_fract_z
 _atom_site_occupancy
  Sm  Sm0  1  0.750000  0.123522  0.643941  1
  Sm  Sm1  1  0.750000  0.375982  0.143301  1
  Sm  Sm2  1  0.250000  0.624556  0.856537  1
  Th  Th3  1  0.250000  0.876012  0.356509  1
  Si  Si4  1  0.250000  0.075788  0.085738  1
  Si  Si5  1  0.750000  0.925647  0.913393  1
  Si  Si6  1  0.750000  0.567228  0.414475  1
  Si  Si7  1  0.250000  0.428107  0.589021  1
  Si  Si8  1  0.250000  0.656632  0.071751  1
  Si  Si9  1  0.750000  0.341649  0.926533  1
  Si  Si10  1  0.750000  0.162375  0.429532  1
  Si  Si11  1  0.250000  0.841587  0.572601  1
  Si  Si12  1  0.250000  0.382120  0.263195  1
  Si  Si13  1  0.750000  0.618338  0.736738  1
  Si  Si14  1  0.750000  0.882147  0.232881  1
  Si  Si15  1  0.250000  0.117555  0.764062  1
  Ni  Ni16  1  0.250000  0.073112  0.206539  1
  Ni  Ni17  1  0.750000  0.928123  0.792622  1
  Ni  Ni18  1  0.750000  0.573840  0.292350  1
  Ni  Ni19  1  0.250000  0.428329  0.709301  1
  Ni  Ni20  1  0.250000  0.606933  0.484273  1
  Ni  Ni21  1  0.750000  0.389956  0.519102  1
  Ni  Ni22  1  0.750000  0.112892  0.015609  1
  Ni  Ni23  1  0.250000  0.888375  0.983493  1
  Ni  Ni24  1  0.250000  0.688596  0.197841  1
  Ni  Ni25  1  0.750000  0.310599  0.801108  1
  Ni  Ni26  1  0.750000  0.187928  0.301440  1
  Ni  Ni27  1  0.250000  0.810994  0.699032  1
  Ni  Ni28  1  0.250000  0.352867  0.384157  1
  Ni  Ni29  1  0.750000  0.649806  0.616104  1
  Ni  Ni30  1  0.750000  0.852781  0.112890  1
  Ni  Ni31  1  0.250000  0.145850  0.884743  1
  Ni  Ni32  1  0.250000  0.362999  0.004593  1
  Ni  Ni33  1  0.750000  0.635736  0.993775  1
  Ni  Ni34  1  0.750000  0.861915  0.494327  1
  Ni  Ni35  1  0.250000  0.139121  0.506494  1
