# generated using pymatgen
data_KBa2Mn2(Co2P3)2
_symmetry_space_group_name_H-M   'P 1'
_cell_length_a   5.34818973
_cell_length_b   6.89269961
_cell_length_c   8.45236373
_cell_angle_alpha   111.48325611
_cell_angle_beta   108.44368103
_cell_angle_gamma   89.99999765
_symmetry_Int_Tables_number   1
_chemical_formula_structural   KBa2Mn2(Co2P3)2
_chemical_formula_sum   'K1 Ba2 Mn2 Co4 P6'
_cell_volume   272.66391149
_cell_formula_units_Z   1
loop_
 _symmetry_equiv_pos_site_id
 _symmetry_equiv_pos_as_xyz
  1  'x, y, z'
loop_
 _atom_site_type_symbol
 _atom_site_label
 _atom_site_symmetry_multiplicity
 _atom_site_fract_x
 _atom_site_fract_y
 _atom_site_fract_z
 _atom_site_occupancy
  K  K0  1  0.999017  0.000000  0.000000  1
  Ba  Ba1  1  0.662142  0.997752  0.321819  1
  Ba  Ba2  1  0.340322  0.002248  0.678181  1
  Mn  Mn3  1  0.416946  0.500159  0.334933  1
  Mn  Mn4  1  0.082011  0.499841  0.665067  1
  Co  Co5  1  0.751189  0.500000  0.000000  1
  Co  Co6  1  0.583839  0.498616  0.667685  1
  Co  Co7  1  0.249121  0.500000  0.000000  1
  Co  Co8  1  0.916156  0.501384  0.332315  1
  P  P9  1  0.219197  0.314979  0.439082  1
  P  P10  1  0.887974  0.319939  0.770601  1
  P  P11  1  0.552179  0.322276  0.109760  1
  P  P12  1  0.780115  0.685021  0.560918  1
  P  P13  1  0.442421  0.677724  0.890240  1
  P  P14  1  0.117371  0.680061  0.229399  1
