# generated using pymatgen
data_La5Pr3Sb20
_symmetry_space_group_name_H-M   'P 1'
_cell_length_a   4.33377800
_cell_length_b   13.68489588
_cell_length_c   15.41842100
_cell_angle_alpha   78.21277639
_cell_angle_beta   90.00000000
_cell_angle_gamma   90.00000000
_symmetry_Int_Tables_number   1
_chemical_formula_structural   La5Pr3Sb20
_chemical_formula_sum   'La5 Pr3 Sb20'
_cell_volume   895.14241990
_cell_formula_units_Z   1
loop_
 _symmetry_equiv_pos_site_id
 _symmetry_equiv_pos_as_xyz
  1  'x, y, z'
loop_
 _atom_site_type_symbol
 _atom_site_label
 _atom_site_symmetry_multiplicity
 _atom_site_fract_x
 _atom_site_fract_y
 _atom_site_fract_z
 _atom_site_occupancy
  La  La0  1  0.750000  0.330477  0.143330  1
  La  La1  1  0.250000  0.948036  0.367353  1
  La  La2  1  0.250000  0.668866  0.857153  1
  La  La3  1  0.250000  0.667731  0.577824  1
  La  La4  1  0.750000  0.053359  0.632346  1
  Pr  Pr5  1  0.750000  0.333154  0.421506  1
  Pr  Pr6  1  0.250000  0.397953  0.770762  1
  Pr  Pr7  1  0.750000  0.600715  0.228673  1
  Sb  Sb8  1  0.750000  0.858232  0.815014  1
  Sb  Sb9  1  0.250000  0.863901  0.675066  1
  Sb  Sb10  1  0.250000  0.148200  0.474157  1
  Sb  Sb11  1  0.750000  0.288032  0.935022  1
  Sb  Sb12  1  0.250000  0.148393  0.775899  1
  Sb  Sb13  1  0.750000  0.574664  0.442649  1
  Sb  Sb14  1  0.750000  0.137665  0.326430  1
  Sb  Sb15  1  0.250000  0.702074  0.355252  1
  Sb  Sb16  1  0.750000  0.297110  0.642692  1
  Sb  Sb17  1  0.750000  0.851662  0.224626  1
  Sb  Sb18  1  0.250000  0.419907  0.973525  1
  Sb  Sb19  1  0.250000  0.424565  0.555928  1
  Sb  Sb20  1  0.750000  0.578013  0.736731  1
  Sb  Sb21  1  0.250000  0.420188  0.264712  1
  Sb  Sb22  1  0.750000  0.854829  0.525705  1
  Sb  Sb23  1  0.750000  0.038871  0.881829  1
  Sb  Sb24  1  0.250000  0.710837  0.064529  1
  Sb  Sb25  1  0.250000  0.961571  0.119144  1
  Sb  Sb26  1  0.250000  0.142260  0.185938  1
  Sb  Sb27  1  0.750000  0.578734  0.026204  1
