# generated using pymatgen
data_TbHo3(In2Pd3)4
_symmetry_space_group_name_H-M   'P 1'
_cell_length_a   4.62316400
_cell_length_b   9.74915370
_cell_length_c   10.42689972
_cell_angle_alpha   90.04308632
_cell_angle_beta   90.00000000
_cell_angle_gamma   90.00000000
_symmetry_Int_Tables_number   1
_chemical_formula_structural   TbHo3(In2Pd3)4
_chemical_formula_sum   'Tb1 Ho3 In8 Pd12'
_cell_volume   469.96042857
_cell_formula_units_Z   1
loop_
 _symmetry_equiv_pos_site_id
 _symmetry_equiv_pos_as_xyz
  1  'x, y, z'
loop_
 _atom_site_type_symbol
 _atom_site_label
 _atom_site_symmetry_multiplicity
 _atom_site_fract_x
 _atom_site_fract_y
 _atom_site_fract_z
 _atom_site_occupancy
  Tb  Tb0  1  0.750000  0.947689  0.775821  1
  Ho  Ho1  1  0.250000  0.447028  0.722370  1
  Ho  Ho2  1  0.250000  0.052740  0.222681  1
  Ho  Ho3  1  0.750000  0.552823  0.277569  1
  In  In4  1  0.250000  0.887000  0.512501  1
  In  In5  1  0.250000  0.613065  0.012154  1
  In  In6  1  0.750000  0.113036  0.487096  1
  In  In7  1  0.750000  0.387005  0.988291  1
  In  In8  1  0.250000  0.165581  0.895231  1
  In  In9  1  0.250000  0.334680  0.395025  1
  In  In10  1  0.750000  0.834593  0.105100  1
  In  In11  1  0.750000  0.664959  0.604669  1
  Pd  Pd12  1  0.250000  0.144541  0.626227  1
  Pd  Pd13  1  0.250000  0.356619  0.126966  1
  Pd  Pd14  1  0.750000  0.856344  0.373493  1
  Pd  Pd15  1  0.750000  0.642429  0.873154  1
  Pd  Pd16  1  0.250000  0.744604  0.739946  1
  Pd  Pd17  1  0.250000  0.753931  0.239886  1
  Pd  Pd18  1  0.750000  0.254150  0.260315  1
  Pd  Pd19  1  0.750000  0.247460  0.760315  1
  Pd  Pd20  1  0.250000  0.896711  0.973508  1
  Pd  Pd21  1  0.250000  0.602952  0.472627  1
  Pd  Pd22  1  0.750000  0.103379  0.027883  1
  Pd  Pd23  1  0.750000  0.396677  0.527172  1
