# generated using pymatgen
data_Li2Dy16In2CoIr3
_symmetry_space_group_name_H-M   'P 1'
_cell_length_a   9.58225889
_cell_length_b   9.58225927
_cell_length_c   9.60558461
_cell_angle_alpha   60.26053233
_cell_angle_beta   60.26053212
_cell_angle_gamma   60.15480566
_symmetry_Int_Tables_number   1
_chemical_formula_structural   Li2Dy16In2CoIr3
_chemical_formula_sum   'Li2 Dy16 In2 Co1 Ir3'
_cell_volume   626.83490038
_cell_formula_units_Z   1
loop_
 _symmetry_equiv_pos_site_id
 _symmetry_equiv_pos_as_xyz
  1  'x, y, z'
loop_
 _atom_site_type_symbol
 _atom_site_label
 _atom_site_symmetry_multiplicity
 _atom_site_fract_x
 _atom_site_fract_y
 _atom_site_fract_z
 _atom_site_occupancy
  Li  Li0  1  0.821946  0.821946  0.825340  1
  Li  Li1  1  0.822504  0.822504  0.530083  1
  Dy  Dy2  1  0.599051  0.599051  0.601113  1
  Dy  Dy3  1  0.595703  0.595703  0.204057  1
  Dy  Dy4  1  0.592898  0.211622  0.594443  1
  Dy  Dy5  1  0.211622  0.592898  0.594443  1
  Dy  Dy6  1  0.066925  0.438121  0.438598  1
  Dy  Dy7  1  0.438620  0.062080  0.059729  1
  Dy  Dy8  1  0.438121  0.066925  0.438598  1
  Dy  Dy9  1  0.062080  0.438620  0.059729  1
  Dy  Dy10  1  0.441321  0.441321  0.062564  1
  Dy  Dy11  1  0.066439  0.066439  0.433033  1
  Dy  Dy12  1  0.187895  0.811134  0.811320  1
  Dy  Dy13  1  0.812870  0.187121  0.188238  1
  Dy  Dy14  1  0.811134  0.187895  0.811320  1
  Dy  Dy15  1  0.187121  0.812870  0.188238  1
  Dy  Dy16  1  0.810149  0.810149  0.189867  1
  Dy  Dy17  1  0.186088  0.186088  0.814730  1
  In  In18  1  0.834980  0.506535  0.829630  1
  In  In19  1  0.506535  0.834980  0.829630  1
  Co  Co20  1  0.393165  0.393165  0.387805  1
  Ir  Ir21  1  0.393530  0.393530  0.825260  1
  Ir  Ir22  1  0.393946  0.825355  0.391118  1
  Ir  Ir23  1  0.825355  0.393946  0.391118  1
