# generated using pymatgen
data_K2HfSc(CuSe3)2
_symmetry_space_group_name_H-M   'P 1'
_cell_length_a   10.24543479
_cell_length_b   7.80499519
_cell_length_c   7.80499486
_cell_angle_alpha   28.43023338
_cell_angle_beta   89.42197682
_cell_angle_gamma   89.42197686
_symmetry_Int_Tables_number   1
_chemical_formula_structural   K2HfSc(CuSe3)2
_chemical_formula_sum   'K2 Hf1 Sc1 Cu2 Se6'
_cell_volume   297.12531325
_cell_formula_units_Z   1
loop_
 _symmetry_equiv_pos_site_id
 _symmetry_equiv_pos_as_xyz
  1  'x, y, z'
loop_
 _atom_site_type_symbol
 _atom_site_label
 _atom_site_symmetry_multiplicity
 _atom_site_fract_x
 _atom_site_fract_y
 _atom_site_fract_z
 _atom_site_occupancy
  K  K0  1  0.488940  0.249385  0.249385  1
  K  K1  1  0.011012  0.750363  0.750363  1
  Hf  Hf2  1  0.749952  0.999920  0.999920  1
  Sc  Sc3  1  0.250006  0.999927  0.999927  1
  Cu  Cu4  1  0.000150  0.467807  0.467807  1
  Cu  Cu5  1  0.499996  0.532773  0.532773  1
  Se  Se6  1  0.994548  0.067584  0.067584  1
  Se  Se7  1  0.196213  0.378630  0.378630  1
  Se  Se8  1  0.803540  0.378902  0.378902  1
  Se  Se9  1  0.303698  0.621259  0.621259  1
  Se  Se10  1  0.696525  0.621014  0.621014  1
  Se  Se11  1  0.505420  0.932327  0.932327  1
