# generated using pymatgen
data_La8Ho3Er9Sn16
_symmetry_space_group_name_H-M   'P 1'
_cell_length_a   8.09829683
_cell_length_b   8.29449743
_cell_length_c   15.62336600
_cell_angle_alpha   89.96962000
_cell_angle_beta   89.89799201
_cell_angle_gamma   90.05080022
_symmetry_Int_Tables_number   1
_chemical_formula_structural   La8Ho3Er9Sn16
_chemical_formula_sum   'La8 Ho3 Er9 Sn16'
_cell_volume   1049.43961654
_cell_formula_units_Z   1
loop_
 _symmetry_equiv_pos_site_id
 _symmetry_equiv_pos_as_xyz
  1  'x, y, z'
loop_
 _atom_site_type_symbol
 _atom_site_label
 _atom_site_symmetry_multiplicity
 _atom_site_fract_x
 _atom_site_fract_y
 _atom_site_fract_z
 _atom_site_occupancy
  La  La0  1  0.510801  0.322424  0.903876  1
  La  La1  1  0.010299  0.177675  0.596199  1
  La  La2  1  0.489141  0.677145  0.403889  1
  La  La3  1  0.989474  0.822035  0.096183  1
  La  La4  1  0.489039  0.677341  0.096035  1
  La  La5  1  0.989147  0.822337  0.403716  1
  La  La6  1  0.510899  0.322647  0.596320  1
  La  La7  1  0.010633  0.177764  0.904082  1
  Ho  Ho8  1  0.354255  0.835383  0.876639  1
  Ho  Ho9  1  0.854581  0.664629  0.623829  1
  Ho  Ho10  1  0.645467  0.164809  0.376139  1
  Er  Er11  1  0.145761  0.335655  0.124120  1
  Er  Er12  1  0.645731  0.164398  0.123726  1
  Er  Er13  1  0.145643  0.335606  0.375813  1
  Er  Er14  1  0.354241  0.835468  0.623892  1
  Er  Er15  1  0.854016  0.664328  0.875873  1
  Er  Er16  1  0.187748  0.502627  0.749807  1
  Er  Er17  1  0.687821  0.997250  0.750188  1
  Er  Er18  1  0.812412  0.497333  0.249638  1
  Er  Er19  1  0.312073  0.002941  0.250048  1
  Sn  Sn20  1  0.310421  0.042172  0.042802  1
  Sn  Sn21  1  0.811056  0.458843  0.457254  1
  Sn  Sn22  1  0.689064  0.958500  0.542551  1
  Sn  Sn23  1  0.188461  0.541055  0.957847  1
  Sn  Sn24  1  0.690529  0.957918  0.957914  1
  Sn  Sn25  1  0.190305  0.541551  0.542040  1
  Sn  Sn26  1  0.309518  0.041810  0.457854  1
  Sn  Sn27  1  0.811187  0.458209  0.041999  1
  Sn  Sn28  1  0.552713  0.625810  0.750149  1
  Sn  Sn29  1  0.053182  0.874320  0.750124  1
  Sn  Sn30  1  0.447236  0.374279  0.249660  1
  Sn  Sn31  1  0.947119  0.126025  0.249811  1
  Sn  Sn32  1  0.319151  0.140962  0.750099  1
  Sn  Sn33  1  0.819262  0.358702  0.750236  1
  Sn  Sn34  1  0.680662  0.859041  0.249745  1
  Sn  Sn35  1  0.180949  0.641006  0.249904  1
