# generated using pymatgen
data_Gd10Sn6B
_symmetry_space_group_name_H-M   'P 1'
_cell_length_a   9.13320200
_cell_length_b   9.13320254
_cell_length_c   6.66465600
_cell_angle_alpha   90.00000000
_cell_angle_beta   90.00000000
_cell_angle_gamma   120.00000528
_symmetry_Int_Tables_number   1
_chemical_formula_structural   Gd10Sn6B
_chemical_formula_sum   'Gd10 Sn6 B1'
_cell_volume   481.45366671
_cell_formula_units_Z   1
loop_
 _symmetry_equiv_pos_site_id
 _symmetry_equiv_pos_as_xyz
  1  'x, y, z'
loop_
 _atom_site_type_symbol
 _atom_site_label
 _atom_site_symmetry_multiplicity
 _atom_site_fract_x
 _atom_site_fract_y
 _atom_site_fract_z
 _atom_site_occupancy
  Gd  Gd0  1  0.666667  0.333333  0.500000  1
  Gd  Gd1  1  0.333333  0.666667  0.500000  1
  Gd  Gd2  1  0.333333  0.666667  0.000000  1
  Gd  Gd3  1  0.666667  0.333333  0.000000  1
  Gd  Gd4  1  0.765647  0.765647  0.271844  1
  Gd  Gd5  1  0.234353  0.000000  0.271844  1
  Gd  Gd6  1  0.000000  0.234353  0.271844  1
  Gd  Gd7  1  0.234353  0.234353  0.728156  1
  Gd  Gd8  1  0.765647  0.000000  0.728156  1
  Gd  Gd9  1  0.000000  0.765647  0.728156  1
  Sn  Sn10  1  0.397791  0.397791  0.248789  1
  Sn  Sn11  1  0.602209  0.000000  0.248789  1
  Sn  Sn12  1  0.000000  0.602209  0.248789  1
  Sn  Sn13  1  0.602209  0.602209  0.751211  1
  Sn  Sn14  1  0.397791  0.000000  0.751211  1
  Sn  Sn15  1  0.000000  0.397791  0.751211  1
  B  B16  1  0.000000  0.000000  0.500000  1
