# generated using pymatgen
data_Cs2Os(OF2)2
_symmetry_space_group_name_H-M   'P 1'
_cell_length_a   6.51680848
_cell_length_b   6.51680885
_cell_length_c   6.51680820
_cell_angle_alpha   117.69610950
_cell_angle_beta   117.69610883
_cell_angle_gamma   94.03903336
_symmetry_Int_Tables_number   1
_chemical_formula_structural   Cs2Os(OF2)2
_chemical_formula_sum   'Cs2 Os1 O2 F4'
_cell_volume   201.97159197
_cell_formula_units_Z   1
loop_
 _symmetry_equiv_pos_site_id
 _symmetry_equiv_pos_as_xyz
  1  'x, y, z'
loop_
 _atom_site_type_symbol
 _atom_site_label
 _atom_site_symmetry_multiplicity
 _atom_site_fract_x
 _atom_site_fract_y
 _atom_site_fract_z
 _atom_site_occupancy
  Cs  Cs0  1  0.750000  0.250000  0.500000  1
  Cs  Cs1  1  0.250000  0.750000  0.500000  1
  Os  Os2  1  0.000000  0.000000  0.000000  1
  O  O3  1  0.801937  0.801937  0.000000  1
  O  O4  1  0.198063  0.198063  0.000000  1
  F  F5  1  0.788918  0.788918  0.577834  1
  F  F6  1  0.211082  0.211082  0.422166  1
  F  F7  1  0.211082  0.788918  0.000000  1
  F  F8  1  0.788918  0.211082  0.000000  1
