# generated using pymatgen
data_Dy2Tm2Ga16Co3
_symmetry_space_group_name_H-M   'P 1'
_cell_length_a   6.01345200
_cell_length_b   6.01345200
_cell_length_c   11.10909100
_cell_angle_alpha   90.00000000
_cell_angle_beta   90.00000000
_cell_angle_gamma   90.00000000
_symmetry_Int_Tables_number   1
_chemical_formula_structural   Dy2Tm2Ga16Co3
_chemical_formula_sum   'Dy2 Tm2 Ga16 Co3'
_cell_volume   401.72256017
_cell_formula_units_Z   1
loop_
 _symmetry_equiv_pos_site_id
 _symmetry_equiv_pos_as_xyz
  1  'x, y, z'
loop_
 _atom_site_type_symbol
 _atom_site_label
 _atom_site_symmetry_multiplicity
 _atom_site_fract_x
 _atom_site_fract_y
 _atom_site_fract_z
 _atom_site_occupancy
  Dy  Dy0  1  0.500000  0.000000  0.194091  1
  Dy  Dy1  1  0.000000  0.500000  0.194091  1
  Tm  Tm2  1  0.500000  0.000000  0.804633  1
  Tm  Tm3  1  0.000000  0.500000  0.804633  1
  Ga  Ga4  1  0.249637  0.249637  0.616446  1
  Ga  Ga5  1  0.750363  0.750363  0.616446  1
  Ga  Ga6  1  0.750363  0.249637  0.616446  1
  Ga  Ga7  1  0.249637  0.750363  0.616446  1
  Ga  Ga8  1  0.750305  0.750305  0.385184  1
  Ga  Ga9  1  0.249695  0.249695  0.385184  1
  Ga  Ga10  1  0.249695  0.750305  0.385184  1
  Ga  Ga11  1  0.750305  0.249695  0.385184  1
  Ga  Ga12  1  0.280161  0.280161  0.998305  1
  Ga  Ga13  1  0.719839  0.719839  0.998305  1
  Ga  Ga14  1  0.719839  0.280161  0.998305  1
  Ga  Ga15  1  0.280161  0.719839  0.998305  1
  Ga  Ga16  1  0.500000  0.500000  0.805260  1
  Ga  Ga17  1  0.500000  0.500000  0.194362  1
  Ga  Ga18  1  0.000000  0.000000  0.783402  1
  Ga  Ga19  1  0.000000  0.000000  0.217631  1
  Co  Co20  1  0.500000  0.000000  0.500923  1
  Co  Co21  1  0.000000  0.500000  0.500923  1
  Co  Co22  1  0.000000  0.000000  0.000308  1
