# generated using pymatgen
data_LaHo6CoBr12
_symmetry_space_group_name_H-M   'P 1'
_cell_length_a   9.22067811
_cell_length_b   9.22067877
_cell_length_c   9.22067800
_cell_angle_alpha   105.93615301
_cell_angle_beta   105.93616064
_cell_angle_gamma   105.93615839
_symmetry_Int_Tables_number   1
_chemical_formula_structural   LaHo6CoBr12
_chemical_formula_sum   'La1 Ho6 Co1 Br12'
_cell_volume   670.92749809
_cell_formula_units_Z   1
loop_
 _symmetry_equiv_pos_site_id
 _symmetry_equiv_pos_as_xyz
  1  'x, y, z'
loop_
 _atom_site_type_symbol
 _atom_site_label
 _atom_site_symmetry_multiplicity
 _atom_site_fract_x
 _atom_site_fract_y
 _atom_site_fract_z
 _atom_site_occupancy
  La  La0  1  0.000000  0.000000  0.000000  1
  Ho  Ho1  1  0.408639  0.486023  0.205657  1
  Ho  Ho2  1  0.205657  0.408639  0.486023  1
  Ho  Ho3  1  0.486023  0.205657  0.408639  1
  Ho  Ho4  1  0.591361  0.513977  0.794343  1
  Ho  Ho5  1  0.794343  0.591361  0.513977  1
  Ho  Ho6  1  0.513977  0.794343  0.591361  1
  Co  Co7  1  0.500000  0.500000  0.500000  1
  Br  Br8  1  0.052408  0.350674  0.130613  1
  Br  Br9  1  0.130613  0.052408  0.350674  1
  Br  Br10  1  0.350674  0.130613  0.052408  1
  Br  Br11  1  0.947592  0.649326  0.869387  1
  Br  Br12  1  0.869387  0.947592  0.649326  1
  Br  Br13  1  0.649326  0.869387  0.947592  1
  Br  Br14  1  0.720345  0.574346  0.175013  1
  Br  Br15  1  0.175013  0.720345  0.574346  1
  Br  Br16  1  0.574346  0.175013  0.720345  1
  Br  Br17  1  0.279655  0.425654  0.824987  1
  Br  Br18  1  0.824987  0.279655  0.425654  1
  Br  Br19  1  0.425654  0.824987  0.279655  1
