# generated using pymatgen
data_CsSnH3
_symmetry_space_group_name_H-M   'P 1'
_cell_length_a   6.21356000
_cell_length_b   7.97482500
_cell_length_c   10.18295200
_cell_angle_alpha   90.00000000
_cell_angle_beta   90.00000000
_cell_angle_gamma   90.00000000
_symmetry_Int_Tables_number   1
_chemical_formula_structural   CsSnH3
_chemical_formula_sum   'Cs4 Sn4 H12'
_cell_volume   504.58618359
_cell_formula_units_Z   4
loop_
 _symmetry_equiv_pos_site_id
 _symmetry_equiv_pos_as_xyz
  1  'x, y, z'
loop_
 _atom_site_type_symbol
 _atom_site_label
 _atom_site_symmetry_multiplicity
 _atom_site_fract_x
 _atom_site_fract_y
 _atom_site_fract_z
 _atom_site_occupancy
  Cs  Cs0  1  0.250000  0.347247  0.683559  1
  Cs  Cs1  1  0.750000  0.652753  0.316441  1
  Cs  Cs2  1  0.750000  0.847247  0.816441  1
  Cs  Cs3  1  0.250000  0.152753  0.183559  1
  Sn  Sn4  1  0.250000  0.855128  0.550718  1
  Sn  Sn5  1  0.750000  0.144872  0.449282  1
  Sn  Sn6  1  0.750000  0.355128  0.949282  1
  Sn  Sn7  1  0.250000  0.644872  0.050718  1
  H  H8  1  0.957394  0.301604  0.419642  1
  H  H9  1  0.457394  0.698396  0.580358  1
  H  H10  1  0.042606  0.801604  0.080358  1
  H  H11  1  0.542606  0.198396  0.919642  1
  H  H12  1  0.042606  0.698396  0.580358  1
  H  H13  1  0.542606  0.301604  0.419642  1
  H  H14  1  0.957394  0.198396  0.919642  1
  H  H15  1  0.457394  0.801604  0.080358  1
  H  H16  1  0.250000  0.694721  0.877231  1
  H  H17  1  0.750000  0.305279  0.122769  1
  H  H18  1  0.750000  0.194721  0.622769  1
  H  H19  1  0.250000  0.805279  0.377231  1
