# generated using pymatgen
data_Tb13Y7CdIn5Ru2
_symmetry_space_group_name_H-M   'P 1'
_cell_length_a   9.75804477
_cell_length_b   9.83583491
_cell_length_c   9.74368545
_cell_angle_alpha   90.00078362
_cell_angle_beta   90.02935149
_cell_angle_gamma   120.26316964
_symmetry_Int_Tables_number   1
_chemical_formula_structural   Tb13Y7CdIn5Ru2
_chemical_formula_sum   'Tb13 Y7 Cd1 In5 Ru2'
_cell_volume   807.73710440
_cell_formula_units_Z   1
loop_
 _symmetry_equiv_pos_site_id
 _symmetry_equiv_pos_as_xyz
  1  'x, y, z'
loop_
 _atom_site_type_symbol
 _atom_site_label
 _atom_site_symmetry_multiplicity
 _atom_site_fract_x
 _atom_site_fract_y
 _atom_site_fract_z
 _atom_site_occupancy
  Tb  Tb0  1  0.995752  0.997903  0.502392  1
  Tb  Tb1  1  0.996101  0.998072  0.997691  1
  Tb  Tb2  1  0.210681  0.791103  0.440374  1
  Tb  Tb3  1  0.210682  0.419602  0.440363  1
  Tb  Tb4  1  0.578185  0.789106  0.436915  1
  Tb  Tb5  1  0.790143  0.211432  0.559801  1
  Tb  Tb6  1  0.790138  0.578741  0.559795  1
  Tb  Tb7  1  0.419554  0.209793  0.561870  1
  Tb  Tb8  1  0.790262  0.211695  0.940246  1
  Tb  Tb9  1  0.790257  0.578597  0.940256  1
  Tb  Tb10  1  0.419520  0.209775  0.937967  1
  Tb  Tb11  1  0.211225  0.790624  0.059804  1
  Tb  Tb12  1  0.211232  0.420631  0.059810  1
  Y  Y13  1  0.580423  0.790230  0.062266  1
  Y  Y14  1  0.541966  0.459085  0.249862  1
  Y  Y15  1  0.542011  0.082889  0.249863  1
  Y  Y16  1  0.922972  0.461470  0.250322  1
  Y  Y17  1  0.461515  0.542789  0.749927  1
  Y  Y18  1  0.461497  0.918756  0.749927  1
  Y  Y19  1  0.083126  0.541615  0.749984  1
  Cd  Cd20  1  0.766180  0.883108  0.750184  1
  In  In21  1  0.884139  0.117655  0.249792  1
  In  In22  1  0.884043  0.766018  0.249775  1
  In  In23  1  0.230777  0.115054  0.250062  1
  In  In24  1  0.115907  0.881747  0.750169  1
  In  In25  1  0.116082  0.234631  0.750169  1
  Ru  Ru26  1  0.327904  0.664006  0.250510  1
  Ru  Ru27  1  0.667727  0.333879  0.749904  1
