# generated using pymatgen
data_Ti3Tc2B4Mo
_symmetry_space_group_name_H-M   'P 1'
_cell_length_a   5.93293464
_cell_length_b   5.93293542
_cell_length_c   3.18318200
_cell_angle_alpha   90.00000000
_cell_angle_beta   90.00000000
_cell_angle_gamma   88.96751158
_symmetry_Int_Tables_number   1
_chemical_formula_structural   Ti3Tc2B4Mo
_chemical_formula_sum   'Ti3 Tc2 B4 Mo1'
_cell_volume   112.02891681
_cell_formula_units_Z   1
loop_
 _symmetry_equiv_pos_site_id
 _symmetry_equiv_pos_as_xyz
  1  'x, y, z'
loop_
 _atom_site_type_symbol
 _atom_site_label
 _atom_site_symmetry_multiplicity
 _atom_site_fract_x
 _atom_site_fract_y
 _atom_site_fract_z
 _atom_site_occupancy
  Ti  Ti0  1  0.679357  0.179036  0.500000  1
  Ti  Ti1  1  0.320964  0.820643  0.500000  1
  Ti  Ti2  1  0.179254  0.320746  0.500000  1
  Tc  Tc3  1  0.002269  0.002446  0.000000  1
  Tc  Tc4  1  0.497554  0.497731  0.000000  1
  B  B5  1  0.107337  0.610817  0.000000  1
  B  B6  1  0.889183  0.392663  0.000000  1
  B  B7  1  0.609154  0.890846  0.000000  1
  B  B8  1  0.391189  0.108811  0.000000  1
  Mo  Mo9  1  0.823740  0.676260  0.500000  1
