# generated using pymatgen
data_Cs4LiMnSe4
_symmetry_space_group_name_H-M   'P 1'
_cell_length_a   8.91917384
_cell_length_b   8.91917343
_cell_length_c   8.91917365
_cell_angle_alpha   134.59522511
_cell_angle_beta   130.94279631
_cell_angle_gamma   69.05945981
_symmetry_Int_Tables_number   1
_chemical_formula_structural   Cs4LiMnSe4
_chemical_formula_sum   'Cs4 Li1 Mn1 Se4'
_cell_volume   374.62762642
_cell_formula_units_Z   1
loop_
 _symmetry_equiv_pos_site_id
 _symmetry_equiv_pos_as_xyz
  1  'x, y, z'
loop_
 _atom_site_type_symbol
 _atom_site_label
 _atom_site_symmetry_multiplicity
 _atom_site_fract_x
 _atom_site_fract_y
 _atom_site_fract_z
 _atom_site_occupancy
  Cs  Cs0  1  0.522823  0.862247  0.677488  1
  Cs  Cs1  1  0.477177  0.154665  0.339424  1
  Cs  Cs2  1  0.815241  0.637753  0.160576  1
  Cs  Cs3  1  0.184759  0.345335  0.822512  1
  Li  Li4  1  0.000000  0.250000  0.250000  1
  Mn  Mn5  1  0.000000  0.750000  0.750000  1
  Se  Se6  1  0.065748  0.882569  0.143800  1
  Se  Se7  1  0.738769  0.421948  0.356200  1
  Se  Se8  1  0.934252  0.078052  0.816821  1
  Se  Se9  1  0.261232  0.617431  0.683179  1
