# generated using pymatgen
data_SrNiAsH
_symmetry_space_group_name_H-M   'P 1'
_cell_length_a   4.11802400
_cell_length_b   4.11802400
_cell_length_c   8.18661100
_cell_angle_alpha   90.00000000
_cell_angle_beta   90.00000000
_cell_angle_gamma   90.00000000
_symmetry_Int_Tables_number   1
_chemical_formula_structural   SrNiAsH
_chemical_formula_sum   'Sr2 Ni2 As2 H2'
_cell_volume   138.82954536
_cell_formula_units_Z   2
loop_
 _symmetry_equiv_pos_site_id
 _symmetry_equiv_pos_as_xyz
  1  'x, y, z'
loop_
 _atom_site_type_symbol
 _atom_site_label
 _atom_site_symmetry_multiplicity
 _atom_site_fract_x
 _atom_site_fract_y
 _atom_site_fract_z
 _atom_site_occupancy
  Sr  Sr0  1  0.000000  0.500000  0.834416  1
  Sr  Sr1  1  0.500000  0.000000  0.165584  1
  Ni  Ni2  1  0.000000  0.000000  0.500000  1
  Ni  Ni3  1  0.500000  0.500000  0.500000  1
  As  As4  1  0.000000  0.500000  0.357096  1
  As  As5  1  0.500000  0.000000  0.642904  1
  H  H6  1  0.000000  0.000000  0.000000  1
  H  H7  1  0.500000  0.500000  0.000000  1
