# generated using pymatgen
data_HoEr2(FeCo3)2
_symmetry_space_group_name_H-M   'P 1'
_cell_length_a   7.57082040
_cell_length_b   7.57012555
_cell_length_c   7.57012608
_cell_angle_alpha   109.45449922
_cell_angle_beta   109.47771234
_cell_angle_gamma   109.47772301
_symmetry_Int_Tables_number   1
_chemical_formula_structural   HoEr2(FeCo3)2
_chemical_formula_sum   'Ho2 Er4 Fe4 Co12'
_cell_volume   334.00056834
_cell_formula_units_Z   2
loop_
 _symmetry_equiv_pos_site_id
 _symmetry_equiv_pos_as_xyz
  1  'x, y, z'
loop_
 _atom_site_type_symbol
 _atom_site_label
 _atom_site_symmetry_multiplicity
 _atom_site_fract_x
 _atom_site_fract_y
 _atom_site_fract_z
 _atom_site_occupancy
  Ho  Ho0  1  0.716940  0.716981  0.999959  1
  Ho  Ho1  1  0.283060  0.000041  0.283019  1
  Er  Er2  1  0.000000  0.283435  0.283241  1
  Er  Er3  1  0.283197  0.283253  0.999944  1
  Er  Er4  1  0.716803  0.000056  0.716747  1
  Er  Er5  1  0.000000  0.716759  0.716565  1
  Fe  Fe6  1  0.000000  0.999964  0.500193  1
  Fe  Fe7  1  0.000000  0.499807  0.000036  1
  Fe  Fe8  1  0.500000  0.000088  0.999912  1
  Fe  Fe9  1  0.500000  0.500088  0.499912  1
  Co  Co10  1  0.335683  0.335719  0.671544  1
  Co  Co11  1  0.664317  0.000036  0.335864  1
  Co  Co12  1  0.000000  0.664075  0.335925  1
  Co  Co13  1  0.664224  0.335619  0.000026  1
  Co  Co14  1  0.335776  0.671393  0.335802  1
  Co  Co15  1  0.000000  0.335765  0.664235  1
  Co  Co16  1  0.335683  0.664136  0.999964  1
  Co  Co17  1  0.335776  0.999974  0.664381  1
  Co  Co18  1  0.671669  0.335915  0.335757  1
  Co  Co19  1  0.664224  0.664198  0.328607  1
  Co  Co20  1  0.664317  0.328456  0.664281  1
  Co  Co21  1  0.328331  0.664243  0.664085  1
