# generated using pymatgen
data_Ho20GaBi11
_symmetry_space_group_name_H-M   'P 1'
_cell_length_a   8.18734204
_cell_length_b   9.45880100
_cell_length_c   11.98328547
_cell_angle_alpha   90.00000000
_cell_angle_beta   90.28308282
_cell_angle_gamma   90.00000000
_symmetry_Int_Tables_number   1
_chemical_formula_structural   Ho20GaBi11
_chemical_formula_sum   'Ho20 Ga1 Bi11'
_cell_volume   928.00352902
_cell_formula_units_Z   1
loop_
 _symmetry_equiv_pos_site_id
 _symmetry_equiv_pos_as_xyz
  1  'x, y, z'
loop_
 _atom_site_type_symbol
 _atom_site_label
 _atom_site_symmetry_multiplicity
 _atom_site_fract_x
 _atom_site_fract_y
 _atom_site_fract_z
 _atom_site_occupancy
  Ho  Ho0  1  0.355361  0.750000  0.206124  1
  Ho  Ho1  1  0.852838  0.750000  0.284536  1
  Ho  Ho2  1  0.648196  0.250000  0.784230  1
  Ho  Ho3  1  0.148820  0.250000  0.716275  1
  Ho  Ho4  1  0.683848  0.570778  0.054718  1
  Ho  Ho5  1  0.193064  0.935630  0.440170  1
  Ho  Ho6  1  0.309560  0.049461  0.941082  1
  Ho  Ho7  1  0.807109  0.436015  0.558953  1
  Ho  Ho8  1  0.309560  0.450539  0.941082  1
  Ho  Ho9  1  0.807109  0.063985  0.558953  1
  Ho  Ho10  1  0.683848  0.929222  0.054718  1
  Ho  Ho11  1  0.193064  0.564370  0.440170  1
  Ho  Ho12  1  0.475412  0.250000  0.488797  1
  Ho  Ho13  1  0.978770  0.250000  0.010635  1
  Ho  Ho14  1  0.525399  0.750000  0.511538  1
  Ho  Ho15  1  0.036232  0.750000  0.989296  1
  Ho  Ho16  1  0.314297  0.250000  0.219459  1
  Ho  Ho17  1  0.812172  0.250000  0.281508  1
  Ho  Ho18  1  0.673487  0.750000  0.788529  1
  Ho  Ho19  1  0.190299  0.750000  0.722171  1
  Ga  Ga20  1  0.408133  0.750000  0.960639  1
  Bi  Bi21  1  0.908024  0.750000  0.544664  1
  Bi  Bi22  1  0.593208  0.250000  0.042361  1
  Bi  Bi23  1  0.093270  0.250000  0.457394  1
  Bi  Bi24  1  0.565041  0.995549  0.325693  1
  Bi  Bi25  1  0.064381  0.503325  0.175103  1
  Bi  Bi26  1  0.435158  0.496046  0.674931  1
  Bi  Bi27  1  0.934881  0.002885  0.825271  1
  Bi  Bi28  1  0.435158  0.003954  0.674931  1
  Bi  Bi29  1  0.934881  0.497115  0.825271  1
  Bi  Bi30  1  0.565041  0.504451  0.325693  1
  Bi  Bi31  1  0.064381  0.996675  0.175103  1
