# generated using pymatgen
data_YbEu2(AgSn)3
_symmetry_space_group_name_H-M   'P 1'
_cell_length_a   4.89344300
_cell_length_b   4.89344279
_cell_length_c   11.15778000
_cell_angle_alpha   90.00000000
_cell_angle_beta   90.00000000
_cell_angle_gamma   119.99999464
_symmetry_Int_Tables_number   1
_chemical_formula_structural   YbEu2(AgSn)3
_chemical_formula_sum   'Yb1 Eu2 Ag3 Sn3'
_cell_volume   231.38622394
_cell_formula_units_Z   1
loop_
 _symmetry_equiv_pos_site_id
 _symmetry_equiv_pos_as_xyz
  1  'x, y, z'
loop_
 _atom_site_type_symbol
 _atom_site_label
 _atom_site_symmetry_multiplicity
 _atom_site_fract_x
 _atom_site_fract_y
 _atom_site_fract_z
 _atom_site_occupancy
  Yb  Yb0  1  0.666667  0.333333  0.331602  1
  Eu  Eu1  1  0.666667  0.333333  0.002291  1
  Eu  Eu2  1  0.666667  0.333333  0.664647  1
  Ag  Ag3  1  0.000000  0.000000  0.814051  1
  Ag  Ag4  1  0.000000  0.000000  0.199799  1
  Ag  Ag5  1  0.333333  0.666667  0.489210  1
  Sn  Sn6  1  0.333333  0.666667  0.852058  1
  Sn  Sn7  1  0.000000  0.000000  0.494879  1
  Sn  Sn8  1  0.333333  0.666667  0.151464  1
