# generated using pymatgen
data_K3Rh2Cl9
_symmetry_space_group_name_H-M   'P 1'
_cell_length_a   7.07089200
_cell_length_b   7.07089155
_cell_length_c   18.21419000
_cell_angle_alpha   90.00000000
_cell_angle_beta   90.00000000
_cell_angle_gamma   120.00000337
_symmetry_Int_Tables_number   1
_chemical_formula_structural   K3Rh2Cl9
_chemical_formula_sum   'K6 Rh4 Cl18'
_cell_volume   788.65826611
_cell_formula_units_Z   2
loop_
 _symmetry_equiv_pos_site_id
 _symmetry_equiv_pos_as_xyz
  1  'x, y, z'
loop_
 _atom_site_type_symbol
 _atom_site_label
 _atom_site_symmetry_multiplicity
 _atom_site_fract_x
 _atom_site_fract_y
 _atom_site_fract_z
 _atom_site_occupancy
  K  K0  1  0.333333  0.666667  0.945465  1
  K  K1  1  0.666667  0.333333  0.445465  1
  K  K2  1  0.000000  0.000000  0.250000  1
  K  K3  1  0.666667  0.333333  0.054535  1
  K  K4  1  0.333333  0.666667  0.554535  1
  K  K5  1  0.000000  0.000000  0.750000  1
  Rh  Rh6  1  0.333333  0.666667  0.164733  1
  Rh  Rh7  1  0.333333  0.666667  0.335267  1
  Rh  Rh8  1  0.666667  0.333333  0.664733  1
  Rh  Rh9  1  0.666667  0.333333  0.835267  1
  Cl  Cl10  1  0.225227  0.869322  0.092760  1
  Cl  Cl11  1  0.034103  0.558289  0.250000  1
  Cl  Cl12  1  0.475814  0.034103  0.750000  1
  Cl  Cl13  1  0.869322  0.644096  0.592760  1
  Cl  Cl14  1  0.225227  0.869322  0.407240  1
  Cl  Cl15  1  0.774773  0.130678  0.907240  1
  Cl  Cl16  1  0.355904  0.225227  0.907240  1
  Cl  Cl17  1  0.965897  0.441711  0.750000  1
  Cl  Cl18  1  0.524186  0.965897  0.250000  1
  Cl  Cl19  1  0.558289  0.524186  0.750000  1
  Cl  Cl20  1  0.774773  0.130678  0.592760  1
  Cl  Cl21  1  0.644096  0.774773  0.092760  1
  Cl  Cl22  1  0.441711  0.475814  0.250000  1
  Cl  Cl23  1  0.869322  0.644096  0.907240  1
  Cl  Cl24  1  0.644096  0.774773  0.407240  1
  Cl  Cl25  1  0.130678  0.355904  0.092760  1
  Cl  Cl26  1  0.355904  0.225227  0.592760  1
  Cl  Cl27  1  0.130678  0.355904  0.407240  1
