# generated using pymatgen
data_Pu2AsBr2
_symmetry_space_group_name_H-M   'P 1'
_cell_length_a   4.19570200
_cell_length_b   4.19570242
_cell_length_c   10.80686000
_cell_angle_alpha   90.00000000
_cell_angle_beta   90.00000000
_cell_angle_gamma   119.99999671
_symmetry_Int_Tables_number   1
_chemical_formula_structural   Pu2AsBr2
_chemical_formula_sum   'Pu2 As1 Br2'
_cell_volume   164.75533412
_cell_formula_units_Z   1
loop_
 _symmetry_equiv_pos_site_id
 _symmetry_equiv_pos_as_xyz
  1  'x, y, z'
loop_
 _atom_site_type_symbol
 _atom_site_label
 _atom_site_symmetry_multiplicity
 _atom_site_fract_x
 _atom_site_fract_y
 _atom_site_fract_z
 _atom_site_occupancy
  Pu  Pu0  1  0.666668  0.333334  0.153457  1
  Pu  Pu1  1  0.333333  0.666666  0.846544  1
  As  As2  1  0.000000  0.000000  0.000000  1
  Br  Br3  1  0.333333  0.666666  0.316358  1
  Br  Br4  1  0.666668  0.333334  0.683642  1
