# generated using pymatgen
data_Y3Er(TmGa5)2
_symmetry_space_group_name_H-M   'P 1'
_cell_length_a   6.07625125
_cell_length_b   9.60369540
_cell_length_c   11.52589300
_cell_angle_alpha   90.00000000
_cell_angle_beta   90.00000000
_cell_angle_gamma   89.96698798
_symmetry_Int_Tables_number   1
_chemical_formula_structural   Y3Er(TmGa5)2
_chemical_formula_sum   'Y6 Er2 Tm4 Ga20'
_cell_volume   672.58722174
_cell_formula_units_Z   2
loop_
 _symmetry_equiv_pos_site_id
 _symmetry_equiv_pos_as_xyz
  1  'x, y, z'
loop_
 _atom_site_type_symbol
 _atom_site_label
 _atom_site_symmetry_multiplicity
 _atom_site_fract_x
 _atom_site_fract_y
 _atom_site_fract_z
 _atom_site_occupancy
  Y  Y0  1  0.890929  0.509525  0.351257  1
  Y  Y1  1  0.609071  0.990475  0.851257  1
  Y  Y2  1  0.108826  0.009511  0.648377  1
  Y  Y3  1  0.391174  0.490489  0.148377  1
  Y  Y4  1  0.108680  0.490472  0.648863  1
  Y  Y5  1  0.391320  0.009528  0.148863  1
  Er  Er6  1  0.891329  0.990599  0.351230  1
  Er  Er7  1  0.608671  0.509401  0.851230  1
  Tm  Tm8  1  0.848977  0.749898  0.074793  1
  Tm  Tm9  1  0.651023  0.750102  0.574793  1
  Tm  Tm10  1  0.151420  0.249953  0.925162  1
  Tm  Tm11  1  0.348580  0.250047  0.425162  1
  Ga  Ga12  1  0.875812  0.052994  0.090512  1
  Ga  Ga13  1  0.624188  0.447006  0.590512  1
  Ga  Ga14  1  0.124755  0.552884  0.909911  1
  Ga  Ga15  1  0.375245  0.947116  0.409911  1
  Ga  Ga16  1  0.124071  0.946739  0.910013  1
  Ga  Ga17  1  0.375929  0.553261  0.410013  1
  Ga  Ga18  1  0.875913  0.446922  0.089648  1
  Ga  Ga19  1  0.624087  0.053078  0.589648  1
  Ga  Ga20  1  0.171056  0.750552  0.252020  1
  Ga  Ga21  1  0.328944  0.749448  0.752020  1
  Ga  Ga22  1  0.827913  0.250613  0.748761  1
  Ga  Ga23  1  0.672087  0.249387  0.248761  1
  Ga  Ga24  1  0.374578  0.749825  0.004151  1
  Ga  Ga25  1  0.125422  0.750175  0.504151  1
  Ga  Ga26  1  0.626127  0.250470  0.994935  1
  Ga  Ga27  1  0.873873  0.249530  0.494935  1
  Ga  Ga28  1  0.603441  0.750771  0.299115  1
  Ga  Ga29  1  0.896559  0.749229  0.799115  1
  Ga  Ga30  1  0.397573  0.250076  0.701252  1
  Ga  Ga31  1  0.102427  0.249924  0.201252  1
