# generated using pymatgen
data_Sr2Al16Pt9
_symmetry_space_group_name_H-M   'P 1'
_cell_length_a   11.22238825
_cell_length_b   11.22238891
_cell_length_c   11.22238915
_cell_angle_alpha   158.53704013
_cell_angle_beta   115.08966358
_cell_angle_gamma   69.22553418
_symmetry_Int_Tables_number   1
_chemical_formula_structural   Sr2Al16Pt9
_chemical_formula_sum   'Sr2 Al16 Pt9'
_cell_volume   464.94152951
_cell_formula_units_Z   1
loop_
 _symmetry_equiv_pos_site_id
 _symmetry_equiv_pos_as_xyz
  1  'x, y, z'
loop_
 _atom_site_type_symbol
 _atom_site_label
 _atom_site_symmetry_multiplicity
 _atom_site_fract_x
 _atom_site_fract_y
 _atom_site_fract_z
 _atom_site_occupancy
  Sr  Sr0  1  0.227750  0.227750  0.000000  1
  Sr  Sr1  1  0.772250  0.772250  0.000000  1
  Al  Al2  1  0.274825  0.392515  0.882308  1
  Al  Al3  1  0.092846  0.920817  0.172029  1
  Al  Al4  1  0.509535  0.204574  0.304961  1
  Al  Al5  1  0.251213  0.079183  0.172029  1
  Al  Al6  1  0.914746  0.414746  0.500000  1
  Al  Al7  1  0.725175  0.607485  0.117692  1
  Al  Al8  1  0.899612  0.204574  0.695039  1
  Al  Al9  1  0.490465  0.795426  0.695039  1
  Al  Al10  1  0.384225  0.000000  0.384225  1
  Al  Al11  1  0.615775  0.000000  0.615775  1
  Al  Al12  1  0.489793  0.607485  0.882308  1
  Al  Al13  1  0.100388  0.795426  0.304961  1
  Al  Al14  1  0.907154  0.079183  0.827971  1
  Al  Al15  1  0.748787  0.920817  0.827971  1
  Al  Al16  1  0.510207  0.392515  0.117692  1
  Al  Al17  1  0.085254  0.585254  0.500000  1
  Pt  Pt18  1  0.748654  0.500000  0.248654  1
  Pt  Pt19  1  0.031245  0.341303  0.689942  1
  Pt  Pt20  1  0.621608  0.121608  0.500000  1
  Pt  Pt21  1  0.251346  0.500000  0.751346  1
  Pt  Pt22  1  0.378392  0.878392  0.500000  1
  Pt  Pt23  1  0.000000  0.000000  0.000000  1
  Pt  Pt24  1  0.651361  0.341303  0.310058  1
  Pt  Pt25  1  0.348639  0.658697  0.689942  1
  Pt  Pt26  1  0.968755  0.658697  0.310058  1
