# generated using pymatgen
data_Nd5Ho5Si8
_symmetry_space_group_name_H-M   'P 1'
_cell_length_a   7.75798119
_cell_length_b   7.75706936
_cell_length_c   14.56288203
_cell_angle_alpha   90.10818582
_cell_angle_beta   90.36051054
_cell_angle_gamma   89.99934000
_symmetry_Int_Tables_number   1
_chemical_formula_structural   Nd5Ho5Si8
_chemical_formula_sum   'Nd10 Ho10 Si16'
_cell_volume   876.36365387
_cell_formula_units_Z   2
loop_
 _symmetry_equiv_pos_site_id
 _symmetry_equiv_pos_as_xyz
  1  'x, y, z'
loop_
 _atom_site_type_symbol
 _atom_site_label
 _atom_site_symmetry_multiplicity
 _atom_site_fract_x
 _atom_site_fract_y
 _atom_site_fract_z
 _atom_site_occupancy
  Nd  Nd0  1  0.634282  0.516142  0.377033  1
  Nd  Nd1  1  0.016905  0.867175  0.122601  1
  Nd  Nd2  1  0.634381  0.990775  0.456333  1
  Nd  Nd3  1  0.367679  0.008108  0.951516  1
  Nd  Nd4  1  0.987309  0.633755  0.547343  1
  Nd  Nd5  1  0.492447  0.868284  0.201231  1
  Nd  Nd6  1  0.509556  0.134800  0.706548  1
  Nd  Nd7  1  0.862795  0.487136  0.793049  1
  Nd  Nd8  1  0.132015  0.511725  0.298339  1
  Nd  Nd9  1  0.012247  0.364724  0.044042  1
  Ho  Ho10  1  0.486620  0.364543  0.123952  1
  Ho  Ho11  1  0.988440  0.133510  0.626456  1
  Ho  Ho12  1  0.865815  0.010467  0.874683  1
  Ho  Ho13  1  0.135467  0.987142  0.376189  1
  Ho  Ho14  1  0.509933  0.634252  0.626918  1
  Ho  Ho15  1  0.367971  0.487440  0.872055  1
  Ho  Ho16  1  0.313152  0.313543  0.501632  1
  Ho  Ho17  1  0.184235  0.813627  0.749445  1
  Ho  Ho18  1  0.814378  0.188719  0.250541  1
  Ho  Ho19  1  0.688077  0.683359  0.998280  1
  Si  Si20  1  0.286236  0.932664  0.563237  1
  Si  Si21  1  0.710913  0.072103  0.059670  1
  Si  Si22  1  0.932752  0.284809  0.441378  1
  Si  Si23  1  0.430611  0.211459  0.311977  1
  Si  Si24  1  0.569797  0.786727  0.811103  1
  Si  Si25  1  0.210483  0.430355  0.688464  1
  Si  Si26  1  0.788531  0.567799  0.186658  1
  Si  Si27  1  0.070287  0.706826  0.933954  1
  Si  Si28  1  0.799284  0.840971  0.693708  1
  Si  Si29  1  0.199641  0.166187  0.197854  1
  Si  Si30  1  0.839852  0.807419  0.304396  1
  Si  Si31  1  0.333546  0.699649  0.449591  1
  Si  Si32  1  0.659233  0.299457  0.941824  1
  Si  Si33  1  0.699355  0.338954  0.561400  1
  Si  Si34  1  0.307622  0.656657  0.049966  1
  Si  Si35  1  0.158152  0.198739  0.806635  1
