# generated using pymatgen
data_Tb16Tl3InPdRh3
_symmetry_space_group_name_H-M   'P 1'
_cell_length_a   9.75043319
_cell_length_b   9.75665261
_cell_length_c   9.74151500
_cell_angle_alpha   60.05131391
_cell_angle_beta   60.03025501
_cell_angle_gamma   60.04729630
_symmetry_Int_Tables_number   1
_chemical_formula_structural   Tb16Tl3InPdRh3
_chemical_formula_sum   'Tb16 Tl3 In1 Pd1 Rh3'
_cell_volume   655.93206884
_cell_formula_units_Z   1
loop_
 _symmetry_equiv_pos_site_id
 _symmetry_equiv_pos_as_xyz
  1  'x, y, z'
loop_
 _atom_site_type_symbol
 _atom_site_label
 _atom_site_symmetry_multiplicity
 _atom_site_fract_x
 _atom_site_fract_y
 _atom_site_fract_z
 _atom_site_occupancy
  Tb  Tb0  1  0.811958  0.810704  0.188670  1
  Tb  Tb1  1  0.811807  0.184526  0.810158  1
  Tb  Tb2  1  0.193635  0.183752  0.811306  1
  Tb  Tb3  1  0.649923  0.048984  0.650546  1
  Tb  Tb4  1  0.060280  0.062616  0.438552  1
  Tb  Tb5  1  0.437108  0.439624  0.061634  1
  Tb  Tb6  1  0.647717  0.652988  0.648194  1
  Tb  Tb7  1  0.811807  0.184526  0.193508  1
  Tb  Tb8  1  0.188734  0.811664  0.811543  1
  Tb  Tb9  1  0.052263  0.652552  0.647592  1
  Tb  Tb10  1  0.438622  0.061747  0.061064  1
  Tb  Tb11  1  0.438622  0.061747  0.438565  1
  Tb  Tb12  1  0.060728  0.439649  0.062570  1
  Tb  Tb13  1  0.647717  0.652988  0.051100  1
  Tb  Tb14  1  0.188734  0.811664  0.188060  1
  Tb  Tb15  1  0.060728  0.439649  0.437054  1
  Tl  Tl16  1  0.415956  0.414923  0.414460  1
  Tl  Tl17  1  0.415956  0.414923  0.754661  1
  Tl  Tl18  1  0.415887  0.754729  0.414692  1
  In  In19  1  0.750673  0.416670  0.416328  1
  Pd  Pd20  1  0.857098  0.429618  0.856642  1
  Rh  Rh21  1  0.857614  0.856580  0.857162  1
  Rh  Rh22  1  0.857614  0.856580  0.428646  1
  Rh  Rh23  1  0.428822  0.856595  0.857292  1
