# generated using pymatgen
data_SrLa5YFeBr12
_symmetry_space_group_name_H-M   'P 1'
_cell_length_a   9.79320310
_cell_length_b   9.70633835
_cell_length_c   9.36309049
_cell_angle_alpha   105.85648419
_cell_angle_beta   106.55538725
_cell_angle_gamma   106.27956073
_symmetry_Int_Tables_number   1
_chemical_formula_structural   SrLa5YFeBr12
_chemical_formula_sum   'Sr1 La5 Y1 Fe1 Br12'
_cell_volume   756.21445910
_cell_formula_units_Z   1
loop_
 _symmetry_equiv_pos_site_id
 _symmetry_equiv_pos_as_xyz
  1  'x, y, z'
loop_
 _atom_site_type_symbol
 _atom_site_label
 _atom_site_symmetry_multiplicity
 _atom_site_fract_x
 _atom_site_fract_y
 _atom_site_fract_z
 _atom_site_occupancy
  Sr  Sr0  1  0.498775  0.500873  0.497418  1
  La  La1  1  0.316255  0.017379  0.110779  1
  La  La2  1  0.020510  0.096449  0.283800  1
  La  La3  1  0.980899  0.908039  0.717456  1
  La  La4  1  0.683748  0.981762  0.889195  1
  La  La5  1  0.892075  0.680004  0.984745  1
  Y  Y6  1  0.105601  0.305842  0.018228  1
  Fe  Fe7  1  0.000787  0.999486  0.001967  1
  Br  Br8  1  0.213256  0.671360  0.069231  1
  Br  Br9  1  0.437143  0.364375  0.138259  1
  Br  Br10  1  0.682601  0.073440  0.220259  1
  Br  Br11  1  0.932634  0.787069  0.329916  1
  Br  Br12  1  0.153767  0.448987  0.354053  1
  Br  Br13  1  0.370218  0.159113  0.460238  1
  Br  Br14  1  0.629947  0.843142  0.539860  1
  Br  Br15  1  0.842574  0.550847  0.630095  1
  Br  Br16  1  0.073448  0.227061  0.690760  1
  Br  Br17  1  0.317380  0.927323  0.779839  1
  Br  Br18  1  0.549454  0.636469  0.852837  1
  Br  Br19  1  0.798925  0.320980  0.931066  1
