# generated using pymatgen
data_V2IrC
_symmetry_space_group_name_H-M   'P 1'
_cell_length_a   2.85930800
_cell_length_b   2.85930855
_cell_length_c   13.10340900
_cell_angle_alpha   90.00000000
_cell_angle_beta   90.00000000
_cell_angle_gamma   119.99999364
_symmetry_Int_Tables_number   1
_chemical_formula_structural   V2IrC
_chemical_formula_sum   'V4 Ir2 C2'
_cell_volume   92.77627228
_cell_formula_units_Z   2
loop_
 _symmetry_equiv_pos_site_id
 _symmetry_equiv_pos_as_xyz
  1  'x, y, z'
loop_
 _atom_site_type_symbol
 _atom_site_label
 _atom_site_symmetry_multiplicity
 _atom_site_fract_x
 _atom_site_fract_y
 _atom_site_fract_z
 _atom_site_occupancy
  V  V0  1  0.333333  0.666667  0.412861  1
  V  V1  1  0.666667  0.333333  0.587139  1
  V  V2  1  0.666667  0.333333  0.912861  1
  V  V3  1  0.333333  0.666667  0.087139  1
  Ir  Ir4  1  0.333333  0.666667  0.750000  1
  Ir  Ir5  1  0.666667  0.333333  0.250000  1
  C  C6  1  0.000000  0.000000  0.500000  1
  C  C7  1  0.000000  0.000000  0.000000  1
