# generated using pymatgen
data_Er2TmZr2Sn3
_symmetry_space_group_name_H-M   'P 1'
_cell_length_a   6.08775400
_cell_length_b   8.79666135
_cell_length_c   8.79666301
_cell_angle_alpha   59.97413500
_cell_angle_beta   89.99892296
_cell_angle_gamma   90.00108706
_symmetry_Int_Tables_number   1
_chemical_formula_structural   Er2TmZr2Sn3
_chemical_formula_sum   'Er4 Tm2 Zr4 Sn6'
_cell_volume   407.85923820
_cell_formula_units_Z   2
loop_
 _symmetry_equiv_pos_site_id
 _symmetry_equiv_pos_as_xyz
  1  'x, y, z'
loop_
 _atom_site_type_symbol
 _atom_site_label
 _atom_site_symmetry_multiplicity
 _atom_site_fract_x
 _atom_site_fract_y
 _atom_site_fract_z
 _atom_site_occupancy
  Er  Er0  1  0.749991  0.239801  0.760199  1
  Er  Er1  1  0.750008  0.760246  0.999995  1
  Er  Er2  1  0.750008  0.000005  0.239754  1
  Er  Er3  1  0.249995  0.760217  0.239783  1
  Tm  Tm4  1  0.250008  0.239763  0.999978  1
  Tm  Tm5  1  0.250008  0.000022  0.760237  1
  Zr  Zr6  1  0.499998  0.333333  0.333340  1
  Zr  Zr7  1  0.499998  0.666660  0.666667  1
  Zr  Zr8  1  0.000006  0.666659  0.666673  1
  Zr  Zr9  1  0.000006  0.333327  0.333341  1
  Sn  Sn10  1  0.750000  0.600108  0.399892  1
  Sn  Sn11  1  0.749996  0.399811  0.000036  1
  Sn  Sn12  1  0.749996  0.999964  0.600189  1
  Sn  Sn13  1  0.250005  0.399824  0.600176  1
  Sn  Sn14  1  0.249989  0.600194  0.999934  1
  Sn  Sn15  1  0.249989  0.000066  0.399806  1
