# generated using pymatgen
data_Ce4Fe2B6Sb
_symmetry_space_group_name_H-M   'P 1'
_cell_length_a   5.29003079
_cell_length_b   5.29003014
_cell_length_c   8.30344427
_cell_angle_alpha   71.42508373
_cell_angle_beta   71.42508418
_cell_angle_gamma   59.99999065
_symmetry_Int_Tables_number   1
_chemical_formula_structural   Ce4Fe2B6Sb
_chemical_formula_sum   'Ce4 Fe2 B6 Sb1'
_cell_volume   187.12829110
_cell_formula_units_Z   1
loop_
 _symmetry_equiv_pos_site_id
 _symmetry_equiv_pos_as_xyz
  1  'x, y, z'
loop_
 _atom_site_type_symbol
 _atom_site_label
 _atom_site_symmetry_multiplicity
 _atom_site_fract_x
 _atom_site_fract_y
 _atom_site_fract_z
 _atom_site_occupancy
  Ce  Ce0  1  0.254969  0.254969  0.235093  1
  Ce  Ce1  1  0.745031  0.745031  0.764907  1
  Ce  Ce2  1  0.411402  0.411402  0.765794  1
  Ce  Ce3  1  0.588598  0.588598  0.234207  1
  Fe  Fe4  1  0.116514  0.116514  0.650459  1
  Fe  Fe5  1  0.883486  0.883486  0.349541  1
  B  B6  1  0.168539  0.831461  0.500000  1
  B  B7  1  0.831461  0.500000  0.500000  1
  B  B8  1  0.500000  0.168539  0.500000  1
  B  B9  1  0.168539  0.500000  0.500000  1
  B  B10  1  0.500000  0.831461  0.500000  1
  B  B11  1  0.831461  0.168539  0.500000  1
  Sb  Sb12  1  0.000000  0.000000  0.000000  1
