# generated using pymatgen
data_Np3GaI16
_symmetry_space_group_name_H-M   'P 1'
_cell_length_a   9.09845983
_cell_length_b   9.19925868
_cell_length_c   15.25589621
_cell_angle_alpha   68.63307519
_cell_angle_beta   66.72173212
_cell_angle_gamma   84.24905044
_symmetry_Int_Tables_number   1
_chemical_formula_structural   Np3GaI16
_chemical_formula_sum   'Np3 Ga1 I16'
_cell_volume   1090.90648475
_cell_formula_units_Z   1
loop_
 _symmetry_equiv_pos_site_id
 _symmetry_equiv_pos_as_xyz
  1  'x, y, z'
loop_
 _atom_site_type_symbol
 _atom_site_label
 _atom_site_symmetry_multiplicity
 _atom_site_fract_x
 _atom_site_fract_y
 _atom_site_fract_z
 _atom_site_occupancy
  Np  Np0  1  0.045423  0.801684  0.117791  1
  Np  Np1  1  0.828897  0.059821  0.632332  1
  Np  Np2  1  0.927950  0.190857  0.869088  1
  Ga  Ga3  1  0.249679  0.972666  0.434170  1
  I  I4  1  0.106671  0.835119  0.638823  1
  I  I5  1  0.045172  0.296742  0.634804  1
  I  I6  1  0.707057  0.959053  0.865623  1
  I  I7  1  0.610293  0.822135  0.662974  1
  I  I8  1  0.161769  0.407173  0.846248  1
  I  I9  1  0.896747  0.712622  0.335222  1
  I  I10  1  0.672645  0.404585  0.891788  1
  I  I11  1  0.171255  0.934799  0.881986  1
  I  I12  1  0.451915  0.186704  0.383787  1
  I  I13  1  0.836723  0.583894  0.119540  1
  I  I14  1  0.342227  0.749451  0.370105  1
  I  I15  1  0.617272  0.306771  0.590299  1
  I  I16  1  0.993459  0.113176  0.400427  1
  I  I17  1  0.291963  0.579727  0.114422  1
  I  I18  1  0.794699  0.051145  0.101585  1
  I  I19  1  0.248187  0.031879  0.108987  1
