# generated using pymatgen
data_Y3TlCd3AgHg
_symmetry_space_group_name_H-M   'P 1'
_cell_length_a   7.85995600
_cell_length_b   7.85995551
_cell_length_c   4.16590700
_cell_angle_alpha   90.00000000
_cell_angle_beta   90.00000000
_cell_angle_gamma   120.00000207
_symmetry_Int_Tables_number   1
_chemical_formula_structural   Y3TlCd3AgHg
_chemical_formula_sum   'Y3 Tl1 Cd3 Ag1 Hg1'
_cell_volume   222.88477105
_cell_formula_units_Z   1
loop_
 _symmetry_equiv_pos_site_id
 _symmetry_equiv_pos_as_xyz
  1  'x, y, z'
loop_
 _atom_site_type_symbol
 _atom_site_label
 _atom_site_symmetry_multiplicity
 _atom_site_fract_x
 _atom_site_fract_y
 _atom_site_fract_z
 _atom_site_occupancy
  Y  Y0  1  0.597630  0.005986  0.000000  1
  Y  Y1  1  0.994014  0.591644  0.000000  1
  Y  Y2  1  0.408356  0.402370  0.000000  1
  Tl  Tl3  1  0.333333  0.666667  0.500000  1
  Cd  Cd4  1  0.252470  0.002979  0.500000  1
  Cd  Cd5  1  0.997021  0.249492  0.500000  1
  Cd  Cd6  1  0.750508  0.747530  0.500000  1
  Ag  Ag7  1  0.000000  0.000000  0.000000  1
  Hg  Hg8  1  0.666667  0.333333  0.500000  1
