# generated using pymatgen
data_YbEu3Pd3PtO14
_symmetry_space_group_name_H-M   'P 1'
_cell_length_a   7.32282946
_cell_length_b   7.31350771
_cell_length_c   7.31350644
_cell_angle_alpha   60.25198346
_cell_angle_beta   60.26948702
_cell_angle_gamma   60.26948102
_symmetry_Int_Tables_number   1
_chemical_formula_structural   YbEu3Pd3PtO14
_chemical_formula_sum   'Yb1 Eu3 Pd3 Pt1 O14'
_cell_volume   278.61164220
_cell_formula_units_Z   1
loop_
 _symmetry_equiv_pos_site_id
 _symmetry_equiv_pos_as_xyz
  1  'x, y, z'
loop_
 _atom_site_type_symbol
 _atom_site_label
 _atom_site_symmetry_multiplicity
 _atom_site_fract_x
 _atom_site_fract_y
 _atom_site_fract_z
 _atom_site_occupancy
  Yb  Yb0  1  0.125000  0.125000  0.125000  1
  Eu  Eu1  1  0.625000  0.125000  0.125000  1
  Eu  Eu2  1  0.125000  0.625000  0.125000  1
  Eu  Eu3  1  0.125000  0.125000  0.625000  1
  Pd  Pd4  1  0.625000  0.125000  0.625000  1
  Pd  Pd5  1  0.625000  0.625000  0.125000  1
  Pd  Pd6  1  0.625000  0.625000  0.625000  1
  Pt  Pt7  1  0.125000  0.625000  0.625000  1
  O  O8  1  0.251208  0.251404  0.251404  1
  O  O9  1  0.998792  0.998596  0.998596  1
  O  O10  1  0.712381  0.709821  0.289367  1
  O  O11  1  0.289271  0.292826  0.710262  1
  O  O12  1  0.712381  0.289367  0.709821  1
  O  O13  1  0.289271  0.710262  0.292826  1
  O  O14  1  0.289557  0.709358  0.709358  1
  O  O15  1  0.713217  0.289271  0.289271  1
  O  O16  1  0.537619  0.540179  0.960633  1
  O  O17  1  0.960729  0.957174  0.539738  1
  O  O18  1  0.537619  0.960633  0.540179  1
  O  O19  1  0.960729  0.539738  0.957174  1
  O  O20  1  0.960443  0.540642  0.540642  1
  O  O21  1  0.536783  0.960729  0.960729  1
