# generated using pymatgen
data_Dy3HoIr4F28
_symmetry_space_group_name_H-M   'P 1'
_cell_length_a   5.55895209
_cell_length_b   8.91332852
_cell_length_c   11.96080971
_cell_angle_alpha   62.58191364
_cell_angle_beta   90.02017394
_cell_angle_gamma   90.01091839
_symmetry_Int_Tables_number   1
_chemical_formula_structural   Dy3HoIr4F28
_chemical_formula_sum   'Dy3 Ho1 Ir4 F28'
_cell_volume   526.07174375
_cell_formula_units_Z   1
loop_
 _symmetry_equiv_pos_site_id
 _symmetry_equiv_pos_as_xyz
  1  'x, y, z'
loop_
 _atom_site_type_symbol
 _atom_site_label
 _atom_site_symmetry_multiplicity
 _atom_site_fract_x
 _atom_site_fract_y
 _atom_site_fract_z
 _atom_site_occupancy
  Dy  Dy0  1  0.760034  0.813314  0.765596  1
  Dy  Dy1  1  0.259933  0.186757  0.734214  1
  Dy  Dy2  1  0.240297  0.185815  0.234398  1
  Ho  Ho3  1  0.739992  0.813504  0.265649  1
  Ir  Ir4  1  0.757119  0.272886  0.956394  1
  Ir  Ir5  1  0.257323  0.726827  0.543377  1
  Ir  Ir6  1  0.242575  0.726807  0.044411  1
  Ir  Ir7  1  0.742792  0.273790  0.455838  1
  F  F8  1  0.442208  0.705336  0.916895  1
  F  F9  1  0.942397  0.295105  0.583765  1
  F  F10  1  0.557636  0.294558  0.084059  1
  F  F11  1  0.057261  0.705364  0.415971  1
  F  F12  1  0.444641  0.279684  0.544312  1
  F  F13  1  0.945269  0.720587  0.955681  1
  F  F14  1  0.555420  0.720970  0.454581  1
  F  F15  1  0.055669  0.279133  0.044896  1
  F  F16  1  0.769747  0.518768  0.859409  1
  F  F17  1  0.269998  0.481538  0.640230  1
  F  F18  1  0.230176  0.481724  0.140800  1
  F  F19  1  0.730385  0.519675  0.359029  1
  F  F20  1  0.756151  0.026953  0.050770  1
  F  F21  1  0.256205  0.972264  0.449494  1
  F  F22  1  0.243548  0.971856  0.950268  1
  F  F23  1  0.743584  0.027982  0.550012  1
  F  F24  1  0.967556  0.728576  0.637701  1
  F  F25  1  0.466483  0.271325  0.862148  1
  F  F26  1  0.032806  0.271621  0.361801  1
  F  F27  1  0.532194  0.728913  0.138726  1
  F  F28  1  0.046276  0.746989  0.174116  1
  F  F29  1  0.547282  0.253867  0.325620  1
  F  F30  1  0.952297  0.253207  0.826166  1
  F  F31  1  0.452693  0.746614  0.673387  1
  F  F32  1  0.418886  0.970235  0.232073  1
  F  F33  1  0.917162  0.027662  0.268133  1
  F  F34  1  0.582968  0.029038  0.768223  1
  F  F35  1  0.083037  0.970756  0.731858  1
