# generated using pymatgen
data_SrPr3(Pt2O7)2
_symmetry_space_group_name_H-M   'P 1'
_cell_length_a   7.49655569
_cell_length_b   7.49655675
_cell_length_c   7.46821816
_cell_angle_alpha   59.87438979
_cell_angle_beta   59.87438439
_cell_angle_gamma   60.00000552
_symmetry_Int_Tables_number   1
_chemical_formula_structural   SrPr3(Pt2O7)2
_chemical_formula_sum   'Sr1 Pr3 Pt4 O14'
_cell_volume   296.20912812
_cell_formula_units_Z   1
loop_
 _symmetry_equiv_pos_site_id
 _symmetry_equiv_pos_as_xyz
  1  'x, y, z'
loop_
 _atom_site_type_symbol
 _atom_site_label
 _atom_site_symmetry_multiplicity
 _atom_site_fract_x
 _atom_site_fract_y
 _atom_site_fract_z
 _atom_site_occupancy
  Sr  Sr0  1  0.125000  0.125000  0.625000  1
  Pr  Pr1  1  0.625000  0.125000  0.125000  1
  Pr  Pr2  1  0.125000  0.625000  0.125000  1
  Pr  Pr3  1  0.125000  0.125000  0.125000  1
  Pt  Pt4  1  0.125000  0.625000  0.625000  1
  Pt  Pt5  1  0.625000  0.125000  0.625000  1
  Pt  Pt6  1  0.625000  0.625000  0.125000  1
  Pt  Pt7  1  0.625000  0.625000  0.625000  1
  O  O8  1  0.253429  0.253429  0.239713  1
  O  O9  1  0.996571  0.996571  0.010287  1
  O  O10  1  0.707248  0.707248  0.291476  1
  O  O11  1  0.295986  0.295986  0.710995  1
  O  O12  1  0.697033  0.295986  0.710995  1
  O  O13  1  0.294029  0.707248  0.291476  1
  O  O14  1  0.295986  0.697033  0.710995  1
  O  O15  1  0.707248  0.294029  0.291476  1
  O  O16  1  0.542752  0.542752  0.958524  1
  O  O17  1  0.954014  0.954014  0.539005  1
  O  O18  1  0.552967  0.954014  0.539005  1
  O  O19  1  0.955971  0.542752  0.958524  1
  O  O20  1  0.954014  0.552967  0.539005  1
  O  O21  1  0.542752  0.955971  0.958524  1
