# generated using pymatgen
data_Lu(Zr3Sn2)3
_symmetry_space_group_name_H-M   'P 1'
_cell_length_a   8.59465086
_cell_length_b   8.54440816
_cell_length_c   5.84657400
_cell_angle_alpha   90.00000000
_cell_angle_beta   90.00000000
_cell_angle_gamma   119.80681313
_symmetry_Int_Tables_number   1
_chemical_formula_structural   Lu(Zr3Sn2)3
_chemical_formula_sum   'Lu1 Zr9 Sn6'
_cell_volume   372.54990119
_cell_formula_units_Z   1
loop_
 _symmetry_equiv_pos_site_id
 _symmetry_equiv_pos_as_xyz
  1  'x, y, z'
loop_
 _atom_site_type_symbol
 _atom_site_label
 _atom_site_symmetry_multiplicity
 _atom_site_fract_x
 _atom_site_fract_y
 _atom_site_fract_z
 _atom_site_occupancy
  Lu  Lu0  1  0.000000  0.762274  0.250000  1
  Zr  Zr1  1  0.666724  0.332411  0.999360  1
  Zr  Zr2  1  0.333276  0.665688  0.999360  1
  Zr  Zr3  1  0.333276  0.665688  0.500640  1
  Zr  Zr4  1  0.666724  0.332411  0.500640  1
  Zr  Zr5  1  0.751642  0.751666  0.750000  1
  Zr  Zr6  1  0.248358  0.000024  0.750000  1
  Zr  Zr7  1  0.000000  0.242743  0.750000  1
  Zr  Zr8  1  0.248802  0.249533  0.250000  1
  Zr  Zr9  1  0.751198  0.000730  0.250000  1
  Sn  Sn10  1  0.391125  0.390860  0.750000  1
  Sn  Sn11  1  0.608875  0.999736  0.750000  1
  Sn  Sn12  1  0.000000  0.607279  0.750000  1
  Sn  Sn13  1  0.605281  0.606570  0.250000  1
  Sn  Sn14  1  0.394719  0.001289  0.250000  1
  Sn  Sn15  1  0.000000  0.391097  0.250000  1
