# generated using pymatgen
data_CaZr7(Nb3Ge4)4
_symmetry_space_group_name_H-M   'P 1'
_cell_length_a   6.88286074
_cell_length_b   7.01776414
_cell_length_c   13.40092129
_cell_angle_alpha   90.09667862
_cell_angle_beta   89.87561885
_cell_angle_gamma   90.06711059
_symmetry_Int_Tables_number   1
_chemical_formula_structural   CaZr7(Nb3Ge4)4
_chemical_formula_sum   'Ca1 Zr7 Nb12 Ge16'
_cell_volume   647.29234281
_cell_formula_units_Z   1
loop_
 _symmetry_equiv_pos_site_id
 _symmetry_equiv_pos_as_xyz
  1  'x, y, z'
loop_
 _atom_site_type_symbol
 _atom_site_label
 _atom_site_symmetry_multiplicity
 _atom_site_fract_x
 _atom_site_fract_y
 _atom_site_fract_z
 _atom_site_occupancy
  Ca  Ca0  1  0.993989  0.173027  0.091266  1
  Zr  Zr1  1  0.494398  0.326756  0.092074  1
  Zr  Zr2  1  0.990213  0.175781  0.407770  1
  Zr  Zr3  1  0.509489  0.674552  0.591126  1
  Zr  Zr4  1  0.009883  0.821525  0.905763  1
  Zr  Zr5  1  0.509661  0.676184  0.906880  1
  Zr  Zr6  1  0.009909  0.825503  0.591485  1
  Zr  Zr7  1  0.491435  0.324828  0.409235  1
  Nb  Nb8  1  0.663206  0.009274  0.749349  1
  Nb  Nb9  1  0.163008  0.492941  0.749662  1
  Nb  Nb10  1  0.338088  0.990340  0.252139  1
  Nb  Nb11  1  0.835305  0.510233  0.253132  1
  Nb  Nb12  1  0.839459  0.334697  0.624337  1
  Nb  Nb13  1  0.339115  0.165819  0.875012  1
  Nb  Nb14  1  0.161352  0.666114  0.125913  1
  Nb  Nb15  1  0.659086  0.831545  0.375924  1
  Nb  Nb16  1  0.160536  0.666277  0.376781  1
  Nb  Nb17  1  0.657007  0.830036  0.126017  1
  Nb  Nb18  1  0.836130  0.337630  0.873541  1
  Nb  Nb19  1  0.340120  0.166243  0.624694  1
  Ge  Ge20  1  0.804679  0.649065  0.749087  1
  Ge  Ge21  1  0.305573  0.851861  0.749635  1
  Ge  Ge22  1  0.196229  0.352076  0.250856  1
  Ge  Ge23  1  0.693361  0.148726  0.250327  1
  Ge  Ge24  1  0.536875  0.386479  0.749631  1
  Ge  Ge25  1  0.037521  0.114796  0.750443  1
  Ge  Ge26  1  0.461231  0.613061  0.250764  1
  Ge  Ge27  1  0.961221  0.884045  0.251183  1
  Ge  Ge28  1  0.681766  0.039553  0.539754  1
  Ge  Ge29  1  0.182240  0.463446  0.958477  1
  Ge  Ge30  1  0.324092  0.958115  0.039126  1
  Ge  Ge31  1  0.819154  0.539443  0.460565  1
  Ge  Ge32  1  0.317755  0.961526  0.460359  1
  Ge  Ge33  1  0.818397  0.541436  0.039119  1
  Ge  Ge34  1  0.677812  0.037585  0.958387  1
  Ge  Ge35  1  0.180704  0.459482  0.540186  1
