# generated using pymatgen
data_TbYFe3Re14C3
_symmetry_space_group_name_H-M   'P 1'
_cell_length_a   6.92863879
_cell_length_b   6.92863818
_cell_length_c   6.92863842
_cell_angle_alpha   82.53450670
_cell_angle_beta   82.53451292
_cell_angle_gamma   82.53450069
_symmetry_Int_Tables_number   1
_chemical_formula_structural   TbYFe3Re14C3
_chemical_formula_sum   'Tb1 Y1 Fe3 Re14 C3'
_cell_volume   324.83228236
_cell_formula_units_Z   1
loop_
 _symmetry_equiv_pos_site_id
 _symmetry_equiv_pos_as_xyz
  1  'x, y, z'
loop_
 _atom_site_type_symbol
 _atom_site_label
 _atom_site_symmetry_multiplicity
 _atom_site_fract_x
 _atom_site_fract_y
 _atom_site_fract_z
 _atom_site_occupancy
  Tb  Tb0  1  0.648689  0.648689  0.648689  1
  Y  Y1  1  0.351324  0.351324  0.351324  1
  Fe  Fe2  1  0.999989  0.999989  0.500007  1
  Fe  Fe3  1  0.500007  0.999989  0.999989  1
  Fe  Fe4  1  0.999989  0.500007  0.999989  1
  Re  Re5  1  0.722169  0.277841  0.999999  1
  Re  Re6  1  0.999999  0.722169  0.277841  1
  Re  Re7  1  0.277841  0.999999  0.722169  1
  Re  Re8  1  0.999999  0.277841  0.722169  1
  Re  Re9  1  0.722169  0.999999  0.277841  1
  Re  Re10  1  0.277841  0.722169  0.999999  1
  Re  Re11  1  0.346425  0.346425  0.860972  1
  Re  Re12  1  0.860972  0.346425  0.346425  1
  Re  Re13  1  0.346425  0.860972  0.346425  1
  Re  Re14  1  0.653567  0.653567  0.139011  1
  Re  Re15  1  0.139011  0.653567  0.653567  1
  Re  Re16  1  0.653567  0.139011  0.653567  1
  Re  Re17  1  0.897809  0.897809  0.897809  1
  Re  Re18  1  0.102175  0.102175  0.102175  1
  C  C19  1  0.499988  0.499988  0.000057  1
  C  C20  1  0.000057  0.499988  0.499988  1
  C  C21  1  0.499988  0.000057  0.499988  1
