# generated using pymatgen
data_RbICl4
_symmetry_space_group_name_H-M   'P 1'
_cell_length_a   7.24239502
_cell_length_b   7.24239480
_cell_length_c   11.00241266
_cell_angle_alpha   79.80992145
_cell_angle_beta   79.80992166
_cell_angle_gamma   49.43091798
_symmetry_Int_Tables_number   1
_chemical_formula_structural   RbICl4
_chemical_formula_sum   'Rb2 I2 Cl8'
_cell_volume   429.98523994
_cell_formula_units_Z   2
loop_
 _symmetry_equiv_pos_site_id
 _symmetry_equiv_pos_as_xyz
  1  'x, y, z'
loop_
 _atom_site_type_symbol
 _atom_site_label
 _atom_site_symmetry_multiplicity
 _atom_site_fract_x
 _atom_site_fract_y
 _atom_site_fract_z
 _atom_site_occupancy
  Rb  Rb0  1  0.228032  0.771968  0.250000  1
  Rb  Rb1  1  0.771968  0.228032  0.750000  1
  I  I2  1  0.000000  0.500000  0.000000  1
  I  I3  1  0.500000  0.000000  0.500000  1
  Cl  Cl4  1  0.205593  0.684330  0.928905  1
  Cl  Cl5  1  0.289296  0.174891  0.849144  1
  Cl  Cl6  1  0.315670  0.794407  0.571095  1
  Cl  Cl7  1  0.794407  0.315670  0.071095  1
  Cl  Cl8  1  0.710704  0.825109  0.150856  1
  Cl  Cl9  1  0.825109  0.710704  0.650856  1
  Cl  Cl10  1  0.174891  0.289296  0.349144  1
  Cl  Cl11  1  0.684330  0.205593  0.428905  1
