# generated using pymatgen
data_Ho4ErNb3(Co4As3)4
_symmetry_space_group_name_H-M   'P 1'
_cell_length_a   12.49773200
_cell_length_b   12.49618966
_cell_length_c   3.79445400
_cell_angle_alpha   90.00000000
_cell_angle_beta   90.00000000
_cell_angle_gamma   120.00407765
_symmetry_Int_Tables_number   1
_chemical_formula_structural   Ho4ErNb3(Co4As3)4
_chemical_formula_sum   'Ho4 Er1 Nb3 Co16 As12'
_cell_volume   513.18138342
_cell_formula_units_Z   1
loop_
 _symmetry_equiv_pos_site_id
 _symmetry_equiv_pos_as_xyz
  1  'x, y, z'
loop_
 _atom_site_type_symbol
 _atom_site_label
 _atom_site_symmetry_multiplicity
 _atom_site_fract_x
 _atom_site_fract_y
 _atom_site_fract_z
 _atom_site_occupancy
  Ho  Ho0  1  0.999888  0.816479  0.500000  1
  Ho  Ho1  1  0.183409  0.183521  0.500000  1
  Ho  Ho2  1  0.333248  0.666522  0.000000  1
  Ho  Ho3  1  0.666728  0.333478  0.000000  1
  Er  Er4  1  0.816506  0.000000  0.500000  1
  Nb  Nb5  1  0.442202  0.000000  0.000000  1
  Nb  Nb6  1  0.999934  0.442010  0.000000  1
  Nb  Nb7  1  0.557924  0.557990  0.000000  1
  Co  Co8  1  0.280943  0.000000  0.500000  1
  Co  Co9  1  0.999719  0.280602  0.500000  1
  Co  Co10  1  0.719116  0.719398  0.500000  1
  Co  Co11  1  0.625865  0.802454  0.000000  1
  Co  Co12  1  0.197749  0.823298  0.000000  1
  Co  Co13  1  0.176504  0.374198  0.000000  1
  Co  Co14  1  0.374450  0.176702  0.000000  1
  Co  Co15  1  0.802305  0.625802  0.000000  1
  Co  Co16  1  0.823411  0.197546  0.000000  1
  Co  Co17  1  0.520541  0.875129  0.500000  1
  Co  Co18  1  0.124882  0.645172  0.500000  1
  Co  Co19  1  0.354706  0.479507  0.500000  1
  Co  Co20  1  0.479710  0.354828  0.500000  1
  Co  Co21  1  0.875198  0.520493  0.500000  1
  Co  Co22  1  0.645412  0.124871  0.500000  1
  Co  Co23  1  0.999972  0.000000  0.000000  1
  As  As24  1  0.177046  0.000000  0.000000  1
  As  As25  1  0.999678  0.177056  0.000000  1
  As  As26  1  0.822622  0.822944  0.000000  1
  As  As27  1  0.516833  0.686734  0.500000  1
  As  As28  1  0.313191  0.830020  0.500000  1
  As  As29  1  0.169794  0.482851  0.500000  1
  As  As30  1  0.483171  0.169980  0.500000  1
  As  As31  1  0.686942  0.517149  0.500000  1
  As  As32  1  0.830099  0.313266  0.500000  1
  As  As33  1  0.645050  0.000000  0.000000  1
  As  As34  1  0.999987  0.644722  0.000000  1
  As  As35  1  0.355265  0.355278  0.000000  1
