# generated using pymatgen
data_YbY(NiH4)2
_symmetry_space_group_name_H-M   'P 1'
_cell_length_a   3.60729882
_cell_length_b   4.74545100
_cell_length_c   6.05610126
_cell_angle_alpha   90.00000000
_cell_angle_beta   107.23158027
_cell_angle_gamma   90.00000000
_symmetry_Int_Tables_number   1
_chemical_formula_structural   YbY(NiH4)2
_chemical_formula_sum   'Yb1 Y1 Ni2 H8'
_cell_volume   99.01671427
_cell_formula_units_Z   1
loop_
 _symmetry_equiv_pos_site_id
 _symmetry_equiv_pos_as_xyz
  1  'x, y, z'
loop_
 _atom_site_type_symbol
 _atom_site_label
 _atom_site_symmetry_multiplicity
 _atom_site_fract_x
 _atom_site_fract_y
 _atom_site_fract_z
 _atom_site_occupancy
  Yb  Yb0  1  0.130307  0.249999  0.259628  1
  Y  Y1  1  0.866788  0.750000  0.733975  1
  Ni  Ni2  1  0.598337  0.750000  0.193444  1
  Ni  Ni3  1  0.400693  0.249999  0.805449  1
  H  H4  1  0.500922  0.999716  0.001582  1
  H  H5  1  0.500922  0.500284  0.001582  1
  H  H6  1  0.084976  0.750000  0.169759  1
  H  H7  1  0.693693  0.989723  0.387349  1
  H  H8  1  0.693693  0.510277  0.387349  1
  H  H9  1  0.309460  0.504191  0.619029  1
  H  H10  1  0.309460  0.995811  0.619029  1
  H  H11  1  0.910753  0.249999  0.821822  1
