# generated using pymatgen
data_SmHo(TaSe2)8
_symmetry_space_group_name_H-M   'P 1'
_cell_length_a   7.00868400
_cell_length_b   7.00868230
_cell_length_c   14.64300000
_cell_angle_alpha   90.00000000
_cell_angle_beta   90.00000000
_cell_angle_gamma   119.99999861
_symmetry_Int_Tables_number   1
_chemical_formula_structural   SmHo(TaSe2)8
_chemical_formula_sum   'Sm1 Ho1 Ta8 Se16'
_cell_volume   622.92183373
_cell_formula_units_Z   1
loop_
 _symmetry_equiv_pos_site_id
 _symmetry_equiv_pos_as_xyz
  1  'x, y, z'
loop_
 _atom_site_type_symbol
 _atom_site_label
 _atom_site_symmetry_multiplicity
 _atom_site_fract_x
 _atom_site_fract_y
 _atom_site_fract_z
 _atom_site_occupancy
  Sm  Sm0  1  0.000000  0.000000  0.000000  1
  Ho  Ho1  1  0.000000  0.000000  0.500000  1
  Ta  Ta2  1  0.506975  0.493025  0.747954  1
  Ta  Ta3  1  0.013948  0.506975  0.252046  1
  Ta  Ta4  1  0.493025  0.986052  0.252046  1
  Ta  Ta5  1  0.506975  0.013948  0.747954  1
  Ta  Ta6  1  0.986052  0.493025  0.747954  1
  Ta  Ta7  1  0.493025  0.506975  0.252046  1
  Ta  Ta8  1  0.000000  0.000000  0.748382  1
  Ta  Ta9  1  0.000000  0.000000  0.251618  1
  Se  Se10  1  0.830934  0.169066  0.365093  1
  Se  Se11  1  0.830934  0.661868  0.365093  1
  Se  Se12  1  0.338132  0.169066  0.365093  1
  Se  Se13  1  0.659831  0.829915  0.860989  1
  Se  Se14  1  0.169066  0.338132  0.634907  1
  Se  Se15  1  0.170085  0.829915  0.860989  1
  Se  Se16  1  0.170085  0.340169  0.860989  1
  Se  Se17  1  0.829915  0.170085  0.139011  1
  Se  Se18  1  0.340169  0.170085  0.139011  1
  Se  Se19  1  0.661868  0.830934  0.634907  1
  Se  Se20  1  0.333333  0.666667  0.134043  1
  Se  Se21  1  0.666667  0.333333  0.630467  1
  Se  Se22  1  0.666667  0.333333  0.865957  1
  Se  Se23  1  0.333333  0.666667  0.369533  1
  Se  Se24  1  0.829915  0.659831  0.139011  1
  Se  Se25  1  0.169066  0.830934  0.634907  1
