# generated using pymatgen
data_Ho8Sn(PdPt3)6
_symmetry_space_group_name_H-M   'P 1'
_cell_length_a   8.39521100
_cell_length_b   8.39736900
_cell_length_c   8.40785100
_cell_angle_alpha   89.99995909
_cell_angle_beta   90.00241417
_cell_angle_gamma   90.00001365
_symmetry_Int_Tables_number   1
_chemical_formula_structural   Ho8Sn(PdPt3)6
_chemical_formula_sum   'Ho8 Sn1 Pd6 Pt18'
_cell_volume   592.73402770
_cell_formula_units_Z   1
loop_
 _symmetry_equiv_pos_site_id
 _symmetry_equiv_pos_as_xyz
  1  'x, y, z'
loop_
 _atom_site_type_symbol
 _atom_site_label
 _atom_site_symmetry_multiplicity
 _atom_site_fract_x
 _atom_site_fract_y
 _atom_site_fract_z
 _atom_site_occupancy
  Ho  Ho0  1  0.252569  0.252041  0.252805  1
  Ho  Ho1  1  0.747459  0.747529  0.747356  1
  Ho  Ho2  1  0.747391  0.747522  0.252674  1
  Ho  Ho3  1  0.747462  0.252470  0.747361  1
  Ho  Ho4  1  0.252518  0.252037  0.747237  1
  Ho  Ho5  1  0.252569  0.747957  0.252802  1
  Ho  Ho6  1  0.252513  0.747968  0.747237  1
  Ho  Ho7  1  0.747392  0.252478  0.252676  1
  Sn  Sn8  1  0.000251  0.000000  0.000043  1
  Pd  Pd9  1  0.735463  0.999998  0.500010  1
  Pd  Pd10  1  0.999967  0.499999  0.265585  1
  Pd  Pd11  1  0.999987  0.499999  0.734237  1
  Pd  Pd12  1  0.500017  0.499997  0.744990  1
  Pd  Pd13  1  0.999636  0.000000  0.308946  1
  Pd  Pd14  1  0.999633  0.999999  0.691272  1
  Pt  Pt15  1  0.264989  0.499999  0.000086  1
  Pt  Pt16  1  0.735081  0.499999  0.000078  1
  Pt  Pt17  1  0.000013  0.265092  0.500050  1
  Pt  Pt18  1  0.499998  0.265871  0.000078  1
  Pt  Pt19  1  0.000012  0.734906  0.500052  1
  Pt  Pt20  1  0.499997  0.734130  0.000077  1
  Pt  Pt21  1  0.500231  0.000002  0.265619  1
  Pt  Pt22  1  0.264601  0.000003  0.500006  1
  Pt  Pt23  1  0.500242  0.999996  0.734226  1
  Pt  Pt24  1  0.254096  0.500002  0.499920  1
  Pt  Pt25  1  0.745839  0.500002  0.499927  1
  Pt  Pt26  1  0.500030  0.254501  0.499942  1
  Pt  Pt27  1  0.500028  0.745500  0.499944  1
  Pt  Pt28  1  0.500003  0.500003  0.254872  1
  Pt  Pt29  1  0.308860  0.000001  0.999976  1
  Pt  Pt30  1  0.691229  0.000002  0.999986  1
  Pt  Pt31  1  0.999962  0.309249  0.999965  1
  Pt  Pt32  1  0.999962  0.690750  0.999966  1
