# generated using pymatgen
data_Sr3Tc4(NiAs3)2
_symmetry_space_group_name_H-M   'P 1'
_cell_length_a   8.81665804
_cell_length_b   8.81665823
_cell_length_c   8.81665817
_cell_angle_alpha   153.06329712
_cell_angle_beta   93.81701924
_cell_angle_gamma   92.40267326
_symmetry_Int_Tables_number   1
_chemical_formula_structural   Sr3Tc4(NiAs3)2
_chemical_formula_sum   'Sr3 Tc4 Ni2 As6'
_cell_volume   301.90339666
_cell_formula_units_Z   1
loop_
 _symmetry_equiv_pos_site_id
 _symmetry_equiv_pos_as_xyz
  1  'x, y, z'
loop_
 _atom_site_type_symbol
 _atom_site_label
 _atom_site_symmetry_multiplicity
 _atom_site_fract_x
 _atom_site_fract_y
 _atom_site_fract_z
 _atom_site_occupancy
  Sr  Sr0  1  0.337958  0.337958  0.000000  1
  Sr  Sr1  1  0.666215  0.666215  0.000000  1
  Sr  Sr2  1  0.995956  0.995956  0.000000  1
  Tc  Tc3  1  0.575197  0.830283  0.744913  1
  Tc  Tc4  1  0.246857  0.502937  0.743920  1
  Tc  Tc5  1  0.759017  0.502937  0.256080  1
  Tc  Tc6  1  0.085371  0.830283  0.255087  1
  Ni  Ni7  1  0.404846  0.166715  0.238132  1
  Ni  Ni8  1  0.928582  0.166715  0.761868  1
  As  As9  1  0.298478  0.666964  0.631513  1
  As  As10  1  0.683935  0.327200  0.356735  1
  As  As11  1  0.970465  0.327200  0.643265  1
  As  As12  1  0.361693  0.005836  0.355857  1
  As  As13  1  0.035450  0.666964  0.368487  1
  As  As14  1  0.649979  0.005836  0.644143  1
