# generated using pymatgen
data_NdY7(CdRu)2
_symmetry_space_group_name_H-M   'P 1'
_cell_length_a   9.71053007
_cell_length_b   9.71053048
_cell_length_c   9.70091800
_cell_angle_alpha   60.03274031
_cell_angle_beta   60.03273892
_cell_angle_gamma   59.93451624
_symmetry_Int_Tables_number   1
_chemical_formula_structural   NdY7(CdRu)2
_chemical_formula_sum   'Nd2 Y14 Cd4 Ru4'
_cell_volume   646.81914134
_cell_formula_units_Z   2
loop_
 _symmetry_equiv_pos_site_id
 _symmetry_equiv_pos_as_xyz
  1  'x, y, z'
loop_
 _atom_site_type_symbol
 _atom_site_label
 _atom_site_symmetry_multiplicity
 _atom_site_fract_x
 _atom_site_fract_y
 _atom_site_fract_z
 _atom_site_occupancy
  Nd  Nd0  1  0.438678  0.438678  0.061322  1
  Nd  Nd1  1  0.061322  0.061322  0.438678  1
  Y  Y2  1  0.440249  0.059751  0.059751  1
  Y  Y3  1  0.845868  0.845868  0.847693  1
  Y  Y4  1  0.688528  0.311472  0.311472  1
  Y  Y5  1  0.059751  0.440249  0.440249  1
  Y  Y6  1  0.311472  0.688528  0.688528  1
  Y  Y7  1  0.310716  0.310716  0.689284  1
  Y  Y8  1  0.845868  0.845868  0.460570  1
  Y  Y9  1  0.689284  0.689284  0.310716  1
  Y  Y10  1  0.460570  0.847693  0.845868  1
  Y  Y11  1  0.059751  0.440249  0.059751  1
  Y  Y12  1  0.847693  0.460570  0.845868  1
  Y  Y13  1  0.440249  0.059751  0.440249  1
  Y  Y14  1  0.311472  0.688528  0.311472  1
  Y  Y15  1  0.688528  0.311472  0.688528  1
  Cd  Cd16  1  0.078377  0.760419  0.080602  1
  Cd  Cd17  1  0.080602  0.080602  0.760419  1
  Cd  Cd18  1  0.760419  0.078377  0.080602  1
  Cd  Cd19  1  0.080602  0.080602  0.078377  1
  Ru  Ru20  1  0.637416  0.081806  0.640389  1
  Ru  Ru21  1  0.640389  0.640389  0.637416  1
  Ru  Ru22  1  0.640389  0.640389  0.081806  1
  Ru  Ru23  1  0.081806  0.637416  0.640389  1
