# generated using pymatgen
data_TbErPa2(InNi2)2
_symmetry_space_group_name_H-M   'P 1'
_cell_length_a   7.46371565
_cell_length_b   7.46371537
_cell_length_c   3.54622900
_cell_angle_alpha   90.00000000
_cell_angle_beta   90.00000000
_cell_angle_gamma   93.39993469
_symmetry_Int_Tables_number   1
_chemical_formula_structural   TbErPa2(InNi2)2
_chemical_formula_sum   'Tb1 Er1 Pa2 In2 Ni4'
_cell_volume   197.20224474
_cell_formula_units_Z   1
loop_
 _symmetry_equiv_pos_site_id
 _symmetry_equiv_pos_as_xyz
  1  'x, y, z'
loop_
 _atom_site_type_symbol
 _atom_site_label
 _atom_site_symmetry_multiplicity
 _atom_site_fract_x
 _atom_site_fract_y
 _atom_site_fract_z
 _atom_site_occupancy
  Tb  Tb0  1  0.170525  0.329475  0.500000  1
  Er  Er1  1  0.829663  0.670337  0.500000  1
  Pa  Pa2  1  0.672286  0.171568  0.500000  1
  Pa  Pa3  1  0.328432  0.827714  0.500000  1
  In  In4  1  0.501607  0.501339  0.000000  1
  In  In5  1  0.998661  0.998393  0.000000  1
  Ni  Ni6  1  0.133469  0.637797  0.000000  1
  Ni  Ni7  1  0.862203  0.366531  0.000000  1
  Ni  Ni8  1  0.618345  0.881655  0.000000  1
  Ni  Ni9  1  0.384810  0.115190  0.000000  1
