# generated using pymatgen
data_NbTcP
_symmetry_space_group_name_H-M   'P 1'
_cell_length_a   3.84048700
_cell_length_b   6.26477000
_cell_length_c   7.33502900
_cell_angle_alpha   90.00000000
_cell_angle_beta   90.00000000
_cell_angle_gamma   90.00000000
_symmetry_Int_Tables_number   1
_chemical_formula_structural   NbTcP
_chemical_formula_sum   'Nb4 Tc4 P4'
_cell_volume   176.47909413
_cell_formula_units_Z   4
loop_
 _symmetry_equiv_pos_site_id
 _symmetry_equiv_pos_as_xyz
  1  'x, y, z'
loop_
 _atom_site_type_symbol
 _atom_site_label
 _atom_site_symmetry_multiplicity
 _atom_site_fract_x
 _atom_site_fract_y
 _atom_site_fract_z
 _atom_site_occupancy
  Nb  Nb0  1  0.250000  0.026145  0.824788  1
  Nb  Nb1  1  0.250000  0.526145  0.675212  1
  Nb  Nb2  1  0.750000  0.973855  0.175212  1
  Nb  Nb3  1  0.750000  0.473855  0.324788  1
  Tc  Tc4  1  0.250000  0.154504  0.442560  1
  Tc  Tc5  1  0.250000  0.654504  0.057440  1
  Tc  Tc6  1  0.750000  0.845496  0.557440  1
  Tc  Tc7  1  0.750000  0.345496  0.942560  1
  P  P8  1  0.250000  0.274855  0.127876  1
  P  P9  1  0.250000  0.774855  0.372124  1
  P  P10  1  0.750000  0.725145  0.872124  1
  P  P11  1  0.750000  0.225145  0.627876  1
