# generated using pymatgen
data_La3Sn3Pd2Pt
_symmetry_space_group_name_H-M   'P 1'
_cell_length_a   7.72868500
_cell_length_b   7.72868564
_cell_length_c   4.24156600
_cell_angle_alpha   90.00000000
_cell_angle_beta   90.00000000
_cell_angle_gamma   120.00000153
_symmetry_Int_Tables_number   1
_chemical_formula_structural   La3Sn3Pd2Pt
_chemical_formula_sum   'La3 Sn3 Pd2 Pt1'
_cell_volume   219.41590435
_cell_formula_units_Z   1
loop_
 _symmetry_equiv_pos_site_id
 _symmetry_equiv_pos_as_xyz
  1  'x, y, z'
loop_
 _atom_site_type_symbol
 _atom_site_label
 _atom_site_symmetry_multiplicity
 _atom_site_fract_x
 _atom_site_fract_y
 _atom_site_fract_z
 _atom_site_occupancy
  La  La0  1  0.998214  0.583974  0.000000  1
  La  La1  1  0.416026  0.414240  0.000000  1
  La  La2  1  0.585760  0.001786  0.000000  1
  Sn  Sn3  1  0.751381  0.752203  0.500000  1
  Sn  Sn4  1  0.000822  0.248619  0.500000  1
  Sn  Sn5  1  0.247797  0.999178  0.500000  1
  Pd  Pd6  1  0.000000  0.000000  0.000000  1
  Pd  Pd7  1  0.333333  0.666667  0.500000  1
  Pt  Pt8  1  0.666667  0.333333  0.500000  1
