# generated using pymatgen
data_PrPa2(ZnPt)3
_symmetry_space_group_name_H-M   'P 1'
_cell_length_a   7.34626531
_cell_length_b   7.31783970
_cell_length_c   3.95738100
_cell_angle_alpha   90.00000000
_cell_angle_beta   90.00000000
_cell_angle_gamma   119.87208479
_symmetry_Int_Tables_number   1
_chemical_formula_structural   PrPa2(ZnPt)3
_chemical_formula_sum   'Pr1 Pa2 Zn3 Pt3'
_cell_volume   184.47874802
_cell_formula_units_Z   1
loop_
 _symmetry_equiv_pos_site_id
 _symmetry_equiv_pos_as_xyz
  1  'x, y, z'
loop_
 _atom_site_type_symbol
 _atom_site_label
 _atom_site_symmetry_multiplicity
 _atom_site_fract_x
 _atom_site_fract_y
 _atom_site_fract_z
 _atom_site_occupancy
  Pr  Pr0  1  0.000000  0.592613  0.000000  1
  Pa  Pa1  1  0.588750  0.997406  0.000000  1
  Pa  Pa2  1  0.411251  0.408657  0.000000  1
  Zn  Zn3  1  0.235948  0.993196  0.500001  1
  Zn  Zn4  1  0.000000  0.253355  0.500001  1
  Zn  Zn5  1  0.764052  0.757250  0.500001  1
  Pt  Pt6  1  0.000000  0.019438  0.000000  1
  Pt  Pt7  1  0.639397  0.308741  0.500001  1
  Pt  Pt8  1  0.360602  0.669344  0.500001  1
