# generated using pymatgen
data_Ce12BeCo6Si5
_symmetry_space_group_name_H-M   'P 1'
_cell_length_a   7.39176600
_cell_length_b   7.39176452
_cell_length_c   9.64109800
_cell_angle_alpha   90.00000000
_cell_angle_beta   90.00000000
_cell_angle_gamma   119.99999769
_symmetry_Int_Tables_number   1
_chemical_formula_structural   Ce12BeCo6Si5
_chemical_formula_sum   'Ce12 Be1 Co6 Si5'
_cell_volume   456.19810002
_cell_formula_units_Z   1
loop_
 _symmetry_equiv_pos_site_id
 _symmetry_equiv_pos_as_xyz
  1  'x, y, z'
loop_
 _atom_site_type_symbol
 _atom_site_label
 _atom_site_symmetry_multiplicity
 _atom_site_fract_x
 _atom_site_fract_y
 _atom_site_fract_z
 _atom_site_occupancy
  Ce  Ce0  1  0.000000  0.593293  0.509502  1
  Ce  Ce1  1  0.593293  0.000000  0.509502  1
  Ce  Ce2  1  0.406707  0.406707  0.509502  1
  Ce  Ce3  1  0.000000  0.393198  0.003140  1
  Ce  Ce4  1  0.393198  0.000000  0.003140  1
  Ce  Ce5  1  0.606802  0.606802  0.003140  1
  Ce  Ce6  1  0.000000  0.728322  0.164788  1
  Ce  Ce7  1  0.728322  0.000000  0.164788  1
  Ce  Ce8  1  0.271678  0.271678  0.164788  1
  Ce  Ce9  1  0.000000  0.257357  0.669416  1
  Ce  Ce10  1  0.257357  0.000000  0.669416  1
  Ce  Ce11  1  0.742643  0.742643  0.669416  1
  Be  Be12  1  0.000000  0.000000  0.908559  1
  Co  Co13  1  0.000000  0.337605  0.337294  1
  Co  Co14  1  0.337605  0.000000  0.337294  1
  Co  Co15  1  0.662395  0.662395  0.337294  1
  Co  Co16  1  0.000000  0.656998  0.838606  1
  Co  Co17  1  0.656998  0.000000  0.838606  1
  Co  Co18  1  0.343002  0.343002  0.838606  1
  Si  Si19  1  0.666667  0.333333  0.289382  1
  Si  Si20  1  0.333333  0.666667  0.289382  1
  Si  Si21  1  0.333333  0.666667  0.783423  1
  Si  Si22  1  0.666667  0.333333  0.783423  1
  Si  Si23  1  0.000000  0.000000  0.406844  1
