# generated using pymatgen
data_Ba3ErNiO6
_symmetry_space_group_name_H-M   'P 1'
_cell_length_a   7.13112618
_cell_length_b   7.13112613
_cell_length_c   7.13112705
_cell_angle_alpha   93.68213171
_cell_angle_beta   93.68213340
_cell_angle_gamma   93.68213217
_symmetry_Int_Tables_number   1
_chemical_formula_structural   Ba3ErNiO6
_chemical_formula_sum   'Ba6 Er2 Ni2 O12'
_cell_volume   360.29179749
_cell_formula_units_Z   2
loop_
 _symmetry_equiv_pos_site_id
 _symmetry_equiv_pos_as_xyz
  1  'x, y, z'
loop_
 _atom_site_type_symbol
 _atom_site_label
 _atom_site_symmetry_multiplicity
 _atom_site_fract_x
 _atom_site_fract_y
 _atom_site_fract_z
 _atom_site_occupancy
  Ba  Ba0  1  0.379847  0.120152  0.750000  1
  Ba  Ba1  1  0.750000  0.379848  0.120153  1
  Ba  Ba2  1  0.249999  0.620153  0.879848  1
  Ba  Ba3  1  0.620152  0.879847  0.250001  1
  Ba  Ba4  1  0.120153  0.750000  0.379848  1
  Ba  Ba5  1  0.879847  0.250000  0.620153  1
  Er  Er6  1  0.750000  0.750001  0.750000  1
  Er  Er7  1  0.250001  0.250000  0.250000  1
  Ni  Ni8  1  0.500000  0.500000  0.500000  1
  Ni  Ni9  1  0.000000  0.000000  0.000000  1
  O  O10  1  0.782933  0.593778  0.468100  1
  O  O11  1  0.593779  0.468099  0.782933  1
  O  O12  1  0.468099  0.782933  0.593779  1
  O  O13  1  0.031900  0.906222  0.717068  1
  O  O14  1  0.906221  0.717067  0.031900  1
  O  O15  1  0.717068  0.031900  0.906221  1
  O  O16  1  0.217068  0.406221  0.531901  1
  O  O17  1  0.406221  0.531900  0.217068  1
  O  O18  1  0.531900  0.217068  0.406220  1
  O  O19  1  0.968100  0.093779  0.282933  1
  O  O20  1  0.282933  0.968099  0.093778  1
  O  O21  1  0.093778  0.282932  0.968099  1
