# generated using pymatgen
data_Sm4Dy(TcO6)2
_symmetry_space_group_name_H-M   'P 1'
_cell_length_a   6.94599490
_cell_length_b   6.94599475
_cell_length_c   7.65787079
_cell_angle_alpha   73.72617506
_cell_angle_beta   73.72617775
_cell_angle_gamma   48.83955689
_symmetry_Int_Tables_number   1
_chemical_formula_structural   Sm4Dy(TcO6)2
_chemical_formula_sum   'Sm4 Dy1 Tc2 O12'
_cell_volume   264.66042080
_cell_formula_units_Z   1
loop_
 _symmetry_equiv_pos_site_id
 _symmetry_equiv_pos_as_xyz
  1  'x, y, z'
loop_
 _atom_site_type_symbol
 _atom_site_label
 _atom_site_symmetry_multiplicity
 _atom_site_fract_x
 _atom_site_fract_y
 _atom_site_fract_z
 _atom_site_occupancy
  Sm  Sm0  1  0.194233  0.194233  0.643714  1
  Sm  Sm1  1  0.183466  0.183466  0.174882  1
  Sm  Sm2  1  0.805767  0.805767  0.356286  1
  Sm  Sm3  1  0.816534  0.816534  0.825118  1
  Dy  Dy4  1  0.500000  0.500000  0.500000  1
  Tc  Tc5  1  0.712886  0.287114  0.000000  1
  Tc  Tc6  1  0.287114  0.712886  0.000000  1
  O  O7  1  0.413117  0.911026  0.917750  1
  O  O8  1  0.911026  0.413117  0.917750  1
  O  O9  1  0.900466  0.402247  0.427329  1
  O  O10  1  0.402247  0.900466  0.427329  1
  O  O11  1  0.501466  0.501466  0.202370  1
  O  O12  1  0.998559  0.998559  0.172296  1
  O  O13  1  0.001441  0.001441  0.827704  1
  O  O14  1  0.498534  0.498534  0.797630  1
  O  O15  1  0.088974  0.586883  0.082250  1
  O  O16  1  0.586883  0.088974  0.082250  1
  O  O17  1  0.099534  0.597753  0.572671  1
  O  O18  1  0.597753  0.099534  0.572671  1
