# generated using pymatgen
data_Li3Ta2TiRh6
_symmetry_space_group_name_H-M   'P 1'
_cell_length_a   4.35453300
_cell_length_b   6.06244100
_cell_length_c   12.96370400
_cell_angle_alpha   90.00000000
_cell_angle_beta   89.99857791
_cell_angle_gamma   90.00000000
_symmetry_Int_Tables_number   1
_chemical_formula_structural   Li3Ta2TiRh6
_chemical_formula_sum   'Li6 Ta4 Ti2 Rh12'
_cell_volume   342.23011037
_cell_formula_units_Z   2
loop_
 _symmetry_equiv_pos_site_id
 _symmetry_equiv_pos_as_xyz
  1  'x, y, z'
loop_
 _atom_site_type_symbol
 _atom_site_label
 _atom_site_symmetry_multiplicity
 _atom_site_fract_x
 _atom_site_fract_y
 _atom_site_fract_z
 _atom_site_occupancy
  Li  Li0  1  0.999990  0.499999  0.998449  1
  Li  Li1  1  0.499828  0.000000  0.165789  1
  Li  Li2  1  0.999833  0.499999  0.334217  1
  Li  Li3  1  0.500005  0.000000  0.501553  1
  Li  Li4  1  0.000164  0.499999  0.667438  1
  Li  Li5  1  0.500164  0.000000  0.832560  1
  Ta  Ta6  1  0.000008  0.000000  0.995958  1
  Ta  Ta7  1  0.499842  0.499999  0.165441  1
  Ta  Ta8  1  0.999833  0.000000  0.334544  1
  Ta  Ta9  1  0.500005  0.499999  0.504040  1
  Ti  Ti10  1  0.000168  0.000000  0.669065  1
  Ti  Ti11  1  0.500170  0.499999  0.830942  1
  Rh  Rh12  1  0.499994  0.251296  0.998933  1
  Rh  Rh13  1  0.499994  0.748704  0.998933  1
  Rh  Rh14  1  0.999841  0.249707  0.166481  1
  Rh  Rh15  1  0.999841  0.750293  0.166481  1
  Rh  Rh16  1  0.499814  0.250295  0.333493  1
  Rh  Rh17  1  0.499814  0.749705  0.333493  1
  Rh  Rh18  1  0.999995  0.248741  0.501041  1
  Rh  Rh19  1  0.999995  0.751259  0.501041  1
  Rh  Rh20  1  0.500189  0.248226  0.667797  1
  Rh  Rh21  1  0.500189  0.751774  0.667797  1
  Rh  Rh22  1  0.000164  0.251875  0.832257  1
  Rh  Rh23  1  0.000164  0.748125  0.832257  1
