# generated using pymatgen
data_Sr7Tb9(YbSi4)4
_symmetry_space_group_name_H-M   'P 1'
_cell_length_a   7.58204617
_cell_length_b   7.95252608
_cell_length_c   15.42006380
_cell_angle_alpha   89.77119458
_cell_angle_beta   89.87686626
_cell_angle_gamma   90.09839637
_symmetry_Int_Tables_number   1
_chemical_formula_structural   Sr7Tb9(YbSi4)4
_chemical_formula_sum   'Sr7 Tb9 Yb4 Si16'
_cell_volume   929.76369677
_cell_formula_units_Z   1
loop_
 _symmetry_equiv_pos_site_id
 _symmetry_equiv_pos_as_xyz
  1  'x, y, z'
loop_
 _atom_site_type_symbol
 _atom_site_label
 _atom_site_symmetry_multiplicity
 _atom_site_fract_x
 _atom_site_fract_y
 _atom_site_fract_z
 _atom_site_occupancy
  Sr  Sr0  1  0.476776  0.676059  0.097108  1
  Sr  Sr1  1  0.527609  0.321540  0.596042  1
  Sr  Sr2  1  0.024538  0.177333  0.903923  1
  Sr  Sr3  1  0.026288  0.179516  0.593664  1
  Sr  Sr4  1  0.524445  0.322251  0.903501  1
  Sr  Sr5  1  0.473824  0.678491  0.402986  1
  Sr  Sr6  1  0.975438  0.822718  0.097913  1
  Tb  Tb7  1  0.314525  0.177456  0.123774  1
  Tb  Tb8  1  0.818000  0.319567  0.377639  1
  Tb  Tb9  1  0.184656  0.678533  0.878328  1
  Tb  Tb10  1  0.686327  0.821554  0.620955  1
  Tb  Tb11  1  0.314995  0.178762  0.380068  1
  Tb  Tb12  1  0.815164  0.321299  0.123139  1
  Tb  Tb13  1  0.182998  0.680882  0.620755  1
  Tb  Tb14  1  0.683832  0.820910  0.878512  1
  Tb  Tb15  1  0.966538  0.811791  0.398352  1
  Yb  Yb16  1  0.354928  0.015280  0.750071  1
  Yb  Yb17  1  0.854922  0.484810  0.750220  1
  Yb  Yb18  1  0.147470  0.514637  0.250040  1
  Yb  Yb19  1  0.642634  0.984667  0.250227  1
  Si  Si20  1  0.861181  0.546978  0.532256  1
  Si  Si21  1  0.361949  0.962630  0.963371  1
  Si  Si22  1  0.648029  0.028591  0.459160  1
  Si  Si23  1  0.137572  0.462094  0.038961  1
  Si  Si24  1  0.134209  0.477383  0.457518  1
  Si  Si25  1  0.636544  0.037317  0.038985  1
  Si  Si26  1  0.364590  0.963565  0.535985  1
  Si  Si27  1  0.862748  0.536737  0.963169  1
  Si  Si28  1  0.975496  0.879208  0.749605  1
  Si  Si29  1  0.475101  0.621434  0.749270  1
  Si  Si30  1  0.527292  0.381904  0.252086  1
  Si  Si31  1  0.021659  0.114089  0.254726  1
  Si  Si32  1  0.246453  0.403758  0.749094  1
  Si  Si33  1  0.747576  0.096466  0.749052  1
  Si  Si34  1  0.244661  0.897113  0.256725  1
  Si  Si35  1  0.759033  0.602673  0.252822  1
