# generated using pymatgen
data_NdSn6Ru3Rh
_symmetry_space_group_name_H-M   'P 1'
_cell_length_a   6.96256810
_cell_length_b   6.96256788
_cell_length_c   6.97297113
_cell_angle_alpha   119.97181850
_cell_angle_beta   119.97182377
_cell_angle_gamma   89.98488672
_symmetry_Int_Tables_number   1
_chemical_formula_structural   NdSn6Ru3Rh
_chemical_formula_sum   'Nd1 Sn6 Ru3 Rh1'
_cell_volume   239.25903432
_cell_formula_units_Z   1
loop_
 _symmetry_equiv_pos_site_id
 _symmetry_equiv_pos_as_xyz
  1  'x, y, z'
loop_
 _atom_site_type_symbol
 _atom_site_label
 _atom_site_symmetry_multiplicity
 _atom_site_fract_x
 _atom_site_fract_y
 _atom_site_fract_z
 _atom_site_occupancy
  Nd  Nd0  1  0.998522  0.998522  0.000568  1
  Sn  Sn1  1  0.470297  0.470297  0.591615  1
  Sn  Sn2  1  0.119214  0.119214  0.587460  1
  Sn  Sn3  1  0.883787  0.530362  0.410404  1
  Sn  Sn4  1  0.530362  0.883787  0.410404  1
  Sn  Sn5  1  0.997436  0.500189  0.996206  1
  Sn  Sn6  1  0.500189  0.997436  0.996206  1
  Ru  Ru7  1  0.751019  0.751019  0.157143  1
  Ru  Ru8  1  0.250025  0.594153  0.845423  1
  Ru  Ru9  1  0.594153  0.250025  0.845423  1
  Rh  Rh10  1  0.404996  0.404996  0.159146  1
