# generated using pymatgen
data_Dy16MgHg3Pt4
_symmetry_space_group_name_H-M   'P 1'
_cell_length_a   9.69600478
_cell_length_b   9.68759454
_cell_length_c   9.68759500
_cell_angle_alpha   60.00000186
_cell_angle_beta   60.02869081
_cell_angle_gamma   60.02869406
_symmetry_Int_Tables_number   1
_chemical_formula_structural   Dy16MgHg3Pt4
_chemical_formula_sum   'Dy16 Mg1 Hg3 Pt4'
_cell_volume   643.72143239
_cell_formula_units_Z   1
loop_
 _symmetry_equiv_pos_site_id
 _symmetry_equiv_pos_as_xyz
  1  'x, y, z'
loop_
 _atom_site_type_symbol
 _atom_site_label
 _atom_site_symmetry_multiplicity
 _atom_site_fract_x
 _atom_site_fract_y
 _atom_site_fract_z
 _atom_site_occupancy
  Dy  Dy0  1  0.066783  0.434932  0.434932  1
  Dy  Dy1  1  0.646755  0.054683  0.649282  1
  Dy  Dy2  1  0.812555  0.810535  0.188456  1
  Dy  Dy3  1  0.436033  0.064188  0.064188  1
  Dy  Dy4  1  0.436033  0.435593  0.064188  1
  Dy  Dy5  1  0.192146  0.190564  0.808644  1
  Dy  Dy6  1  0.812555  0.188456  0.188456  1
  Dy  Dy7  1  0.066783  0.434932  0.063354  1
  Dy  Dy8  1  0.436033  0.064188  0.435593  1
  Dy  Dy9  1  0.064113  0.645296  0.645296  1
  Dy  Dy10  1  0.192146  0.808644  0.808644  1
  Dy  Dy11  1  0.646755  0.649282  0.054683  1
  Dy  Dy12  1  0.192146  0.808644  0.190564  1
  Dy  Dy13  1  0.066783  0.063354  0.434932  1
  Dy  Dy14  1  0.812555  0.188456  0.810535  1
  Dy  Dy15  1  0.646755  0.649282  0.649282  1
  Mg  Mg16  1  0.717845  0.427385  0.427385  1
  Hg  Hg17  1  0.416557  0.412026  0.759391  1
  Hg  Hg18  1  0.416557  0.412026  0.412026  1
  Hg  Hg19  1  0.416557  0.759391  0.412026  1
  Pt  Pt20  1  0.858957  0.430099  0.855472  1
  Pt  Pt21  1  0.428686  0.857104  0.857104  1
  Pt  Pt22  1  0.858957  0.855472  0.430099  1
  Pt  Pt23  1  0.858957  0.855472  0.855472  1
