# generated using pymatgen
data_Dy2ErGa2Si3
_symmetry_space_group_name_H-M   'P 1'
_cell_length_a   5.91910657
_cell_length_b   5.91910554
_cell_length_c   9.35083600
_cell_angle_alpha   90.00000000
_cell_angle_beta   90.00000000
_cell_angle_gamma   102.86183068
_symmetry_Int_Tables_number   1
_chemical_formula_structural   Dy2ErGa2Si3
_chemical_formula_sum   'Dy4 Er2 Ga4 Si6'
_cell_volume   319.39423667
_cell_formula_units_Z   2
loop_
 _symmetry_equiv_pos_site_id
 _symmetry_equiv_pos_as_xyz
  1  'x, y, z'
loop_
 _atom_site_type_symbol
 _atom_site_label
 _atom_site_symmetry_multiplicity
 _atom_site_fract_x
 _atom_site_fract_y
 _atom_site_fract_z
 _atom_site_occupancy
  Dy  Dy0  1  0.800892  0.199108  0.000000  1
  Dy  Dy1  1  0.199108  0.800892  0.000000  1
  Dy  Dy2  1  0.199108  0.800892  0.500000  1
  Dy  Dy3  1  0.800892  0.199108  0.500000  1
  Er  Er4  1  0.659692  0.659692  0.250000  1
  Er  Er5  1  0.340308  0.340308  0.750000  1
  Ga  Ga6  1  0.320887  0.320887  0.054011  1
  Ga  Ga7  1  0.679113  0.679113  0.945989  1
  Ga  Ga8  1  0.679113  0.679113  0.554011  1
  Ga  Ga9  1  0.320887  0.320887  0.445989  1
  Si  Si10  1  0.092665  0.485591  0.250000  1
  Si  Si11  1  0.907335  0.514409  0.750000  1
  Si  Si12  1  0.485591  0.092665  0.250000  1
  Si  Si13  1  0.514409  0.907335  0.750000  1
  Si  Si14  1  0.053910  0.053910  0.250000  1
  Si  Si15  1  0.946090  0.946090  0.750000  1
