# generated using pymatgen
data_Dy2Co9As5PRu
_symmetry_space_group_name_H-M   'P 1'
_cell_length_a   3.78524900
_cell_length_b   10.68037700
_cell_length_c   12.11567300
_cell_angle_alpha   90.00000000
_cell_angle_beta   90.00000000
_cell_angle_gamma   90.00000000
_symmetry_Int_Tables_number   1
_chemical_formula_structural   Dy2Co9As5PRu
_chemical_formula_sum   'Dy4 Co18 As10 P2 Ru2'
_cell_volume   489.81105121
_cell_formula_units_Z   2
loop_
 _symmetry_equiv_pos_site_id
 _symmetry_equiv_pos_as_xyz
  1  'x, y, z'
loop_
 _atom_site_type_symbol
 _atom_site_label
 _atom_site_symmetry_multiplicity
 _atom_site_fract_x
 _atom_site_fract_y
 _atom_site_fract_z
 _atom_site_occupancy
  Dy  Dy0  1  0.250000  0.581000  0.699760  1
  Dy  Dy1  1  0.250000  0.919000  0.199760  1
  Dy  Dy2  1  0.750000  0.420450  0.299394  1
  Dy  Dy3  1  0.750000  0.079550  0.799394  1
  Co  Co4  1  0.750000  0.287210  0.007707  1
  Co  Co5  1  0.750000  0.212790  0.507707  1
  Co  Co6  1  0.250000  0.413999  0.484690  1
  Co  Co7  1  0.250000  0.086001  0.984690  1
  Co  Co8  1  0.750000  0.591876  0.504751  1
  Co  Co9  1  0.750000  0.908124  0.004751  1
  Co  Co10  1  0.250000  0.214635  0.176202  1
  Co  Co11  1  0.250000  0.285365  0.676202  1
  Co  Co12  1  0.750000  0.787803  0.826244  1
  Co  Co13  1  0.750000  0.712197  0.326244  1
  Co  Co14  1  0.250000  0.887977  0.706151  1
  Co  Co15  1  0.250000  0.612023  0.206151  1
  Co  Co16  1  0.750000  0.115628  0.302174  1
  Co  Co17  1  0.750000  0.384372  0.802174  1
  Co  Co18  1  0.250000  0.467611  0.932471  1
  Co  Co19  1  0.250000  0.032389  0.432471  1
  Co  Co20  1  0.750000  0.532944  0.069918  1
  Co  Co21  1  0.750000  0.967056  0.569918  1
  As  As22  1  0.250000  0.414805  0.114503  1
  As  As23  1  0.250000  0.085195  0.614503  1
  As  As24  1  0.750000  0.583468  0.885412  1
  As  As25  1  0.750000  0.916532  0.385412  1
  As  As26  1  0.250000  0.268069  0.869414  1
  As  As27  1  0.250000  0.231931  0.369414  1
  As  As28  1  0.750000  0.731357  0.133352  1
  As  As29  1  0.750000  0.768643  0.633352  1
  As  As30  1  0.750000  0.399351  0.607557  1
  As  As31  1  0.750000  0.100649  0.107557  1
  P  P32  1  0.250000  0.596925  0.390684  1
  P  P33  1  0.250000  0.903075  0.890684  1
  Ru  Ru34  1  0.250000  0.718786  0.989616  1
  Ru  Ru35  1  0.250000  0.781214  0.489616  1
