# generated using pymatgen
data_La3NiPd2Pb3
_symmetry_space_group_name_H-M   'P 1'
_cell_length_a   7.87078900
_cell_length_b   7.87078819
_cell_length_c   4.15143700
_cell_angle_alpha   90.00000000
_cell_angle_beta   90.00000000
_cell_angle_gamma   120.00000760
_symmetry_Int_Tables_number   1
_chemical_formula_structural   La3NiPd2Pb3
_chemical_formula_sum   'La3 Ni1 Pd2 Pb3'
_cell_volume   222.72324501
_cell_formula_units_Z   1
loop_
 _symmetry_equiv_pos_site_id
 _symmetry_equiv_pos_as_xyz
  1  'x, y, z'
loop_
 _atom_site_type_symbol
 _atom_site_label
 _atom_site_symmetry_multiplicity
 _atom_site_fract_x
 _atom_site_fract_y
 _atom_site_fract_z
 _atom_site_occupancy
  La  La0  1  0.408366  0.408366  0.500000  1
  La  La1  1  0.591634  0.000000  0.500000  1
  La  La2  1  0.000000  0.591634  0.500000  1
  Ni  Ni3  1  0.000000  0.000000  0.500000  1
  Pd  Pd4  1  0.666667  0.333333  0.000000  1
  Pd  Pd5  1  0.333333  0.666667  0.000000  1
  Pb  Pb6  1  0.753487  0.753487  0.000000  1
  Pb  Pb7  1  0.246513  0.000000  0.000000  1
  Pb  Pb8  1  0.000000  0.246513  0.000000  1
