# generated using pymatgen
data_Er2Fe14(SiC)3
_symmetry_space_group_name_H-M   'P 1'
_cell_length_a   6.42900349
_cell_length_b   6.42900426
_cell_length_c   6.42900330
_cell_angle_alpha   83.48834294
_cell_angle_beta   83.48834151
_cell_angle_gamma   83.48834785
_symmetry_Int_Tables_number   1
_chemical_formula_structural   Er2Fe14(SiC)3
_chemical_formula_sum   'Er2 Fe14 Si3 C3'
_cell_volume   260.94255381
_cell_formula_units_Z   1
loop_
 _symmetry_equiv_pos_site_id
 _symmetry_equiv_pos_as_xyz
  1  'x, y, z'
loop_
 _atom_site_type_symbol
 _atom_site_label
 _atom_site_symmetry_multiplicity
 _atom_site_fract_x
 _atom_site_fract_y
 _atom_site_fract_z
 _atom_site_occupancy
  Er  Er0  1  0.653924  0.653924  0.653924  1
  Er  Er1  1  0.346076  0.346076  0.346076  1
  Fe  Fe2  1  0.715554  0.284446  0.000000  1
  Fe  Fe3  1  0.000000  0.715554  0.284446  1
  Fe  Fe4  1  0.284446  0.000000  0.715554  1
  Fe  Fe5  1  0.000000  0.284446  0.715554  1
  Fe  Fe6  1  0.715554  0.000000  0.284446  1
  Fe  Fe7  1  0.284446  0.715554  0.000000  1
  Fe  Fe8  1  0.340854  0.861075  0.340854  1
  Fe  Fe9  1  0.340854  0.340854  0.861075  1
  Fe  Fe10  1  0.861075  0.340854  0.340854  1
  Fe  Fe11  1  0.659146  0.138925  0.659146  1
  Fe  Fe12  1  0.659146  0.659146  0.138925  1
  Fe  Fe13  1  0.138925  0.659146  0.659146  1
  Fe  Fe14  1  0.902989  0.902989  0.902989  1
  Fe  Fe15  1  0.097011  0.097011  0.097011  1
  Si  Si16  1  0.000000  0.000000  0.500000  1
  Si  Si17  1  0.500000  0.000000  0.000000  1
  Si  Si18  1  0.000000  0.500000  0.000000  1
  C  C19  1  0.500000  0.500000  0.000000  1
  C  C20  1  0.000000  0.500000  0.500000  1
  C  C21  1  0.500000  0.000000  0.500000  1
