# generated using pymatgen
data_Tb2Tm6Tc(B8Ru)3
_symmetry_space_group_name_H-M   'P 1'
_cell_length_a   3.63947400
_cell_length_b   9.09161481
_cell_length_c   11.47823107
_cell_angle_alpha   89.92201323
_cell_angle_beta   90.00000000
_cell_angle_gamma   90.00000000
_symmetry_Int_Tables_number   1
_chemical_formula_structural   Tb2Tm6Tc(B8Ru)3
_chemical_formula_sum   'Tb2 Tm6 Tc1 B24 Ru3'
_cell_volume   379.79934342
_cell_formula_units_Z   1
loop_
 _symmetry_equiv_pos_site_id
 _symmetry_equiv_pos_as_xyz
  1  'x, y, z'
loop_
 _atom_site_type_symbol
 _atom_site_label
 _atom_site_symmetry_multiplicity
 _atom_site_fract_x
 _atom_site_fract_y
 _atom_site_fract_z
 _atom_site_occupancy
  Tb  Tb0  1  0.000000  0.323589  0.413058  1
  Tb  Tb1  1  0.000000  0.677576  0.583829  1
  Tm  Tm2  1  0.000000  0.819831  0.087732  1
  Tm  Tm3  1  0.000000  0.177483  0.915332  1
  Tm  Tm4  1  0.000000  0.943330  0.371743  1
  Tm  Tm5  1  0.000000  0.057167  0.628768  1
  Tm  Tm6  1  0.000000  0.444129  0.127646  1
  Tm  Tm7  1  0.000000  0.556795  0.871930  1
  Tc  Tc8  1  0.000000  0.638748  0.319702  1
  B  B9  1  0.500000  0.553592  0.432398  1
  B  B10  1  0.500000  0.445710  0.568070  1
  B  B11  1  0.500000  0.053420  0.066497  1
  B  B12  1  0.500000  0.946332  0.933848  1
  B  B13  1  0.500000  0.749643  0.418508  1
  B  B14  1  0.500000  0.250769  0.581497  1
  B  B15  1  0.500000  0.248535  0.079660  1
  B  B16  1  0.500000  0.751299  0.920173  1
  B  B17  1  0.500000  0.792448  0.264936  1
  B  B18  1  0.500000  0.208151  0.735097  1
  B  B19  1  0.500000  0.290809  0.232574  1
  B  B20  1  0.500000  0.709564  0.766642  1
  B  B21  1  0.500000  0.631414  0.184315  1
  B  B22  1  0.500000  0.368273  0.816025  1
  B  B23  1  0.500000  0.130542  0.314108  1
  B  B24  1  0.500000  0.869981  0.685473  1
  B  B25  1  0.500000  0.982221  0.212239  1
  B  B26  1  0.500000  0.017810  0.788249  1
  B  B27  1  0.500000  0.482450  0.286231  1
  B  B28  1  0.500000  0.516455  0.713644  1
  B  B29  1  0.500000  0.606164  0.028650  1
  B  B30  1  0.500000  0.393232  0.970307  1
  B  B31  1  0.500000  0.104759  0.471441  1
  B  B32  1  0.500000  0.896863  0.529203  1
  Ru  Ru33  1  0.000000  0.360858  0.680924  1
  Ru  Ru34  1  0.000000  0.137192  0.177935  1
  Ru  Ru35  1  0.000000  0.862864  0.821618  1
