# generated using pymatgen
data_La5Yb3CePt6
_symmetry_space_group_name_H-M   'P 1'
_cell_length_a   7.74497507
_cell_length_b   7.74521506
_cell_length_c   7.73715500
_cell_angle_alpha   71.05035726
_cell_angle_beta   70.97275624
_cell_angle_gamma   70.97452590
_symmetry_Int_Tables_number   1
_chemical_formula_structural   La5Yb3CePt6
_chemical_formula_sum   'La5 Yb3 Ce1 Pt6'
_cell_volume   402.21568586
_cell_formula_units_Z   1
loop_
 _symmetry_equiv_pos_site_id
 _symmetry_equiv_pos_as_xyz
  1  'x, y, z'
loop_
 _atom_site_type_symbol
 _atom_site_label
 _atom_site_symmetry_multiplicity
 _atom_site_fract_x
 _atom_site_fract_y
 _atom_site_fract_z
 _atom_site_occupancy
  La  La0  1  0.844016  0.328996  0.605228  1
  La  La1  1  0.603259  0.844432  0.328987  1
  La  La2  1  0.670905  0.397418  0.151353  1
  La  La3  1  0.154490  0.672352  0.397514  1
  La  La4  1  0.396327  0.153682  0.674076  1
  Yb  Yb5  1  0.000815  0.997315  0.000496  1
  Yb  Yb6  1  0.805168  0.805105  0.805133  1
  Yb  Yb7  1  0.193985  0.196307  0.195043  1
  Ce  Ce8  1  0.323723  0.604874  0.847270  1
  Pt  Pt9  1  0.171898  0.949509  0.591072  1
  Pt  Pt10  1  0.583601  0.172399  0.955425  1
  Pt  Pt11  1  0.959671  0.588854  0.163747  1
  Pt  Pt12  1  0.831362  0.045319  0.413191  1
  Pt  Pt13  1  0.412299  0.827119  0.040523  1
  Pt  Pt14  1  0.048481  0.416317  0.830941  1
