# generated using pymatgen
data_Dy4Er4Tc(B8Os)3
_symmetry_space_group_name_H-M   'P 1'
_cell_length_a   3.65080300
_cell_length_b   9.12906656
_cell_length_c   11.51862900
_cell_angle_alpha   89.94878690
_cell_angle_beta   90.00000000
_cell_angle_gamma   90.00000000
_symmetry_Int_Tables_number   1
_chemical_formula_structural   Dy4Er4Tc(B8Os)3
_chemical_formula_sum   'Dy4 Er4 Tc1 B24 Os3'
_cell_volume   383.89759316
_cell_formula_units_Z   1
loop_
 _symmetry_equiv_pos_site_id
 _symmetry_equiv_pos_as_xyz
  1  'x, y, z'
loop_
 _atom_site_type_symbol
 _atom_site_label
 _atom_site_symmetry_multiplicity
 _atom_site_fract_x
 _atom_site_fract_y
 _atom_site_fract_z
 _atom_site_occupancy
  Dy  Dy0  1  0.000000  0.323803  0.412956  1
  Dy  Dy1  1  0.000000  0.677248  0.583769  1
  Dy  Dy2  1  0.000000  0.820368  0.088094  1
  Dy  Dy3  1  0.000000  0.177703  0.914695  1
  Er  Er4  1  0.000000  0.942947  0.372606  1
  Er  Er5  1  0.000000  0.056614  0.627443  1
  Er  Er6  1  0.000000  0.444822  0.128120  1
  Er  Er7  1  0.000000  0.556383  0.872264  1
  Tc  Tc8  1  0.000000  0.637882  0.321007  1
  B  B9  1  0.500000  0.553171  0.432841  1
  B  B10  1  0.500000  0.446296  0.567437  1
  B  B11  1  0.500000  0.053842  0.067296  1
  B  B12  1  0.500000  0.946131  0.932950  1
  B  B13  1  0.500000  0.748508  0.419249  1
  B  B14  1  0.500000  0.251585  0.580643  1
  B  B15  1  0.500000  0.248739  0.080559  1
  B  B16  1  0.500000  0.751347  0.919396  1
  B  B17  1  0.500000  0.791561  0.266400  1
  B  B18  1  0.500000  0.208726  0.733568  1
  B  B19  1  0.500000  0.291242  0.233029  1
  B  B20  1  0.500000  0.709128  0.766419  1
  B  B21  1  0.500000  0.631377  0.185716  1
  B  B22  1  0.500000  0.368472  0.814740  1
  B  B23  1  0.500000  0.131307  0.314132  1
  B  B24  1  0.500000  0.868932  0.685429  1
  B  B25  1  0.500000  0.982970  0.213050  1
  B  B26  1  0.500000  0.016969  0.787307  1
  B  B27  1  0.500000  0.482551  0.286979  1
  B  B28  1  0.500000  0.516694  0.713096  1
  B  B29  1  0.500000  0.606174  0.028980  1
  B  B30  1  0.500000  0.393636  0.970379  1
  B  B31  1  0.500000  0.106629  0.470613  1
  B  B32  1  0.500000  0.894407  0.529741  1
  Os  Os33  1  0.000000  0.361758  0.679579  1
  Os  Os34  1  0.000000  0.137700  0.178402  1
  Os  Os35  1  0.000000  0.862381  0.821117  1
