# generated using pymatgen
data_Dy9YNiAg3
_symmetry_space_group_name_H-M   'P 1'
_cell_length_a   9.49283114
_cell_length_b   9.49283192
_cell_length_c   9.58492200
_cell_angle_alpha   90.00000000
_cell_angle_beta   90.00000000
_cell_angle_gamma   120.01981490
_symmetry_Int_Tables_number   1
_chemical_formula_structural   Dy9YNiAg3
_chemical_formula_sum   'Dy18 Y2 Ni2 Ag6'
_cell_volume   747.86638428
_cell_formula_units_Z   2
loop_
 _symmetry_equiv_pos_site_id
 _symmetry_equiv_pos_as_xyz
  1  'x, y, z'
loop_
 _atom_site_type_symbol
 _atom_site_label
 _atom_site_symmetry_multiplicity
 _atom_site_fract_x
 _atom_site_fract_y
 _atom_site_fract_z
 _atom_site_occupancy
  Dy  Dy0  1  0.999993  0.000007  0.500186  1
  Dy  Dy1  1  0.999993  0.000007  0.999814  1
  Dy  Dy2  1  0.543949  0.456051  0.250000  1
  Dy  Dy3  1  0.543981  0.087898  0.250000  1
  Dy  Dy4  1  0.912102  0.456019  0.250000  1
  Dy  Dy5  1  0.456247  0.543753  0.750000  1
  Dy  Dy6  1  0.209952  0.790048  0.439117  1
  Dy  Dy7  1  0.210087  0.420001  0.439226  1
  Dy  Dy8  1  0.579999  0.789913  0.439226  1
  Dy  Dy9  1  0.790029  0.209971  0.560556  1
  Dy  Dy10  1  0.789907  0.580058  0.560651  1
  Dy  Dy11  1  0.419942  0.210093  0.560651  1
  Dy  Dy12  1  0.790029  0.209971  0.939444  1
  Dy  Dy13  1  0.789907  0.580058  0.939349  1
  Dy  Dy14  1  0.419942  0.210093  0.939349  1
  Dy  Dy15  1  0.209952  0.790048  0.060883  1
  Dy  Dy16  1  0.210087  0.420001  0.060774  1
  Dy  Dy17  1  0.579999  0.789913  0.060774  1
  Y  Y18  1  0.456192  0.912327  0.750000  1
  Y  Y19  1  0.087673  0.543808  0.750000  1
  Ni  Ni20  1  0.333349  0.666651  0.250000  1
  Ni  Ni21  1  0.666673  0.333327  0.750000  1
  Ag  Ag22  1  0.883374  0.116626  0.250000  1
  Ag  Ag23  1  0.883366  0.766729  0.250000  1
  Ag  Ag24  1  0.233271  0.116634  0.250000  1
  Ag  Ag25  1  0.116362  0.883638  0.750000  1
  Ag  Ag26  1  0.116664  0.233022  0.750000  1
  Ag  Ag27  1  0.766978  0.883336  0.750000  1
