# generated using pymatgen
data_DyEr15In6CoNi
_symmetry_space_group_name_H-M   'P 1'
_cell_length_a   10.33435900
_cell_length_b   10.32607943
_cell_length_c   6.92090509
_cell_angle_alpha   90.01001483
_cell_angle_beta   90.00000000
_cell_angle_gamma   120.02652407
_symmetry_Int_Tables_number   1
_chemical_formula_structural   DyEr15In6CoNi
_chemical_formula_sum   'Dy1 Er15 In6 Co1 Ni1'
_cell_volume   639.43497060
_cell_formula_units_Z   1
loop_
 _symmetry_equiv_pos_site_id
 _symmetry_equiv_pos_as_xyz
  1  'x, y, z'
loop_
 _atom_site_type_symbol
 _atom_site_label
 _atom_site_symmetry_multiplicity
 _atom_site_fract_x
 _atom_site_fract_y
 _atom_site_fract_z
 _atom_site_occupancy
  Dy  Dy0  1  0.533317  0.066633  0.792934  1
  Er  Er1  1  0.933121  0.466678  0.793628  1
  Er  Er2  1  0.533558  0.466678  0.793628  1
  Er  Er3  1  0.464883  0.929766  0.291370  1
  Er  Er4  1  0.069824  0.534833  0.291722  1
  Er  Er5  1  0.465009  0.534833  0.291722  1
  Er  Er6  1  0.822458  0.644915  0.499159  1
  Er  Er7  1  0.354859  0.177620  0.498758  1
  Er  Er8  1  0.822762  0.177620  0.498758  1
  Er  Er9  1  0.178517  0.357034  0.999835  1
  Er  Er10  1  0.643353  0.821339  0.000051  1
  Er  Er11  1  0.177985  0.821339  0.000051  1
  Er  Er12  1  0.666808  0.333613  0.181139  1
  Er  Er13  1  0.333131  0.666263  0.682608  1
  Er  Er14  1  0.000010  0.000020  0.778087  1
  Er  Er15  1  0.000059  0.000117  0.279616  1
  In  In16  1  0.837029  0.674059  0.037671  1
  In  In17  1  0.325642  0.163022  0.037776  1
  In  In18  1  0.837379  0.163022  0.037776  1
  In  In19  1  0.162646  0.325291  0.537853  1
  In  In20  1  0.674599  0.837279  0.537743  1
  In  In21  1  0.162681  0.837279  0.537743  1
  Co  Co22  1  0.333358  0.666717  0.068639  1
  Ni  Ni23  1  0.667015  0.334028  0.567640  1
