# generated using pymatgen
data_NaP4(RhO7)2
_symmetry_space_group_name_H-M   'P 1'
_cell_length_a   4.85012965
_cell_length_b   7.00612032
_cell_length_c   8.02203132
_cell_angle_alpha   90.76595620
_cell_angle_beta   92.88336280
_cell_angle_gamma   105.11608973
_symmetry_Int_Tables_number   1
_chemical_formula_structural   NaP4(RhO7)2
_chemical_formula_sum   'Na1 P4 Rh2 O14'
_cell_volume   262.72914460
_cell_formula_units_Z   1
loop_
 _symmetry_equiv_pos_site_id
 _symmetry_equiv_pos_as_xyz
  1  'x, y, z'
loop_
 _atom_site_type_symbol
 _atom_site_label
 _atom_site_symmetry_multiplicity
 _atom_site_fract_x
 _atom_site_fract_y
 _atom_site_fract_z
 _atom_site_occupancy
  Na  Na0  1  0.932167  0.994601  0.007585  1
  P  P1  1  0.014658  0.625016  0.755147  1
  P  P2  1  0.986327  0.375351  0.244831  1
  P  P3  1  0.617086  0.237739  0.695488  1
  P  P4  1  0.382799  0.763070  0.304886  1
  Rh  Rh5  1  0.499802  0.499069  0.000029  1
  Rh  Rh6  1  0.999572  0.999809  0.500432  1
  O  O7  1  0.266852  0.538573  0.798645  1
  O  O8  1  0.733683  0.461407  0.201730  1
  O  O9  1  0.790259  0.457417  0.642896  1
  O  O10  1  0.211464  0.542438  0.356378  1
  O  O11  1  0.818496  0.098552  0.697026  1
  O  O12  1  0.178818  0.900116  0.303293  1
  O  O13  1  0.857454  0.674164  0.907110  1
  O  O14  1  0.141182  0.324340  0.092528  1
  O  O15  1  0.373544  0.194267  0.561561  1
  O  O16  1  0.624779  0.806725  0.439781  1
  O  O17  1  0.123864  0.807681  0.653548  1
  O  O18  1  0.876317  0.191358  0.345323  1
  O  O19  1  0.537506  0.246798  0.879903  1
  O  O20  1  0.469670  0.754611  0.121681  1
