# generated using pymatgen
data_K2Sn2Hg3Se8
_symmetry_space_group_name_H-M   'P 1'
_cell_length_a   7.00463304
_cell_length_b   7.00463286
_cell_length_c   20.93252100
_cell_angle_alpha   90.00000000
_cell_angle_beta   90.00000000
_cell_angle_gamma   96.42779951
_symmetry_Int_Tables_number   1
_chemical_formula_structural   K2Sn2Hg3Se8
_chemical_formula_sum   'K4 Sn4 Hg6 Se16'
_cell_volume   1020.59535266
_cell_formula_units_Z   2
loop_
 _symmetry_equiv_pos_site_id
 _symmetry_equiv_pos_as_xyz
  1  'x, y, z'
loop_
 _atom_site_type_symbol
 _atom_site_label
 _atom_site_symmetry_multiplicity
 _atom_site_fract_x
 _atom_site_fract_y
 _atom_site_fract_z
 _atom_site_occupancy
  K  K0  1  0.860065  0.446667  0.881679  1
  K  K1  1  0.446667  0.860065  0.118321  1
  K  K2  1  0.360065  0.946667  0.618321  1
  K  K3  1  0.946667  0.360065  0.381679  1
  Sn  Sn4  1  0.374717  0.949079  0.863456  1
  Sn  Sn5  1  0.949079  0.374717  0.136544  1
  Sn  Sn6  1  0.874717  0.449079  0.636544  1
  Sn  Sn7  1  0.449079  0.874717  0.363456  1
  Hg  Hg8  1  0.314205  0.393694  0.752926  1
  Hg  Hg9  1  0.393694  0.314205  0.247074  1
  Hg  Hg10  1  0.814205  0.893694  0.747074  1
  Hg  Hg11  1  0.893694  0.814205  0.252926  1
  Hg  Hg12  1  0.016073  0.016073  0.000000  1
  Hg  Hg13  1  0.516073  0.516073  0.500000  1
  Se  Se14  1  0.234588  0.401084  0.631975  1
  Se  Se15  1  0.401084  0.234588  0.368025  1
  Se  Se16  1  0.734588  0.901084  0.868025  1
  Se  Se17  1  0.901084  0.734588  0.131975  1
  Se  Se18  1  0.326114  0.307236  0.872928  1
  Se  Se19  1  0.307236  0.326114  0.127072  1
  Se  Se20  1  0.826114  0.807236  0.627072  1
  Se  Se21  1  0.807236  0.826114  0.372928  1
  Se  Se22  1  0.240946  0.779402  0.967869  1
  Se  Se23  1  0.779402  0.240946  0.032131  1
  Se  Se24  1  0.740946  0.279402  0.532131  1
  Se  Se25  1  0.279402  0.740946  0.467869  1
  Se  Se26  1  0.217106  0.792352  0.765844  1
  Se  Se27  1  0.792352  0.217106  0.234156  1
  Se  Se28  1  0.292352  0.717106  0.265844  1
  Se  Se29  1  0.717106  0.292352  0.734156  1
