# generated using pymatgen
data_Mn2AlCr3S8
_symmetry_space_group_name_H-M   'P 1'
_cell_length_a   7.14452690
_cell_length_b   7.14554546
_cell_length_c   7.14475733
_cell_angle_alpha   60.20987685
_cell_angle_beta   60.20589205
_cell_angle_gamma   60.21601510
_symmetry_Int_Tables_number   1
_chemical_formula_structural   Mn2AlCr3S8
_chemical_formula_sum   'Mn2 Al1 Cr3 S8'
_cell_volume   259.14765127
_cell_formula_units_Z   1
loop_
 _symmetry_equiv_pos_site_id
 _symmetry_equiv_pos_as_xyz
  1  'x, y, z'
loop_
 _atom_site_type_symbol
 _atom_site_label
 _atom_site_symmetry_multiplicity
 _atom_site_fract_x
 _atom_site_fract_y
 _atom_site_fract_z
 _atom_site_occupancy
  Mn  Mn0  1  0.874760  0.875065  0.874809  1
  Mn  Mn1  1  0.125215  0.124943  0.125219  1
  Al  Al2  1  0.500010  0.499990  0.499994  1
  Cr  Cr3  1  0.500068  0.499993  0.999982  1
  Cr  Cr4  1  0.000027  0.500029  0.499899  1
  Cr  Cr5  1  0.499925  0.999989  0.500091  1
  S  S6  1  0.739012  0.738932  0.738911  1
  S  S7  1  0.260934  0.261012  0.718084  1
  S  S8  1  0.261063  0.717990  0.260982  1
  S  S9  1  0.718043  0.261016  0.260999  1
  S  S10  1  0.738966  0.282028  0.738979  1
  S  S11  1  0.281935  0.738932  0.739054  1
  S  S12  1  0.261034  0.261045  0.261070  1
  S  S13  1  0.739012  0.739033  0.281929  1
