# generated using pymatgen
data_Ta6Zn5GaC
_symmetry_space_group_name_H-M   'P 1'
_cell_length_a   8.17569559
_cell_length_b   8.18174969
_cell_length_c   8.18174900
_cell_angle_alpha   60.09052320
_cell_angle_beta   60.02446617
_cell_angle_gamma   60.02447295
_symmetry_Int_Tables_number   1
_chemical_formula_structural   Ta6Zn5GaC
_chemical_formula_sum   'Ta12 Zn10 Ga2 C2'
_cell_volume   387.39948245
_cell_formula_units_Z   2
loop_
 _symmetry_equiv_pos_site_id
 _symmetry_equiv_pos_as_xyz
  1  'x, y, z'
loop_
 _atom_site_type_symbol
 _atom_site_label
 _atom_site_symmetry_multiplicity
 _atom_site_fract_x
 _atom_site_fract_y
 _atom_site_fract_z
 _atom_site_occupancy
  Ta  Ta0  1  0.189328  0.810642  0.189150  1
  Ta  Ta1  1  0.439121  0.060850  0.439358  1
  Ta  Ta2  1  0.438727  0.059987  0.062559  1
  Ta  Ta3  1  0.439508  0.439583  0.061567  1
  Ta  Ta4  1  0.189484  0.810669  0.810363  1
  Ta  Ta5  1  0.059342  0.439583  0.061567  1
  Ta  Ta6  1  0.810879  0.810642  0.189150  1
  Ta  Ta7  1  0.060516  0.439637  0.439331  1
  Ta  Ta8  1  0.190658  0.188433  0.810417  1
  Ta  Ta9  1  0.811273  0.187441  0.190013  1
  Ta  Ta10  1  0.810492  0.188433  0.810417  1
  Ta  Ta11  1  0.060672  0.060850  0.439358  1
  Zn  Zn12  1  0.751572  0.416041  0.415954  1
  Zn  Zn13  1  0.416429  0.416041  0.415954  1
  Zn  Zn14  1  0.833974  0.834313  0.497741  1
  Zn  Zn15  1  0.416026  0.752259  0.415687  1
  Zn  Zn16  1  0.833571  0.834046  0.833959  1
  Zn  Zn17  1  0.498428  0.834046  0.833959  1
  Zn  Zn18  1  0.626479  0.123820  0.623223  1
  Zn  Zn19  1  0.623521  0.626777  0.126180  1
  Zn  Zn20  1  0.125000  0.628260  0.621740  1
  Zn  Zn21  1  0.625000  0.628260  0.621740  1
  Ga  Ga22  1  0.835140  0.494090  0.835633  1
  Ga  Ga23  1  0.414860  0.414367  0.755910  1
  C  C24  1  0.000483  0.999981  0.999053  1
  C  C25  1  0.249517  0.250947  0.250019  1
