# generated using pymatgen
data_CsRb3Ga4(SnSe4)4
_symmetry_space_group_name_H-M   'P 1'
_cell_length_a   13.65530038
_cell_length_b   7.65348898
_cell_length_c   18.71426976
_cell_angle_alpha   82.47224523
_cell_angle_beta   89.59162763
_cell_angle_gamma   89.78960563
_symmetry_Int_Tables_number   1
_chemical_formula_structural   CsRb3Ga4(SnSe4)4
_chemical_formula_sum   'Cs2 Rb6 Ga8 Sn8 Se32'
_cell_volume   1938.92823041
_cell_formula_units_Z   2
loop_
 _symmetry_equiv_pos_site_id
 _symmetry_equiv_pos_as_xyz
  1  'x, y, z'
loop_
 _atom_site_type_symbol
 _atom_site_label
 _atom_site_symmetry_multiplicity
 _atom_site_fract_x
 _atom_site_fract_y
 _atom_site_fract_z
 _atom_site_occupancy
  Cs  Cs0  1  0.433204  0.782189  0.331921  1
  Cs  Cs1  1  0.566796  0.217811  0.668079  1
  Rb  Rb2  1  0.939476  0.225007  0.173610  1
  Rb  Rb3  1  0.060524  0.774993  0.826390  1
  Rb  Rb4  1  0.600647  0.248345  0.049854  1
  Rb  Rb5  1  0.399353  0.751655  0.950146  1
  Rb  Rb6  1  0.100282  0.753323  0.453390  1
  Rb  Rb7  1  0.899718  0.246677  0.546610  1
  Ga  Ga8  1  0.758511  0.990533  0.343023  1
  Ga  Ga9  1  0.241489  0.009467  0.656977  1
  Ga  Ga10  1  0.253739  0.011526  0.155858  1
  Ga  Ga11  1  0.746261  0.988474  0.844142  1
  Ga  Ga12  1  0.756249  0.472215  0.358706  1
  Ga  Ga13  1  0.243751  0.527785  0.641294  1
  Ga  Ga14  1  0.253092  0.530129  0.139397  1
  Ga  Ga15  1  0.746908  0.469871  0.860603  1
  Sn  Sn16  1  0.708591  0.744408  0.183989  1
  Sn  Sn17  1  0.291409  0.255592  0.816011  1
  Sn  Sn18  1  0.205531  0.255936  0.315249  1
  Sn  Sn19  1  0.794469  0.744064  0.684751  1
  Sn  Sn20  1  0.813611  0.716951  0.014378  1
  Sn  Sn21  1  0.186389  0.283049  0.985622  1
  Sn  Sn22  1  0.308538  0.278332  0.485824  1
  Sn  Sn23  1  0.691462  0.721668  0.514176  1
  Se  Se24  1  0.170642  0.954582  0.276355  1
  Se  Se25  1  0.829358  0.045418  0.723645  1
  Se  Se26  1  0.676545  0.047073  0.223424  1
  Se  Se27  1  0.323455  0.952927  0.776576  1
  Se  Se28  1  0.861088  0.729969  0.348904  1
  Se  Se29  1  0.138912  0.270031  0.651096  1
  Se  Se30  1  0.357419  0.270194  0.150144  1
  Se  Se31  1  0.642581  0.729806  0.849856  1
  Se  Se32  1  0.631890  0.755481  0.055049  1
  Se  Se33  1  0.368110  0.244519  0.944951  1
  Se  Se34  1  0.127766  0.248836  0.444623  1
  Se  Se35  1  0.872234  0.751164  0.555377  1
  Se  Se36  1  0.632012  0.484295  0.263616  1
  Se  Se37  1  0.367988  0.515705  0.736384  1
  Se  Se38  1  0.129205  0.516471  0.236158  1
  Se  Se39  1  0.870795  0.483529  0.763842  1
  Se  Se40  1  0.625206  0.986741  0.432124  1
  Se  Se41  1  0.374794  0.013259  0.567876  1
  Se  Se42  1  0.117479  0.024172  0.070319  1
  Se  Se43  1  0.882521  0.975828  0.929681  1
  Se  Se44  1  0.888863  0.712001  0.142211  1
  Se  Se45  1  0.111137  0.287999  0.857789  1
  Se  Se46  1  0.385258  0.282431  0.357557  1
  Se  Se47  1  0.614742  0.717569  0.642443  1
  Se  Se48  1  0.366687  0.773723  0.140634  1
  Se  Se49  1  0.633313  0.226277  0.859366  1
  Se  Se50  1  0.871044  0.229367  0.355354  1
  Se  Se51  1  0.128956  0.770633  0.644646  1
  Se  Se52  1  0.663183  0.419484  0.474451  1
  Se  Se53  1  0.336817  0.580516  0.525549  1
  Se  Se54  1  0.160390  0.586948  0.024547  1
  Se  Se55  1  0.839610  0.413052  0.975453  1
