# generated using pymatgen
data_Er10Tm2Tc3Rh
_symmetry_space_group_name_H-M   'P 1'
_cell_length_a   6.23659028
_cell_length_b   7.34279448
_cell_length_c   9.05834611
_cell_angle_alpha   90.01600741
_cell_angle_beta   90.00773011
_cell_angle_gamma   89.92017930
_symmetry_Int_Tables_number   1
_chemical_formula_structural   Er10Tm2Tc3Rh
_chemical_formula_sum   'Er10 Tm2 Tc3 Rh1'
_cell_volume   414.81748531
_cell_formula_units_Z   1
loop_
 _symmetry_equiv_pos_site_id
 _symmetry_equiv_pos_as_xyz
  1  'x, y, z'
loop_
 _atom_site_type_symbol
 _atom_site_label
 _atom_site_symmetry_multiplicity
 _atom_site_fract_x
 _atom_site_fract_y
 _atom_site_fract_z
 _atom_site_occupancy
  Er  Er0  1  0.836628  0.678813  0.439040  1
  Er  Er1  1  0.336731  0.823988  0.562733  1
  Er  Er2  1  0.336801  0.824168  0.937449  1
  Er  Er3  1  0.836724  0.678721  0.060826  1
  Er  Er4  1  0.167939  0.323061  0.565242  1
  Er  Er5  1  0.662726  0.174043  0.439039  1
  Er  Er6  1  0.875808  0.961644  0.750349  1
  Er  Er7  1  0.369251  0.542018  0.249721  1
  Er  Er8  1  0.626227  0.459336  0.750291  1
  Er  Er9  1  0.127332  0.041101  0.249690  1
  Tm  Tm10  1  0.662671  0.173869  0.060710  1
  Tm  Tm11  1  0.167986  0.322968  0.934940  1
  Tc  Tc12  1  0.037887  0.612595  0.750100  1
  Tc  Tc13  1  0.539240  0.884306  0.249923  1
  Tc  Tc14  1  0.460426  0.115379  0.750506  1
  Rh  Rh15  1  0.955622  0.383988  0.249440  1
