# generated using pymatgen
data_Pr3Sm2Sn10(PdRh)2
_symmetry_space_group_name_H-M   'P 1'
_cell_length_a   14.25227000
_cell_length_b   14.24942000
_cell_length_c   4.64753400
_cell_angle_alpha   90.00000000
_cell_angle_beta   90.00000000
_cell_angle_gamma   90.00000000
_symmetry_Int_Tables_number   1
_chemical_formula_structural   Pr3Sm2Sn10(PdRh)2
_chemical_formula_sum   'Pr6 Sm4 Sn20 Pd4 Rh4'
_cell_volume   943.85179099
_cell_formula_units_Z   2
loop_
 _symmetry_equiv_pos_site_id
 _symmetry_equiv_pos_as_xyz
  1  'x, y, z'
loop_
 _atom_site_type_symbol
 _atom_site_label
 _atom_site_symmetry_multiplicity
 _atom_site_fract_x
 _atom_site_fract_y
 _atom_site_fract_z
 _atom_site_occupancy
  Pr  Pr0  1  0.500000  0.500000  0.000000  1
  Pr  Pr1  1  0.000000  0.000000  0.000000  1
  Pr  Pr2  1  0.892342  0.390563  0.500000  1
  Pr  Pr3  1  0.107658  0.609437  0.500000  1
  Pr  Pr4  1  0.392342  0.109437  0.500000  1
  Pr  Pr5  1  0.607658  0.890563  0.500000  1
  Sm  Sm6  1  0.677544  0.179651  0.500000  1
  Sm  Sm7  1  0.322456  0.820349  0.500000  1
  Sm  Sm8  1  0.177544  0.320349  0.500000  1
  Sm  Sm9  1  0.822456  0.679651  0.500000  1
  Sn  Sn10  1  0.567196  0.071794  0.000000  1
  Sn  Sn11  1  0.432804  0.928206  0.000000  1
  Sn  Sn12  1  0.067196  0.428206  0.000000  1
  Sn  Sn13  1  0.932804  0.571794  0.000000  1
  Sn  Sn14  1  0.652562  0.702562  0.000000  1
  Sn  Sn15  1  0.347438  0.297438  0.000000  1
  Sn  Sn16  1  0.152562  0.797438  0.000000  1
  Sn  Sn17  1  0.847438  0.202562  0.000000  1
  Sn  Sn18  1  0.301309  0.653784  0.000000  1
  Sn  Sn19  1  0.698691  0.346216  0.000000  1
  Sn  Sn20  1  0.198691  0.153784  0.000000  1
  Sn  Sn21  1  0.801309  0.846216  0.000000  1
  Sn  Sn22  1  0.663327  0.503343  0.500000  1
  Sn  Sn23  1  0.336673  0.496657  0.500000  1
  Sn  Sn24  1  0.163327  0.996657  0.500000  1
  Sn  Sn25  1  0.836673  0.003343  0.500000  1
  Sn  Sn26  1  0.495676  0.664121  0.500000  1
  Sn  Sn27  1  0.504324  0.335879  0.500000  1
  Sn  Sn28  1  0.004324  0.164121  0.500000  1
  Sn  Sn29  1  0.995676  0.835879  0.500000  1
  Pd  Pd30  1  0.746523  0.531350  0.000000  1
  Pd  Pd31  1  0.253477  0.468650  0.000000  1
  Pd  Pd32  1  0.246523  0.968650  0.000000  1
  Pd  Pd33  1  0.753477  0.031350  0.000000  1
  Rh  Rh34  1  0.468603  0.743342  0.000000  1
  Rh  Rh35  1  0.531397  0.256658  0.000000  1
  Rh  Rh36  1  0.031397  0.243342  0.000000  1
  Rh  Rh37  1  0.968603  0.756658  0.000000  1
