# generated using pymatgen
data_Nd12Ir3Au
_symmetry_space_group_name_H-M   'P 1'
_cell_length_a   6.61000101
_cell_length_b   7.39300197
_cell_length_c   9.94082600
_cell_angle_alpha   90.00000000
_cell_angle_beta   90.00000000
_cell_angle_gamma   90.28064788
_symmetry_Int_Tables_number   1
_chemical_formula_structural   Nd12Ir3Au
_chemical_formula_sum   'Nd12 Ir3 Au1'
_cell_volume   485.77997666
_cell_formula_units_Z   1
loop_
 _symmetry_equiv_pos_site_id
 _symmetry_equiv_pos_as_xyz
  1  'x, y, z'
loop_
 _atom_site_type_symbol
 _atom_site_label
 _atom_site_symmetry_multiplicity
 _atom_site_fract_x
 _atom_site_fract_y
 _atom_site_fract_z
 _atom_site_occupancy
  Nd  Nd0  1  0.338379  0.670115  0.060326  1
  Nd  Nd1  1  0.172561  0.187656  0.442619  1
  Nd  Nd2  1  0.674859  0.322838  0.566246  1
  Nd  Nd3  1  0.829926  0.824435  0.932455  1
  Nd  Nd4  1  0.674859  0.322838  0.933754  1
  Nd  Nd5  1  0.829926  0.824435  0.567545  1
  Nd  Nd6  1  0.338379  0.670115  0.439674  1
  Nd  Nd7  1  0.172561  0.187656  0.057381  1
  Nd  Nd8  1  0.853180  0.518135  0.250000  1
  Nd  Nd9  1  0.621863  0.038577  0.250000  1
  Nd  Nd10  1  0.141427  0.464046  0.750000  1
  Nd  Nd11  1  0.360027  0.962723  0.750000  1
  Ir  Ir12  1  0.431794  0.381903  0.250000  1
  Ir  Ir13  1  0.939044  0.118932  0.750000  1
  Ir  Ir14  1  0.559352  0.618691  0.750000  1
  Au  Au15  1  0.061863  0.886905  0.250000  1
