# generated using pymatgen
data_ErTi3(BiO4)3
_symmetry_space_group_name_H-M   'P 1'
_cell_length_a   5.37744200
_cell_length_b   5.46907964
_cell_length_c   17.12522631
_cell_angle_alpha   81.06532058
_cell_angle_beta   90.00000000
_cell_angle_gamma   90.00000000
_symmetry_Int_Tables_number   1
_chemical_formula_structural   ErTi3(BiO4)3
_chemical_formula_sum   'Er2 Ti6 Bi6 O24'
_cell_volume   497.53582683
_cell_formula_units_Z   2
loop_
 _symmetry_equiv_pos_site_id
 _symmetry_equiv_pos_as_xyz
  1  'x, y, z'
loop_
 _atom_site_type_symbol
 _atom_site_label
 _atom_site_symmetry_multiplicity
 _atom_site_fract_x
 _atom_site_fract_y
 _atom_site_fract_z
 _atom_site_occupancy
  Er  Er0  1  0.266940  0.081184  0.868814  1
  Er  Er1  1  0.733060  0.581184  0.868814  1
  Ti  Ti2  1  0.764975  0.060827  0.985735  1
  Ti  Ti3  1  0.235025  0.560827  0.985735  1
  Ti  Ti4  1  0.762284  0.180240  0.750331  1
  Ti  Ti5  1  0.237716  0.680240  0.750331  1
  Ti  Ti6  1  0.756775  0.919929  0.258642  1
  Ti  Ti7  1  0.243225  0.419929  0.258642  1
  Bi  Bi8  1  0.272697  0.184570  0.589339  1
  Bi  Bi9  1  0.727303  0.684570  0.589339  1
  Bi  Bi10  1  0.262065  0.934851  0.132110  1
  Bi  Bi11  1  0.737935  0.434851  0.132110  1
  Bi  Bi12  1  0.234272  0.778110  0.434410  1
  Bi  Bi13  1  0.765728  0.278110  0.434410  1
  O  O14  1  0.449522  0.318630  0.957066  1
  O  O15  1  0.550478  0.818630  0.957066  1
  O  O16  1  0.506323  0.003744  0.506247  1
  O  O17  1  0.493677  0.503744  0.506247  1
  O  O18  1  0.855961  0.179236  0.875749  1
  O  O19  1  0.144039  0.679236  0.875749  1
  O  O20  1  0.676681  0.247440  0.645708  1
  O  O21  1  0.323319  0.747440  0.645708  1
  O  O22  1  0.453729  0.404756  0.788905  1
  O  O23  1  0.546271  0.904756  0.788905  1
  O  O24  1  0.935523  0.515276  0.747521  1
  O  O25  1  0.064477  0.015276  0.747521  1
  O  O26  1  0.932904  0.397469  0.002512  1
  O  O27  1  0.067096  0.897469  0.002512  1
  O  O28  1  0.993809  0.503714  0.507412  1
  O  O29  1  0.006191  0.003714  0.507412  1
  O  O30  1  0.676489  0.047406  0.098292  1
  O  O31  1  0.323511  0.547406  0.098292  1
  O  O32  1  0.795408  0.869370  0.360651  1
  O  O33  1  0.204592  0.369370  0.360651  1
  O  O34  1  0.014245  0.183318  0.219446  1
  O  O35  1  0.985755  0.683318  0.219446  1
  O  O36  1  0.527012  0.218330  0.236911  1
  O  O37  1  0.472988  0.718330  0.236911  1
