# generated using pymatgen
data_Lu4Ni(GeIr)6
_symmetry_space_group_name_H-M   'P 1'
_cell_length_a   7.17703133
_cell_length_b   7.17703057
_cell_length_c   7.17703043
_cell_angle_alpha   109.36906218
_cell_angle_beta   109.36906660
_cell_angle_gamma   109.67572931
_symmetry_Int_Tables_number   1
_chemical_formula_structural   Lu4Ni(GeIr)6
_chemical_formula_sum   'Lu4 Ni1 Ge6 Ir6'
_cell_volume   284.58261843
_cell_formula_units_Z   1
loop_
 _symmetry_equiv_pos_site_id
 _symmetry_equiv_pos_as_xyz
  1  'x, y, z'
loop_
 _atom_site_type_symbol
 _atom_site_label
 _atom_site_symmetry_multiplicity
 _atom_site_fract_x
 _atom_site_fract_y
 _atom_site_fract_z
 _atom_site_occupancy
  Lu  Lu0  1  0.000313  0.999687  0.500000  1
  Lu  Lu1  1  0.000313  0.500313  0.000626  1
  Lu  Lu2  1  0.499687  0.999687  0.999374  1
  Lu  Lu3  1  0.499687  0.500313  0.500000  1
  Ni  Ni4  1  0.750000  0.250000  0.500000  1
  Ge  Ge5  1  0.685371  0.685371  0.000000  1
  Ge  Ge6  1  0.319388  0.002252  0.317136  1
  Ge  Ge7  1  0.997748  0.314884  0.317136  1
  Ge  Ge8  1  0.314629  0.314629  0.000000  1
  Ge  Ge9  1  0.685116  0.002252  0.682864  1
  Ge  Ge10  1  0.997748  0.680612  0.682864  1
  Ir  Ir11  1  0.748387  0.496923  0.251464  1
  Ir  Ir12  1  0.503077  0.251613  0.748536  1
  Ir  Ir13  1  0.245459  0.496923  0.748536  1
  Ir  Ir14  1  0.250000  0.750000  0.500000  1
  Ir  Ir15  1  0.503077  0.754541  0.251464  1
  Ir  Ir16  1  0.000000  0.000000  0.000000  1
