# generated using pymatgen
data_CaY2(SnRh2)3
_symmetry_space_group_name_H-M   'P 1'
_cell_length_a   5.75231400
_cell_length_b   5.75231395
_cell_length_c   16.54021500
_cell_angle_alpha   90.00000000
_cell_angle_beta   90.00000000
_cell_angle_gamma   120.00000027
_symmetry_Int_Tables_number   1
_chemical_formula_structural   CaY2(SnRh2)3
_chemical_formula_sum   'Ca2 Y4 Sn6 Rh12'
_cell_volume   473.97664977
_cell_formula_units_Z   2
loop_
 _symmetry_equiv_pos_site_id
 _symmetry_equiv_pos_as_xyz
  1  'x, y, z'
loop_
 _atom_site_type_symbol
 _atom_site_label
 _atom_site_symmetry_multiplicity
 _atom_site_fract_x
 _atom_site_fract_y
 _atom_site_fract_z
 _atom_site_occupancy
  Ca  Ca0  1  0.333333  0.666667  0.750000  1
  Ca  Ca1  1  0.666667  0.333333  0.250000  1
  Y  Y2  1  0.333333  0.666667  0.544698  1
  Y  Y3  1  0.666667  0.333333  0.455302  1
  Y  Y4  1  0.666667  0.333333  0.044698  1
  Y  Y5  1  0.333333  0.666667  0.955302  1
  Sn  Sn6  1  0.000000  0.000000  0.250000  1
  Sn  Sn7  1  0.000000  0.000000  0.750000  1
  Sn  Sn8  1  0.333333  0.666667  0.250000  1
  Sn  Sn9  1  0.666667  0.333333  0.750000  1
  Sn  Sn10  1  0.000000  0.000000  0.000000  1
  Sn  Sn11  1  0.000000  0.000000  0.500000  1
  Rh  Rh12  1  0.172057  0.344114  0.122094  1
  Rh  Rh13  1  0.827943  0.655886  0.877906  1
  Rh  Rh14  1  0.655886  0.827943  0.122094  1
  Rh  Rh15  1  0.827943  0.655886  0.622094  1
  Rh  Rh16  1  0.344114  0.172057  0.877906  1
  Rh  Rh17  1  0.172057  0.344114  0.377906  1
  Rh  Rh18  1  0.172057  0.827943  0.122094  1
  Rh  Rh19  1  0.344114  0.172057  0.622094  1
  Rh  Rh20  1  0.827943  0.172057  0.877906  1
  Rh  Rh21  1  0.655886  0.827943  0.377906  1
  Rh  Rh22  1  0.827943  0.172057  0.622094  1
  Rh  Rh23  1  0.172057  0.827943  0.377906  1
