# generated using pymatgen
data_Tb4Al4CuRu3
_symmetry_space_group_name_H-M   'P 1'
_cell_length_a   4.13532500
_cell_length_b   6.96671001
_cell_length_c   8.05683996
_cell_angle_alpha   90.46407968
_cell_angle_beta   90.00000000
_cell_angle_gamma   90.00000000
_symmetry_Int_Tables_number   1
_chemical_formula_structural   Tb4Al4CuRu3
_chemical_formula_sum   'Tb4 Al4 Cu1 Ru3'
_cell_volume   232.10680367
_cell_formula_units_Z   1
loop_
 _symmetry_equiv_pos_site_id
 _symmetry_equiv_pos_as_xyz
  1  'x, y, z'
loop_
 _atom_site_type_symbol
 _atom_site_label
 _atom_site_symmetry_multiplicity
 _atom_site_fract_x
 _atom_site_fract_y
 _atom_site_fract_z
 _atom_site_occupancy
  Tb  Tb0  1  0.250000  0.028263  0.677989  1
  Tb  Tb1  1  0.250000  0.536294  0.818628  1
  Tb  Tb2  1  0.750000  0.969223  0.320008  1
  Tb  Tb3  1  0.750000  0.472233  0.184897  1
  Al  Al4  1  0.250000  0.141352  0.059022  1
  Al  Al5  1  0.250000  0.639192  0.441266  1
  Al  Al6  1  0.750000  0.853501  0.941519  1
  Al  Al7  1  0.750000  0.363264  0.558088  1
  Cu  Cu8  1  0.750000  0.221689  0.876890  1
  Ru  Ru9  1  0.250000  0.268954  0.378176  1
  Ru  Ru10  1  0.250000  0.771328  0.119716  1
  Ru  Ru11  1  0.750000  0.734710  0.623800  1
