# generated using pymatgen
data_Ag3BiIr2(RuO7)2
_symmetry_space_group_name_H-M   'P 1'
_cell_length_a   7.28149530
_cell_length_b   7.21157541
_cell_length_c   7.22915280
_cell_angle_alpha   60.08041173
_cell_angle_beta   60.36425338
_cell_angle_gamma   60.31715021
_symmetry_Int_Tables_number   1
_chemical_formula_structural   Ag3BiIr2(RuO7)2
_chemical_formula_sum   'Ag3 Bi1 Ir2 Ru2 O14'
_cell_volume   269.96427546
_cell_formula_units_Z   1
loop_
 _symmetry_equiv_pos_site_id
 _symmetry_equiv_pos_as_xyz
  1  'x, y, z'
loop_
 _atom_site_type_symbol
 _atom_site_label
 _atom_site_symmetry_multiplicity
 _atom_site_fract_x
 _atom_site_fract_y
 _atom_site_fract_z
 _atom_site_occupancy
  Ag  Ag0  1  0.125000  0.125000  0.625000  1
  Ag  Ag1  1  0.125000  0.625000  0.125000  1
  Ag  Ag2  1  0.125000  0.125000  0.125000  1
  Bi  Bi3  1  0.625000  0.125000  0.125000  1
  Ir  Ir4  1  0.625000  0.125000  0.625000  1
  Ir  Ir5  1  0.625000  0.625000  0.625000  1
  Ru  Ru6  1  0.625000  0.625000  0.125000  1
  Ru  Ru7  1  0.125000  0.625000  0.625000  1
  O  O8  1  0.235168  0.254610  0.255611  1
  O  O9  1  0.014832  0.995390  0.994389  1
  O  O10  1  0.551346  0.954250  0.540155  1
  O  O11  1  0.316346  0.687139  0.309375  1
  O  O12  1  0.558630  0.539065  0.950424  1
  O  O13  1  0.940260  0.560087  0.554743  1
  O  O14  1  0.558630  0.951881  0.950424  1
  O  O15  1  0.940260  0.944909  0.554743  1
  O  O16  1  0.933654  0.562861  0.940625  1
  O  O17  1  0.691370  0.298119  0.299576  1
  O  O18  1  0.309740  0.689913  0.695257  1
  O  O19  1  0.698654  0.295750  0.709845  1
  O  O20  1  0.309740  0.305091  0.695257  1
  O  O21  1  0.691370  0.710935  0.299576  1
