# generated using pymatgen
data_La5Pr7(ThPt3)2
_symmetry_space_group_name_H-M   'P 1'
_cell_length_a   6.56638403
_cell_length_b   10.31333344
_cell_length_c   10.29545942
_cell_angle_alpha   120.05078072
_cell_angle_beta   89.99042043
_cell_angle_gamma   90.00073595
_symmetry_Int_Tables_number   1
_chemical_formula_structural   La5Pr7(ThPt3)2
_chemical_formula_sum   'La5 Pr7 Th2 Pt6'
_cell_volume   603.50272689
_cell_formula_units_Z   1
loop_
 _symmetry_equiv_pos_site_id
 _symmetry_equiv_pos_as_xyz
  1  'x, y, z'
loop_
 _atom_site_type_symbol
 _atom_site_label
 _atom_site_symmetry_multiplicity
 _atom_site_fract_x
 _atom_site_fract_y
 _atom_site_fract_z
 _atom_site_occupancy
  La  La0  1  0.247931  0.128237  0.870821  1
  La  La1  1  0.247899  0.742830  0.870949  1
  La  La2  1  0.247897  0.128629  0.257235  1
  La  La3  1  0.747804  0.871173  0.128259  1
  La  La4  1  0.747743  0.256846  0.128148  1
  Pr  Pr5  1  0.747464  0.871316  0.742631  1
  Pr  Pr6  1  0.446852  0.538525  0.461929  1
  Pr  Pr7  1  0.446787  0.923383  0.461962  1
  Pr  Pr8  1  0.446636  0.538024  0.076117  1
  Pr  Pr9  1  0.946129  0.462236  0.538419  1
  Pr  Pr10  1  0.946060  0.076190  0.538375  1
  Pr  Pr11  1  0.946380  0.461848  0.923584  1
  Th  Th12  1  0.467164  0.333540  0.666975  1
  Th  Th13  1  0.966774  0.666899  0.333924  1
  Pt  Pt14  1  0.181136  0.808703  0.191430  1
  Pt  Pt15  1  0.181012  0.382644  0.191418  1
  Pt  Pt16  1  0.181519  0.808671  0.617422  1
  Pt  Pt17  1  0.680937  0.191961  0.808881  1
  Pt  Pt18  1  0.680818  0.617000  0.808896  1
  Pt  Pt19  1  0.681055  0.191344  0.382624  1
