# generated using pymatgen
data_Al2SnB2PbO8
_symmetry_space_group_name_H-M   'P 1'
_cell_length_a   7.19929600
_cell_length_b   5.79524000
_cell_length_c   7.98229000
_cell_angle_alpha   90.00000000
_cell_angle_beta   90.00000000
_cell_angle_gamma   90.00000000
_symmetry_Int_Tables_number   1
_chemical_formula_structural   Al2SnB2PbO8
_chemical_formula_sum   'Al4 Sn2 B4 Pb2 O16'
_cell_volume   333.03429482
_cell_formula_units_Z   2
loop_
 _symmetry_equiv_pos_site_id
 _symmetry_equiv_pos_as_xyz
  1  'x, y, z'
loop_
 _atom_site_type_symbol
 _atom_site_label
 _atom_site_symmetry_multiplicity
 _atom_site_fract_x
 _atom_site_fract_y
 _atom_site_fract_z
 _atom_site_occupancy
  Al  Al0  1  0.999988  0.999104  0.999671  1
  Al  Al1  1  0.500012  0.000896  0.499671  1
  Al  Al2  1  0.500012  0.499105  0.499671  1
  Al  Al3  1  0.999988  0.500897  0.999671  1
  Sn  Sn4  1  0.084332  0.249999  0.352840  1
  Sn  Sn5  1  0.415668  0.749999  0.852839  1
  B  B6  1  0.774604  0.249999  0.739660  1
  B  B7  1  0.725396  0.749999  0.239660  1
  B  B8  1  0.273632  0.249999  0.762843  1
  B  B9  1  0.226368  0.749999  0.262842  1
  Pb  Pb10  1  0.574506  0.249999  0.129815  1
  Pb  Pb11  1  0.925494  0.749999  0.629816  1
  O  O12  1  0.839394  0.749999  0.099443  1
  O  O13  1  0.660607  0.249999  0.599443  1
  O  O14  1  0.335175  0.749999  0.404819  1
  O  O15  1  0.164826  0.249999  0.904820  1
  O  O16  1  0.167649  0.956489  0.190688  1
  O  O17  1  0.332351  0.043512  0.690688  1
  O  O18  1  0.666691  0.545039  0.312944  1
  O  O19  1  0.833309  0.454963  0.812946  1
  O  O20  1  0.833309  0.045038  0.812946  1
  O  O21  1  0.666691  0.954963  0.312944  1
  O  O22  1  0.332351  0.456489  0.690688  1
  O  O23  1  0.167649  0.543513  0.190688  1
  O  O24  1  0.103084  0.749999  0.887481  1
  O  O25  1  0.396915  0.249999  0.387481  1
  O  O26  1  0.592140  0.749999  0.616491  1
  O  O27  1  0.907859  0.249999  0.116491  1
