# generated using pymatgen
data_Ca3Ga3SiNi4
_symmetry_space_group_name_H-M   'P 1'
_cell_length_a   6.38574058
_cell_length_b   6.21946755
_cell_length_c   6.38573972
_cell_angle_alpha   108.94460912
_cell_angle_beta   109.99265760
_cell_angle_gamma   108.94461070
_symmetry_Int_Tables_number   1
_chemical_formula_structural   Ca3Ga3SiNi4
_chemical_formula_sum   'Ca3 Ga3 Si1 Ni4'
_cell_volume   196.48759457
_cell_formula_units_Z   1
loop_
 _symmetry_equiv_pos_site_id
 _symmetry_equiv_pos_as_xyz
  1  'x, y, z'
loop_
 _atom_site_type_symbol
 _atom_site_label
 _atom_site_symmetry_multiplicity
 _atom_site_fract_x
 _atom_site_fract_y
 _atom_site_fract_z
 _atom_site_occupancy
  Ca  Ca0  1  0.501527  0.499278  0.000000  1
  Ca  Ca1  1  0.000000  0.499278  0.501527  1
  Ca  Ca2  1  0.498473  0.997751  0.498473  1
  Ga  Ga3  1  0.000000  0.004808  0.614248  1
  Ga  Ga4  1  0.385752  0.390561  0.385752  1
  Ga  Ga5  1  0.614248  0.004808  0.000000  1
  Si  Si6  1  0.000000  0.617269  0.000000  1
  Ni  Ni7  1  0.244068  0.989964  0.000000  1
  Ni  Ni8  1  0.000000  0.989964  0.244068  1
  Ni  Ni9  1  0.000000  0.260424  0.000000  1
  Ni  Ni10  1  0.755932  0.745896  0.755932  1
