# generated using pymatgen
data_Dy8Y4Co4CuSn
_symmetry_space_group_name_H-M   'P 1'
_cell_length_a   8.33192780
_cell_length_b   8.33192821
_cell_length_c   8.33192794
_cell_angle_alpha   106.91378869
_cell_angle_beta   110.32064829
_cell_angle_gamma   111.21040366
_symmetry_Int_Tables_number   1
_chemical_formula_structural   Dy8Y4Co4CuSn
_chemical_formula_sum   'Dy8 Y4 Co4 Cu1 Sn1'
_cell_volume   444.57127429
_cell_formula_units_Z   1
loop_
 _symmetry_equiv_pos_site_id
 _symmetry_equiv_pos_as_xyz
  1  'x, y, z'
loop_
 _atom_site_type_symbol
 _atom_site_label
 _atom_site_symmetry_multiplicity
 _atom_site_fract_x
 _atom_site_fract_y
 _atom_site_fract_z
 _atom_site_occupancy
  Dy  Dy0  1  0.305540  0.620271  0.314731  1
  Dy  Dy1  1  0.305540  0.990809  0.685269  1
  Dy  Dy2  1  0.694460  0.379729  0.685269  1
  Dy  Dy3  1  0.694460  0.009191  0.314731  1
  Dy  Dy4  1  0.199647  0.214722  0.414368  1
  Dy  Dy5  1  0.800353  0.785278  0.585632  1
  Dy  Dy6  1  0.199647  0.785278  0.984924  1
  Dy  Dy7  1  0.800353  0.214722  0.015076  1
  Y  Y8  1  0.476323  0.290712  0.185611  1
  Y  Y9  1  0.105102  0.290712  0.814389  1
  Y  Y10  1  0.894898  0.709288  0.185611  1
  Y  Y11  1  0.523677  0.709288  0.814389  1
  Co  Co12  1  0.500000  0.613013  0.113013  1
  Co  Co13  1  0.500000  0.386987  0.886987  1
  Co  Co14  1  0.376923  0.000000  0.376923  1
  Co  Co15  1  0.623077  0.000000  0.623077  1
  Cu  Cu16  1  0.000000  0.000000  0.000000  1
  Sn  Sn17  1  0.000000  0.500000  0.500000  1
