# generated using pymatgen
data_TbDy7Hf11Si16W
_symmetry_space_group_name_H-M   'P 1'
_cell_length_a   7.24709765
_cell_length_b   7.24685088
_cell_length_c   13.30388213
_cell_angle_alpha   89.94410134
_cell_angle_beta   90.04718115
_cell_angle_gamma   90.08605219
_symmetry_Int_Tables_number   1
_chemical_formula_structural   TbDy7Hf11Si16W
_chemical_formula_sum   'Tb1 Dy7 Hf11 Si16 W1'
_cell_volume   698.70038592
_cell_formula_units_Z   1
loop_
 _symmetry_equiv_pos_site_id
 _symmetry_equiv_pos_as_xyz
  1  'x, y, z'
loop_
 _atom_site_type_symbol
 _atom_site_label
 _atom_site_symmetry_multiplicity
 _atom_site_fract_x
 _atom_site_fract_y
 _atom_site_fract_z
 _atom_site_occupancy
  Tb  Tb0  1  0.656808  0.004383  0.283343  1
  Dy  Dy1  1  0.998475  0.343249  0.212556  1
  Dy  Dy2  1  0.004242  0.656674  0.716647  1
  Dy  Dy3  1  0.156663  0.495430  0.465513  1
  Dy  Dy4  1  0.501649  0.845297  0.034128  1
  Dy  Dy5  1  0.845353  0.501672  0.965743  1
  Dy  Dy6  1  0.495409  0.156658  0.534611  1
  Dy  Dy7  1  0.343222  0.998442  0.787410  1
  Hf  Hf8  1  0.825681  0.825654  0.500048  1
  Hf  Hf9  1  0.324424  0.674263  0.248824  1
  Hf  Hf10  1  0.674360  0.324494  0.751178  1
  Hf  Hf11  1  0.148442  0.997214  0.373554  1
  Hf  Hf12  1  0.853034  0.004844  0.877480  1
  Hf  Hf13  1  0.503914  0.648599  0.624707  1
  Hf  Hf14  1  0.348989  0.493425  0.877272  1
  Hf  Hf15  1  0.493345  0.349053  0.122679  1
  Hf  Hf16  1  0.648618  0.503959  0.375343  1
  Hf  Hf17  1  0.997221  0.148383  0.626482  1
  Hf  Hf18  1  0.004859  0.852993  0.122472  1
  Si  Si19  1  0.362431  0.295371  0.316263  1
  Si  Si20  1  0.636701  0.704819  0.817639  1
  Si  Si21  1  0.204922  0.862714  0.567224  1
  Si  Si22  1  0.138111  0.797592  0.933087  1
  Si  Si23  1  0.797669  0.138112  0.066834  1
  Si  Si24  1  0.862887  0.205058  0.432947  1
  Si  Si25  1  0.295272  0.362582  0.683742  1
  Si  Si26  1  0.704903  0.636484  0.182287  1
  Si  Si27  1  0.294124  0.051066  0.182298  1
  Si  Si28  1  0.703966  0.951920  0.686048  1
  Si  Si29  1  0.450612  0.795766  0.435125  1
  Si  Si30  1  0.203482  0.545976  0.064089  1
  Si  Si31  1  0.545979  0.203494  0.935869  1
  Si  Si32  1  0.795909  0.450775  0.565015  1
  Si  Si33  1  0.050994  0.294342  0.817615  1
  Si  Si34  1  0.951996  0.703875  0.313955  1
  W  W35  1  0.175332  0.175368  0.999970  1
