# generated using pymatgen
data_Tl3Ru2Rh2PbO13
_symmetry_space_group_name_H-M   'P 1'
_cell_length_a   7.32948719
_cell_length_b   7.31413682
_cell_length_c   7.28840817
_cell_angle_alpha   59.78029731
_cell_angle_beta   59.81338816
_cell_angle_gamma   59.93054625
_symmetry_Int_Tables_number   1
_chemical_formula_structural   Tl3Ru2Rh2PbO13
_chemical_formula_sum   'Tl3 Ru2 Rh2 Pb1 O13'
_cell_volume   275.28767796
_cell_formula_units_Z   1
loop_
 _symmetry_equiv_pos_site_id
 _symmetry_equiv_pos_as_xyz
  1  'x, y, z'
loop_
 _atom_site_type_symbol
 _atom_site_label
 _atom_site_symmetry_multiplicity
 _atom_site_fract_x
 _atom_site_fract_y
 _atom_site_fract_z
 _atom_site_occupancy
  Tl  Tl0  1  0.877602  0.374343  0.374293  1
  Tl  Tl1  1  0.373763  0.374343  0.374293  1
  Tl  Tl2  1  0.371359  0.371784  0.885498  1
  Ru  Ru3  1  0.876142  0.875115  0.875187  1
  Ru  Ru4  1  0.373554  0.875115  0.875187  1
  Rh  Rh5  1  0.876030  0.371455  0.876485  1
  Rh  Rh6  1  0.875900  0.875970  0.372230  1
  Pb  Pb7  1  0.373999  0.878676  0.373326  1
  O  O8  1  0.192976  0.811320  0.802728  1
  O  O9  1  0.202327  0.803865  0.196590  1
  O  O10  1  0.558909  0.938805  0.943377  1
  O  O11  1  0.547262  0.946601  0.550897  1
  O  O12  1  0.955241  0.946601  0.550897  1
  O  O13  1  0.797218  0.803865  0.196590  1
  O  O14  1  0.547997  0.552759  0.946902  1
  O  O15  1  0.798497  0.194628  0.804921  1
  O  O16  1  0.793914  0.205145  0.207028  1
  O  O17  1  0.952343  0.552759  0.946902  1
  O  O18  1  0.957883  0.542259  0.541976  1
  O  O19  1  0.201954  0.194628  0.804921  1
  O  O20  1  0.495132  0.509965  0.499772  1
