# generated using pymatgen
data_V12Si7Ni5C4
_symmetry_space_group_name_H-M   'P 1'
_cell_length_a   7.64235597
_cell_length_b   7.64235546
_cell_length_c   7.64990709
_cell_angle_alpha   60.30191771
_cell_angle_beta   60.30191094
_cell_angle_gamma   60.37694830
_symmetry_Int_Tables_number   1
_chemical_formula_structural   V12Si7Ni5C4
_chemical_formula_sum   'V12 Si7 Ni5 C4'
_cell_volume   318.27001844
_cell_formula_units_Z   1
loop_
 _symmetry_equiv_pos_site_id
 _symmetry_equiv_pos_as_xyz
  1  'x, y, z'
loop_
 _atom_site_type_symbol
 _atom_site_label
 _atom_site_symmetry_multiplicity
 _atom_site_fract_x
 _atom_site_fract_y
 _atom_site_fract_z
 _atom_site_occupancy
  V  V0  1  0.814599  0.814599  0.186756  1
  V  V1  1  0.183776  0.183776  0.815095  1
  V  V2  1  0.814485  0.186827  0.814525  1
  V  V3  1  0.183876  0.814971  0.183859  1
  V  V4  1  0.186827  0.814485  0.814525  1
  V  V5  1  0.814971  0.183876  0.183859  1
  V  V6  1  0.436493  0.436493  0.062121  1
  V  V7  1  0.061493  0.061493  0.438547  1
  V  V8  1  0.436350  0.062272  0.436301  1
  V  V9  1  0.061606  0.438435  0.061619  1
  V  V10  1  0.062272  0.436350  0.436301  1
  V  V11  1  0.438435  0.061606  0.061619  1
  Si  Si12  1  0.763472  0.412766  0.412858  1
  Si  Si13  1  0.412766  0.763472  0.412858  1
  Si  Si14  1  0.412868  0.412868  0.763514  1
  Si  Si15  1  0.410708  0.410708  0.410604  1
  Si  Si16  1  0.497276  0.840076  0.840186  1
  Si  Si17  1  0.840076  0.497276  0.840186  1
  Si  Si18  1  0.840171  0.840171  0.497258  1
  Ni  Ni19  1  0.141769  0.615842  0.615919  1
  Ni  Ni20  1  0.615842  0.141769  0.615919  1
  Ni  Ni21  1  0.615895  0.615895  0.141795  1
  Ni  Ni22  1  0.626442  0.626442  0.626319  1
  Ni  Ni23  1  0.830209  0.830209  0.830085  1
  C  C24  1  0.624710  0.123644  0.123553  1
  C  C25  1  0.123644  0.624710  0.123553  1
  C  C26  1  0.123550  0.123550  0.624714  1
  C  C27  1  0.125418  0.125418  0.125553  1
