# generated using pymatgen
data_CaYb5SmDySb6
_symmetry_space_group_name_H-M   'P 1'
_cell_length_a   8.21809137
_cell_length_b   8.07586976
_cell_length_c   8.21125106
_cell_angle_alpha   70.87352918
_cell_angle_beta   70.18311841
_cell_angle_gamma   109.14537228
_symmetry_Int_Tables_number   1
_chemical_formula_structural   CaYb5SmDySb6
_chemical_formula_sum   'Ca1 Yb5 Sm1 Dy1 Sb6'
_cell_volume   421.17420473
_cell_formula_units_Z   1
loop_
 _symmetry_equiv_pos_site_id
 _symmetry_equiv_pos_as_xyz
  1  'x, y, z'
loop_
 _atom_site_type_symbol
 _atom_site_label
 _atom_site_symmetry_multiplicity
 _atom_site_fract_x
 _atom_site_fract_y
 _atom_site_fract_z
 _atom_site_occupancy
  Ca  Ca0  1  0.851573  0.998665  0.001607  1
  Yb  Yb1  1  0.501030  0.498882  0.146717  1
  Yb  Yb2  1  0.645977  0.146842  0.353138  1
  Yb  Yb3  1  0.358403  0.001269  0.995147  1
  Yb  Yb4  1  0.495071  0.496158  0.647224  1
  Yb  Yb5  1  0.147072  0.643546  0.857858  1
  Sm  Sm6  1  0.000662  0.359665  0.498758  1
  Dy  Dy7  1  0.000147  0.857212  0.499784  1
  Sb  Sb8  1  0.632104  0.875390  0.743740  1
  Sb  Sb9  1  0.876080  0.626322  0.255090  1
  Sb  Sb10  1  0.243911  0.120073  0.623654  1
  Sb  Sb11  1  0.755477  0.381994  0.868153  1
  Sb  Sb12  1  0.368592  0.750284  0.376726  1
  Sb  Sb13  1  0.123900  0.243698  0.132404  1
