# generated using pymatgen
data_Y4TaIO12
_symmetry_space_group_name_H-M   'P 1'
_cell_length_a   5.45125400
_cell_length_b   7.75040093
_cell_length_c   11.56786288
_cell_angle_alpha   75.93526714
_cell_angle_beta   90.00000000
_cell_angle_gamma   90.00000000
_symmetry_Int_Tables_number   1
_chemical_formula_structural   Y4TaIO12
_chemical_formula_sum   'Y8 Ta2 I2 O24'
_cell_volume   474.08389994
_cell_formula_units_Z   2
loop_
 _symmetry_equiv_pos_site_id
 _symmetry_equiv_pos_as_xyz
  1  'x, y, z'
loop_
 _atom_site_type_symbol
 _atom_site_label
 _atom_site_symmetry_multiplicity
 _atom_site_fract_x
 _atom_site_fract_y
 _atom_site_fract_z
 _atom_site_occupancy
  Y  Y0  1  0.188449  0.790847  0.076807  1
  Y  Y1  1  0.257889  0.982506  0.758345  1
  Y  Y2  1  0.742111  0.982506  0.258345  1
  Y  Y3  1  0.311821  0.520993  0.746359  1
  Y  Y4  1  0.192650  0.207271  0.422471  1
  Y  Y5  1  0.688179  0.520993  0.246359  1
  Y  Y6  1  0.807350  0.207271  0.922471  1
  Y  Y7  1  0.811551  0.790847  0.576807  1
  Ta  Ta8  1  0.744497  0.719341  0.888682  1
  Ta  Ta9  1  0.255503  0.719341  0.388682  1
  I  I10  1  0.745921  0.273002  0.617178  1
  I  I11  1  0.254079  0.273002  0.117178  1
  O  O12  1  0.860595  0.360767  0.458975  1
  O  O13  1  0.465394  0.850626  0.929362  1
  O  O14  1  0.852473  0.634940  0.051070  1
  O  O15  1  0.016073  0.301342  0.723143  1
  O  O16  1  0.983927  0.301342  0.223143  1
  O  O17  1  0.139405  0.360767  0.958975  1
  O  O18  1  0.633893  0.486671  0.880103  1
  O  O19  1  0.526835  0.159890  0.065630  1
  O  O20  1  0.147527  0.634940  0.551070  1
  O  O21  1  0.019553  0.718798  0.769150  1
  O  O22  1  0.436731  0.196714  0.265951  1
  O  O23  1  0.033983  0.946112  0.402087  1
  O  O24  1  0.473165  0.159890  0.565630  1
  O  O25  1  0.980447  0.718798  0.269150  1
  O  O26  1  0.939349  0.063740  0.612019  1
  O  O27  1  0.563269  0.196714  0.765951  1
  O  O28  1  0.529621  0.786224  0.721316  1
  O  O29  1  0.060651  0.063740  0.112019  1
  O  O30  1  0.624581  0.500215  0.611350  1
  O  O31  1  0.375419  0.500215  0.111350  1
  O  O32  1  0.470379  0.786224  0.221316  1
  O  O33  1  0.366107  0.486671  0.380103  1
  O  O34  1  0.534606  0.850626  0.429362  1
  O  O35  1  0.966017  0.946112  0.902087  1
