# generated using pymatgen
data_Dy3LuScSi3H
_symmetry_space_group_name_H-M   'P 1'
_cell_length_a   8.35680500
_cell_length_b   8.35680711
_cell_length_c   6.05439200
_cell_angle_alpha   90.00000000
_cell_angle_beta   90.00000000
_cell_angle_gamma   120.00000351
_symmetry_Int_Tables_number   1
_chemical_formula_structural   Dy3LuScSi3H
_chemical_formula_sum   'Dy6 Lu2 Sc2 Si6 H2'
_cell_volume   366.16919009
_cell_formula_units_Z   2
loop_
 _symmetry_equiv_pos_site_id
 _symmetry_equiv_pos_as_xyz
  1  'x, y, z'
loop_
 _atom_site_type_symbol
 _atom_site_label
 _atom_site_symmetry_multiplicity
 _atom_site_fract_x
 _atom_site_fract_y
 _atom_site_fract_z
 _atom_site_occupancy
  Dy  Dy0  1  0.748183  0.748183  0.753383  1
  Dy  Dy1  1  0.251817  0.000000  0.753383  1
  Dy  Dy2  1  0.000000  0.251817  0.753383  1
  Dy  Dy3  1  0.251817  0.251817  0.246617  1
  Dy  Dy4  1  0.748183  0.000000  0.246617  1
  Dy  Dy5  1  0.000000  0.748183  0.246617  1
  Lu  Lu6  1  0.333333  0.666667  0.500000  1
  Lu  Lu7  1  0.666667  0.333333  0.500000  1
  Sc  Sc8  1  0.666667  0.333333  0.000000  1
  Sc  Sc9  1  0.333333  0.666667  0.000000  1
  Si  Si10  1  0.393020  0.393020  0.758615  1
  Si  Si11  1  0.606980  0.000000  0.758615  1
  Si  Si12  1  0.000000  0.606980  0.758615  1
  Si  Si13  1  0.606980  0.606980  0.241385  1
  Si  Si14  1  0.393020  0.000000  0.241385  1
  Si  Si15  1  0.000000  0.393020  0.241385  1
  H  H16  1  0.000000  0.000000  0.500000  1
  H  H17  1  0.000000  0.000000  0.000000  1
