# generated using pymatgen
data_TbHf7Bi9
_symmetry_space_group_name_H-M   'P 1'
_cell_length_a   10.88228300
_cell_length_b   10.88228300
_cell_length_c   7.66156200
_cell_angle_alpha   90.00000000
_cell_angle_beta   90.00000000
_cell_angle_gamma   90.00000000
_symmetry_Int_Tables_number   1
_chemical_formula_structural   TbHf7Bi9
_chemical_formula_sum   'Tb2 Hf14 Bi18'
_cell_volume   907.31345644
_cell_formula_units_Z   2
loop_
 _symmetry_equiv_pos_site_id
 _symmetry_equiv_pos_as_xyz
  1  'x, y, z'
loop_
 _atom_site_type_symbol
 _atom_site_label
 _atom_site_symmetry_multiplicity
 _atom_site_fract_x
 _atom_site_fract_y
 _atom_site_fract_z
 _atom_site_occupancy
  Tb  Tb0  1  0.750000  0.750000  0.925496  1
  Tb  Tb1  1  0.250000  0.250000  0.074504  1
  Hf  Hf2  1  0.000000  0.500000  0.000000  1
  Hf  Hf3  1  0.500000  0.000000  0.000000  1
  Hf  Hf4  1  0.500000  0.500000  0.000000  1
  Hf  Hf5  1  0.000000  0.000000  0.000000  1
  Hf  Hf6  1  0.895592  0.250000  0.153444  1
  Hf  Hf7  1  0.604408  0.250000  0.153444  1
  Hf  Hf8  1  0.104408  0.750000  0.846558  1
  Hf  Hf9  1  0.395592  0.750000  0.846558  1
  Hf  Hf10  1  0.750000  0.104408  0.846558  1
  Hf  Hf11  1  0.750000  0.395592  0.846558  1
  Hf  Hf12  1  0.250000  0.895592  0.153444  1
  Hf  Hf13  1  0.250000  0.604408  0.153444  1
  Hf  Hf14  1  0.750000  0.750000  0.433336  1
  Hf  Hf15  1  0.250000  0.250000  0.566664  1
  Bi  Bi16  1  0.418364  0.081636  0.354188  1
  Bi  Bi17  1  0.081636  0.418364  0.354188  1
  Bi  Bi18  1  0.581636  0.581636  0.645812  1
  Bi  Bi19  1  0.918364  0.918364  0.645812  1
  Bi  Bi20  1  0.918364  0.581636  0.645812  1
  Bi  Bi21  1  0.581636  0.918364  0.645812  1
  Bi  Bi22  1  0.418364  0.418364  0.354188  1
  Bi  Bi23  1  0.081636  0.081636  0.354188  1
  Bi  Bi24  1  0.250000  0.750000  0.499999  1
  Bi  Bi25  1  0.750000  0.250000  0.499999  1
  Bi  Bi26  1  0.488088  0.250000  0.799962  1
  Bi  Bi27  1  0.011911  0.250000  0.799962  1
  Bi  Bi28  1  0.511911  0.750000  0.200037  1
  Bi  Bi29  1  0.988089  0.750000  0.200037  1
  Bi  Bi30  1  0.750000  0.511911  0.200037  1
  Bi  Bi31  1  0.750000  0.988089  0.200037  1
  Bi  Bi32  1  0.250000  0.488088  0.799962  1
  Bi  Bi33  1  0.250000  0.011911  0.799962  1
