# generated using pymatgen
data_Nd12Ga11Ag12Ge
_symmetry_space_group_name_H-M   'P 1'
_cell_length_a   4.69663600
_cell_length_b   7.90502005
_cell_length_c   22.27965578
_cell_angle_alpha   90.12145282
_cell_angle_beta   90.00000000
_cell_angle_gamma   90.00000000
_symmetry_Int_Tables_number   1
_chemical_formula_structural   Nd12Ga11Ag12Ge
_chemical_formula_sum   'Nd12 Ga11 Ag12 Ge1'
_cell_volume   827.17496101
_cell_formula_units_Z   1
loop_
 _symmetry_equiv_pos_site_id
 _symmetry_equiv_pos_as_xyz
  1  'x, y, z'
loop_
 _atom_site_type_symbol
 _atom_site_label
 _atom_site_symmetry_multiplicity
 _atom_site_fract_x
 _atom_site_fract_y
 _atom_site_fract_z
 _atom_site_occupancy
  Nd  Nd0  1  0.250000  0.216809  0.998988  1
  Nd  Nd1  1  0.250000  0.275762  0.499206  1
  Nd  Nd2  1  0.750000  0.782312  0.000882  1
  Nd  Nd3  1  0.750000  0.720725  0.499768  1
  Nd  Nd4  1  0.250000  0.211580  0.333818  1
  Nd  Nd5  1  0.250000  0.285521  0.833719  1
  Nd  Nd6  1  0.750000  0.788683  0.666146  1
  Nd  Nd7  1  0.750000  0.714283  0.166890  1
  Nd  Nd8  1  0.250000  0.212071  0.667381  1
  Nd  Nd9  1  0.250000  0.288048  0.166315  1
  Nd  Nd10  1  0.750000  0.787990  0.332954  1
  Nd  Nd11  1  0.750000  0.712845  0.833855  1
  Ga  Ga12  1  0.250000  0.581479  0.729719  1
  Ga  Ga13  1  0.250000  0.918850  0.230249  1
  Ga  Ga14  1  0.750000  0.418210  0.270465  1
  Ga  Ga15  1  0.750000  0.082265  0.769603  1
  Ga  Ga16  1  0.250000  0.916021  0.103649  1
  Ga  Ga17  1  0.250000  0.584420  0.602887  1
  Ga  Ga18  1  0.750000  0.083713  0.896403  1
  Ga  Ga19  1  0.750000  0.415686  0.396773  1
  Ga  Ga20  1  0.250000  0.584476  0.931088  1
  Ga  Ga21  1  0.250000  0.911037  0.429636  1
  Ga  Ga22  1  0.750000  0.415749  0.069294  1
  Ag  Ag23  1  0.250000  0.914385  0.762912  1
  Ag  Ag24  1  0.250000  0.585679  0.263385  1
  Ag  Ag25  1  0.750000  0.086231  0.236628  1
  Ag  Ag26  1  0.750000  0.415032  0.736921  1
  Ag  Ag27  1  0.250000  0.915506  0.904428  1
  Ag  Ag28  1  0.250000  0.580317  0.404660  1
  Ag  Ag29  1  0.750000  0.084099  0.095598  1
  Ag  Ag30  1  0.750000  0.422177  0.595962  1
  Ag  Ag31  1  0.250000  0.913712  0.564360  1
  Ag  Ag32  1  0.250000  0.584217  0.065565  1
  Ag  Ag33  1  0.750000  0.083305  0.433459  1
  Ag  Ag34  1  0.750000  0.415776  0.934470  1
  Ge  Ge35  1  0.750000  0.091031  0.571964  1
