# generated using pymatgen
data_LaGd5FeI10
_symmetry_space_group_name_H-M   'P 1'
_cell_length_a   8.02829223
_cell_length_b   9.75799304
_cell_length_c   10.12839200
_cell_angle_alpha   108.33937347
_cell_angle_beta   96.76690611
_cell_angle_gamma   103.71584890
_symmetry_Int_Tables_number   1
_chemical_formula_structural   LaGd5FeI10
_chemical_formula_sum   'La1 Gd5 Fe1 I10'
_cell_volume   715.57176726
_cell_formula_units_Z   1
loop_
 _symmetry_equiv_pos_site_id
 _symmetry_equiv_pos_as_xyz
  1  'x, y, z'
loop_
 _atom_site_type_symbol
 _atom_site_label
 _atom_site_symmetry_multiplicity
 _atom_site_fract_x
 _atom_site_fract_y
 _atom_site_fract_z
 _atom_site_occupancy
  La  La0  1  0.034558  0.743375  0.423051  1
  Gd  Gd1  1  0.963449  0.256113  0.576951  1
  Gd  Gd2  1  0.882497  0.954621  0.738375  1
  Gd  Gd3  1  0.122142  0.045357  0.263318  1
  Gd  Gd4  1  0.344524  0.123271  0.668236  1
  Gd  Gd5  1  0.656221  0.877025  0.330693  1
  Fe  Fe6  1  0.003885  0.984301  0.495437  1
  I  I7  1  0.462840  0.818721  0.585636  1
  I  I8  1  0.548586  0.187498  0.420144  1
  I  I9  1  0.905446  0.629466  0.678070  1
  I  I10  1  0.082199  0.367238  0.333298  1
  I  I11  1  0.246046  0.088132  0.953317  1
  I  I12  1  0.758622  0.921789  0.049704  1
  I  I13  1  0.327055  0.444269  0.767971  1
  I  I14  1  0.649754  0.551244  0.224195  1
  I  I15  1  0.776531  0.254174  0.836396  1
  I  I16  1  0.235645  0.753406  0.155210  1
