# generated using pymatgen
data_Zr12InTe16
_symmetry_space_group_name_H-M   'P 1'
_cell_length_a   7.93944881
_cell_length_b   11.15139380
_cell_length_c   11.80981495
_cell_angle_alpha   118.06316198
_cell_angle_beta   109.60535806
_cell_angle_gamma   90.02322400
_symmetry_Int_Tables_number   1
_chemical_formula_structural   Zr12InTe16
_chemical_formula_sum   'Zr12 In1 Te16'
_cell_volume   853.27477416
_cell_formula_units_Z   1
loop_
 _symmetry_equiv_pos_site_id
 _symmetry_equiv_pos_as_xyz
  1  'x, y, z'
loop_
 _atom_site_type_symbol
 _atom_site_label
 _atom_site_symmetry_multiplicity
 _atom_site_fract_x
 _atom_site_fract_y
 _atom_site_fract_z
 _atom_site_occupancy
  Zr  Zr0  1  0.121907  0.126027  0.491909  1
  Zr  Zr1  1  0.619855  0.125224  0.492067  1
  Zr  Zr2  1  0.311327  0.367135  0.874541  1
  Zr  Zr3  1  0.812092  0.366076  0.873571  1
  Zr  Zr4  1  0.190532  0.507864  0.632803  1
  Zr  Zr5  1  0.693219  0.507988  0.633848  1
  Zr  Zr6  1  0.380145  0.874776  0.507933  1
  Zr  Zr7  1  0.878093  0.873973  0.508091  1
  Zr  Zr8  1  0.187908  0.633924  0.126429  1
  Zr  Zr9  1  0.688673  0.632865  0.125459  1
  Zr  Zr10  1  0.306781  0.492012  0.366152  1
  Zr  Zr11  1  0.809468  0.492136  0.367197  1
  In  In12  1  0.500000  0.000000  0.000000  1
  Te  Te13  1  0.730436  0.055152  0.710976  1
  Te  Te14  1  0.229412  0.054892  0.711064  1
  Te  Te15  1  0.847718  0.655453  0.944806  1
  Te  Te16  1  0.347174  0.656826  0.945382  1
  Te  Te17  1  0.546013  0.288670  0.343376  1
  Te  Te18  1  0.047295  0.288632  0.343778  1
  Te  Te19  1  0.770588  0.945108  0.288936  1
  Te  Te20  1  0.269564  0.944848  0.289024  1
  Te  Te21  1  0.652826  0.343174  0.054618  1
  Te  Te22  1  0.152282  0.344547  0.055194  1
  Te  Te23  1  0.952705  0.711368  0.656222  1
  Te  Te24  1  0.453987  0.711330  0.656624  1
  Te  Te25  1  0.958121  0.332757  0.666087  1
  Te  Te26  1  0.458174  0.333894  0.666697  1
  Te  Te27  1  0.541826  0.666106  0.333303  1
  Te  Te28  1  0.041879  0.667243  0.333913  1
