# generated using pymatgen
data_CaNd3(Sn2Ir)8
_symmetry_space_group_name_H-M   'P 1'
_cell_length_a   4.51314900
_cell_length_b   7.27165507
_cell_length_c   18.63772418
_cell_angle_alpha   89.98414564
_cell_angle_beta   90.00000000
_cell_angle_gamma   90.00000000
_symmetry_Int_Tables_number   1
_chemical_formula_structural   CaNd3(Sn2Ir)8
_chemical_formula_sum   'Ca1 Nd3 Sn16 Ir8'
_cell_volume   611.65397922
_cell_formula_units_Z   1
loop_
 _symmetry_equiv_pos_site_id
 _symmetry_equiv_pos_as_xyz
  1  'x, y, z'
loop_
 _atom_site_type_symbol
 _atom_site_label
 _atom_site_symmetry_multiplicity
 _atom_site_fract_x
 _atom_site_fract_y
 _atom_site_fract_z
 _atom_site_occupancy
  Ca  Ca0  1  0.250000  0.004277  0.857354  1
  Nd  Nd1  1  0.750000  0.997113  0.141417  1
  Nd  Nd2  1  0.750000  0.502337  0.643370  1
  Nd  Nd3  1  0.250000  0.496392  0.357945  1
  Sn  Sn4  1  0.250000  0.276052  0.192985  1
  Sn  Sn5  1  0.750000  0.979450  0.567816  1
  Sn  Sn6  1  0.750000  0.300004  0.818716  1
  Sn  Sn7  1  0.250000  0.131580  0.030703  1
  Sn  Sn8  1  0.750000  0.197784  0.317595  1
  Sn  Sn9  1  0.250000  0.480455  0.931474  1
  Sn  Sn10  1  0.750000  0.866748  0.965795  1
  Sn  Sn11  1  0.250000  0.366280  0.533011  1
  Sn  Sn12  1  0.250000  0.698212  0.182732  1
  Sn  Sn13  1  0.750000  0.520963  0.067385  1
  Sn  Sn14  1  0.750000  0.726770  0.807616  1
  Sn  Sn15  1  0.250000  0.021059  0.432361  1
  Sn  Sn16  1  0.750000  0.776136  0.306196  1
  Sn  Sn17  1  0.750000  0.633306  0.467999  1
  Sn  Sn18  1  0.250000  0.222232  0.694526  1
  Sn  Sn19  1  0.250000  0.802199  0.682844  1
  Ir  Ir20  1  0.250000  0.517090  0.784535  1
  Ir  Ir21  1  0.250000  0.746971  0.036546  1
  Ir  Ir22  1  0.750000  0.248904  0.464355  1
  Ir  Ir23  1  0.250000  0.983761  0.285920  1
  Ir  Ir24  1  0.250000  0.751476  0.535390  1
  Ir  Ir25  1  0.750000  0.251823  0.964870  1
  Ir  Ir26  1  0.750000  0.017342  0.714009  1
  Ir  Ir27  1  0.750000  0.483282  0.214533  1
