# generated using pymatgen
data_EuTm(BIr)8
_symmetry_space_group_name_H-M   'P 1'
_cell_length_a   7.68077700
_cell_length_b   7.68077700
_cell_length_c   4.00591900
_cell_angle_alpha   90.00000000
_cell_angle_beta   90.00000000
_cell_angle_gamma   90.00000000
_symmetry_Int_Tables_number   1
_chemical_formula_structural   EuTm(BIr)8
_chemical_formula_sum   'Eu1 Tm1 B8 Ir8'
_cell_volume   236.32652877
_cell_formula_units_Z   1
loop_
 _symmetry_equiv_pos_site_id
 _symmetry_equiv_pos_as_xyz
  1  'x, y, z'
loop_
 _atom_site_type_symbol
 _atom_site_label
 _atom_site_symmetry_multiplicity
 _atom_site_fract_x
 _atom_site_fract_y
 _atom_site_fract_z
 _atom_site_occupancy
  Eu  Eu0  1  0.500000  0.500000  0.000000  1
  Tm  Tm1  1  0.000000  0.000000  0.500000  1
  B  B2  1  0.657604  0.780181  0.608267  1
  B  B3  1  0.157327  0.277124  0.887713  1
  B  B4  1  0.277124  0.842673  0.112287  1
  B  B5  1  0.722876  0.157327  0.112287  1
  B  B6  1  0.342396  0.219819  0.608267  1
  B  B7  1  0.842673  0.722876  0.887713  1
  B  B8  1  0.219819  0.657604  0.391733  1
  B  B9  1  0.780181  0.342396  0.391733  1
  Ir  Ir10  1  0.337296  0.109253  0.112119  1
  Ir  Ir11  1  0.662704  0.890747  0.112119  1
  Ir  Ir12  1  0.611255  0.154605  0.610966  1
  Ir  Ir13  1  0.109253  0.662704  0.887881  1
  Ir  Ir14  1  0.154605  0.388745  0.389034  1
  Ir  Ir15  1  0.845395  0.611255  0.389034  1
  Ir  Ir16  1  0.890747  0.337296  0.887881  1
  Ir  Ir17  1  0.388745  0.845395  0.610966  1
