# generated using pymatgen
data_SrEuAl3Pd
_symmetry_space_group_name_H-M   'P 1'
_cell_length_a   5.84810500
_cell_length_b   5.84810519
_cell_length_c   9.03480400
_cell_angle_alpha   90.00000000
_cell_angle_beta   90.00000000
_cell_angle_gamma   119.99999328
_symmetry_Int_Tables_number   1
_chemical_formula_structural   SrEuAl3Pd
_chemical_formula_sum   'Sr2 Eu2 Al6 Pd2'
_cell_volume   267.59607169
_cell_formula_units_Z   2
loop_
 _symmetry_equiv_pos_site_id
 _symmetry_equiv_pos_as_xyz
  1  'x, y, z'
loop_
 _atom_site_type_symbol
 _atom_site_label
 _atom_site_symmetry_multiplicity
 _atom_site_fract_x
 _atom_site_fract_y
 _atom_site_fract_z
 _atom_site_occupancy
  Sr  Sr0  1  0.666667  0.333334  0.054582  1
  Sr  Sr1  1  0.666667  0.333334  0.445419  1
  Eu  Eu2  1  0.333333  0.666666  0.557699  1
  Eu  Eu3  1  0.333333  0.666666  0.942301  1
  Al  Al4  1  0.160295  0.320590  0.250000  1
  Al  Al5  1  0.160296  0.839705  0.250000  1
  Al  Al6  1  0.679410  0.839705  0.250000  1
  Al  Al7  1  0.316499  0.158249  0.750000  1
  Al  Al8  1  0.841749  0.158249  0.750000  1
  Al  Al9  1  0.841749  0.683500  0.750000  1
  Pd  Pd10  1  0.000000  0.000000  0.999069  1
  Pd  Pd11  1  0.000000  0.000000  0.500931  1
