# generated using pymatgen
data_Hf5ZnInSb2
_symmetry_space_group_name_H-M   'P 1'
_cell_length_a   8.60154381
_cell_length_b   8.63893244
_cell_length_c   5.81407800
_cell_angle_alpha   90.00000000
_cell_angle_beta   90.00000000
_cell_angle_gamma   120.14389360
_symmetry_Int_Tables_number   1
_chemical_formula_structural   Hf5ZnInSb2
_chemical_formula_sum   'Hf10 Zn2 In2 Sb4'
_cell_volume   373.60822454
_cell_formula_units_Z   2
loop_
 _symmetry_equiv_pos_site_id
 _symmetry_equiv_pos_as_xyz
  1  'x, y, z'
loop_
 _atom_site_type_symbol
 _atom_site_label
 _atom_site_symmetry_multiplicity
 _atom_site_fract_x
 _atom_site_fract_y
 _atom_site_fract_z
 _atom_site_occupancy
  Hf  Hf0  1  0.731605  0.731331  0.250000  1
  Hf  Hf1  1  0.731605  0.000274  0.750000  1
  Hf  Hf2  1  0.998425  0.269216  0.250000  1
  Hf  Hf3  1  0.998425  0.729209  0.750000  1
  Hf  Hf4  1  0.267842  0.269002  0.750000  1
  Hf  Hf5  1  0.267842  0.998840  0.250000  1
  Hf  Hf6  1  0.333560  0.666780  0.500000  1
  Hf  Hf7  1  0.668528  0.334264  0.000000  1
  Hf  Hf8  1  0.668528  0.334264  0.500000  1
  Hf  Hf9  1  0.333560  0.666780  0.000000  1
  Zn  Zn10  1  0.003745  0.001872  0.000000  1
  Zn  Zn11  1  0.003745  0.001872  0.500000  1
  In  In12  1  0.382906  0.000297  0.750000  1
  In  In13  1  0.382906  0.382609  0.250000  1
  Sb  Sb14  1  0.000863  0.615267  0.250000  1
  Sb  Sb15  1  0.000863  0.385595  0.750000  1
  Sb  Sb16  1  0.612527  0.612393  0.750000  1
  Sb  Sb17  1  0.612527  0.000133  0.250000  1
