# generated using pymatgen
data_Tb4Y4Cu3Si12Pd
_symmetry_space_group_name_H-M   'P 1'
_cell_length_a   8.04692401
_cell_length_b   8.04692295
_cell_length_c   8.15316700
_cell_angle_alpha   89.99987387
_cell_angle_beta   90.00012733
_cell_angle_gamma   119.99550984
_symmetry_Int_Tables_number   1
_chemical_formula_structural   Tb4Y4Cu3Si12Pd
_chemical_formula_sum   'Tb4 Y4 Cu3 Si12 Pd1'
_cell_volume   457.23172961
_cell_formula_units_Z   1
loop_
 _symmetry_equiv_pos_site_id
 _symmetry_equiv_pos_as_xyz
  1  'x, y, z'
loop_
 _atom_site_type_symbol
 _atom_site_label
 _atom_site_symmetry_multiplicity
 _atom_site_fract_x
 _atom_site_fract_y
 _atom_site_fract_z
 _atom_site_occupancy
  Tb  Tb0  1  0.500557  0.499443  0.249415  1
  Tb  Tb1  1  0.500925  0.499075  0.750739  1
  Tb  Tb2  1  0.999999  0.000001  0.249021  1
  Tb  Tb3  1  0.999999  0.000001  0.750656  1
  Y  Y4  1  0.500554  0.001104  0.249416  1
  Y  Y5  1  0.500925  0.001848  0.750742  1
  Y  Y6  1  0.998896  0.499446  0.249416  1
  Y  Y7  1  0.998152  0.499075  0.750742  1
  Cu  Cu8  1  0.333329  0.666671  0.000624  1
  Cu  Cu9  1  0.666675  0.333325  0.999904  1
  Cu  Cu10  1  0.666670  0.333330  0.498626  1
  Si  Si11  1  0.169420  0.338840  0.999100  1
  Si  Si12  1  0.831084  0.662161  0.000875  1
  Si  Si13  1  0.661160  0.830580  0.999100  1
  Si  Si14  1  0.831232  0.662449  0.500602  1
  Si  Si15  1  0.337839  0.168916  0.000875  1
  Si  Si16  1  0.165979  0.331970  0.499090  1
  Si  Si17  1  0.169432  0.830568  0.999101  1
  Si  Si18  1  0.337551  0.168768  0.500602  1
  Si  Si19  1  0.831072  0.168928  0.000876  1
  Si  Si20  1  0.668030  0.834021  0.499090  1
  Si  Si21  1  0.831223  0.168777  0.500603  1
  Si  Si22  1  0.165995  0.834005  0.499090  1
  Pd  Pd23  1  0.333304  0.666696  0.501696  1
