# generated using pymatgen
data_ReTcOF10
_symmetry_space_group_name_H-M   'P 1'
_cell_length_a   6.88873500
_cell_length_b   8.22122109
_cell_length_c   8.22340283
_cell_angle_alpha   86.17542860
_cell_angle_beta   90.00000000
_cell_angle_gamma   90.00000000
_symmetry_Int_Tables_number   1
_chemical_formula_structural   ReTcOF10
_chemical_formula_sum   'Re2 Tc2 O2 F20'
_cell_volume   464.68547658
_cell_formula_units_Z   2
loop_
 _symmetry_equiv_pos_site_id
 _symmetry_equiv_pos_as_xyz
  1  'x, y, z'
loop_
 _atom_site_type_symbol
 _atom_site_label
 _atom_site_symmetry_multiplicity
 _atom_site_fract_x
 _atom_site_fract_y
 _atom_site_fract_z
 _atom_site_occupancy
  Re  Re0  1  0.010249  0.809844  0.188862  1
  Re  Re1  1  0.010249  0.190156  0.811138  1
  Tc  Tc2  1  0.514107  0.329954  0.326581  1
  Tc  Tc3  1  0.514107  0.670046  0.673419  1
  O  O4  1  0.021566  0.340367  0.661410  1
  O  O5  1  0.021566  0.659633  0.338590  1
  F  F6  1  0.297937  0.769734  0.571596  1
  F  F7  1  0.999802  0.012586  0.683248  1
  F  F8  1  0.995832  0.000000  0.000000  1
  F  F9  1  0.350207  0.467051  0.198290  1
  F  F10  1  0.017802  0.316361  0.990025  1
  F  F11  1  0.274604  0.152797  0.837624  1
  F  F12  1  0.506342  0.500000  0.500000  1
  F  F13  1  0.742462  0.821808  0.166513  1
  F  F14  1  0.999802  0.987414  0.316752  1
  F  F15  1  0.520272  0.175568  0.169507  1
  F  F16  1  0.730126  0.561143  0.765792  1
  F  F17  1  0.274604  0.847203  0.162376  1
  F  F18  1  0.678578  0.203859  0.465180  1
  F  F19  1  0.017802  0.683639  0.009975  1
  F  F20  1  0.742462  0.178192  0.833487  1
  F  F21  1  0.520272  0.824432  0.830493  1
  F  F22  1  0.678578  0.796141  0.534820  1
  F  F23  1  0.350207  0.532949  0.801710  1
  F  F24  1  0.730126  0.438857  0.234208  1
  F  F25  1  0.297937  0.230266  0.428404  1
