# generated using pymatgen
data_TbDy4Co16(MoP4)3
_symmetry_space_group_name_H-M   'P 1'
_cell_length_a   12.08172500
_cell_length_b   12.08172531
_cell_length_c   3.71167900
_cell_angle_alpha   90.00000000
_cell_angle_beta   90.00000000
_cell_angle_gamma   119.99999093
_symmetry_Int_Tables_number   1
_chemical_formula_structural   TbDy4Co16(MoP4)3
_chemical_formula_sum   'Tb1 Dy4 Co16 Mo3 P12'
_cell_volume   469.20106037
_cell_formula_units_Z   1
loop_
 _symmetry_equiv_pos_site_id
 _symmetry_equiv_pos_as_xyz
  1  'x, y, z'
loop_
 _atom_site_type_symbol
 _atom_site_label
 _atom_site_symmetry_multiplicity
 _atom_site_fract_x
 _atom_site_fract_y
 _atom_site_fract_z
 _atom_site_occupancy
  Tb  Tb0  1  0.666667  0.333333  0.000000  1
  Dy  Dy1  1  0.333333  0.666667  0.000000  1
  Dy  Dy2  1  0.185281  0.185280  0.500000  1
  Dy  Dy3  1  0.814720  0.000001  0.500000  1
  Dy  Dy4  1  0.999999  0.814719  0.500000  1
  Co  Co5  1  0.822886  0.198136  0.000000  1
  Co  Co6  1  0.801864  0.624752  0.000000  1
  Co  Co7  1  0.375248  0.177114  0.000000  1
  Co  Co8  1  0.198147  0.822868  0.000000  1
  Co  Co9  1  0.624723  0.801853  0.000000  1
  Co  Co10  1  0.177132  0.375277  0.000000  1
  Co  Co11  1  0.644845  0.126932  0.500000  1
  Co  Co12  1  0.873068  0.517914  0.500000  1
  Co  Co13  1  0.482086  0.355155  0.500000  1
  Co  Co14  1  0.126983  0.644847  0.500000  1
  Co  Co15  1  0.517865  0.873017  0.500000  1
  Co  Co16  1  0.355153  0.482135  0.500000  1
  Co  Co17  1  0.719317  0.719319  0.500000  1
  Co  Co18  1  0.280681  0.999998  0.500000  1
  Co  Co19  1  0.000002  0.280683  0.500000  1
  Co  Co20  1  0.000000  0.000000  0.000000  1
  Mo  Mo21  1  0.553792  0.553799  0.000000  1
  Mo  Mo22  1  0.446201  0.999992  0.000000  1
  Mo  Mo23  1  0.000008  0.446208  0.000000  1
  P  P24  1  0.361101  0.361095  0.000000  1
  P  P25  1  0.638905  0.000007  0.000000  1
  P  P26  1  0.999993  0.638899  0.000000  1
  P  P27  1  0.834659  0.313800  0.500000  1
  P  P28  1  0.686200  0.520859  0.500000  1
  P  P29  1  0.479141  0.165341  0.500000  1
  P  P30  1  0.313811  0.834592  0.500000  1
  P  P31  1  0.520781  0.686189  0.500000  1
  P  P32  1  0.165408  0.479219  0.500000  1
  P  P33  1  0.821328  0.821329  0.000000  1
  P  P34  1  0.178671  0.000000  0.000000  1
  P  P35  1  0.000000  0.178672  0.000000  1
