# generated using pymatgen
data_Tb12Pr8Bi7Pb9
_symmetry_space_group_name_H-M   'P 1'
_cell_length_a   8.38621339
_cell_length_b   8.37904810
_cell_length_c   15.73010600
_cell_angle_alpha   90.04049453
_cell_angle_beta   90.04326794
_cell_angle_gamma   90.00230801
_symmetry_Int_Tables_number   1
_chemical_formula_structural   Tb12Pr8Bi7Pb9
_chemical_formula_sum   'Tb12 Pr8 Bi7 Pb9'
_cell_volume   1105.33013132
_cell_formula_units_Z   1
loop_
 _symmetry_equiv_pos_site_id
 _symmetry_equiv_pos_as_xyz
  1  'x, y, z'
loop_
 _atom_site_type_symbol
 _atom_site_label
 _atom_site_symmetry_multiplicity
 _atom_site_fract_x
 _atom_site_fract_y
 _atom_site_fract_z
 _atom_site_occupancy
  Tb  Tb0  1  0.635201  0.157431  0.624382  1
  Tb  Tb1  1  0.135262  0.342647  0.875917  1
  Tb  Tb2  1  0.365187  0.842847  0.124086  1
  Tb  Tb3  1  0.868180  0.656728  0.375743  1
  Tb  Tb4  1  0.363252  0.840126  0.376248  1
  Tb  Tb5  1  0.864686  0.657604  0.124103  1
  Tb  Tb6  1  0.635297  0.157429  0.875514  1
  Tb  Tb7  1  0.135883  0.344171  0.623327  1
  Tb  Tb8  1  0.802789  0.501198  0.750250  1
  Tb  Tb9  1  0.302762  0.998754  0.749901  1
  Tb  Tb10  1  0.196986  0.499185  0.251739  1
  Tb  Tb11  1  0.696951  0.000946  0.250367  1
  Pr  Pr12  1  0.469463  0.674450  0.599217  1
  Pr  Pr13  1  0.971757  0.823926  0.900778  1
  Pr  Pr14  1  0.528441  0.323947  0.099301  1
  Pr  Pr15  1  0.028231  0.177510  0.400362  1
  Pr  Pr16  1  0.525454  0.325109  0.400979  1
  Pr  Pr17  1  0.028246  0.176291  0.099136  1
  Pr  Pr18  1  0.471666  0.676436  0.900747  1
  Pr  Pr19  1  0.973217  0.822587  0.598940  1
  Bi  Bi20  1  0.708700  0.960690  0.455720  1
  Bi  Bi21  1  0.208568  0.539459  0.044553  1
  Bi  Bi22  1  0.291621  0.039532  0.955664  1
  Bi  Bi23  1  0.792096  0.460741  0.544083  1
  Bi  Bi24  1  0.291793  0.039153  0.544492  1
  Bi  Bi25  1  0.791226  0.460749  0.955707  1
  Bi  Bi26  1  0.708521  0.960999  0.044256  1
  Pb  Pb27  1  0.208653  0.538896  0.456158  1
  Pb  Pb28  1  0.439811  0.371893  0.750249  1
  Pb  Pb29  1  0.940338  0.128395  0.749650  1
  Pb  Pb30  1  0.560619  0.628352  0.249612  1
  Pb  Pb31  1  0.060227  0.872372  0.249327  1
  Pb  Pb32  1  0.662009  0.849831  0.749812  1
  Pb  Pb33  1  0.161938  0.649924  0.750547  1
  Pb  Pb34  1  0.337624  0.149380  0.249638  1
  Pb  Pb35  1  0.837346  0.350312  0.249496  1
