# generated using pymatgen
data_U4ReSi6MoRu5
_symmetry_space_group_name_H-M   'P 1'
_cell_length_a   7.11991843
_cell_length_b   7.11991711
_cell_length_c   7.11991788
_cell_angle_alpha   109.60332873
_cell_angle_beta   109.60333251
_cell_angle_gamma   109.20732204
_symmetry_Int_Tables_number   1
_chemical_formula_structural   U4ReSi6MoRu5
_chemical_formula_sum   'U4 Re1 Si6 Mo1 Ru5'
_cell_volume   277.84087986
_cell_formula_units_Z   1
loop_
 _symmetry_equiv_pos_site_id
 _symmetry_equiv_pos_as_xyz
  1  'x, y, z'
loop_
 _atom_site_type_symbol
 _atom_site_label
 _atom_site_symmetry_multiplicity
 _atom_site_fract_x
 _atom_site_fract_y
 _atom_site_fract_z
 _atom_site_occupancy
  U  U0  1  0.498481  0.501519  0.500000  1
  U  U1  1  0.001519  0.998481  0.500000  1
  U  U2  1  0.498481  0.998481  0.996962  1
  U  U3  1  0.001519  0.501519  0.003038  1
  Re  Re4  1  0.250000  0.750000  0.500000  1
  Si  Si5  1  0.315475  0.315475  0.000000  1
  Si  Si6  1  0.998740  0.313031  0.314290  1
  Si  Si7  1  0.998740  0.684450  0.685710  1
  Si  Si8  1  0.686969  0.001260  0.685710  1
  Si  Si9  1  0.315550  0.001260  0.314290  1
  Si  Si10  1  0.684525  0.684525  0.000000  1
  Mo  Mo11  1  0.000000  0.000000  0.000000  1
  Ru  Ru12  1  0.750000  0.250000  0.500000  1
  Ru  Ru13  1  0.500746  0.250745  0.749999  1
  Ru  Ru14  1  0.500746  0.750747  0.250001  1
  Ru  Ru15  1  0.249253  0.499254  0.749999  1
  Ru  Ru16  1  0.749255  0.499254  0.250001  1
