# generated using pymatgen
data_Yb4Zn5Pt9
_symmetry_space_group_name_H-M   'P 1'
_cell_length_a   5.59064800
_cell_length_b   5.59064808
_cell_length_c   12.55828700
_cell_angle_alpha   77.13890701
_cell_angle_beta   77.13890683
_cell_angle_gamma   59.99998783
_symmetry_Int_Tables_number   1
_chemical_formula_structural   Yb4Zn5Pt9
_chemical_formula_sum   'Yb4 Zn5 Pt9'
_cell_volume   328.50699863
_cell_formula_units_Z   1
loop_
 _symmetry_equiv_pos_site_id
 _symmetry_equiv_pos_as_xyz
  1  'x, y, z'
loop_
 _atom_site_type_symbol
 _atom_site_label
 _atom_site_symmetry_multiplicity
 _atom_site_fract_x
 _atom_site_fract_y
 _atom_site_fract_z
 _atom_site_occupancy
  Yb  Yb0  1  0.951686  0.951686  0.144942  1
  Yb  Yb1  1  0.048314  0.048314  0.855058  1
  Yb  Yb2  1  0.853589  0.853589  0.439233  1
  Yb  Yb3  1  0.146411  0.146411  0.560767  1
  Zn  Zn4  1  0.500000  0.500000  0.500000  1
  Zn  Zn5  1  0.722214  0.722214  0.833357  1
  Zn  Zn6  1  0.277786  0.277786  0.166643  1
  Zn  Zn7  1  0.610455  0.610455  0.168636  1
  Zn  Zn8  1  0.389545  0.389545  0.831364  1
  Pt  Pt9  1  0.000000  0.500000  0.000000  1
  Pt  Pt10  1  0.500000  0.000000  0.000000  1
  Pt  Pt11  1  0.500000  0.500000  0.000000  1
  Pt  Pt12  1  0.385830  0.385830  0.334721  1
  Pt  Pt13  1  0.893620  0.385830  0.334721  1
  Pt  Pt14  1  0.385830  0.893620  0.334721  1
  Pt  Pt15  1  0.614170  0.614170  0.665279  1
  Pt  Pt16  1  0.106380  0.614170  0.665279  1
  Pt  Pt17  1  0.614170  0.106380  0.665279  1
