# generated using pymatgen
data_VAs(SeO3)4
_symmetry_space_group_name_H-M   'P 1'
_cell_length_a   8.04070300
_cell_length_b   8.05563112
_cell_length_c   8.03476700
_cell_angle_alpha   89.52145283
_cell_angle_beta   90.00000000
_cell_angle_gamma   90.00000000
_symmetry_Int_Tables_number   1
_chemical_formula_structural   VAs(SeO3)4
_chemical_formula_sum   'V2 As2 Se8 O24'
_cell_volume   520.41730653
_cell_formula_units_Z   2
loop_
 _symmetry_equiv_pos_site_id
 _symmetry_equiv_pos_as_xyz
  1  'x, y, z'
loop_
 _atom_site_type_symbol
 _atom_site_label
 _atom_site_symmetry_multiplicity
 _atom_site_fract_x
 _atom_site_fract_y
 _atom_site_fract_z
 _atom_site_occupancy
  V  V0  1  0.000000  0.500000  0.000000  1
  V  V1  1  0.500000  0.500000  0.500000  1
  As  As2  1  0.000000  0.000000  0.500000  1
  As  As3  1  0.500000  0.000000  0.000000  1
  Se  Se4  1  0.335275  0.673816  0.163955  1
  Se  Se5  1  0.835275  0.326184  0.336045  1
  Se  Se6  1  0.678446  0.834777  0.677702  1
  Se  Se7  1  0.178446  0.165223  0.822298  1
  Se  Se8  1  0.664725  0.326184  0.836045  1
  Se  Se9  1  0.164725  0.673816  0.663955  1
  Se  Se10  1  0.321554  0.165223  0.322298  1
  Se  Se11  1  0.821554  0.834777  0.177702  1
  O  O12  1  0.246600  0.542759  0.024240  1
  O  O13  1  0.746600  0.457241  0.475760  1
  O  O14  1  0.768525  0.986156  0.540184  1
  O  O15  1  0.268525  0.013844  0.959816  1
  O  O16  1  0.539527  0.982348  0.768813  1
  O  O17  1  0.476825  0.543437  0.253990  1
  O  O18  1  0.976825  0.456563  0.246010  1
  O  O19  1  0.039527  0.017652  0.731187  1
  O  O20  1  0.984015  0.227732  0.480326  1
  O  O21  1  0.545033  0.749011  0.541782  1
  O  O22  1  0.484015  0.772268  0.019674  1
  O  O23  1  0.045033  0.250989  0.958218  1
  O  O24  1  0.753400  0.457241  0.975760  1
  O  O25  1  0.253400  0.542759  0.524240  1
  O  O26  1  0.231475  0.013844  0.459816  1
  O  O27  1  0.731475  0.986156  0.040184  1
  O  O28  1  0.460473  0.017652  0.231187  1
  O  O29  1  0.523175  0.456563  0.746010  1
  O  O30  1  0.023175  0.543437  0.753990  1
  O  O31  1  0.960473  0.982348  0.268813  1
  O  O32  1  0.015985  0.772268  0.519674  1
  O  O33  1  0.454967  0.250989  0.458218  1
  O  O34  1  0.515985  0.227732  0.980326  1
  O  O35  1  0.954967  0.749011  0.041782  1
