# generated using pymatgen
data_Ti10P6C
_symmetry_space_group_name_H-M   'P 1'
_cell_length_a   7.25293200
_cell_length_b   7.25293255
_cell_length_c   5.09701700
_cell_angle_alpha   90.00000000
_cell_angle_beta   90.00000000
_cell_angle_gamma   119.99999749
_symmetry_Int_Tables_number   1
_chemical_formula_structural   Ti10P6C
_chemical_formula_sum   'Ti10 P6 C1'
_cell_volume   232.20628440
_cell_formula_units_Z   1
loop_
 _symmetry_equiv_pos_site_id
 _symmetry_equiv_pos_as_xyz
  1  'x, y, z'
loop_
 _atom_site_type_symbol
 _atom_site_label
 _atom_site_symmetry_multiplicity
 _atom_site_fract_x
 _atom_site_fract_y
 _atom_site_fract_z
 _atom_site_occupancy
  Ti  Ti0  1  0.000000  0.755432  0.259217  1
  Ti  Ti1  1  0.244568  0.244568  0.259217  1
  Ti  Ti2  1  0.755432  0.000000  0.259217  1
  Ti  Ti3  1  0.000000  0.244568  0.740783  1
  Ti  Ti4  1  0.755432  0.755432  0.740783  1
  Ti  Ti5  1  0.244568  0.000000  0.740783  1
  Ti  Ti6  1  0.333333  0.666667  0.000000  1
  Ti  Ti7  1  0.666667  0.333333  0.000000  1
  Ti  Ti8  1  0.666667  0.333333  0.500000  1
  Ti  Ti9  1  0.333333  0.666667  0.500000  1
  P  P10  1  0.000000  0.394222  0.244964  1
  P  P11  1  0.605778  0.605778  0.244964  1
  P  P12  1  0.394222  0.000000  0.244964  1
  P  P13  1  0.000000  0.605778  0.755036  1
  P  P14  1  0.394222  0.394222  0.755036  1
  P  P15  1  0.605778  0.000000  0.755036  1
  C  C16  1  0.000000  0.000000  0.500000  1
