# generated using pymatgen
data_Sr2TcNi(AsH)2
_symmetry_space_group_name_H-M   'P 1'
_cell_length_a   4.04844300
_cell_length_b   4.04844300
_cell_length_c   8.74178500
_cell_angle_alpha   90.00000000
_cell_angle_beta   90.00000000
_cell_angle_gamma   90.00000000
_symmetry_Int_Tables_number   1
_chemical_formula_structural   Sr2TcNi(AsH)2
_chemical_formula_sum   'Sr2 Tc1 Ni1 As2 H2'
_cell_volume   143.27690088
_cell_formula_units_Z   1
loop_
 _symmetry_equiv_pos_site_id
 _symmetry_equiv_pos_as_xyz
  1  'x, y, z'
loop_
 _atom_site_type_symbol
 _atom_site_label
 _atom_site_symmetry_multiplicity
 _atom_site_fract_x
 _atom_site_fract_y
 _atom_site_fract_z
 _atom_site_occupancy
  Sr  Sr0  1  0.000000  0.500000  0.842163  1
  Sr  Sr1  1  0.500000  0.000000  0.157837  1
  Tc  Tc2  1  0.000000  0.000000  0.500000  1
  Ni  Ni3  1  0.500000  0.500000  0.500000  1
  As  As4  1  0.000000  0.500000  0.344116  1
  As  As5  1  0.500000  0.000000  0.655884  1
  H  H6  1  0.000000  0.000000  0.000000  1
  H  H7  1  0.500000  0.500000  0.000000  1
