# generated using pymatgen
data_Yb2Tm3Sn4
_symmetry_space_group_name_H-M   'P 1'
_cell_length_a   7.79736200
_cell_length_b   8.34986300
_cell_length_c   15.68020700
_cell_angle_alpha   90.00000000
_cell_angle_beta   90.00000000
_cell_angle_gamma   90.00000000
_symmetry_Int_Tables_number   1
_chemical_formula_structural   Yb2Tm3Sn4
_chemical_formula_sum   'Yb8 Tm12 Sn16'
_cell_volume   1020.88973908
_cell_formula_units_Z   4
loop_
 _symmetry_equiv_pos_site_id
 _symmetry_equiv_pos_as_xyz
  1  'x, y, z'
loop_
 _atom_site_type_symbol
 _atom_site_label
 _atom_site_symmetry_multiplicity
 _atom_site_fract_x
 _atom_site_fract_y
 _atom_site_fract_z
 _atom_site_occupancy
  Yb  Yb0  1  0.495807  0.683157  0.592214  1
  Yb  Yb1  1  0.995807  0.816843  0.907786  1
  Yb  Yb2  1  0.504193  0.316843  0.092214  1
  Yb  Yb3  1  0.004193  0.183157  0.407786  1
  Yb  Yb4  1  0.504193  0.316843  0.407786  1
  Yb  Yb5  1  0.004193  0.183157  0.092214  1
  Yb  Yb6  1  0.495807  0.683157  0.907786  1
  Yb  Yb7  1  0.995807  0.816843  0.592214  1
  Tm  Tm8  1  0.667686  0.161358  0.623524  1
  Tm  Tm9  1  0.167686  0.338642  0.876476  1
  Tm  Tm10  1  0.332314  0.838642  0.123524  1
  Tm  Tm11  1  0.832314  0.661358  0.376476  1
  Tm  Tm12  1  0.332314  0.838642  0.376476  1
  Tm  Tm13  1  0.832314  0.661358  0.123524  1
  Tm  Tm14  1  0.667686  0.161358  0.876476  1
  Tm  Tm15  1  0.167686  0.338642  0.623524  1
  Tm  Tm16  1  0.829291  0.507284  0.750000  1
  Tm  Tm17  1  0.329291  0.992716  0.750000  1
  Tm  Tm18  1  0.170709  0.492716  0.250000  1
  Tm  Tm19  1  0.670709  0.007284  0.250000  1
  Sn  Sn20  1  0.675632  0.962390  0.457398  1
  Sn  Sn21  1  0.175632  0.537610  0.042602  1
  Sn  Sn22  1  0.324368  0.037610  0.957398  1
  Sn  Sn23  1  0.824368  0.462390  0.542602  1
  Sn  Sn24  1  0.324368  0.037610  0.542602  1
  Sn  Sn25  1  0.824368  0.462390  0.957398  1
  Sn  Sn26  1  0.675632  0.962390  0.042602  1
  Sn  Sn27  1  0.175632  0.537610  0.457398  1
  Sn  Sn28  1  0.468056  0.371157  0.750000  1
  Sn  Sn29  1  0.968056  0.128843  0.750000  1
  Sn  Sn30  1  0.531944  0.628843  0.250000  1
  Sn  Sn31  1  0.031944  0.871157  0.250000  1
  Sn  Sn32  1  0.700035  0.859152  0.750000  1
  Sn  Sn33  1  0.200035  0.640848  0.750000  1
  Sn  Sn34  1  0.299965  0.140848  0.250000  1
  Sn  Sn35  1  0.799965  0.359152  0.250000  1
