# generated using pymatgen
data_PrEu2(As2Pd3)3
_symmetry_space_group_name_H-M   'P 1'
_cell_length_a   4.13506500
_cell_length_b   8.67466236
_cell_length_c   10.19768121
_cell_angle_alpha   107.17531097
_cell_angle_beta   90.00000000
_cell_angle_gamma   103.78868154
_symmetry_Int_Tables_number   1
_chemical_formula_structural   PrEu2(As2Pd3)3
_chemical_formula_sum   'Pr1 Eu2 As6 Pd9'
_cell_volume   338.43209288
_cell_formula_units_Z   1
loop_
 _symmetry_equiv_pos_site_id
 _symmetry_equiv_pos_as_xyz
  1  'x, y, z'
loop_
 _atom_site_type_symbol
 _atom_site_label
 _atom_site_symmetry_multiplicity
 _atom_site_fract_x
 _atom_site_fract_y
 _atom_site_fract_z
 _atom_site_occupancy
  Pr  Pr0  1  0.000000  0.000000  0.000000  1
  Eu  Eu1  1  0.845739  0.691479  0.301752  1
  Eu  Eu2  1  0.154261  0.308521  0.698248  1
  As  As3  1  0.799758  0.599518  0.867407  1
  As  As4  1  0.200242  0.400482  0.132593  1
  As  As5  1  0.538249  0.076497  0.783495  1
  As  As6  1  0.461751  0.923503  0.216505  1
  As  As7  1  0.636279  0.272557  0.452297  1
  As  As8  1  0.363721  0.727443  0.547703  1
  Pd  Pd9  1  0.955354  0.910708  0.669464  1
  Pd  Pd10  1  0.044646  0.089292  0.330536  1
  Pd  Pd11  1  0.778592  0.557186  0.607250  1
  Pd  Pd12  1  0.221408  0.442814  0.392750  1
  Pd  Pd13  1  0.376909  0.753818  0.798492  1
  Pd  Pd14  1  0.623091  0.246182  0.201508  1
  Pd  Pd15  1  0.500000  0.000000  0.500000  1
  Pd  Pd16  1  0.679196  0.358391  0.968908  1
  Pd  Pd17  1  0.320804  0.641609  0.031092  1
