# generated using pymatgen
data_La3Ce2Nd3(ZnRh)8
_symmetry_space_group_name_H-M   'P 1'
_cell_length_a   3.98438800
_cell_length_b   7.44333259
_cell_length_c   16.56482599
_cell_angle_alpha   89.49086768
_cell_angle_beta   90.00000000
_cell_angle_gamma   90.00000000
_symmetry_Int_Tables_number   1
_chemical_formula_structural   La3Ce2Nd3(ZnRh)8
_chemical_formula_sum   'La3 Ce2 Nd3 Zn8 Rh8'
_cell_volume   491.24572032
_cell_formula_units_Z   1
loop_
 _symmetry_equiv_pos_site_id
 _symmetry_equiv_pos_as_xyz
  1  'x, y, z'
loop_
 _atom_site_type_symbol
 _atom_site_label
 _atom_site_symmetry_multiplicity
 _atom_site_fract_x
 _atom_site_fract_y
 _atom_site_fract_z
 _atom_site_occupancy
  La  La0  1  0.750000  0.943961  0.282938  1
  La  La1  1  0.750000  0.444502  0.215456  1
  La  La2  1  0.750000  0.323821  0.441561  1
  Ce  Ce3  1  0.250000  0.184246  0.939199  1
  Ce  Ce4  1  0.250000  0.560657  0.784923  1
  Nd  Nd5  1  0.250000  0.667048  0.562210  1
  Nd  Nd6  1  0.750000  0.830744  0.057807  1
  Nd  Nd7  1  0.250000  0.053237  0.718116  1
  Zn  Zn8  1  0.250000  0.116678  0.146436  1
  Zn  Zn9  1  0.750000  0.512218  0.939889  1
  Zn  Zn10  1  0.750000  0.994200  0.562862  1
  Zn  Zn11  1  0.750000  0.379904  0.652505  1
  Zn  Zn12  1  0.750000  0.892799  0.847797  1
  Zn  Zn13  1  0.250000  0.504034  0.056905  1
  Zn  Zn14  1  0.250000  0.618294  0.350493  1
  Zn  Zn15  1  0.250000  0.991082  0.442518  1
  Rh  Rh16  1  0.750000  0.752744  0.435373  1
  Rh  Rh17  1  0.750000  0.273070  0.820184  1
  Rh  Rh18  1  0.750000  0.743384  0.694154  1
  Rh  Rh19  1  0.250000  0.736968  0.185302  1
  Rh  Rh20  1  0.250000  0.749698  0.928008  1
  Rh  Rh21  1  0.250000  0.240408  0.565955  1
  Rh  Rh22  1  0.750000  0.248202  0.056264  1
  Rh  Rh23  1  0.250000  0.238098  0.313147  1
