# generated using pymatgen
data_Tb2Y2Ga18PdRh5
_symmetry_space_group_name_H-M   'P 1'
_cell_length_a   7.60463537
_cell_length_b   7.60465924
_cell_length_c   9.53589701
_cell_angle_alpha   90.03022212
_cell_angle_beta   90.03287791
_cell_angle_gamma   119.85937850
_symmetry_Int_Tables_number   1
_chemical_formula_structural   Tb2Y2Ga18PdRh5
_chemical_formula_sum   'Tb2 Y2 Ga18 Pd1 Rh5'
_cell_volume   478.25963256
_cell_formula_units_Z   1
loop_
 _symmetry_equiv_pos_site_id
 _symmetry_equiv_pos_as_xyz
  1  'x, y, z'
loop_
 _atom_site_type_symbol
 _atom_site_label
 _atom_site_symmetry_multiplicity
 _atom_site_fract_x
 _atom_site_fract_y
 _atom_site_fract_z
 _atom_site_occupancy
  Tb  Tb0  1  0.668466  0.996453  0.250838  1
  Tb  Tb1  1  0.331534  0.003547  0.749162  1
  Y  Y2  1  0.996480  0.668519  0.250834  1
  Y  Y3  1  0.003520  0.331481  0.749166  1
  Ga  Ga4  1  0.127403  0.127473  0.252257  1
  Ga  Ga5  1  0.872597  0.872527  0.747743  1
  Ga  Ga6  1  0.000033  0.337146  0.079984  1
  Ga  Ga7  1  0.999967  0.662854  0.920016  1
  Ga  Ga8  1  0.000189  0.665717  0.578257  1
  Ga  Ga9  1  0.334194  0.999783  0.421711  1
  Ga  Ga10  1  0.999811  0.334283  0.421743  1
  Ga  Ga11  1  0.665806  0.000217  0.578289  1
  Ga  Ga12  1  0.662929  0.999984  0.920004  1
  Ga  Ga13  1  0.337071  0.000016  0.079996  1
  Ga  Ga14  1  0.333080  0.333109  0.563306  1
  Ga  Ga15  1  0.666920  0.666891  0.436694  1
  Ga  Ga16  1  0.663158  0.663133  0.065062  1
  Ga  Ga17  1  0.336842  0.336867  0.934938  1
  Ga  Ga18  1  0.337803  0.546693  0.250437  1
  Ga  Ga19  1  0.662197  0.453307  0.749563  1
  Ga  Ga20  1  0.546640  0.337633  0.250432  1
  Ga  Ga21  1  0.453360  0.662367  0.749568  1
  Pd  Pd22  1  0.000000  0.000000  0.000000  1
  Rh  Rh23  1  0.671448  0.328537  0.000021  1
  Rh  Rh24  1  0.328552  0.671463  0.999979  1
  Rh  Rh25  1  0.328508  0.671515  0.500016  1
  Rh  Rh26  1  0.671492  0.328485  0.499984  1
  Rh  Rh27  1  0.000000  0.000000  0.500000  1
