# generated using pymatgen
data_La4TbNi19
_symmetry_space_group_name_H-M   'P 1'
_cell_length_a   4.98852475
_cell_length_b   4.98852559
_cell_length_c   16.59424575
_cell_angle_alpha   81.35516885
_cell_angle_beta   81.35516528
_cell_angle_gamma   60.00000126
_symmetry_Int_Tables_number   1
_chemical_formula_structural   La4TbNi19
_chemical_formula_sum   'La4 Tb1 Ni19'
_cell_volume   352.20105981
_cell_formula_units_Z   1
loop_
 _symmetry_equiv_pos_site_id
 _symmetry_equiv_pos_as_xyz
  1  'x, y, z'
loop_
 _atom_site_type_symbol
 _atom_site_label
 _atom_site_symmetry_multiplicity
 _atom_site_fract_x
 _atom_site_fract_y
 _atom_site_fract_z
 _atom_site_occupancy
  La  La0  1  0.077604  0.077604  0.767187  1
  La  La1  1  0.922396  0.922396  0.232813  1
  La  La2  1  0.151208  0.151208  0.546377  1
  La  La3  1  0.848792  0.848792  0.453623  1
  Tb  Tb4  1  0.000000  0.000000  0.000000  1
  Ni  Ni5  1  0.500000  0.500000  0.500000  1
  Ni  Ni6  1  0.251416  0.251416  0.245752  1
  Ni  Ni7  1  0.748584  0.748584  0.754248  1
  Ni  Ni8  1  0.333301  0.333301  0.000099  1
  Ni  Ni9  1  0.666699  0.666699  0.999902  1
  Ni  Ni10  1  0.414832  0.414832  0.755507  1
  Ni  Ni11  1  0.585168  0.585168  0.244493  1
  Ni  Ni12  1  0.123301  0.621973  0.632753  1
  Ni  Ni13  1  0.621973  0.621973  0.632753  1
  Ni  Ni14  1  0.621973  0.123301  0.632753  1
  Ni  Ni15  1  0.876699  0.378027  0.367247  1
  Ni  Ni16  1  0.378027  0.378027  0.367247  1
  Ni  Ni17  1  0.378027  0.876699  0.367247  1
  Ni  Ni18  1  0.039581  0.540094  0.880230  1
  Ni  Ni19  1  0.540094  0.540094  0.880230  1
  Ni  Ni20  1  0.540094  0.039581  0.880230  1
  Ni  Ni21  1  0.960419  0.459906  0.119770  1
  Ni  Ni22  1  0.459906  0.459906  0.119770  1
  Ni  Ni23  1  0.459906  0.960419  0.119770  1
