# generated using pymatgen
data_DyEr6Sn23Rh6
_symmetry_space_group_name_H-M   'P 1'
_cell_length_a   9.83975700
_cell_length_b   9.83975543
_cell_length_c   10.09254200
_cell_angle_alpha   90.00000000
_cell_angle_beta   90.00000000
_cell_angle_gamma   120.00000193
_symmetry_Int_Tables_number   1
_chemical_formula_structural   DyEr6Sn23Rh6
_chemical_formula_sum   'Dy1 Er6 Sn23 Rh6'
_cell_volume   846.25230741
_cell_formula_units_Z   1
loop_
 _symmetry_equiv_pos_site_id
 _symmetry_equiv_pos_as_xyz
  1  'x, y, z'
loop_
 _atom_site_type_symbol
 _atom_site_label
 _atom_site_symmetry_multiplicity
 _atom_site_fract_x
 _atom_site_fract_y
 _atom_site_fract_z
 _atom_site_occupancy
  Dy  Dy0  1  0.000000  0.000000  0.000000  1
  Er  Er1  1  0.480050  0.519950  0.307516  1
  Er  Er2  1  0.519950  0.480050  0.692484  1
  Er  Er3  1  0.480050  0.960101  0.307516  1
  Er  Er4  1  0.519950  0.039899  0.692484  1
  Er  Er5  1  0.039899  0.519950  0.307516  1
  Er  Er6  1  0.960101  0.480050  0.692484  1
  Sn  Sn7  1  0.120220  0.879780  0.281809  1
  Sn  Sn8  1  0.879780  0.120220  0.718191  1
  Sn  Sn9  1  0.120220  0.240438  0.281809  1
  Sn  Sn10  1  0.879780  0.759562  0.718191  1
  Sn  Sn11  1  0.759562  0.879780  0.281809  1
  Sn  Sn12  1  0.240438  0.120220  0.718191  1
  Sn  Sn13  1  0.777439  0.222561  0.456112  1
  Sn  Sn14  1  0.222561  0.777439  0.543888  1
  Sn  Sn15  1  0.777439  0.554878  0.456112  1
  Sn  Sn16  1  0.222561  0.445122  0.543888  1
  Sn  Sn17  1  0.445122  0.222561  0.456112  1
  Sn  Sn18  1  0.554878  0.777439  0.543888  1
  Sn  Sn19  1  0.351141  0.000000  0.000000  1
  Sn  Sn20  1  0.648859  0.000000  0.000000  1
  Sn  Sn21  1  0.000000  0.351141  0.000000  1
  Sn  Sn22  1  0.000000  0.648859  0.000000  1
  Sn  Sn23  1  0.648859  0.648859  0.000000  1
  Sn  Sn24  1  0.351141  0.351141  0.000000  1
  Sn  Sn25  1  0.333333  0.666667  0.124238  1
  Sn  Sn26  1  0.666667  0.333333  0.875762  1
  Sn  Sn27  1  0.333333  0.666667  0.821070  1
  Sn  Sn28  1  0.666667  0.333333  0.178930  1
  Sn  Sn29  1  0.000000  0.000000  0.500000  1
  Rh  Rh30  1  0.831226  0.168774  0.198608  1
  Rh  Rh31  1  0.168774  0.831226  0.801392  1
  Rh  Rh32  1  0.831226  0.662453  0.198608  1
  Rh  Rh33  1  0.168774  0.337547  0.801392  1
  Rh  Rh34  1  0.337547  0.168774  0.198608  1
  Rh  Rh35  1  0.662453  0.831226  0.801392  1
