# generated using pymatgen
data_Pr3Sn6Rh
_symmetry_space_group_name_H-M   'P 1'
_cell_length_a   8.82038536
_cell_length_b   8.82038511
_cell_length_c   13.46896800
_cell_angle_alpha   90.00000000
_cell_angle_beta   90.00000000
_cell_angle_gamma   149.02376934
_symmetry_Int_Tables_number   1
_chemical_formula_structural   Pr3Sn6Rh
_chemical_formula_sum   'Pr6 Sn12 Rh2'
_cell_volume   539.32279037
_cell_formula_units_Z   2
loop_
 _symmetry_equiv_pos_site_id
 _symmetry_equiv_pos_as_xyz
  1  'x, y, z'
loop_
 _atom_site_type_symbol
 _atom_site_label
 _atom_site_symmetry_multiplicity
 _atom_site_fract_x
 _atom_site_fract_y
 _atom_site_fract_z
 _atom_site_occupancy
  Pr  Pr0  1  0.602581  0.397419  0.250000  1
  Pr  Pr1  1  0.397419  0.602581  0.750000  1
  Pr  Pr2  1  0.399870  0.600130  0.406057  1
  Pr  Pr3  1  0.600130  0.399870  0.593943  1
  Pr  Pr4  1  0.399870  0.600130  0.093943  1
  Pr  Pr5  1  0.600130  0.399870  0.906057  1
  Sn  Sn6  1  0.928262  0.071738  0.924246  1
  Sn  Sn7  1  0.071738  0.928262  0.075754  1
  Sn  Sn8  1  0.928262  0.071738  0.575754  1
  Sn  Sn9  1  0.071738  0.928262  0.424246  1
  Sn  Sn10  1  0.959494  0.040506  0.250000  1
  Sn  Sn11  1  0.040506  0.959494  0.750000  1
  Sn  Sn12  1  0.745831  0.254170  0.432492  1
  Sn  Sn13  1  0.254170  0.745830  0.567508  1
  Sn  Sn14  1  0.745831  0.254170  0.067508  1
  Sn  Sn15  1  0.254170  0.745830  0.932492  1
  Sn  Sn16  1  0.233024  0.766976  0.250000  1
  Sn  Sn17  1  0.766976  0.233024  0.750000  1
  Rh  Rh18  1  0.802938  0.197062  0.250000  1
  Rh  Rh19  1  0.197062  0.802938  0.750000  1
