# generated using pymatgen
data_Hf2MnBe2Ir5
_symmetry_space_group_name_H-M   'P 1'
_cell_length_a   9.32516800
_cell_length_b   9.32516800
_cell_length_c   3.26341500
_cell_angle_alpha   90.00000000
_cell_angle_beta   90.00000000
_cell_angle_gamma   90.00000000
_symmetry_Int_Tables_number   1
_chemical_formula_structural   Hf2MnBe2Ir5
_chemical_formula_sum   'Hf4 Mn2 Be4 Ir10'
_cell_volume   283.78251598
_cell_formula_units_Z   2
loop_
 _symmetry_equiv_pos_site_id
 _symmetry_equiv_pos_as_xyz
  1  'x, y, z'
loop_
 _atom_site_type_symbol
 _atom_site_label
 _atom_site_symmetry_multiplicity
 _atom_site_fract_x
 _atom_site_fract_y
 _atom_site_fract_z
 _atom_site_occupancy
  Hf  Hf0  1  0.176914  0.676914  0.000000  1
  Hf  Hf1  1  0.323086  0.176914  0.000000  1
  Hf  Hf2  1  0.823086  0.323086  0.000000  1
  Hf  Hf3  1  0.676914  0.823086  0.000000  1
  Mn  Mn4  1  0.500000  0.500000  0.000000  1
  Mn  Mn5  1  0.000000  0.000000  0.000000  1
  Be  Be6  1  0.378604  0.878604  0.000000  1
  Be  Be7  1  0.121396  0.378604  0.000000  1
  Be  Be8  1  0.878604  0.621396  0.000000  1
  Be  Be9  1  0.621396  0.121396  0.000000  1
  Ir  Ir10  1  0.211051  0.928985  0.500000  1
  Ir  Ir11  1  0.928985  0.788949  0.500000  1
  Ir  Ir12  1  0.428985  0.711051  0.500000  1
  Ir  Ir13  1  0.571015  0.288949  0.500000  1
  Ir  Ir14  1  0.711051  0.571015  0.500000  1
  Ir  Ir15  1  0.288949  0.428985  0.500000  1
  Ir  Ir16  1  0.071015  0.211051  0.500000  1
  Ir  Ir17  1  0.000000  0.500000  0.500000  1
  Ir  Ir18  1  0.500000  0.000000  0.500000  1
  Ir  Ir19  1  0.788949  0.071015  0.500000  1
