# generated using pymatgen
data_Be2Nb10Ga5Sn
_symmetry_space_group_name_H-M   'P 1'
_cell_length_a   7.93042641
_cell_length_b   7.93042616
_cell_length_c   5.43914400
_cell_angle_alpha   90.00000000
_cell_angle_beta   90.00000000
_cell_angle_gamma   119.96324984
_symmetry_Int_Tables_number   1
_chemical_formula_structural   Be2Nb10Ga5Sn
_chemical_formula_sum   'Be2 Nb10 Ga5 Sn1'
_cell_volume   296.35684472
_cell_formula_units_Z   1
loop_
 _symmetry_equiv_pos_site_id
 _symmetry_equiv_pos_as_xyz
  1  'x, y, z'
loop_
 _atom_site_type_symbol
 _atom_site_label
 _atom_site_symmetry_multiplicity
 _atom_site_fract_x
 _atom_site_fract_y
 _atom_site_fract_z
 _atom_site_occupancy
  Be  Be0  1  0.001298  0.001298  0.001499  1
  Be  Be1  1  0.001298  0.001298  0.498501  1
  Nb  Nb2  1  0.673338  0.331546  0.002276  1
  Nb  Nb3  1  0.331546  0.673338  0.002276  1
  Nb  Nb4  1  0.331546  0.673338  0.497724  1
  Nb  Nb5  1  0.673338  0.331546  0.497724  1
  Nb  Nb6  1  0.749329  0.749329  0.750000  1
  Nb  Nb7  1  0.253727  0.987244  0.750000  1
  Nb  Nb8  1  0.987244  0.253727  0.750000  1
  Nb  Nb9  1  0.256962  0.256962  0.250000  1
  Nb  Nb10  1  0.741292  0.000548  0.250000  1
  Nb  Nb11  1  0.000548  0.741292  0.250000  1
  Ga  Ga12  1  0.607072  0.997353  0.750000  1
  Ga  Ga13  1  0.997353  0.607072  0.750000  1
  Ga  Ga14  1  0.610782  0.610782  0.250000  1
  Ga  Ga15  1  0.390625  0.003428  0.250000  1
  Ga  Ga16  1  0.003428  0.390625  0.250000  1
  Sn  Sn17  1  0.389273  0.389273  0.750000  1
