# generated using pymatgen
data_PrNd(AuCl6)2
_symmetry_space_group_name_H-M   'P 1'
_cell_length_a   7.76322251
_cell_length_b   10.14983358
_cell_length_c   14.50720959
_cell_angle_alpha   103.58809159
_cell_angle_beta   96.47601148
_cell_angle_gamma   111.99773305
_symmetry_Int_Tables_number   1
_chemical_formula_structural   PrNd(AuCl6)2
_chemical_formula_sum   'Pr2 Nd2 Au4 Cl24'
_cell_volume   1004.32305674
_cell_formula_units_Z   2
loop_
 _symmetry_equiv_pos_site_id
 _symmetry_equiv_pos_as_xyz
  1  'x, y, z'
loop_
 _atom_site_type_symbol
 _atom_site_label
 _atom_site_symmetry_multiplicity
 _atom_site_fract_x
 _atom_site_fract_y
 _atom_site_fract_z
 _atom_site_occupancy
  Pr  Pr0  1  0.579702  0.923979  0.621886  1
  Pr  Pr1  1  0.026228  0.687320  0.128312  1
  Nd  Nd2  1  0.420359  0.075779  0.378213  1
  Nd  Nd3  1  0.973512  0.312761  0.871666  1
  Au  Au4  1  0.294125  0.632847  0.764251  1
  Au  Au5  1  0.499932  0.499702  0.499893  1
  Au  Au6  1  0.705467  0.366754  0.235983  1
  Au  Au7  1  0.999999  0.000253  0.999863  1
  Cl  Cl8  1  0.777535  0.095899  0.969786  1
  Cl  Cl9  1  0.722577  0.154537  0.261392  1
  Cl  Cl10  1  0.276223  0.845192  0.739077  1
  Cl  Cl11  1  0.769967  0.796630  0.027587  1
  Cl  Cl12  1  0.615355  0.192813  0.745372  1
  Cl  Cl13  1  0.310099  0.417132  0.785279  1
  Cl  Cl14  1  0.688284  0.582367  0.215064  1
  Cl  Cl15  1  0.300121  0.622361  0.498733  1
  Cl  Cl16  1  0.229072  0.203951  0.972087  1
  Cl  Cl17  1  0.757235  0.725391  0.523029  1
  Cl  Cl18  1  0.223524  0.905258  0.029666  1
  Cl  Cl19  1  0.728582  0.050603  0.482351  1
  Cl  Cl20  1  0.607394  0.726480  0.747007  1
  Cl  Cl21  1  0.955099  0.059441  0.731597  1
  Cl  Cl22  1  0.243523  0.273870  0.476578  1
  Cl  Cl23  1  0.387314  0.809780  0.256263  1
  Cl  Cl24  1  0.979363  0.540710  0.778820  1
  Cl  Cl25  1  0.759761  0.434799  0.977302  1
  Cl  Cl26  1  0.239751  0.562602  0.021025  1
  Cl  Cl27  1  0.020654  0.458120  0.221646  1
  Cl  Cl28  1  0.392681  0.272646  0.253520  1
  Cl  Cl29  1  0.270481  0.950562  0.515928  1
  Cl  Cl30  1  0.698301  0.375983  0.500607  1
  Cl  Cl31  1  0.047780  0.943481  0.270220  1
