# generated using pymatgen
data_Lu3Ni19B10
_symmetry_space_group_name_H-M   'P 1'
_cell_length_a   7.85648772
_cell_length_b   7.85648805
_cell_length_c   5.74186012
_cell_angle_alpha   88.92764475
_cell_angle_beta   88.92764588
_cell_angle_gamma   66.82785983
_symmetry_Int_Tables_number   1
_chemical_formula_structural   Lu3Ni19B10
_chemical_formula_sum   'Lu3 Ni19 B10'
_cell_volume   325.73934919
_cell_formula_units_Z   1
loop_
 _symmetry_equiv_pos_site_id
 _symmetry_equiv_pos_as_xyz
  1  'x, y, z'
loop_
 _atom_site_type_symbol
 _atom_site_label
 _atom_site_symmetry_multiplicity
 _atom_site_fract_x
 _atom_site_fract_y
 _atom_site_fract_z
 _atom_site_occupancy
  Lu  Lu0  1  0.000000  0.000000  0.000000  1
  Lu  Lu1  1  0.625570  0.625570  0.615882  1
  Lu  Lu2  1  0.374430  0.374430  0.384118  1
  Ni  Ni3  1  0.000000  0.000000  0.500000  1
  Ni  Ni4  1  0.622183  0.622183  0.129414  1
  Ni  Ni5  1  0.377817  0.377817  0.870586  1
  Ni  Ni6  1  0.162268  0.162268  0.294664  1
  Ni  Ni7  1  0.837732  0.837732  0.705336  1
  Ni  Ni8  1  0.180965  0.180965  0.729680  1
  Ni  Ni9  1  0.819035  0.819035  0.270320  1
  Ni  Ni10  1  0.483572  0.954120  0.303373  1
  Ni  Ni11  1  0.954120  0.483572  0.303373  1
  Ni  Ni12  1  0.516428  0.045880  0.696627  1
  Ni  Ni13  1  0.045880  0.516428  0.696627  1
  Ni  Ni14  1  0.122245  0.623739  0.074852  1
  Ni  Ni15  1  0.623739  0.122245  0.074852  1
  Ni  Ni16  1  0.877755  0.376261  0.925148  1
  Ni  Ni17  1  0.376261  0.877755  0.925148  1
  Ni  Ni18  1  0.769301  0.289744  0.301073  1
  Ni  Ni19  1  0.289744  0.769301  0.301073  1
  Ni  Ni20  1  0.230699  0.710256  0.698927  1
  Ni  Ni21  1  0.710256  0.230699  0.698927  1
  B  B22  1  0.385014  0.614986  0.000000  1
  B  B23  1  0.614986  0.385014  0.000000  1
  B  B24  1  0.649684  0.857582  0.973598  1
  B  B25  1  0.857582  0.649684  0.973598  1
  B  B26  1  0.350316  0.142418  0.026402  1
  B  B27  1  0.142418  0.350316  0.026402  1
  B  B28  1  0.933512  0.302080  0.569571  1
  B  B29  1  0.302080  0.933512  0.569571  1
  B  B30  1  0.066488  0.697920  0.430429  1
  B  B31  1  0.697920  0.066488  0.430429  1
