# generated using pymatgen
data_Li4Tb3Sn4
_symmetry_space_group_name_H-M   'P 1'
_cell_length_a   4.61086339
_cell_length_b   7.10694922
_cell_length_c   8.65510790
_cell_angle_alpha   114.24026007
_cell_angle_beta   105.44817447
_cell_angle_gamma   90.00000249
_symmetry_Int_Tables_number   1
_chemical_formula_structural   Li4Tb3Sn4
_chemical_formula_sum   'Li4 Tb3 Sn4'
_cell_volume   247.33387560
_cell_formula_units_Z   1
loop_
 _symmetry_equiv_pos_site_id
 _symmetry_equiv_pos_as_xyz
  1  'x, y, z'
loop_
 _atom_site_type_symbol
 _atom_site_label
 _atom_site_symmetry_multiplicity
 _atom_site_fract_x
 _atom_site_fract_y
 _atom_site_fract_z
 _atom_site_occupancy
  Li  Li0  1  0.326888  0.017808  0.653774  1
  Li  Li1  1  0.673112  0.982192  0.346226  1
  Li  Li2  1  0.326888  0.635966  0.653774  1
  Li  Li3  1  0.673112  0.364034  0.346226  1
  Tb  Tb4  1  0.871487  0.371487  0.742973  1
  Tb  Tb5  1  0.128513  0.628513  0.257027  1
  Tb  Tb6  1  0.000000  0.000000  0.000000  1
  Sn  Sn7  1  0.213331  0.213331  0.426661  1
  Sn  Sn8  1  0.786669  0.786669  0.573339  1
  Sn  Sn9  1  0.500000  0.298764  0.000000  1
  Sn  Sn10  1  0.500000  0.701236  0.000000  1
