# generated using pymatgen
data_LiZr6Os3Ru2
_symmetry_space_group_name_H-M   'P 1'
_cell_length_a   4.66043300
_cell_length_b   6.53695900
_cell_length_c   14.03102300
_cell_angle_alpha   90.00000000
_cell_angle_beta   90.00149314
_cell_angle_gamma   90.00000000
_symmetry_Int_Tables_number   1
_chemical_formula_structural   LiZr6Os3Ru2
_chemical_formula_sum   'Li2 Zr12 Os6 Ru4'
_cell_volume   427.45594967
_cell_formula_units_Z   2
loop_
 _symmetry_equiv_pos_site_id
 _symmetry_equiv_pos_as_xyz
  1  'x, y, z'
loop_
 _atom_site_type_symbol
 _atom_site_label
 _atom_site_symmetry_multiplicity
 _atom_site_fract_x
 _atom_site_fract_y
 _atom_site_fract_z
 _atom_site_occupancy
  Li  Li0  1  0.999997  0.500000  0.000109  1
  Li  Li1  1  0.500077  0.000000  0.166557  1
  Zr  Zr2  1  0.499997  0.249615  0.999120  1
  Zr  Zr3  1  0.499997  0.750385  0.999120  1
  Zr  Zr4  1  0.999965  0.250396  0.167554  1
  Zr  Zr5  1  0.999965  0.749604  0.167554  1
  Zr  Zr6  1  0.499929  0.250933  0.334272  1
  Zr  Zr7  1  0.499929  0.749067  0.334272  1
  Zr  Zr8  1  0.999997  0.250344  0.500061  1
  Zr  Zr9  1  0.999997  0.749656  0.500061  1
  Zr  Zr10  1  0.500059  0.249661  0.666597  1
  Zr  Zr11  1  0.500059  0.750339  0.666597  1
  Zr  Zr12  1  0.000032  0.249073  0.832397  1
  Zr  Zr13  1  0.000032  0.750927  0.832397  1
  Os  Os14  1  0.999989  0.000000  0.001386  1
  Os  Os15  1  0.499915  0.500000  0.165286  1
  Os  Os16  1  0.999896  0.000000  0.331427  1
  Os  Os17  1  0.499997  0.500000  0.499480  1
  Os  Os18  1  0.000090  0.000000  0.667180  1
  Os  Os19  1  0.500066  0.500000  0.835241  1
  Ru  Ru20  1  0.999965  0.500000  0.333702  1
  Ru  Ru21  1  0.499996  0.000000  0.500170  1
  Ru  Ru22  1  0.000047  0.500000  0.666497  1
  Ru  Ru23  1  0.500002  0.000000  0.832961  1
