# generated using pymatgen
data_Ta3Co2WC
_symmetry_space_group_name_H-M   'P 1'
_cell_length_a   8.17704638
_cell_length_b   8.17704706
_cell_length_c   8.17704600
_cell_angle_alpha   60.00000431
_cell_angle_beta   60.00000153
_cell_angle_gamma   59.99999679
_symmetry_Int_Tables_number   1
_chemical_formula_structural   Ta3Co2WC
_chemical_formula_sum   'Ta12 Co8 W4 C4'
_cell_volume   386.61118112
_cell_formula_units_Z   4
loop_
 _symmetry_equiv_pos_site_id
 _symmetry_equiv_pos_as_xyz
  1  'x, y, z'
loop_
 _atom_site_type_symbol
 _atom_site_label
 _atom_site_symmetry_multiplicity
 _atom_site_fract_x
 _atom_site_fract_y
 _atom_site_fract_z
 _atom_site_occupancy
  Ta  Ta0  1  0.690956  0.309044  0.690956  1
  Ta  Ta1  1  0.940956  0.559044  0.559044  1
  Ta  Ta2  1  0.559044  0.940956  0.940956  1
  Ta  Ta3  1  0.940956  0.559044  0.940956  1
  Ta  Ta4  1  0.559044  0.559044  0.940956  1
  Ta  Ta5  1  0.940956  0.940956  0.559044  1
  Ta  Ta6  1  0.690956  0.690956  0.309044  1
  Ta  Ta7  1  0.309044  0.690956  0.690956  1
  Ta  Ta8  1  0.690956  0.309044  0.309044  1
  Ta  Ta9  1  0.309044  0.309044  0.690956  1
  Ta  Ta10  1  0.559044  0.940956  0.559044  1
  Ta  Ta11  1  0.309044  0.690956  0.309044  1
  Co  Co12  1  0.327610  0.327610  0.327610  1
  Co  Co13  1  0.232828  0.922390  0.922390  1
  Co  Co14  1  0.922390  0.232828  0.922390  1
  Co  Co15  1  0.922390  0.922390  0.232828  1
  Co  Co16  1  0.327610  0.017172  0.327610  1
  Co  Co17  1  0.327610  0.327610  0.017172  1
  Co  Co18  1  0.017172  0.327610  0.327610  1
  Co  Co19  1  0.922390  0.922390  0.922390  1
  W  W20  1  0.125000  0.125000  0.125000  1
  W  W21  1  0.625000  0.125000  0.125000  1
  W  W22  1  0.125000  0.625000  0.125000  1
  W  W23  1  0.125000  0.125000  0.625000  1
  C  C24  1  0.625000  0.625000  0.625000  1
  C  C25  1  0.125000  0.625000  0.625000  1
  C  C26  1  0.625000  0.125000  0.625000  1
  C  C27  1  0.625000  0.625000  0.125000  1
