# generated using pymatgen
data_Pr12ZnCo4Sn
_symmetry_space_group_name_H-M   'P 1'
_cell_length_a   8.69255809
_cell_length_b   8.69255945
_cell_length_c   8.69255799
_cell_angle_alpha   112.82778342
_cell_angle_beta   108.58494070
_cell_angle_gamma   107.05726048
_symmetry_Int_Tables_number   1
_chemical_formula_structural   Pr12ZnCo4Sn
_chemical_formula_sum   'Pr12 Zn1 Co4 Sn1'
_cell_volume   504.22220859
_cell_formula_units_Z   1
loop_
 _symmetry_equiv_pos_site_id
 _symmetry_equiv_pos_as_xyz
  1  'x, y, z'
loop_
 _atom_site_type_symbol
 _atom_site_label
 _atom_site_symmetry_multiplicity
 _atom_site_fract_x
 _atom_site_fract_y
 _atom_site_fract_z
 _atom_site_occupancy
  Pr  Pr0  1  0.425024  0.227068  0.197955  1
  Pr  Pr1  1  0.574976  0.772932  0.802045  1
  Pr  Pr2  1  0.029113  0.227068  0.802045  1
  Pr  Pr3  1  0.970887  0.772932  0.197955  1
  Pr  Pr4  1  0.180005  0.285995  0.465999  1
  Pr  Pr5  1  0.819995  0.714005  0.534001  1
  Pr  Pr6  1  0.180005  0.714005  0.894011  1
  Pr  Pr7  1  0.819995  0.285995  0.105989  1
  Pr  Pr8  1  0.323712  0.637228  0.313516  1
  Pr  Pr9  1  0.676288  0.362772  0.686484  1
  Pr  Pr10  1  0.323712  0.010196  0.686484  1
  Pr  Pr11  1  0.676288  0.989804  0.313516  1
  Zn  Zn12  1  0.000000  0.000000  0.000000  1
  Co  Co13  1  0.346419  0.000000  0.346419  1
  Co  Co14  1  0.653581  0.000000  0.653581  1
  Co  Co15  1  0.110753  0.610753  0.500000  1
  Co  Co16  1  0.889247  0.389247  0.500000  1
  Sn  Sn17  1  0.500000  0.500000  0.000000  1
