# generated using pymatgen
data_Ho8In3Tc
_symmetry_space_group_name_H-M   'P 1'
_cell_length_a   10.37452400
_cell_length_b   10.37593992
_cell_length_c   7.00658600
_cell_angle_alpha   89.99982398
_cell_angle_beta   90.00085802
_cell_angle_gamma   119.99383755
_symmetry_Int_Tables_number   1
_chemical_formula_structural   Ho8In3Tc
_chemical_formula_sum   'Ho16 In6 Tc2'
_cell_volume   653.22031343
_cell_formula_units_Z   2
loop_
 _symmetry_equiv_pos_site_id
 _symmetry_equiv_pos_as_xyz
  1  'x, y, z'
loop_
 _atom_site_type_symbol
 _atom_site_label
 _atom_site_symmetry_multiplicity
 _atom_site_fract_x
 _atom_site_fract_y
 _atom_site_fract_z
 _atom_site_occupancy
  Ho  Ho0  1  0.531301  0.062623  0.510048  1
  Ho  Ho1  1  0.937367  0.468693  0.510087  1
  Ho  Ho2  1  0.531330  0.468670  0.510064  1
  Ho  Ho3  1  0.468439  0.936847  0.010728  1
  Ho  Ho4  1  0.063165  0.531578  0.010749  1
  Ho  Ho5  1  0.468407  0.531614  0.010744  1
  Ho  Ho6  1  0.177336  0.354675  0.713716  1
  Ho  Ho7  1  0.645374  0.822701  0.713762  1
  Ho  Ho8  1  0.177334  0.822683  0.713764  1
  Ho  Ho9  1  0.822490  0.644976  0.212666  1
  Ho  Ho10  1  0.354999  0.177490  0.212684  1
  Ho  Ho11  1  0.822491  0.177501  0.212711  1
  Ho  Ho12  1  0.666662  0.333336  0.879483  1
  Ho  Ho13  1  0.333325  0.666656  0.381542  1
  Ho  Ho14  1  0.999988  0.999983  0.489640  1
  Ho  Ho15  1  0.000018  0.000025  0.989471  1
  In  In16  1  0.837475  0.674951  0.750800  1
  In  In17  1  0.325027  0.162500  0.750748  1
  In  In18  1  0.837458  0.162496  0.750757  1
  In  In19  1  0.162859  0.325713  0.252387  1
  In  In20  1  0.674267  0.837142  0.252411  1
  In  In21  1  0.162878  0.837137  0.252389  1
  Tc  Tc22  1  0.333343  0.666686  0.783633  1
  Tc  Tc23  1  0.666666  0.333324  0.283059  1
