# generated using pymatgen
data_Zr2BeCo2
_symmetry_space_group_name_H-M   'P 1'
_cell_length_a   5.07798995
_cell_length_b   5.07799094
_cell_length_c   6.42949300
_cell_angle_alpha   90.00000000
_cell_angle_beta   90.00000000
_cell_angle_gamma   117.56653195
_symmetry_Int_Tables_number   1
_chemical_formula_structural   Zr2BeCo2
_chemical_formula_sum   'Zr4 Be2 Co4'
_cell_volume   146.96926237
_cell_formula_units_Z   2
loop_
 _symmetry_equiv_pos_site_id
 _symmetry_equiv_pos_as_xyz
  1  'x, y, z'
loop_
 _atom_site_type_symbol
 _atom_site_label
 _atom_site_symmetry_multiplicity
 _atom_site_fract_x
 _atom_site_fract_y
 _atom_site_fract_z
 _atom_site_occupancy
  Zr  Zr0  1  0.831251  0.168748  0.098056  1
  Zr  Zr1  1  0.331251  0.668748  0.401944  1
  Zr  Zr2  1  0.668748  0.331251  0.598055  1
  Zr  Zr3  1  0.168748  0.831251  0.901944  1
  Be  Be4  1  0.499999  0.499999  0.000000  1
  Be  Be5  1  0.000000  0.000000  0.499999  1
  Co  Co6  1  0.338186  0.161814  0.250000  1
  Co  Co7  1  0.838185  0.661813  0.250000  1
  Co  Co8  1  0.161814  0.338186  0.750000  1
  Co  Co9  1  0.661813  0.838185  0.750000  1
