# generated using pymatgen
data_CaCe2Er(Al3Ir)6
_symmetry_space_group_name_H-M   'P 1'
_cell_length_a   7.59728728
_cell_length_b   7.59226425
_cell_length_c   9.49474700
_cell_angle_alpha   90.00000000
_cell_angle_beta   90.00000000
_cell_angle_gamma   119.50373839
_symmetry_Int_Tables_number   1
_chemical_formula_structural   CaCe2Er(Al3Ir)6
_chemical_formula_sum   'Ca1 Ce2 Er1 Al18 Ir6'
_cell_volume   476.64386054
_cell_formula_units_Z   1
loop_
 _symmetry_equiv_pos_site_id
 _symmetry_equiv_pos_as_xyz
  1  'x, y, z'
loop_
 _atom_site_type_symbol
 _atom_site_label
 _atom_site_symmetry_multiplicity
 _atom_site_fract_x
 _atom_site_fract_y
 _atom_site_fract_z
 _atom_site_occupancy
  Ca  Ca0  1  0.004990  0.327860  0.750000  1
  Ce  Ce1  1  0.670831  0.997132  0.250000  1
  Ce  Ce2  1  0.329596  0.004542  0.750000  1
  Er  Er3  1  0.996149  0.671969  0.250000  1
  Al  Al4  1  0.128912  0.129800  0.250000  1
  Al  Al5  1  0.871858  0.869060  0.750000  1
  Al  Al6  1  0.002529  0.337704  0.074032  1
  Al  Al7  1  0.997242  0.661959  0.926742  1
  Al  Al8  1  0.997242  0.661959  0.573258  1
  Al  Al9  1  0.333191  0.000962  0.423045  1
  Al  Al10  1  0.002529  0.337704  0.425968  1
  Al  Al11  1  0.667180  0.998832  0.575980  1
  Al  Al12  1  0.667180  0.998832  0.924020  1
  Al  Al13  1  0.333191  0.000962  0.076955  1
  Al  Al14  1  0.332806  0.334891  0.548946  1
  Al  Al15  1  0.667087  0.665571  0.447607  1
  Al  Al16  1  0.667087  0.665571  0.052393  1
  Al  Al17  1  0.332806  0.334891  0.951054  1
  Al  Al18  1  0.338506  0.547252  0.250000  1
  Al  Al19  1  0.658948  0.452069  0.750000  1
  Al  Al20  1  0.549155  0.341895  0.250000  1
  Al  Al21  1  0.451587  0.659888  0.750000  1
  Ir  Ir22  1  0.670496  0.327576  0.001553  1
  Ir  Ir23  1  0.329552  0.673687  0.001197  1
  Ir  Ir24  1  0.329552  0.673687  0.498803  1
  Ir  Ir25  1  0.670496  0.327576  0.498447  1
  Ir  Ir26  1  0.999652  0.998084  0.001675  1
  Ir  Ir27  1  0.999652  0.998084  0.498325  1
