# generated using pymatgen
data_Cs3Rb(InI4)4
_symmetry_space_group_name_H-M   'P 1'
_cell_length_a   8.61096993
_cell_length_b   9.31167929
_cell_length_c   17.46242254
_cell_angle_alpha   85.52821252
_cell_angle_beta   90.34093495
_cell_angle_gamma   90.00371528
_symmetry_Int_Tables_number   1
_chemical_formula_structural   Cs3Rb(InI4)4
_chemical_formula_sum   'Cs3 Rb1 In4 I16'
_cell_volume   1395.89507807
_cell_formula_units_Z   1
loop_
 _symmetry_equiv_pos_site_id
 _symmetry_equiv_pos_as_xyz
  1  'x, y, z'
loop_
 _atom_site_type_symbol
 _atom_site_label
 _atom_site_symmetry_multiplicity
 _atom_site_fract_x
 _atom_site_fract_y
 _atom_site_fract_z
 _atom_site_occupancy
  Cs  Cs0  1  0.505053  0.257277  0.640364  1
  Cs  Cs1  1  0.005032  0.742342  0.860378  1
  Cs  Cs2  1  0.494818  0.742795  0.358632  1
  Rb  Rb3  1  0.998290  0.256008  0.138704  1
  In  In4  1  0.353328  0.246698  0.359879  1
  In  In5  1  0.859607  0.753848  0.139267  1
  In  In6  1  0.644112  0.753220  0.639240  1
  In  In7  1  0.143016  0.246125  0.862318  1
  I  I8  1  0.856858  0.142820  0.910973  1
  I  I9  1  0.358171  0.856178  0.588476  1
  I  I10  1  0.141935  0.865103  0.089494  1
  I  I11  1  0.639610  0.144553  0.410443  1
  I  I12  1  0.386770  0.407532  0.220975  1
  I  I13  1  0.896124  0.585123  0.275440  1
  I  I14  1  0.604987  0.590472  0.777102  1
  I  I15  1  0.105389  0.410066  0.724413  1
  I  I16  1  0.660644  0.981355  0.159853  1
  I  I17  1  0.147547  0.024999  0.337762  1
  I  I18  1  0.349101  0.025417  0.840266  1
  I  I19  1  0.849406  0.975664  0.660257  1
  I  I20  1  0.235554  0.421295  0.466701  1
  I  I21  1  0.740887  0.574344  0.034419  1
  I  I22  1  0.764530  0.579115  0.533092  1
  I  I23  1  0.259234  0.417650  0.971554  1
