# generated using pymatgen
data_DyY3Mn4F28
_symmetry_space_group_name_H-M   'P 1'
_cell_length_a   5.43720627
_cell_length_b   8.75114121
_cell_length_c   11.74917200
_cell_angle_alpha   62.27287565
_cell_angle_beta   90.01819865
_cell_angle_gamma   90.00763563
_symmetry_Int_Tables_number   1
_chemical_formula_structural   DyY3Mn4F28
_chemical_formula_sum   'Dy1 Y3 Mn4 F28'
_cell_volume   494.85290953
_cell_formula_units_Z   1
loop_
 _symmetry_equiv_pos_site_id
 _symmetry_equiv_pos_as_xyz
  1  'x, y, z'
loop_
 _atom_site_type_symbol
 _atom_site_label
 _atom_site_symmetry_multiplicity
 _atom_site_fract_x
 _atom_site_fract_y
 _atom_site_fract_z
 _atom_site_occupancy
  Dy  Dy0  1  0.261511  0.810482  0.263947  1
  Y  Y1  1  0.738544  0.189127  0.736016  1
  Y  Y2  1  0.761539  0.188501  0.236129  1
  Y  Y3  1  0.238536  0.810782  0.763971  1
  Mn  Mn4  1  0.758849  0.725716  0.043246  1
  Mn  Mn5  1  0.241400  0.274048  0.957291  1
  Mn  Mn6  1  0.258717  0.274636  0.456891  1
  Mn  Mn7  1  0.741277  0.725767  0.542557  1
  F  F8  1  0.931276  0.707244  0.420454  1
  F  F9  1  0.069426  0.293305  0.579146  1
  F  F10  1  0.430807  0.292952  0.079401  1
  F  F11  1  0.569294  0.706981  0.921151  1
  F  F12  1  0.479673  0.728511  0.131621  1
  F  F13  1  0.520750  0.271808  0.869067  1
  F  F14  1  0.979392  0.271954  0.368747  1
  F  F15  1  0.020403  0.728110  0.630903  1
  F  F16  1  0.947195  0.740941  0.169524  1
  F  F17  1  0.053893  0.259357  0.830638  1
  F  F18  1  0.446268  0.259717  0.330402  1
  F  F19  1  0.553654  0.740566  0.669128  1
  F  F20  1  0.770130  0.488185  0.137365  1
  F  F21  1  0.229846  0.511642  0.863020  1
  F  F22  1  0.270020  0.512342  0.362794  1
  F  F23  1  0.729618  0.488330  0.636827  1
  F  F24  1  0.955224  0.281554  0.040040  1
  F  F25  1  0.044619  0.718298  0.960265  1
  F  F26  1  0.455109  0.718666  0.459349  1
  F  F27  1  0.544907  0.282000  0.539762  1
  F  F28  1  0.739547  0.962231  0.452755  1
  F  F29  1  0.260572  0.038322  0.546885  1
  F  F30  1  0.239471  0.037565  0.047478  1
  F  F31  1  0.760600  0.962143  0.953139  1
  F  F32  1  0.594885  0.967369  0.227957  1
  F  F33  1  0.403335  0.032166  0.772351  1
  F  F34  1  0.096324  0.030899  0.272129  1
  F  F35  1  0.903395  0.967787  0.727652  1
