# generated using pymatgen
data_Nd8Si12NiAu3
_symmetry_space_group_name_H-M   'P 1'
_cell_length_a   8.23865330
_cell_length_b   8.24045734
_cell_length_c   8.62249002
_cell_angle_alpha   89.99340763
_cell_angle_beta   90.00669427
_cell_angle_gamma   119.96240669
_symmetry_Int_Tables_number   1
_chemical_formula_structural   Nd8Si12NiAu3
_chemical_formula_sum   'Nd8 Si12 Ni1 Au3'
_cell_volume   507.14863821
_cell_formula_units_Z   1
loop_
 _symmetry_equiv_pos_site_id
 _symmetry_equiv_pos_as_xyz
  1  'x, y, z'
loop_
 _atom_site_type_symbol
 _atom_site_label
 _atom_site_symmetry_multiplicity
 _atom_site_fract_x
 _atom_site_fract_y
 _atom_site_fract_z
 _atom_site_occupancy
  Nd  Nd0  1  0.000010  0.999962  0.751940  1
  Nd  Nd1  1  0.000009  0.999969  0.248045  1
  Nd  Nd2  1  0.496819  0.503183  0.754228  1
  Nd  Nd3  1  0.496837  0.993680  0.754180  1
  Nd  Nd4  1  0.006336  0.503172  0.754195  1
  Nd  Nd5  1  0.498253  0.501738  0.245814  1
  Nd  Nd6  1  0.003468  0.501723  0.245848  1
  Nd  Nd7  1  0.498275  0.996529  0.245858  1
  Si  Si8  1  0.838124  0.161794  0.999332  1
  Si  Si9  1  0.838183  0.676175  0.999332  1
  Si  Si10  1  0.323773  0.161746  0.999330  1
  Si  Si11  1  0.835850  0.164078  0.500601  1
  Si  Si12  1  0.835902  0.671627  0.500587  1
  Si  Si13  1  0.328331  0.164040  0.500587  1
  Si  Si14  1  0.163492  0.836601  0.499446  1
  Si  Si15  1  0.672986  0.836643  0.499437  1
  Si  Si16  1  0.163428  0.327067  0.499432  1
  Si  Si17  1  0.173667  0.826413  0.000946  1
  Si  Si18  1  0.652661  0.826468  0.000946  1
  Si  Si19  1  0.173593  0.347380  0.000944  1
  Ni  Ni20  1  0.333329  0.666621  0.001596  1
  Au  Au21  1  0.666668  0.333388  0.997476  1
  Au  Au22  1  0.666665  0.333383  0.502416  1
  Au  Au23  1  0.333342  0.666617  0.497484  1
