# generated using pymatgen
data_YThMn12P7
_symmetry_space_group_name_H-M   'P 1'
_cell_length_a   9.33803200
_cell_length_b   9.33803292
_cell_length_c   3.64259000
_cell_angle_alpha   90.00000000
_cell_angle_beta   90.00000000
_cell_angle_gamma   119.99999673
_symmetry_Int_Tables_number   1
_chemical_formula_structural   YThMn12P7
_chemical_formula_sum   'Y1 Th1 Mn12 P7'
_cell_volume   275.07536360
_cell_formula_units_Z   1
loop_
 _symmetry_equiv_pos_site_id
 _symmetry_equiv_pos_as_xyz
  1  'x, y, z'
loop_
 _atom_site_type_symbol
 _atom_site_label
 _atom_site_symmetry_multiplicity
 _atom_site_fract_x
 _atom_site_fract_y
 _atom_site_fract_z
 _atom_site_occupancy
  Y  Y0  1  0.333333  0.666667  0.000000  1
  Th  Th1  1  0.000000  0.000000  0.500000  1
  Mn  Mn2  1  0.043672  0.284479  0.000000  1
  Mn  Mn3  1  0.715521  0.759193  0.000000  1
  Mn  Mn4  1  0.240807  0.956328  0.000000  1
  Mn  Mn5  1  0.543885  0.057444  0.000000  1
  Mn  Mn6  1  0.942556  0.486441  0.000000  1
  Mn  Mn7  1  0.513559  0.456115  0.000000  1
  Mn  Mn8  1  0.619956  0.895852  0.500000  1
  Mn  Mn9  1  0.104148  0.724104  0.500000  1
  Mn  Mn10  1  0.275896  0.380044  0.500000  1
  Mn  Mn11  1  0.788887  0.230759  0.500000  1
  Mn  Mn12  1  0.769241  0.558128  0.500000  1
  Mn  Mn13  1  0.441872  0.211113  0.500000  1
  P  P14  1  0.779410  0.043663  0.000000  1
  P  P15  1  0.956337  0.735747  0.000000  1
  P  P16  1  0.264253  0.220590  0.000000  1
  P  P17  1  0.384826  0.925383  0.500000  1
  P  P18  1  0.074617  0.459443  0.500000  1
  P  P19  1  0.540557  0.615174  0.500000  1
  P  P20  1  0.666667  0.333333  0.000000  1
