# generated using pymatgen
data_SrYTh2(Ga3Ir)6
_symmetry_space_group_name_H-M   'P 1'
_cell_length_a   7.66628912
_cell_length_b   7.68139215
_cell_length_c   9.56269200
_cell_angle_alpha   90.00000000
_cell_angle_beta   90.00000000
_cell_angle_gamma   119.69181993
_symmetry_Int_Tables_number   1
_chemical_formula_structural   SrYTh2(Ga3Ir)6
_chemical_formula_sum   'Sr1 Y1 Th2 Ga18 Ir6'
_cell_volume   489.18850252
_cell_formula_units_Z   1
loop_
 _symmetry_equiv_pos_site_id
 _symmetry_equiv_pos_as_xyz
  1  'x, y, z'
loop_
 _atom_site_type_symbol
 _atom_site_label
 _atom_site_symmetry_multiplicity
 _atom_site_fract_x
 _atom_site_fract_y
 _atom_site_fract_z
 _atom_site_occupancy
  Sr  Sr0  1  0.996420  0.670197  0.750000  1
  Y  Y1  1  0.328943  0.002002  0.250000  1
  Th  Th2  1  0.002031  0.330616  0.250000  1
  Th  Th3  1  0.669265  0.996741  0.750000  1
  Ga  Ga4  1  0.132191  0.130514  0.750000  1
  Ga  Ga5  1  0.871611  0.869336  0.250000  1
  Ga  Ga6  1  0.005846  0.339043  0.579563  1
  Ga  Ga7  1  0.001741  0.671085  0.419734  1
  Ga  Ga8  1  0.001741  0.671085  0.080266  1
  Ga  Ga9  1  0.331436  0.001108  0.926130  1
  Ga  Ga10  1  0.005846  0.339043  0.920437  1
  Ga  Ga11  1  0.658760  0.996052  0.083384  1
  Ga  Ga12  1  0.658760  0.996052  0.416616  1
  Ga  Ga13  1  0.331436  0.001108  0.573870  1
  Ga  Ga14  1  0.335826  0.330825  0.065272  1
  Ga  Ga15  1  0.666367  0.662938  0.943003  1
  Ga  Ga16  1  0.666367  0.662938  0.556997  1
  Ga  Ga17  1  0.335826  0.330825  0.434728  1
  Ga  Ga18  1  0.341831  0.543958  0.750000  1
  Ga  Ga19  1  0.658498  0.452722  0.250000  1
  Ga  Ga20  1  0.542558  0.336581  0.750000  1
  Ga  Ga21  1  0.456823  0.662019  0.250000  1
  Ir  Ir22  1  0.671689  0.326248  0.497636  1
  Ir  Ir23  1  0.330749  0.670996  0.497458  1
  Ir  Ir24  1  0.330749  0.670996  0.002542  1
  Ir  Ir25  1  0.671689  0.326248  0.002364  1
  Ir  Ir26  1  0.997502  0.004365  0.497626  1
  Ir  Ir27  1  0.997502  0.004365  0.002374  1
