# generated using pymatgen
data_Sm5B4Pt7Rh8
_symmetry_space_group_name_H-M   'P 1'
_cell_length_a   4.28579000
_cell_length_b   4.28579000
_cell_length_c   20.91052200
_cell_angle_alpha   90.00000000
_cell_angle_beta   90.00000000
_cell_angle_gamma   90.00000000
_symmetry_Int_Tables_number   1
_chemical_formula_structural   Sm5B4Pt7Rh8
_chemical_formula_sum   'Sm5 B4 Pt7 Rh8'
_cell_volume   384.08438287
_cell_formula_units_Z   1
loop_
 _symmetry_equiv_pos_site_id
 _symmetry_equiv_pos_as_xyz
  1  'x, y, z'
loop_
 _atom_site_type_symbol
 _atom_site_label
 _atom_site_symmetry_multiplicity
 _atom_site_fract_x
 _atom_site_fract_y
 _atom_site_fract_z
 _atom_site_occupancy
  Sm  Sm0  1  0.000000  0.000000  0.900717  1
  Sm  Sm1  1  0.000000  0.000000  0.099283  1
  Sm  Sm2  1  0.000000  0.000000  0.298957  1
  Sm  Sm3  1  0.000000  0.000000  0.500000  1
  Sm  Sm4  1  0.000000  0.000000  0.701043  1
  B  B5  1  0.500000  0.500000  0.189534  1
  B  B6  1  0.500000  0.500000  0.397187  1
  B  B7  1  0.500000  0.500000  0.602813  1
  B  B8  1  0.500000  0.500000  0.810466  1
  Pt  Pt9  1  0.500000  0.500000  0.908902  1
  Pt  Pt10  1  0.500000  0.500000  0.091098  1
  Pt  Pt11  1  0.500000  0.500000  0.295991  1
  Pt  Pt12  1  0.500000  0.500000  0.500000  1
  Pt  Pt13  1  0.500000  0.500000  0.704009  1
  Pt  Pt14  1  0.500000  0.000000  0.000000  1
  Pt  Pt15  1  0.000000  0.500000  0.000000  1
  Rh  Rh16  1  0.500000  0.000000  0.199836  1
  Rh  Rh17  1  0.500000  0.000000  0.399765  1
  Rh  Rh18  1  0.500000  0.000000  0.600235  1
  Rh  Rh19  1  0.500000  0.000000  0.800164  1
  Rh  Rh20  1  0.000000  0.500000  0.199836  1
  Rh  Rh21  1  0.000000  0.500000  0.399765  1
  Rh  Rh22  1  0.000000  0.500000  0.600235  1
  Rh  Rh23  1  0.000000  0.500000  0.800164  1
