# generated using pymatgen
data_Y20Ir3Rh5Au4
_symmetry_space_group_name_H-M   'P 1'
_cell_length_a   11.16578375
_cell_length_b   11.17820711
_cell_length_c   6.39518365
_cell_angle_alpha   90.12435964
_cell_angle_beta   89.74940700
_cell_angle_gamma   89.59496197
_symmetry_Int_Tables_number   1
_chemical_formula_structural   Y20Ir3Rh5Au4
_chemical_formula_sum   'Y20 Ir3 Rh5 Au4'
_cell_volume   798.17537940
_cell_formula_units_Z   1
loop_
 _symmetry_equiv_pos_site_id
 _symmetry_equiv_pos_as_xyz
  1  'x, y, z'
loop_
 _atom_site_type_symbol
 _atom_site_label
 _atom_site_symmetry_multiplicity
 _atom_site_fract_x
 _atom_site_fract_y
 _atom_site_fract_z
 _atom_site_occupancy
  Y  Y0  1  0.292817  0.095384  0.377281  1
  Y  Y1  1  0.296351  0.911156  0.863880  1
  Y  Y2  1  0.699191  0.082729  0.864647  1
  Y  Y3  1  0.701135  0.905746  0.366471  1
  Y  Y4  1  0.581394  0.785215  0.879784  1
  Y  Y5  1  0.575305  0.207095  0.365214  1
  Y  Y6  1  0.415314  0.789449  0.378718  1
  Y  Y7  1  0.403199  0.207243  0.880644  1
  Y  Y8  1  0.213579  0.410918  0.620667  1
  Y  Y9  1  0.211300  0.581578  0.120810  1
  Y  Y10  1  0.793806  0.421371  0.135096  1
  Y  Y11  1  0.791506  0.589262  0.618696  1
  Y  Y12  1  0.908763  0.702963  0.131107  1
  Y  Y13  1  0.923299  0.295686  0.638535  1
  Y  Y14  1  0.094170  0.698836  0.632594  1
  Y  Y15  1  0.097764  0.295389  0.124276  1
  Y  Y16  1  0.004307  0.003581  0.501343  1
  Y  Y17  1  0.004290  0.006622  0.999086  1
  Y  Y18  1  0.497305  0.501399  0.000443  1
  Y  Y19  1  0.496500  0.504674  0.498644  1
  Ir  Ir20  1  0.653952  0.653155  0.251214  1
  Ir  Ir21  1  0.347454  0.346741  0.248599  1
  Ir  Ir22  1  0.344933  0.656695  0.751830  1
  Rh  Rh23  1  0.152229  0.153186  0.749482  1
  Rh  Rh24  1  0.499427  0.999669  0.120121  1
  Rh  Rh25  1  0.499176  0.001583  0.619727  1
  Rh  Rh26  1  0.999612  0.500298  0.880583  1
  Rh  Rh27  1  0.000329  0.499258  0.380530  1
  Au  Au28  1  0.841771  0.158969  0.251561  1
  Au  Au29  1  0.845397  0.847067  0.751034  1
  Au  Au30  1  0.156833  0.843242  0.249235  1
  Au  Au31  1  0.657593  0.343843  0.748150  1
