# generated using pymatgen
data_Sm5P4Pt11Rh4
_symmetry_space_group_name_H-M   'P 1'
_cell_length_a   4.07115400
_cell_length_b   4.10813100
_cell_length_c   25.64589600
_cell_angle_alpha   90.00000000
_cell_angle_beta   90.00000000
_cell_angle_gamma   90.00000000
_symmetry_Int_Tables_number   1
_chemical_formula_structural   Sm5P4Pt11Rh4
_chemical_formula_sum   'Sm5 P4 Pt11 Rh4'
_cell_volume   428.92335218
_cell_formula_units_Z   1
loop_
 _symmetry_equiv_pos_site_id
 _symmetry_equiv_pos_as_xyz
  1  'x, y, z'
loop_
 _atom_site_type_symbol
 _atom_site_label
 _atom_site_symmetry_multiplicity
 _atom_site_fract_x
 _atom_site_fract_y
 _atom_site_fract_z
 _atom_site_occupancy
  Sm  Sm0  1  0.000000  0.000000  0.900263  1
  Sm  Sm1  1  0.000000  0.000000  0.099737  1
  Sm  Sm2  1  0.000000  0.000000  0.306870  1
  Sm  Sm3  1  0.000000  0.000000  0.500000  1
  Sm  Sm4  1  0.000000  0.000000  0.693130  1
  P  P5  1  0.500000  0.500000  0.158954  1
  P  P6  1  0.500000  0.500000  0.368352  1
  P  P7  1  0.500000  0.500000  0.631648  1
  P  P8  1  0.500000  0.500000  0.841046  1
  Pt  Pt9  1  0.500000  0.500000  0.928417  1
  Pt  Pt10  1  0.500000  0.500000  0.071583  1
  Pt  Pt11  1  0.500000  0.500000  0.280114  1
  Pt  Pt12  1  0.500000  0.500000  0.500000  1
  Pt  Pt13  1  0.500000  0.500000  0.719886  1
  Pt  Pt14  1  0.500000  0.000000  0.000000  1
  Pt  Pt15  1  0.500000  0.000000  0.204981  1
  Pt  Pt16  1  0.500000  0.000000  0.414166  1
  Pt  Pt17  1  0.500000  0.000000  0.585834  1
  Pt  Pt18  1  0.500000  0.000000  0.795019  1
  Pt  Pt19  1  0.000000  0.500000  0.000000  1
  Rh  Rh20  1  0.000000  0.500000  0.203135  1
  Rh  Rh21  1  0.000000  0.500000  0.412825  1
  Rh  Rh22  1  0.000000  0.500000  0.587175  1
  Rh  Rh23  1  0.000000  0.500000  0.796865  1
