# generated using pymatgen
data_Hf8Zr2AlSn6Ge
_symmetry_space_group_name_H-M   'P 1'
_cell_length_a   8.67415811
_cell_length_b   8.67332583
_cell_length_c   5.83910827
_cell_angle_alpha   90.03479534
_cell_angle_beta   89.98260799
_cell_angle_gamma   119.99682612
_symmetry_Int_Tables_number   1
_chemical_formula_structural   Hf8Zr2AlSn6Ge
_chemical_formula_sum   'Hf8 Zr2 Al1 Sn6 Ge1'
_cell_volume   380.45558579
_cell_formula_units_Z   1
loop_
 _symmetry_equiv_pos_site_id
 _symmetry_equiv_pos_as_xyz
  1  'x, y, z'
loop_
 _atom_site_type_symbol
 _atom_site_label
 _atom_site_symmetry_multiplicity
 _atom_site_fract_x
 _atom_site_fract_y
 _atom_site_fract_z
 _atom_site_occupancy
  Hf  Hf0  1  0.332549  0.666275  0.000000  1
  Hf  Hf1  1  0.666507  0.333253  0.500000  1
  Hf  Hf2  1  0.666425  0.333212  0.000000  1
  Hf  Hf3  1  0.332750  0.666376  0.500000  1
  Hf  Hf4  1  0.267976  0.999684  0.246699  1
  Hf  Hf5  1  0.267976  0.268292  0.753301  1
  Hf  Hf6  1  0.000075  0.731773  0.753472  1
  Hf  Hf7  1  0.000075  0.268302  0.246528  1
  Zr  Zr8  1  0.732360  0.731914  0.247104  1
  Zr  Zr9  1  0.732360  0.000446  0.752896  1
  Al  Al10  1  0.000535  0.000268  0.500000  1
  Sn  Sn11  1  0.610596  0.000345  0.252415  1
  Sn  Sn12  1  0.610596  0.610251  0.747585  1
  Sn  Sn13  1  0.000287  0.389906  0.747571  1
  Sn  Sn14  1  0.000287  0.610380  0.252429  1
  Sn  Sn15  1  0.388684  0.388698  0.252313  1
  Sn  Sn16  1  0.388684  0.999986  0.747687  1
  Ge  Ge17  1  0.001278  0.000639  0.000000  1
