# generated using pymatgen
data_Li2Nd8CuSi12Ni
_symmetry_space_group_name_H-M   'P 1'
_cell_length_a   8.17817900
_cell_length_b   8.17817981
_cell_length_c   8.45358700
_cell_angle_alpha   90.00000000
_cell_angle_beta   90.00000000
_cell_angle_gamma   119.99999266
_symmetry_Int_Tables_number   1
_chemical_formula_structural   Li2Nd8CuSi12Ni
_chemical_formula_sum   'Li2 Nd8 Cu1 Si12 Ni1'
_cell_volume   489.64909655
_cell_formula_units_Z   1
loop_
 _symmetry_equiv_pos_site_id
 _symmetry_equiv_pos_as_xyz
  1  'x, y, z'
loop_
 _atom_site_type_symbol
 _atom_site_label
 _atom_site_symmetry_multiplicity
 _atom_site_fract_x
 _atom_site_fract_y
 _atom_site_fract_z
 _atom_site_occupancy
  Li  Li0  1  0.666667  0.333333  0.000246  1
  Li  Li1  1  0.333333  0.666667  0.999773  1
  Nd  Nd2  1  0.499265  0.500735  0.748649  1
  Nd  Nd3  1  0.499227  0.500773  0.251321  1
  Nd  Nd4  1  0.001469  0.500735  0.748649  1
  Nd  Nd5  1  0.001546  0.500773  0.251321  1
  Nd  Nd6  1  0.499265  0.998531  0.748649  1
  Nd  Nd7  1  0.499227  0.998454  0.251321  1
  Nd  Nd8  1  0.000000  0.000000  0.750861  1
  Nd  Nd9  1  0.000000  0.000000  0.249163  1
  Cu  Cu10  1  0.666667  0.333333  0.499759  1
  Si  Si11  1  0.833479  0.166521  0.999946  1
  Si  Si12  1  0.166644  0.833356  0.000044  1
  Si  Si13  1  0.333039  0.166521  0.999946  1
  Si  Si14  1  0.172113  0.827887  0.499837  1
  Si  Si15  1  0.666711  0.833356  0.000044  1
  Si  Si16  1  0.832321  0.167679  0.500090  1
  Si  Si17  1  0.833479  0.666961  0.999946  1
  Si  Si18  1  0.655774  0.827887  0.499837  1
  Si  Si19  1  0.166644  0.333289  0.000044  1
  Si  Si20  1  0.335356  0.167679  0.500090  1
  Si  Si21  1  0.172113  0.344226  0.499837  1
  Si  Si22  1  0.832321  0.664644  0.500090  1
  Ni  Ni23  1  0.333333  0.666667  0.500535  1
