# generated using pymatgen
data_HoErSi3Rh
_symmetry_space_group_name_H-M   'P 1'
_cell_length_a   8.16188219
_cell_length_b   8.16329288
_cell_length_c   7.84105600
_cell_angle_alpha   90.00000000
_cell_angle_beta   90.00000000
_cell_angle_gamma   120.00571338
_symmetry_Int_Tables_number   1
_chemical_formula_structural   HoErSi3Rh
_chemical_formula_sum   'Ho4 Er4 Si12 Rh4'
_cell_volume   452.41383939
_cell_formula_units_Z   4
loop_
 _symmetry_equiv_pos_site_id
 _symmetry_equiv_pos_as_xyz
  1  'x, y, z'
loop_
 _atom_site_type_symbol
 _atom_site_label
 _atom_site_symmetry_multiplicity
 _atom_site_fract_x
 _atom_site_fract_y
 _atom_site_fract_z
 _atom_site_occupancy
  Ho  Ho0  1  0.000176  0.000088  0.250000  1
  Ho  Ho1  1  0.000115  0.000058  0.750000  1
  Ho  Ho2  1  0.491278  0.508752  0.250000  1
  Ho  Ho3  1  0.491278  0.982526  0.250000  1
  Er  Er4  1  0.016416  0.508208  0.250000  1
  Er  Er5  1  0.509156  0.490812  0.750000  1
  Er  Er6  1  0.981677  0.490838  0.750000  1
  Er  Er7  1  0.509156  0.018344  0.750000  1
  Si  Si8  1  0.833287  0.166746  0.501012  1
  Si  Si9  1  0.833287  0.666543  0.501012  1
  Si  Si10  1  0.333752  0.166876  0.501105  1
  Si  Si11  1  0.833287  0.166746  0.998988  1
  Si  Si12  1  0.833287  0.666543  0.998988  1
  Si  Si13  1  0.333752  0.166876  0.998895  1
  Si  Si14  1  0.167106  0.832843  0.999966  1
  Si  Si15  1  0.665693  0.832846  0.999159  1
  Si  Si16  1  0.167106  0.334262  0.999966  1
  Si  Si17  1  0.167106  0.832843  0.500034  1
  Si  Si18  1  0.665693  0.832846  0.500841  1
  Si  Si19  1  0.167106  0.334262  0.500034  1
  Rh  Rh20  1  0.667078  0.333539  0.467365  1
  Rh  Rh21  1  0.667078  0.333539  0.032635  1
  Rh  Rh22  1  0.333066  0.666533  0.963426  1
  Rh  Rh23  1  0.333066  0.666533  0.536574  1
