# generated using pymatgen
data_Lu12Ga2TcNi3
_symmetry_space_group_name_H-M   'P 1'
_cell_length_a   8.12446658
_cell_length_b   8.12568848
_cell_length_c   8.12446480
_cell_angle_alpha   112.74677690
_cell_angle_beta   109.99457411
_cell_angle_gamma   105.74227208
_symmetry_Int_Tables_number   1
_chemical_formula_structural   Lu12Ga2TcNi3
_chemical_formula_sum   'Lu12 Ga2 Tc1 Ni3'
_cell_volume   411.36054206
_cell_formula_units_Z   1
loop_
 _symmetry_equiv_pos_site_id
 _symmetry_equiv_pos_as_xyz
  1  'x, y, z'
loop_
 _atom_site_type_symbol
 _atom_site_label
 _atom_site_symmetry_multiplicity
 _atom_site_fract_x
 _atom_site_fract_y
 _atom_site_fract_z
 _atom_site_occupancy
  Lu  Lu0  1  0.443138  0.248865  0.194399  1
  Lu  Lu1  1  0.569661  0.765325  0.804213  1
  Lu  Lu2  1  0.038888  0.234675  0.804335  1
  Lu  Lu3  1  0.945535  0.751135  0.194273  1
  Lu  Lu4  1  0.185451  0.280549  0.466164  1
  Lu  Lu5  1  0.823587  0.722562  0.546045  1
  Lu  Lu6  1  0.185615  0.719451  0.904901  1
  Lu  Lu7  1  0.823483  0.277438  0.101023  1
  Lu  Lu8  1  0.324800  0.635926  0.305783  1
  Lu  Lu9  1  0.669858  0.364074  0.688875  1
  Lu  Lu10  1  0.324546  0.018696  0.688689  1
  Lu  Lu11  1  0.669993  0.981304  0.305850  1
  Ga  Ga12  1  0.493844  0.500000  0.993844  1
  Ga  Ga13  1  0.015209  0.000000  0.015209  1
  Tc  Tc14  1  0.329860  0.000000  0.329860  1
  Ni  Ni15  1  0.658136  0.000000  0.658136  1
  Ni  Ni16  1  0.118853  0.619975  0.499519  1
  Ni  Ni17  1  0.879544  0.380025  0.498879  1
