# generated using pymatgen
data_Li8Ac7PrSi7Sn
_symmetry_space_group_name_H-M   'P 1'
_cell_length_a   9.33124600
_cell_length_b   9.33124593
_cell_length_c   8.01737400
_cell_angle_alpha   90.00000000
_cell_angle_beta   90.00000000
_cell_angle_gamma   120.00000026
_symmetry_Int_Tables_number   1
_chemical_formula_structural   Li8Ac7PrSi7Sn
_chemical_formula_sum   'Li8 Ac7 Pr1 Si7 Sn1'
_cell_volume   604.56367372
_cell_formula_units_Z   1
loop_
 _symmetry_equiv_pos_site_id
 _symmetry_equiv_pos_as_xyz
  1  'x, y, z'
loop_
 _atom_site_type_symbol
 _atom_site_label
 _atom_site_symmetry_multiplicity
 _atom_site_fract_x
 _atom_site_fract_y
 _atom_site_fract_z
 _atom_site_occupancy
  Li  Li0  1  0.836289  0.163711  0.721989  1
  Li  Li1  1  0.836289  0.672578  0.721989  1
  Li  Li2  1  0.327422  0.163711  0.721989  1
  Li  Li3  1  0.159656  0.840344  0.208229  1
  Li  Li4  1  0.159656  0.319314  0.208229  1
  Li  Li5  1  0.680686  0.840344  0.208229  1
  Li  Li6  1  0.666667  0.333333  0.326156  1
  Li  Li7  1  0.333333  0.666667  0.829328  1
  Ac  Ac8  1  0.490582  0.509418  0.507959  1
  Ac  Ac9  1  0.490582  0.981163  0.507959  1
  Ac  Ac10  1  0.018837  0.509418  0.507959  1
  Ac  Ac11  1  0.515521  0.484479  0.002333  1
  Ac  Ac12  1  0.515521  0.031041  0.002333  1
  Ac  Ac13  1  0.968959  0.484479  0.002333  1
  Ac  Ac14  1  0.000000  0.000000  0.491337  1
  Pr  Pr15  1  0.000000  0.000000  0.985270  1
  Si  Si16  1  0.833679  0.166321  0.272533  1
  Si  Si17  1  0.833679  0.667359  0.272533  1
  Si  Si18  1  0.332641  0.166321  0.272533  1
  Si  Si19  1  0.164089  0.835911  0.783426  1
  Si  Si20  1  0.164089  0.328177  0.783426  1
  Si  Si21  1  0.671823  0.835911  0.783426  1
  Si  Si22  1  0.666667  0.333333  0.715987  1
  Sn  Sn23  1  0.333333  0.666667  0.220519  1
