# generated using pymatgen
data_Tb3Ho17(Sn7Sb)2
_symmetry_space_group_name_H-M   'P 1'
_cell_length_a   8.07107915
_cell_length_b   8.14417625
_cell_length_c   15.36928013
_cell_angle_alpha   90.23785243
_cell_angle_beta   90.11253820
_cell_angle_gamma   89.95928045
_symmetry_Int_Tables_number   1
_chemical_formula_structural   Tb3Ho17(Sn7Sb)2
_chemical_formula_sum   'Tb3 Ho17 Sn14 Sb2'
_cell_volume   1010.24709231
_cell_formula_units_Z   1
loop_
 _symmetry_equiv_pos_site_id
 _symmetry_equiv_pos_as_xyz
  1  'x, y, z'
loop_
 _atom_site_type_symbol
 _atom_site_label
 _atom_site_symmetry_multiplicity
 _atom_site_fract_x
 _atom_site_fract_y
 _atom_site_fract_z
 _atom_site_occupancy
  Tb  Tb0  1  0.972528  0.825368  0.400613  1
  Tb  Tb1  1  0.526357  0.320493  0.599678  1
  Tb  Tb2  1  0.027507  0.179373  0.900248  1
  Ho  Ho3  1  0.376149  0.838038  0.879474  1
  Ho  Ho4  1  0.875081  0.662050  0.620800  1
  Ho  Ho5  1  0.626266  0.161283  0.377472  1
  Ho  Ho6  1  0.125626  0.338652  0.121931  1
  Ho  Ho7  1  0.624856  0.161555  0.121096  1
  Ho  Ho8  1  0.125719  0.338414  0.378617  1
  Ho  Ho9  1  0.373815  0.838635  0.622181  1
  Ho  Ho10  1  0.874797  0.661542  0.878183  1
  Ho  Ho11  1  0.534654  0.328747  0.897822  1
  Ho  Ho12  1  0.033269  0.172122  0.601785  1
  Ho  Ho13  1  0.466715  0.677956  0.398952  1
  Ho  Ho14  1  0.965535  0.821883  0.101636  1
  Ho  Ho15  1  0.470979  0.673291  0.099866  1
  Ho  Ho16  1  0.204527  0.502370  0.749456  1
  Ho  Ho17  1  0.704391  0.997746  0.750697  1
  Ho  Ho18  1  0.795286  0.498100  0.248271  1
  Ho  Ho19  1  0.295440  0.001768  0.251473  1
  Sn  Sn20  1  0.714211  0.967181  0.542332  1
  Sn  Sn21  1  0.216120  0.533023  0.957923  1
  Sn  Sn22  1  0.716169  0.966019  0.957880  1
  Sn  Sn23  1  0.215391  0.534915  0.541845  1
  Sn  Sn24  1  0.289654  0.036627  0.458274  1
  Sn  Sn25  1  0.787744  0.464890  0.042007  1
  Sn  Sn26  1  0.571682  0.622491  0.748958  1
  Sn  Sn27  1  0.071527  0.877357  0.751199  1
  Sn  Sn28  1  0.428831  0.378167  0.249989  1
  Sn  Sn29  1  0.929085  0.122213  0.249434  1
  Sn  Sn30  1  0.338000  0.147038  0.751513  1
  Sn  Sn31  1  0.838808  0.353201  0.748537  1
  Sn  Sn32  1  0.659598  0.852245  0.249727  1
  Sn  Sn33  1  0.160929  0.647121  0.249782  1
  Sb  Sb34  1  0.281033  0.028220  0.045149  1
  Sb  Sb35  1  0.781721  0.469910  0.455201  1
