# generated using pymatgen
data_Zr19Si16Pd
_symmetry_space_group_name_H-M   'P 1'
_cell_length_a   7.15670792
_cell_length_b   7.15670792
_cell_length_c   12.96904582
_cell_angle_alpha   89.68498693
_cell_angle_beta   90.31501307
_cell_angle_gamma   89.98159980
_symmetry_Int_Tables_number   1
_chemical_formula_structural   Zr19Si16Pd
_chemical_formula_sum   'Zr19 Si16 Pd1'
_cell_volume   664.23454238
_cell_formula_units_Z   1
loop_
 _symmetry_equiv_pos_site_id
 _symmetry_equiv_pos_as_xyz
  1  'x, y, z'
loop_
 _atom_site_type_symbol
 _atom_site_label
 _atom_site_symmetry_multiplicity
 _atom_site_fract_x
 _atom_site_fract_y
 _atom_site_fract_z
 _atom_site_occupancy
  Zr  Zr0  1  0.494077  0.851069  0.034160  1
  Zr  Zr1  1  0.002931  0.859996  0.118508  1
  Zr  Zr2  1  0.494728  0.358951  0.126459  1
  Zr  Zr3  1  0.997836  0.352411  0.211372  1
  Zr  Zr4  1  0.321448  0.679677  0.247868  1
  Zr  Zr5  1  0.648609  0.002416  0.284001  1
  Zr  Zr6  1  0.644442  0.502236  0.371469  1
  Zr  Zr7  1  0.142865  0.000792  0.375187  1
  Zr  Zr8  1  0.148087  0.498221  0.463155  1
  Zr  Zr9  1  0.823990  0.823990  0.500000  1
  Zr  Zr10  1  0.498221  0.148087  0.536845  1
  Zr  Zr11  1  0.000792  0.142865  0.624813  1
  Zr  Zr12  1  0.502236  0.644442  0.628531  1
  Zr  Zr13  1  0.002416  0.648609  0.716000  1
  Zr  Zr14  1  0.679677  0.321448  0.752132  1
  Zr  Zr15  1  0.352411  0.997836  0.788628  1
  Zr  Zr16  1  0.358951  0.494728  0.873541  1
  Zr  Zr17  1  0.859996  0.002931  0.881492  1
  Zr  Zr18  1  0.851069  0.494077  0.965840  1
  Si  Si19  1  0.202464  0.555277  0.059841  1
  Si  Si20  1  0.781121  0.142205  0.076554  1
  Si  Si21  1  0.704497  0.650772  0.175116  1
  Si  Si22  1  0.295262  0.059638  0.184852  1
  Si  Si23  1  0.947482  0.701837  0.310058  1
  Si  Si24  1  0.351396  0.294925  0.321946  1
  Si  Si25  1  0.851640  0.206031  0.426835  1
  Si  Si26  1  0.447245  0.800952  0.437334  1
  Si  Si27  1  0.800952  0.447245  0.562666  1
  Si  Si28  1  0.206031  0.851640  0.573165  1
  Si  Si29  1  0.294925  0.351396  0.678054  1
  Si  Si30  1  0.701837  0.947482  0.689942  1
  Si  Si31  1  0.059638  0.295262  0.815148  1
  Si  Si32  1  0.650772  0.704497  0.824884  1
  Si  Si33  1  0.142205  0.781121  0.923446  1
  Si  Si34  1  0.555277  0.202464  0.940159  1
  Pd  Pd35  1  0.182477  0.182477  0.000000  1
