# generated using pymatgen
data_In10Sn(BiIr2)3
_symmetry_space_group_name_H-M   'P 1'
_cell_length_a   8.33614825
_cell_length_b   8.33325111
_cell_length_c   8.30915851
_cell_angle_alpha   109.96337685
_cell_angle_beta   109.19616433
_cell_angle_gamma   109.27152385
_symmetry_Int_Tables_number   1
_chemical_formula_structural   In10Sn(BiIr2)3
_chemical_formula_sum   'In10 Sn1 Bi3 Ir6'
_cell_volume   444.22598915
_cell_formula_units_Z   1
loop_
 _symmetry_equiv_pos_site_id
 _symmetry_equiv_pos_as_xyz
  1  'x, y, z'
loop_
 _atom_site_type_symbol
 _atom_site_label
 _atom_site_symmetry_multiplicity
 _atom_site_fract_x
 _atom_site_fract_y
 _atom_site_fract_z
 _atom_site_occupancy
  In  In0  1  0.000489  0.998375  0.692808  1
  In  In1  1  0.320456  0.998959  0.999122  1
  In  In2  1  0.680562  0.675581  0.675691  1
  In  In3  1  0.002715  0.323967  0.001671  1
  In  In4  1  0.325264  0.325878  0.320091  1
  In  In5  1  0.000781  0.673284  0.990862  1
  In  In6  1  0.248054  0.744590  0.499378  1
  In  In7  1  0.750721  0.254913  0.502771  1
  In  In8  1  0.749454  0.497340  0.250704  1
  In  In9  1  0.246921  0.501595  0.747615  1
  Sn  Sn10  1  0.672285  0.001023  0.995413  1
  Bi  Bi11  1  0.496795  0.748976  0.250626  1
  Bi  Bi12  1  0.505044  0.255492  0.751976  1
  Bi  Bi13  1  0.002871  0.000794  0.332665  1
  Ir  Ir14  1  0.655034  0.999989  0.657104  1
  Ir  Ir15  1  0.656251  0.662973  0.001688  1
  Ir  Ir16  1  0.346538  0.346148  0.995767  1
  Ir  Ir17  1  0.000988  0.651992  0.647496  1
  Ir  Ir18  1  0.993591  0.337698  0.340317  1
  Ir  Ir19  1  0.345185  0.000436  0.346235  1
