# generated using pymatgen
data_Ce8Ta3Nb9Si16
_symmetry_space_group_name_H-M   'P 1'
_cell_length_a   6.96632416
_cell_length_b   7.14677801
_cell_length_c   13.45999000
_cell_angle_alpha   90.00000000
_cell_angle_beta   90.00000000
_cell_angle_gamma   89.98478184
_symmetry_Int_Tables_number   1
_chemical_formula_structural   Ce8Ta3Nb9Si16
_chemical_formula_sum   'Ce8 Ta3 Nb9 Si16'
_cell_volume   670.12943356
_cell_formula_units_Z   1
loop_
 _symmetry_equiv_pos_site_id
 _symmetry_equiv_pos_as_xyz
  1  'x, y, z'
loop_
 _atom_site_type_symbol
 _atom_site_label
 _atom_site_symmetry_multiplicity
 _atom_site_fract_x
 _atom_site_fract_y
 _atom_site_fract_z
 _atom_site_occupancy
  Ce  Ce0  1  0.502901  0.667928  0.594440  1
  Ce  Ce1  1  0.003364  0.831720  0.905689  1
  Ce  Ce2  1  0.497000  0.331627  0.094329  1
  Ce  Ce3  1  0.996445  0.168275  0.405662  1
  Ce  Ce4  1  0.497000  0.331627  0.405671  1
  Ce  Ce5  1  0.996445  0.168275  0.094338  1
  Ce  Ce6  1  0.502901  0.667928  0.905560  1
  Ce  Ce7  1  0.003364  0.831720  0.594311  1
  Ta  Ta8  1  0.836425  0.494311  0.750000  1
  Ta  Ta9  1  0.336534  0.005542  0.750000  1
  Ta  Ta10  1  0.163886  0.505343  0.250000  1
  Nb  Nb11  1  0.663628  0.172883  0.625534  1
  Nb  Nb12  1  0.163661  0.327163  0.874564  1
  Nb  Nb13  1  0.336423  0.827125  0.125361  1
  Nb  Nb14  1  0.836488  0.673108  0.374721  1
  Nb  Nb15  1  0.336423  0.827125  0.374639  1
  Nb  Nb16  1  0.836488  0.673108  0.125279  1
  Nb  Nb17  1  0.663628  0.172883  0.874466  1
  Nb  Nb18  1  0.163661  0.327163  0.625436  1
  Nb  Nb19  1  0.663864  0.995689  0.250000  1
  Si  Si20  1  0.659177  0.959656  0.457230  1
  Si  Si21  1  0.159730  0.539822  0.043610  1
  Si  Si22  1  0.340491  0.040061  0.956301  1
  Si  Si23  1  0.840368  0.459924  0.543598  1
  Si  Si24  1  0.340491  0.040061  0.543699  1
  Si  Si25  1  0.840368  0.459924  0.956402  1
  Si  Si26  1  0.659177  0.959656  0.042770  1
  Si  Si27  1  0.159730  0.539822  0.456390  1
  Si  Si28  1  0.459699  0.373540  0.750000  1
  Si  Si29  1  0.959830  0.126258  0.750000  1
  Si  Si30  1  0.540350  0.626330  0.250000  1
  Si  Si31  1  0.040865  0.872964  0.250000  1
  Si  Si32  1  0.701408  0.876808  0.750000  1
  Si  Si33  1  0.201128  0.622987  0.750000  1
  Si  Si34  1  0.297610  0.123132  0.250000  1
  Si  Si35  1  0.799047  0.378514  0.250000  1
