# generated using pymatgen
data_La8Er2GaSn5
_symmetry_space_group_name_H-M   'P 1'
_cell_length_a   9.41252369
_cell_length_b   9.41181720
_cell_length_c   9.41252448
_cell_angle_alpha   96.29964159
_cell_angle_beta   96.33654996
_cell_angle_gamma   141.25784441
_symmetry_Int_Tables_number   1
_chemical_formula_structural   La8Er2GaSn5
_chemical_formula_sum   'La8 Er2 Ga1 Sn5'
_cell_volume   492.27514213
_cell_formula_units_Z   1
loop_
 _symmetry_equiv_pos_site_id
 _symmetry_equiv_pos_as_xyz
  1  'x, y, z'
loop_
 _atom_site_type_symbol
 _atom_site_label
 _atom_site_symmetry_multiplicity
 _atom_site_fract_x
 _atom_site_fract_y
 _atom_site_fract_z
 _atom_site_occupancy
  La  La0  1  0.905349  0.214808  0.130861  1
  La  La1  1  0.214901  0.083801  0.309461  1
  La  La2  1  0.774369  0.905861  0.690296  1
  La  La3  1  0.083860  0.774537  0.868848  1
  La  La4  1  0.725660  0.416199  0.131100  1
  La  La5  1  0.284435  0.594139  0.868508  1
  La  La6  1  0.594310  0.725463  0.309322  1
  La  La7  1  0.416053  0.285192  0.690541  1
  Er  Er8  1  0.749904  0.250000  0.499904  1
  Er  Er9  1  0.249949  0.750000  0.499949  1
  Ga  Ga10  1  0.750056  0.750000  0.000056  1
  Sn  Sn11  1  0.250216  0.250000  0.000216  1
  Sn  Sn12  1  0.846269  0.652761  0.500038  1
  Sn  Sn13  1  0.653867  0.153384  0.806909  1
  Sn  Sn14  1  0.347277  0.847239  0.193507  1
  Sn  Sn15  1  0.153525  0.346616  0.500483  1
