# generated using pymatgen
data_Tb15Mg(ScSn4)4
_symmetry_space_group_name_H-M   'P 1'
_cell_length_a   7.77667615
_cell_length_b   8.15239969
_cell_length_c   15.32822700
_cell_angle_alpha   90.13460909
_cell_angle_beta   90.03121671
_cell_angle_gamma   90.03090647
_symmetry_Int_Tables_number   1
_chemical_formula_structural   Tb15Mg(ScSn4)4
_chemical_formula_sum   'Tb15 Mg1 Sc4 Sn16'
_cell_volume   971.78473907
_cell_formula_units_Z   1
loop_
 _symmetry_equiv_pos_site_id
 _symmetry_equiv_pos_as_xyz
  1  'x, y, z'
loop_
 _atom_site_type_symbol
 _atom_site_label
 _atom_site_symmetry_multiplicity
 _atom_site_fract_x
 _atom_site_fract_y
 _atom_site_fract_z
 _atom_site_occupancy
  Tb  Tb0  1  0.836520  0.662924  0.628620  1
  Tb  Tb1  1  0.654698  0.163943  0.372957  1
  Tb  Tb2  1  0.165002  0.332739  0.124264  1
  Tb  Tb3  1  0.654144  0.162438  0.125839  1
  Tb  Tb4  1  0.164501  0.332860  0.372297  1
  Tb  Tb5  1  0.340646  0.833781  0.629000  1
  Tb  Tb6  1  0.838266  0.660245  0.874702  1
  Tb  Tb7  1  0.505743  0.320249  0.905848  1
  Tb  Tb8  1  0.007424  0.178354  0.596316  1
  Tb  Tb9  1  0.494479  0.684721  0.407730  1
  Tb  Tb10  1  0.994574  0.820552  0.092549  1
  Tb  Tb11  1  0.492690  0.685499  0.090752  1
  Tb  Tb12  1  0.996055  0.821740  0.407068  1
  Tb  Tb13  1  0.505231  0.319713  0.596010  1
  Tb  Tb14  1  0.006390  0.180208  0.904645  1
  Mg  Mg15  1  0.329726  0.993967  0.249309  1
  Sc  Sc16  1  0.338980  0.836040  0.869301  1
  Sc  Sc17  1  0.169398  0.497653  0.751367  1
  Sc  Sc18  1  0.668524  0.998989  0.751489  1
  Sc  Sc19  1  0.835350  0.501168  0.249705  1
  Sn  Sn20  1  0.312058  0.035046  0.032406  1
  Sn  Sn21  1  0.817688  0.464325  0.456727  1
  Sn  Sn22  1  0.685517  0.963265  0.542955  1
  Sn  Sn23  1  0.190901  0.544965  0.955704  1
  Sn  Sn24  1  0.674943  0.961518  0.955167  1
  Sn  Sn25  1  0.182458  0.535155  0.543162  1
  Sn  Sn26  1  0.312852  0.039832  0.462791  1
  Sn  Sn27  1  0.816380  0.463537  0.044312  1
  Sn  Sn28  1  0.524372  0.610994  0.753861  1
  Sn  Sn29  1  0.031029  0.887564  0.753725  1
  Sn  Sn30  1  0.475953  0.407632  0.249208  1
  Sn  Sn31  1  0.967322  0.109743  0.248839  1
  Sn  Sn32  1  0.312674  0.152700  0.751775  1
  Sn  Sn33  1  0.811321  0.342361  0.750630  1
  Sn  Sn34  1  0.699342  0.842110  0.249652  1
  Sn  Sn35  1  0.186848  0.651470  0.249316  1
