# generated using pymatgen
data_Li2Co6Ni3Mo3P7
_symmetry_space_group_name_H-M   'P 1'
_cell_length_a   9.01302700
_cell_length_b   9.01302745
_cell_length_c   3.64818600
_cell_angle_alpha   90.00000000
_cell_angle_beta   90.00000000
_cell_angle_gamma   120.00000936
_symmetry_Int_Tables_number   1
_chemical_formula_structural   Li2Co6Ni3Mo3P7
_chemical_formula_sum   'Li2 Co6 Ni3 Mo3 P7'
_cell_volume   256.65452697
_cell_formula_units_Z   1
loop_
 _symmetry_equiv_pos_site_id
 _symmetry_equiv_pos_as_xyz
  1  'x, y, z'
loop_
 _atom_site_type_symbol
 _atom_site_label
 _atom_site_symmetry_multiplicity
 _atom_site_fract_x
 _atom_site_fract_y
 _atom_site_fract_z
 _atom_site_occupancy
  Li  Li0  1  0.333333  0.666667  0.000000  1
  Li  Li1  1  0.666667  0.333333  0.500000  1
  Co  Co2  1  0.715477  0.879742  0.000000  1
  Co  Co3  1  0.164264  0.284523  0.000000  1
  Co  Co4  1  0.120258  0.835736  0.000000  1
  Co  Co5  1  0.559655  0.952946  0.500000  1
  Co  Co6  1  0.393291  0.440345  0.500000  1
  Co  Co7  1  0.047054  0.606709  0.500000  1
  Ni  Ni8  1  0.628921  0.566355  0.000000  1
  Ni  Ni9  1  0.937435  0.371079  0.000000  1
  Ni  Ni10  1  0.433645  0.062565  0.000000  1
  Mo  Mo11  1  0.872433  0.778284  0.500000  1
  Mo  Mo12  1  0.905850  0.127567  0.500000  1
  Mo  Mo13  1  0.221716  0.094150  0.500000  1
  P  P14  1  0.579278  0.715064  0.500000  1
  P  P15  1  0.135787  0.420722  0.500000  1
  P  P16  1  0.284936  0.864213  0.500000  1
  P  P17  1  0.000000  0.000000  0.000000  1
  P  P18  1  0.885181  0.583017  0.000000  1
  P  P19  1  0.697836  0.114819  0.000000  1
  P  P20  1  0.416983  0.302164  0.000000  1
