# generated using pymatgen
data_Tb3Sm5Hf11Si16Mo
_symmetry_space_group_name_H-M   'P 1'
_cell_length_a   7.30002676
_cell_length_b   7.30294402
_cell_length_c   13.39497827
_cell_angle_alpha   89.96642081
_cell_angle_beta   90.05776955
_cell_angle_gamma   90.03966126
_symmetry_Int_Tables_number   1
_chemical_formula_structural   Tb3Sm5Hf11Si16Mo
_chemical_formula_sum   'Tb3 Sm5 Hf11 Si16 Mo1'
_cell_volume   714.10822957
_cell_formula_units_Z   1
loop_
 _symmetry_equiv_pos_site_id
 _symmetry_equiv_pos_as_xyz
  1  'x, y, z'
loop_
 _atom_site_type_symbol
 _atom_site_label
 _atom_site_symmetry_multiplicity
 _atom_site_fract_x
 _atom_site_fract_y
 _atom_site_fract_z
 _atom_site_occupancy
  Tb  Tb0  1  0.495668  0.156266  0.534629  1
  Tb  Tb1  1  0.343195  0.999335  0.787594  1
  Tb  Tb2  1  0.656087  0.004023  0.283676  1
  Sm  Sm3  1  0.997884  0.342316  0.212759  1
  Sm  Sm4  1  0.005075  0.657261  0.716694  1
  Sm  Sm5  1  0.157609  0.494385  0.465671  1
  Sm  Sm6  1  0.502051  0.845177  0.034166  1
  Sm  Sm7  1  0.844910  0.502068  0.965806  1
  Hf  Hf8  1  0.824716  0.826076  0.499914  1
  Hf  Hf9  1  0.324545  0.675326  0.249167  1
  Hf  Hf10  1  0.674284  0.323496  0.750772  1
  Hf  Hf11  1  0.148804  0.996757  0.373726  1
  Hf  Hf12  1  0.853262  0.005704  0.877305  1
  Hf  Hf13  1  0.504533  0.649130  0.624554  1
  Hf  Hf14  1  0.348649  0.491742  0.877439  1
  Hf  Hf15  1  0.492288  0.348225  0.122520  1
  Hf  Hf16  1  0.648798  0.504765  0.375539  1
  Hf  Hf17  1  0.996211  0.148646  0.626395  1
  Hf  Hf18  1  0.005918  0.853352  0.122583  1
  Si  Si19  1  0.365195  0.294153  0.315556  1
  Si  Si20  1  0.633837  0.705717  0.816661  1
  Si  Si21  1  0.205965  0.865229  0.566498  1
  Si  Si22  1  0.137079  0.797790  0.933146  1
  Si  Si23  1  0.796046  0.135718  0.066436  1
  Si  Si24  1  0.861715  0.203377  0.433330  1
  Si  Si25  1  0.296958  0.361577  0.684412  1
  Si  Si26  1  0.704396  0.636346  0.183777  1
  Si  Si27  1  0.293558  0.051451  0.183322  1
  Si  Si28  1  0.703876  0.952592  0.685932  1
  Si  Si29  1  0.451544  0.796205  0.434993  1
  Si  Si30  1  0.206179  0.547962  0.064155  1
  Si  Si31  1  0.546807  0.205130  0.935316  1
  Si  Si32  1  0.793000  0.449323  0.564824  1
  Si  Si33  1  0.052835  0.291239  0.817100  1
  Si  Si34  1  0.950523  0.706850  0.313876  1
  Mo  Mo35  1  0.175999  0.175290  0.999759  1
