# generated using pymatgen
data_NdNi4SnRh
_symmetry_space_group_name_H-M   'P 1'
_cell_length_a   4.92305800
_cell_length_b   4.92305738
_cell_length_c   20.19027300
_cell_angle_alpha   90.00000000
_cell_angle_beta   90.00000000
_cell_angle_gamma   120.00001760
_symmetry_Int_Tables_number   1
_chemical_formula_structural   NdNi4SnRh
_chemical_formula_sum   'Nd4 Ni16 Sn4 Rh4'
_cell_volume   423.78208758
_cell_formula_units_Z   4
loop_
 _symmetry_equiv_pos_site_id
 _symmetry_equiv_pos_as_xyz
  1  'x, y, z'
loop_
 _atom_site_type_symbol
 _atom_site_label
 _atom_site_symmetry_multiplicity
 _atom_site_fract_x
 _atom_site_fract_y
 _atom_site_fract_z
 _atom_site_occupancy
  Nd  Nd0  1  0.333333  0.666667  0.250000  1
  Nd  Nd1  1  0.666667  0.333333  0.750000  1
  Nd  Nd2  1  0.000000  0.000000  0.500000  1
  Nd  Nd3  1  0.000000  0.000000  0.000000  1
  Ni  Ni4  1  0.000000  0.000000  0.250000  1
  Ni  Ni5  1  0.000000  0.000000  0.750000  1
  Ni  Ni6  1  0.333333  0.666667  0.750000  1
  Ni  Ni7  1  0.666667  0.333333  0.250000  1
  Ni  Ni8  1  0.834570  0.165430  0.350921  1
  Ni  Ni9  1  0.834570  0.669140  0.350921  1
  Ni  Ni10  1  0.330860  0.165430  0.350921  1
  Ni  Ni11  1  0.165430  0.834570  0.649079  1
  Ni  Ni12  1  0.165430  0.330860  0.649079  1
  Ni  Ni13  1  0.669140  0.834570  0.649079  1
  Ni  Ni14  1  0.165430  0.834570  0.850921  1
  Ni  Ni15  1  0.165430  0.330860  0.850921  1
  Ni  Ni16  1  0.669140  0.834570  0.850921  1
  Ni  Ni17  1  0.834570  0.165430  0.149079  1
  Ni  Ni18  1  0.834570  0.669140  0.149079  1
  Ni  Ni19  1  0.330860  0.165430  0.149079  1
  Sn  Sn20  1  0.333333  0.666667  0.410065  1
  Sn  Sn21  1  0.666667  0.333333  0.589935  1
  Sn  Sn22  1  0.666667  0.333333  0.910065  1
  Sn  Sn23  1  0.333333  0.666667  0.089935  1
  Rh  Rh24  1  0.333333  0.666667  0.956814  1
  Rh  Rh25  1  0.666667  0.333333  0.043186  1
  Rh  Rh26  1  0.666667  0.333333  0.456814  1
  Rh  Rh27  1  0.333333  0.666667  0.543186  1
