# generated using pymatgen
data_LiHoEr(ScSi2)2
_symmetry_space_group_name_H-M   'P 1'
_cell_length_a   6.85727408
_cell_length_b   7.38703504
_cell_length_c   14.03274108
_cell_angle_alpha   89.99962670
_cell_angle_beta   90.01222009
_cell_angle_gamma   89.98741802
_symmetry_Int_Tables_number   1
_chemical_formula_structural   LiHoEr(ScSi2)2
_chemical_formula_sum   'Li4 Ho4 Er4 Sc8 Si16'
_cell_volume   710.82739877
_cell_formula_units_Z   4
loop_
 _symmetry_equiv_pos_site_id
 _symmetry_equiv_pos_as_xyz
  1  'x, y, z'
loop_
 _atom_site_type_symbol
 _atom_site_label
 _atom_site_symmetry_multiplicity
 _atom_site_fract_x
 _atom_site_fract_y
 _atom_site_fract_z
 _atom_site_occupancy
  Li  Li0  1  0.158811  0.508327  0.749985  1
  Li  Li1  1  0.841185  0.491630  0.250014  1
  Li  Li2  1  0.341226  0.008374  0.250019  1
  Li  Li3  1  0.658767  0.991673  0.749984  1
  Ho  Ho4  1  0.012959  0.182669  0.098428  1
  Ho  Ho5  1  0.987042  0.817399  0.901561  1
  Ho  Ho6  1  0.487042  0.682593  0.901605  1
  Ho  Ho7  1  0.987043  0.817367  0.598421  1
  Er  Er8  1  0.512968  0.317308  0.098457  1
  Er  Er9  1  0.012965  0.182728  0.401520  1
  Er  Er10  1  0.512968  0.317275  0.401568  1
  Er  Er11  1  0.487027  0.682648  0.598449  1
  Sc  Sc12  1  0.329742  0.179039  0.626797  1
  Sc  Sc13  1  0.670282  0.821013  0.373194  1
  Sc  Sc14  1  0.170360  0.678966  0.373173  1
  Sc  Sc15  1  0.670273  0.820996  0.126845  1
  Sc  Sc16  1  0.829668  0.321028  0.626791  1
  Sc  Sc17  1  0.329760  0.179006  0.873186  1
  Sc  Sc18  1  0.829680  0.321004  0.873167  1
  Sc  Sc19  1  0.170340  0.678945  0.126839  1
  Si  Si20  1  0.029160  0.101224  0.749984  1
  Si  Si21  1  0.970879  0.898896  0.250060  1
  Si  Si22  1  0.470938  0.601011  0.250018  1
  Si  Si23  1  0.529102  0.398874  0.749937  1
  Si  Si24  1  0.282059  0.878604  0.749936  1
  Si  Si25  1  0.717964  0.121587  0.250081  1
  Si  Si26  1  0.218200  0.378445  0.250065  1
  Si  Si27  1  0.781821  0.621366  0.749919  1
  Si  Si28  1  0.159707  0.463360  0.535232  1
  Si  Si29  1  0.840283  0.536378  0.464685  1
  Si  Si30  1  0.340419  0.963534  0.464716  1
  Si  Si31  1  0.840335  0.536490  0.035293  1
  Si  Si32  1  0.659474  0.036586  0.535212  1
  Si  Si33  1  0.159564  0.463394  0.964779  1
  Si  Si34  1  0.659443  0.036701  0.964805  1
  Si  Si35  1  0.340543  0.963562  0.035276  1
