# generated using pymatgen
data_TbLuV2F14
_symmetry_space_group_name_H-M   'P 1'
_cell_length_a   5.49679542
_cell_length_b   8.76416593
_cell_length_c   11.73156480
_cell_angle_alpha   63.97424681
_cell_angle_beta   90.03298686
_cell_angle_gamma   89.98821612
_symmetry_Int_Tables_number   1
_chemical_formula_structural   TbLuV2F14
_chemical_formula_sum   'Tb2 Lu2 V4 F28'
_cell_volume   507.85637136
_cell_formula_units_Z   2
loop_
 _symmetry_equiv_pos_site_id
 _symmetry_equiv_pos_as_xyz
  1  'x, y, z'
loop_
 _atom_site_type_symbol
 _atom_site_label
 _atom_site_symmetry_multiplicity
 _atom_site_fract_x
 _atom_site_fract_y
 _atom_site_fract_z
 _atom_site_occupancy
  Tb  Tb0  1  0.756994  0.190032  0.227855  1
  Tb  Tb1  1  0.243006  0.809968  0.772145  1
  Lu  Lu2  1  0.258379  0.802812  0.274109  1
  Lu  Lu3  1  0.741621  0.197188  0.725891  1
  V  V4  1  0.753592  0.728041  0.049228  1
  V  V5  1  0.246408  0.271959  0.950772  1
  V  V6  1  0.252431  0.274617  0.455568  1
  V  V7  1  0.747569  0.725383  0.544432  1
  F  F8  1  0.959187  0.704599  0.424494  1
  F  F9  1  0.040813  0.295401  0.575506  1
  F  F10  1  0.456290  0.293542  0.071032  1
  F  F11  1  0.543710  0.706458  0.928968  1
  F  F12  1  0.480389  0.731749  0.148424  1
  F  F13  1  0.519611  0.268251  0.851576  1
  F  F14  1  0.981196  0.265174  0.359307  1
  F  F15  1  0.018804  0.734826  0.640693  1
  F  F16  1  0.966062  0.750445  0.171532  1
  F  F17  1  0.033938  0.249555  0.828468  1
  F  F18  1  0.458653  0.251909  0.332733  1
  F  F19  1  0.541347  0.748091  0.667267  1
  F  F20  1  0.766357  0.494344  0.140882  1
  F  F21  1  0.233643  0.505656  0.859118  1
  F  F22  1  0.263067  0.507580  0.362282  1
  F  F23  1  0.736933  0.492420  0.637718  1
  F  F24  1  0.967992  0.284965  0.043995  1
  F  F25  1  0.032008  0.715035  0.956005  1
  F  F26  1  0.465973  0.712906  0.451735  1
  F  F27  1  0.534027  0.287094  0.548265  1
  F  F28  1  0.743545  0.955659  0.453300  1
  F  F29  1  0.256455  0.044341  0.546700  1
  F  F30  1  0.245812  0.043340  0.039451  1
  F  F31  1  0.754188  0.956660  0.960549  1
  F  F32  1  0.562194  0.970728  0.233152  1
  F  F33  1  0.437806  0.029272  0.766848  1
  F  F34  1  0.075064  0.018419  0.265174  1
  F  F35  1  0.924936  0.981581  0.734826  1
