# generated using pymatgen
data_TlOsCl6
_symmetry_space_group_name_H-M   'P 1'
_cell_length_a   10.52210815
_cell_length_b   10.51754779
_cell_length_c   10.51742782
_cell_angle_alpha   89.71895545
_cell_angle_beta   89.64752334
_cell_angle_gamma   89.69345171
_symmetry_Int_Tables_number   1
_chemical_formula_structural   TlOsCl6
_chemical_formula_sum   'Tl4 Os4 Cl24'
_cell_volume   1163.87732292
_cell_formula_units_Z   4
loop_
 _symmetry_equiv_pos_site_id
 _symmetry_equiv_pos_as_xyz
  1  'x, y, z'
loop_
 _atom_site_type_symbol
 _atom_site_label
 _atom_site_symmetry_multiplicity
 _atom_site_fract_x
 _atom_site_fract_y
 _atom_site_fract_z
 _atom_site_occupancy
  Tl  Tl0  1  0.337248  0.337356  0.337314  1
  Tl  Tl1  1  0.163877  0.678148  0.164350  1
  Tl  Tl2  1  0.164501  0.163771  0.678204  1
  Tl  Tl3  1  0.678266  0.164399  0.163888  1
  Os  Os4  1  0.506113  0.988071  0.505022  1
  Os  Os5  1  0.998784  0.998805  0.998840  1
  Os  Os6  1  0.505028  0.506119  0.988081  1
  Os  Os7  1  0.988075  0.505007  0.506088  1
  Cl  Cl8  1  0.921869  0.299882  0.556656  1
  Cl  Cl9  1  0.428708  0.792592  0.556055  1
  Cl  Cl10  1  0.066445  0.203269  0.947803  1
  Cl  Cl11  1  0.556123  0.428615  0.792564  1
  Cl  Cl12  1  0.947636  0.066605  0.203353  1
  Cl  Cl13  1  0.450443  0.063730  0.705466  1
  Cl  Cl14  1  0.556733  0.921718  0.299806  1
  Cl  Cl15  1  0.049065  0.428820  0.301142  1
  Cl  Cl16  1  0.195346  0.452464  0.579845  1
  Cl  Cl17  1  0.203078  0.947816  0.066636  1
  Cl  Cl18  1  0.579747  0.195515  0.452459  1
  Cl  Cl19  1  0.924947  0.798464  0.054342  1
  Cl  Cl20  1  0.792800  0.556074  0.428611  1
  Cl  Cl21  1  0.703930  0.934083  0.572621  1
  Cl  Cl22  1  0.428989  0.301233  0.049050  1
  Cl  Cl23  1  0.301297  0.049012  0.428826  1
  Cl  Cl24  1  0.452407  0.579931  0.195500  1
  Cl  Cl25  1  0.798613  0.054311  0.924809  1
  Cl  Cl26  1  0.063665  0.705386  0.450486  1
  Cl  Cl27  1  0.572558  0.704117  0.934113  1
  Cl  Cl28  1  0.934062  0.572623  0.704151  1
  Cl  Cl29  1  0.705204  0.450553  0.063702  1
  Cl  Cl30  1  0.300066  0.556680  0.921704  1
  Cl  Cl31  1  0.054342  0.924793  0.798474  1
