# generated using pymatgen
data_Tb9Dy11Cd6NiRu
_symmetry_space_group_name_H-M   'P 1'
_cell_length_a   9.62087200
_cell_length_b   9.62087152
_cell_length_c   9.82531500
_cell_angle_alpha   90.00000000
_cell_angle_beta   90.00000000
_cell_angle_gamma   120.00000166
_symmetry_Int_Tables_number   1
_chemical_formula_structural   Tb9Dy11Cd6NiRu
_chemical_formula_sum   'Tb9 Dy11 Cd6 Ni1 Ru1'
_cell_volume   787.60045555
_cell_formula_units_Z   1
loop_
 _symmetry_equiv_pos_site_id
 _symmetry_equiv_pos_as_xyz
  1  'x, y, z'
loop_
 _atom_site_type_symbol
 _atom_site_label
 _atom_site_symmetry_multiplicity
 _atom_site_fract_x
 _atom_site_fract_y
 _atom_site_fract_z
 _atom_site_occupancy
  Tb  Tb0  1  0.211022  0.788978  0.062846  1
  Tb  Tb1  1  0.211022  0.422047  0.062846  1
  Tb  Tb2  1  0.577953  0.788978  0.062846  1
  Tb  Tb3  1  0.542652  0.457348  0.250290  1
  Tb  Tb4  1  0.542652  0.085303  0.250290  1
  Tb  Tb5  1  0.914697  0.457348  0.250290  1
  Tb  Tb6  1  0.458287  0.541713  0.749638  1
  Tb  Tb7  1  0.458287  0.916576  0.749638  1
  Tb  Tb8  1  0.083424  0.541713  0.749638  1
  Dy  Dy9  1  0.000000  0.000000  0.500103  1
  Dy  Dy10  1  0.000000  0.000000  0.999730  1
  Dy  Dy11  1  0.211385  0.788615  0.437194  1
  Dy  Dy12  1  0.211385  0.422773  0.437194  1
  Dy  Dy13  1  0.577227  0.788615  0.437194  1
  Dy  Dy14  1  0.790601  0.209399  0.560344  1
  Dy  Dy15  1  0.790601  0.581201  0.560344  1
  Dy  Dy16  1  0.418799  0.209399  0.560344  1
  Dy  Dy17  1  0.790490  0.209510  0.939639  1
  Dy  Dy18  1  0.790490  0.580980  0.939639  1
  Dy  Dy19  1  0.419020  0.209510  0.939639  1
  Cd  Cd20  1  0.885415  0.114585  0.249985  1
  Cd  Cd21  1  0.885415  0.770830  0.249985  1
  Cd  Cd22  1  0.229170  0.114585  0.249985  1
  Cd  Cd23  1  0.114541  0.885459  0.750011  1
  Cd  Cd24  1  0.114541  0.229081  0.750011  1
  Cd  Cd25  1  0.770919  0.885459  0.750011  1
  Ni  Ni26  1  0.333333  0.666667  0.250580  1
  Ru  Ru27  1  0.666667  0.333333  0.749753  1
