# generated using pymatgen
data_HoLu9In8PtRh3
_symmetry_space_group_name_H-M   'P 1'
_cell_length_a   3.55412100
_cell_length_b   7.97100630
_cell_length_c   18.04754211
_cell_angle_alpha   90.10525500
_cell_angle_beta   90.00000000
_cell_angle_gamma   90.00000000
_symmetry_Int_Tables_number   1
_chemical_formula_structural   HoLu9In8PtRh3
_chemical_formula_sum   'Ho1 Lu9 In8 Pt1 Rh3'
_cell_volume   511.28457751
_cell_formula_units_Z   1
loop_
 _symmetry_equiv_pos_site_id
 _symmetry_equiv_pos_as_xyz
  1  'x, y, z'
loop_
 _atom_site_type_symbol
 _atom_site_label
 _atom_site_symmetry_multiplicity
 _atom_site_fract_x
 _atom_site_fract_y
 _atom_site_fract_z
 _atom_site_occupancy
  Ho  Ho0  1  0.000000  0.500379  0.500024  1
  Lu  Lu1  1  0.000000  0.115789  0.412591  1
  Lu  Lu2  1  0.000000  0.883513  0.588105  1
  Lu  Lu3  1  0.000000  0.383677  0.911928  1
  Lu  Lu4  1  0.000000  0.617518  0.085950  1
  Lu  Lu5  1  0.000000  0.240011  0.221153  1
  Lu  Lu6  1  0.000000  0.755730  0.779030  1
  Lu  Lu7  1  0.000000  0.255668  0.721099  1
  Lu  Lu8  1  0.000000  0.747936  0.279645  1
  Lu  Lu9  1  0.000000  0.000186  0.000003  1
  In  In10  1  0.500000  0.423308  0.351545  1
  In  In11  1  0.500000  0.573500  0.650087  1
  In  In12  1  0.500000  0.074217  0.850641  1
  In  In13  1  0.500000  0.927204  0.148869  1
  In  In14  1  0.500000  0.291909  0.065478  1
  In  In15  1  0.500000  0.707143  0.932998  1
  In  In16  1  0.500000  0.205344  0.566926  1
  In  In17  1  0.500000  0.794612  0.433067  1
  Pt  Pt18  1  0.500000  0.524854  0.196382  1
  Rh  Rh19  1  0.500000  0.024150  0.304412  1
  Rh  Rh20  1  0.500000  0.977030  0.695778  1
  Rh  Rh21  1  0.500000  0.476325  0.804287  1
