# generated using pymatgen
data_Ba3Ge11Pt23
_symmetry_space_group_name_H-M   'P 1'
_cell_length_a   12.35928544
_cell_length_b   12.35928522
_cell_length_c   12.35928500
_cell_angle_alpha   59.99999791
_cell_angle_beta   59.99999850
_cell_angle_gamma   59.99999996
_symmetry_Int_Tables_number   1
_chemical_formula_structural   Ba3Ge11Pt23
_chemical_formula_sum   'Ba6 Ge22 Pt46'
_cell_volume   1334.95016806
_cell_formula_units_Z   2
loop_
 _symmetry_equiv_pos_site_id
 _symmetry_equiv_pos_as_xyz
  1  'x, y, z'
loop_
 _atom_site_type_symbol
 _atom_site_label
 _atom_site_symmetry_multiplicity
 _atom_site_fract_x
 _atom_site_fract_y
 _atom_site_fract_z
 _atom_site_occupancy
  Ba  Ba0  1  0.000000  0.000000  0.500000  1
  Ba  Ba1  1  0.500000  0.000000  0.500000  1
  Ba  Ba2  1  0.000000  0.500000  0.500000  1
  Ba  Ba3  1  0.500000  0.500000  0.000000  1
  Ba  Ba4  1  0.000000  0.500000  0.000000  1
  Ba  Ba5  1  0.500000  0.000000  0.000000  1
  Ge  Ge6  1  0.828641  0.828632  0.171363  1
  Ge  Ge7  1  0.171358  0.828637  0.171367  1
  Ge  Ge8  1  0.828641  0.171364  0.171364  1
  Ge  Ge9  1  0.171359  0.171368  0.828637  1
  Ge  Ge10  1  0.828642  0.171363  0.828633  1
  Ge  Ge11  1  0.171359  0.828636  0.828636  1
  Ge  Ge12  1  0.835581  0.835567  0.493286  1
  Ge  Ge13  1  0.835581  0.493285  0.835567  1
  Ge  Ge14  1  0.493289  0.835571  0.835571  1
  Ge  Ge15  1  0.835581  0.835567  0.835567  1
  Ge  Ge16  1  0.164419  0.164433  0.506714  1
  Ge  Ge17  1  0.164419  0.506715  0.164433  1
  Ge  Ge18  1  0.506711  0.164429  0.164429  1
  Ge  Ge19  1  0.164419  0.164433  0.164433  1
  Ge  Ge20  1  0.605876  0.605890  0.182345  1
  Ge  Ge21  1  0.605875  0.182347  0.605889  1
  Ge  Ge22  1  0.182373  0.605876  0.605876  1
  Ge  Ge23  1  0.605875  0.605889  0.605889  1
  Ge  Ge24  1  0.394124  0.394110  0.817655  1
  Ge  Ge25  1  0.394125  0.817653  0.394111  1
  Ge  Ge26  1  0.817627  0.394124  0.394124  1
  Ge  Ge27  1  0.394125  0.394111  0.394111  1
  Pt  Pt28  1  0.917604  0.917571  0.247254  1
  Pt  Pt29  1  0.917604  0.247254  0.917571  1
  Pt  Pt30  1  0.247217  0.917594  0.917594  1
  Pt  Pt31  1  0.917605  0.917571  0.917571  1
  Pt  Pt32  1  0.082396  0.082429  0.752746  1
  Pt  Pt33  1  0.082396  0.752746  0.082429  1
  Pt  Pt34  1  0.752783  0.082406  0.082406  1
  Pt  Pt35  1  0.082395  0.082429  0.082429  1
  Pt  Pt36  1  0.692313  0.692254  0.923179  1
  Pt  Pt37  1  0.692313  0.923178  0.692254  1
  Pt  Pt38  1  0.923210  0.692263  0.692263  1
  Pt  Pt39  1  0.692313  0.692254  0.692254  1
  Pt  Pt40  1  0.307687  0.307746  0.076821  1
  Pt  Pt41  1  0.307687  0.076822  0.307746  1
  Pt  Pt42  1  0.076790  0.307737  0.307737  1
  Pt  Pt43  1  0.307687  0.307746  0.307746  1
  Pt  Pt44  1  0.625736  0.625704  0.374280  1
  Pt  Pt45  1  0.374264  0.625720  0.374296  1
  Pt  Pt46  1  0.625736  0.374280  0.374280  1
  Pt  Pt47  1  0.374264  0.374296  0.625720  1
  Pt  Pt48  1  0.625736  0.374280  0.625704  1
  Pt  Pt49  1  0.374264  0.625720  0.625720  1
  Pt  Pt50  1  0.746423  0.085650  0.421556  1
  Pt  Pt51  1  0.746423  0.746372  0.421555  1
  Pt  Pt52  1  0.085651  0.746390  0.421569  1
  Pt  Pt53  1  0.746423  0.421556  0.085650  1
  Pt  Pt54  1  0.085651  0.421569  0.746390  1
  Pt  Pt55  1  0.746423  0.421555  0.746371  1
  Pt  Pt56  1  0.421571  0.746398  0.746398  1
  Pt  Pt57  1  0.421571  0.085633  0.746398  1
  Pt  Pt58  1  0.421571  0.746398  0.085633  1
  Pt  Pt59  1  0.085651  0.746390  0.746390  1
  Pt  Pt60  1  0.746423  0.746371  0.085651  1
  Pt  Pt61  1  0.746423  0.085650  0.746371  1
  Pt  Pt62  1  0.253577  0.914350  0.578444  1
  Pt  Pt63  1  0.253577  0.253628  0.578445  1
  Pt  Pt64  1  0.914349  0.253610  0.578431  1
  Pt  Pt65  1  0.253577  0.578444  0.914350  1
  Pt  Pt66  1  0.914349  0.578431  0.253610  1
  Pt  Pt67  1  0.253577  0.578445  0.253629  1
  Pt  Pt68  1  0.578429  0.253602  0.253602  1
  Pt  Pt69  1  0.578429  0.914367  0.253602  1
  Pt  Pt70  1  0.578429  0.253602  0.914367  1
  Pt  Pt71  1  0.914349  0.253610  0.253610  1
  Pt  Pt72  1  0.253577  0.253629  0.914349  1
  Pt  Pt73  1  0.253577  0.914350  0.253629  1
