# generated using pymatgen
data_Nd2YEr3(Co3P2)6
_symmetry_space_group_name_H-M   'P 1'
_cell_length_a   3.71727800
_cell_length_b   10.56566700
_cell_length_c   12.21594400
_cell_angle_alpha   90.00287695
_cell_angle_beta   90.00000000
_cell_angle_gamma   90.00000000
_symmetry_Int_Tables_number   1
_chemical_formula_structural   Nd2YEr3(Co3P2)6
_chemical_formula_sum   'Nd2 Y1 Er3 Co18 P12'
_cell_volume   479.78757084
_cell_formula_units_Z   1
loop_
 _symmetry_equiv_pos_site_id
 _symmetry_equiv_pos_as_xyz
  1  'x, y, z'
loop_
 _atom_site_type_symbol
 _atom_site_label
 _atom_site_symmetry_multiplicity
 _atom_site_fract_x
 _atom_site_fract_y
 _atom_site_fract_z
 _atom_site_occupancy
  Nd  Nd0  1  0.750000  0.250042  0.477493  1
  Nd  Nd1  1  0.250000  0.749839  0.522182  1
  Y  Y2  1  0.250000  0.932515  0.795064  1
  Er  Er3  1  0.250000  0.567299  0.795121  1
  Er  Er4  1  0.750000  0.067802  0.204836  1
  Er  Er5  1  0.750000  0.432237  0.205031  1
  Co  Co6  1  0.250000  0.250172  0.843585  1
  Co  Co7  1  0.750000  0.749873  0.156555  1
  Co  Co8  1  0.250000  0.250103  0.293207  1
  Co  Co9  1  0.750000  0.748901  0.706487  1
  Co  Co10  1  0.750000  0.250369  0.013939  1
  Co  Co11  1  0.250000  0.749618  0.986903  1
  Co  Co12  1  0.250000  0.416709  0.005336  1
  Co  Co13  1  0.250000  0.083681  0.005709  1
  Co  Co14  1  0.750000  0.582925  0.995014  1
  Co  Co15  1  0.750000  0.916766  0.995268  1
  Co  Co16  1  0.250000  0.453180  0.571325  1
  Co  Co17  1  0.250000  0.047004  0.570708  1
  Co  Co18  1  0.750000  0.546647  0.428601  1
  Co  Co19  1  0.750000  0.953267  0.428288  1
  Co  Co20  1  0.250000  0.870710  0.286887  1
  Co  Co21  1  0.250000  0.629285  0.287016  1
  Co  Co22  1  0.750000  0.130071  0.712582  1
  Co  Co23  1  0.750000  0.370783  0.713034  1
  P  P24  1  0.250000  0.250159  0.116581  1
  P  P25  1  0.750000  0.749221  0.883922  1
  P  P26  1  0.250000  0.250031  0.660410  1
  P  P27  1  0.750000  0.750038  0.339439  1
  P  P28  1  0.250000  0.442549  0.381978  1
  P  P29  1  0.250000  0.057568  0.381710  1
  P  P30  1  0.750000  0.557300  0.617980  1
  P  P31  1  0.750000  0.942614  0.616944  1
  P  P32  1  0.250000  0.903795  0.106035  1
  P  P33  1  0.250000  0.596119  0.106240  1
  P  P34  1  0.750000  0.097287  0.894513  1
  P  P35  1  0.750000  0.403520  0.894075  1
