# generated using pymatgen
data_Fe11Co(W6N)2
_symmetry_space_group_name_H-M   'P 1'
_cell_length_a   7.70993426
_cell_length_b   7.71544594
_cell_length_c   7.70993300
_cell_angle_alpha   60.02362948
_cell_angle_beta   60.00000109
_cell_angle_gamma   60.02362416
_symmetry_Int_Tables_number   1
_chemical_formula_structural   Fe11Co(W6N)2
_chemical_formula_sum   'Fe11 Co1 W12 N2'
_cell_volume   324.41604091
_cell_formula_units_Z   1
loop_
 _symmetry_equiv_pos_site_id
 _symmetry_equiv_pos_as_xyz
  1  'x, y, z'
loop_
 _atom_site_type_symbol
 _atom_site_label
 _atom_site_symmetry_multiplicity
 _atom_site_fract_x
 _atom_site_fract_y
 _atom_site_fract_z
 _atom_site_occupancy
  Fe  Fe0  1  0.328090  0.015730  0.328090  1
  Fe  Fe1  1  0.328457  0.328269  0.328457  1
  Fe  Fe2  1  0.014815  0.328269  0.328457  1
  Fe  Fe3  1  0.921092  0.922032  0.235786  1
  Fe  Fe4  1  0.235786  0.922032  0.921092  1
  Fe  Fe5  1  0.328457  0.328269  0.014815  1
  Fe  Fe6  1  0.126380  0.122295  0.624945  1
  Fe  Fe7  1  0.921092  0.922032  0.921092  1
  Fe  Fe8  1  0.124948  0.625157  0.124948  1
  Fe  Fe9  1  0.126380  0.122295  0.126380  1
  Fe  Fe10  1  0.624945  0.122295  0.126380  1
  Co  Co11  1  0.918444  0.244669  0.918444  1
  W  W12  1  0.301242  0.698942  0.698573  1
  W  W13  1  0.300025  0.300602  0.699686  1
  W  W14  1  0.551009  0.949147  0.551009  1
  W  W15  1  0.949672  0.550770  0.549886  1
  W  W16  1  0.551009  0.949147  0.948835  1
  W  W17  1  0.699686  0.300602  0.300025  1
  W  W18  1  0.949672  0.550770  0.949672  1
  W  W19  1  0.301242  0.698942  0.301242  1
  W  W20  1  0.549886  0.550770  0.949672  1
  W  W21  1  0.699686  0.300602  0.699686  1
  W  W22  1  0.698573  0.698942  0.301242  1
  W  W23  1  0.948835  0.949147  0.551009  1
  N  N24  1  0.750231  0.749309  0.750231  1
  N  N25  1  0.500346  0.498963  0.500346  1
