# generated using pymatgen
data_HoTm3Co8(PRu)12
_symmetry_space_group_name_H-M   'P 1'
_cell_length_a   3.77922400
_cell_length_b   10.58883347
_cell_length_c   12.08788793
_cell_angle_alpha   90.09264381
_cell_angle_beta   90.00000000
_cell_angle_gamma   90.00000000
_symmetry_Int_Tables_number   1
_chemical_formula_structural   HoTm3Co8(PRu)12
_chemical_formula_sum   'Ho1 Tm3 Co8 P12 Ru12'
_cell_volume   483.72731272
_cell_formula_units_Z   1
loop_
 _symmetry_equiv_pos_site_id
 _symmetry_equiv_pos_as_xyz
  1  'x, y, z'
loop_
 _atom_site_type_symbol
 _atom_site_label
 _atom_site_symmetry_multiplicity
 _atom_site_fract_x
 _atom_site_fract_y
 _atom_site_fract_z
 _atom_site_occupancy
  Ho  Ho0  1  0.250000  0.584566  0.706586  1
  Tm  Tm1  1  0.250000  0.915599  0.206586  1
  Tm  Tm2  1  0.750000  0.415355  0.293507  1
  Tm  Tm3  1  0.750000  0.084466  0.793412  1
  Co  Co4  1  0.250000  0.888612  0.696025  1
  Co  Co5  1  0.250000  0.611659  0.196441  1
  Co  Co6  1  0.750000  0.111629  0.303790  1
  Co  Co7  1  0.750000  0.387834  0.804209  1
  Co  Co8  1  0.250000  0.462780  0.935421  1
  Co  Co9  1  0.250000  0.037044  0.434653  1
  Co  Co10  1  0.750000  0.537081  0.065621  1
  Co  Co11  1  0.750000  0.963150  0.565025  1
  P  P12  1  0.250000  0.425711  0.113792  1
  P  P13  1  0.250000  0.074206  0.613281  1
  P  P14  1  0.750000  0.574427  0.887251  1
  P  P15  1  0.750000  0.925933  0.386451  1
  P  P16  1  0.250000  0.270822  0.871589  1
  P  P17  1  0.250000  0.228852  0.371563  1
  P  P18  1  0.750000  0.729306  0.128385  1
  P  P19  1  0.750000  0.771468  0.627985  1
  P  P20  1  0.250000  0.600219  0.386198  1
  P  P21  1  0.250000  0.899726  0.886188  1
  P  P22  1  0.750000  0.399142  0.613431  1
  P  P23  1  0.750000  0.100278  0.113793  1
  Ru  Ru24  1  0.250000  0.706239  0.986363  1
  Ru  Ru25  1  0.250000  0.793803  0.486184  1
  Ru  Ru26  1  0.750000  0.293652  0.013899  1
  Ru  Ru27  1  0.750000  0.206045  0.513542  1
  Ru  Ru28  1  0.250000  0.405323  0.485075  1
  Ru  Ru29  1  0.250000  0.094432  0.985111  1
  Ru  Ru30  1  0.750000  0.594326  0.513819  1
  Ru  Ru31  1  0.750000  0.905672  0.014920  1
  Ru  Ru32  1  0.250000  0.224144  0.181104  1
  Ru  Ru33  1  0.250000  0.275597  0.681001  1
  Ru  Ru34  1  0.750000  0.776385  0.819061  1
  Ru  Ru35  1  0.750000  0.724518  0.318739  1
