# generated using pymatgen
data_La7PrSbPd24
_symmetry_space_group_name_H-M   'P 1'
_cell_length_a   8.59740380
_cell_length_b   8.59740359
_cell_length_c   8.59740400
_cell_angle_alpha   90.06655650
_cell_angle_beta   90.06655650
_cell_angle_gamma   89.93344620
_symmetry_Int_Tables_number   1
_chemical_formula_structural   La7PrSbPd24
_chemical_formula_sum   'La7 Pr1 Sb1 Pd24'
_cell_volume   635.47884290
_cell_formula_units_Z   1
loop_
 _symmetry_equiv_pos_site_id
 _symmetry_equiv_pos_as_xyz
  1  'x, y, z'
loop_
 _atom_site_type_symbol
 _atom_site_label
 _atom_site_symmetry_multiplicity
 _atom_site_fract_x
 _atom_site_fract_y
 _atom_site_fract_z
 _atom_site_occupancy
  La  La0  1  0.748205  0.251696  0.748304  1
  La  La1  1  0.251696  0.748205  0.748304  1
  La  La2  1  0.748191  0.748191  0.748006  1
  La  La3  1  0.748191  0.251994  0.251809  1
  La  La4  1  0.251817  0.251817  0.748183  1
  La  La5  1  0.251994  0.748191  0.251809  1
  La  La6  1  0.251696  0.251696  0.251795  1
  Pr  Pr7  1  0.748521  0.748521  0.251479  1
  Sb  Sb8  1  0.999980  0.999980  0.000020  1
  Pd  Pd9  1  0.999491  0.999491  0.313888  1
  Pd  Pd10  1  0.732600  0.999708  0.499947  1
  Pd  Pd11  1  0.732600  0.500053  0.000292  1
  Pd  Pd12  1  0.500093  0.000125  0.732681  1
  Pd  Pd13  1  0.999708  0.732600  0.499947  1
  Pd  Pd14  1  0.500053  0.999708  0.267400  1
  Pd  Pd15  1  0.000125  0.267319  0.499907  1
  Pd  Pd16  1  0.500053  0.732600  0.000292  1
  Pd  Pd17  1  0.255520  0.499993  0.500007  1
  Pd  Pd18  1  0.499993  0.499993  0.744480  1
  Pd  Pd19  1  0.500208  0.500208  0.255512  1
  Pd  Pd20  1  0.499993  0.255520  0.500007  1
  Pd  Pd21  1  0.500208  0.744488  0.499792  1
  Pd  Pd22  1  0.744488  0.500208  0.499792  1
  Pd  Pd23  1  0.314141  0.000131  0.999869  1
  Pd  Pd24  1  0.000131  0.000131  0.685859  1
  Pd  Pd25  1  0.999708  0.500053  0.267400  1
  Pd  Pd26  1  0.000131  0.314141  0.999869  1
  Pd  Pd27  1  0.999491  0.686112  0.000509  1
  Pd  Pd28  1  0.686112  0.999491  0.000509  1
  Pd  Pd29  1  0.267319  0.500093  0.999875  1
  Pd  Pd30  1  0.267319  0.000125  0.499907  1
  Pd  Pd31  1  0.000125  0.500093  0.732681  1
  Pd  Pd32  1  0.500093  0.267319  0.999875  1
