# generated using pymatgen
data_Tm3Lu(TcB6)2
_symmetry_space_group_name_H-M   'P 1'
_cell_length_a   3.63640800
_cell_length_b   9.08263500
_cell_length_c   11.44208600
_cell_angle_alpha   90.00108332
_cell_angle_beta   90.00000000
_cell_angle_gamma   90.00000000
_symmetry_Int_Tables_number   1
_chemical_formula_structural   Tm3Lu(TcB6)2
_chemical_formula_sum   'Tm6 Lu2 Tc4 B24'
_cell_volume   377.91112234
_cell_formula_units_Z   2
loop_
 _symmetry_equiv_pos_site_id
 _symmetry_equiv_pos_as_xyz
  1  'x, y, z'
loop_
 _atom_site_type_symbol
 _atom_site_label
 _atom_site_symmetry_multiplicity
 _atom_site_fract_x
 _atom_site_fract_y
 _atom_site_fract_z
 _atom_site_occupancy
  Tm  Tm0  1  0.000000  0.823722  0.085851  1
  Tm  Tm1  1  0.000000  0.176278  0.914149  1
  Tm  Tm2  1  0.000000  0.323459  0.414289  1
  Tm  Tm3  1  0.000000  0.676541  0.585711  1
  Tm  Tm4  1  0.000000  0.442943  0.130574  1
  Tm  Tm5  1  0.000000  0.557057  0.869426  1
  Lu  Lu6  1  0.000000  0.943044  0.369639  1
  Lu  Lu7  1  0.000000  0.056956  0.630361  1
  Tc  Tc8  1  0.000000  0.138634  0.180167  1
  Tc  Tc9  1  0.000000  0.861366  0.819833  1
  Tc  Tc10  1  0.000000  0.639738  0.320567  1
  Tc  Tc11  1  0.000000  0.360262  0.679433  1
  B  B12  1  0.500000  0.053147  0.066758  1
  B  B13  1  0.500000  0.946853  0.933242  1
  B  B14  1  0.500000  0.553455  0.433422  1
  B  B15  1  0.500000  0.446545  0.566578  1
  B  B16  1  0.500000  0.249686  0.080970  1
  B  B17  1  0.500000  0.750314  0.919030  1
  B  B18  1  0.500000  0.750681  0.419234  1
  B  B19  1  0.500000  0.249319  0.580766  1
  B  B20  1  0.500000  0.292498  0.235516  1
  B  B21  1  0.500000  0.707502  0.764484  1
  B  B22  1  0.500000  0.793334  0.264877  1
  B  B23  1  0.500000  0.206666  0.735123  1
  B  B24  1  0.500000  0.130100  0.315774  1
  B  B25  1  0.500000  0.869900  0.684226  1
  B  B26  1  0.500000  0.630901  0.184810  1
  B  B27  1  0.500000  0.369099  0.815190  1
  B  B28  1  0.500000  0.481581  0.288403  1
  B  B29  1  0.500000  0.518419  0.711597  1
  B  B30  1  0.500000  0.981083  0.212132  1
  B  B31  1  0.500000  0.018917  0.787868  1
  B  B32  1  0.500000  0.098719  0.472542  1
  B  B33  1  0.500000  0.901281  0.527458  1
  B  B34  1  0.500000  0.599927  0.027752  1
  B  B35  1  0.500000  0.400073  0.972248  1
