# generated using pymatgen
data_Hf2Sc2Fe8Si7Ge
_symmetry_space_group_name_H-M   'P 1'
_cell_length_a   5.02128000
_cell_length_b   7.07500108
_cell_length_c   7.47003401
_cell_angle_alpha   90.00189250
_cell_angle_beta   90.00000000
_cell_angle_gamma   90.00000000
_symmetry_Int_Tables_number   1
_chemical_formula_structural   Hf2Sc2Fe8Si7Ge
_chemical_formula_sum   'Hf2 Sc2 Fe8 Si7 Ge1'
_cell_volume   265.37715177
_cell_formula_units_Z   1
loop_
 _symmetry_equiv_pos_site_id
 _symmetry_equiv_pos_as_xyz
  1  'x, y, z'
loop_
 _atom_site_type_symbol
 _atom_site_label
 _atom_site_symmetry_multiplicity
 _atom_site_fract_x
 _atom_site_fract_y
 _atom_site_fract_z
 _atom_site_occupancy
  Hf  Hf0  1  0.250000  0.091541  0.752793  1
  Hf  Hf1  1  0.250000  0.589903  0.243814  1
  Sc  Sc2  1  0.750000  0.909770  0.246983  1
  Sc  Sc3  1  0.750000  0.405282  0.752378  1
  Fe  Fe4  1  0.750000  0.515989  0.105001  1
  Fe  Fe5  1  0.250000  0.486131  0.889240  1
  Fe  Fe6  1  0.750000  0.016060  0.888229  1
  Fe  Fe7  1  0.250000  0.985877  0.110834  1
  Fe  Fe8  1  0.006840  0.753923  0.617739  1
  Fe  Fe9  1  0.495695  0.245977  0.387871  1
  Fe  Fe10  1  0.004305  0.245977  0.387871  1
  Fe  Fe11  1  0.493160  0.753923  0.617739  1
  Si  Si12  1  0.250000  0.447851  0.586180  1
  Si  Si13  1  0.750000  0.048617  0.584247  1
  Si  Si14  1  0.250000  0.947683  0.413937  1
  Si  Si15  1  0.999786  0.751204  0.946471  1
  Si  Si16  1  0.500021  0.250469  0.053108  1
  Si  Si17  1  0.999979  0.250469  0.053108  1
  Si  Si18  1  0.500214  0.751204  0.946471  1
  Ge  Ge19  1  0.750000  0.552151  0.415988  1
