# generated using pymatgen
data_Ce8Ta9Ti2Si16Tc
_symmetry_space_group_name_H-M   'P 1'
_cell_length_a   7.06965427
_cell_length_b   7.06647147
_cell_length_c   13.16734857
_cell_angle_alpha   90.08968351
_cell_angle_beta   90.02680070
_cell_angle_gamma   89.99053346
_symmetry_Int_Tables_number   1
_chemical_formula_structural   Ce8Ta9Ti2Si16Tc
_chemical_formula_sum   'Ce8 Ta9 Ti2 Si16 Tc1'
_cell_volume   657.80706402
_cell_formula_units_Z   1
loop_
 _symmetry_equiv_pos_site_id
 _symmetry_equiv_pos_as_xyz
  1  'x, y, z'
loop_
 _atom_site_type_symbol
 _atom_site_label
 _atom_site_symmetry_multiplicity
 _atom_site_fract_x
 _atom_site_fract_y
 _atom_site_fract_z
 _atom_site_occupancy
  Ce  Ce0  1  0.996037  0.665808  0.034076  1
  Ce  Ce1  1  0.005308  0.336375  0.530799  1
  Ce  Ce2  1  0.666062  0.994875  0.968133  1
  Ce  Ce3  1  0.167057  0.506790  0.782811  1
  Ce  Ce4  1  0.833080  0.495517  0.281391  1
  Ce  Ce5  1  0.504318  0.166472  0.219398  1
  Ce  Ce6  1  0.494150  0.832832  0.716161  1
  Ce  Ce7  1  0.336215  0.002811  0.466991  1
  Ta  Ta8  1  0.841490  0.994841  0.376171  1
  Ta  Ta9  1  0.006848  0.159873  0.124243  1
  Ta  Ta10  1  0.998604  0.842008  0.623456  1
  Ta  Ta11  1  0.505574  0.341995  0.626846  1
  Ta  Ta12  1  0.157244  0.005093  0.876235  1
  Ta  Ta13  1  0.670660  0.669250  0.499591  1
  Ta  Ta14  1  0.831112  0.168549  0.749103  1
  Ta  Ta15  1  0.168990  0.831993  0.250388  1
  Ta  Ta16  1  0.330046  0.329632  0.000725  1
  Ti  Ti17  1  0.494726  0.657878  0.126328  1
  Ti  Ti18  1  0.658140  0.492223  0.873010  1
  Si  Si19  1  0.042947  0.706384  0.433988  1
  Si  Si20  1  0.957381  0.294443  0.935124  1
  Si  Si21  1  0.708802  0.041404  0.564591  1
  Si  Si22  1  0.210259  0.462093  0.187565  1
  Si  Si23  1  0.794396  0.540799  0.685356  1
  Si  Si24  1  0.459317  0.206573  0.815486  1
  Si  Si25  1  0.536001  0.784099  0.314095  1
  Si  Si26  1  0.295693  0.958053  0.065441  1
  Si  Si27  1  0.796670  0.872511  0.186693  1
  Si  Si28  1  0.299940  0.627417  0.560565  1
  Si  Si29  1  0.700697  0.372801  0.063691  1
  Si  Si30  1  0.621784  0.302612  0.435935  1
  Si  Si31  1  0.374224  0.700380  0.937588  1
  Si  Si32  1  0.127869  0.206132  0.314733  1
  Si  Si33  1  0.203576  0.129596  0.685619  1
  Si  Si34  1  0.869659  0.797867  0.813564  1
  Tc  Tc35  1  0.335121  0.502020  0.374107  1
