# generated using pymatgen
data_Tb3Y17FeCo3Bi8
_symmetry_space_group_name_H-M   'P 1'
_cell_length_a   8.04460057
_cell_length_b   8.90669097
_cell_length_c   12.44306326
_cell_angle_alpha   89.94994989
_cell_angle_beta   90.02531685
_cell_angle_gamma   89.98050363
_symmetry_Int_Tables_number   1
_chemical_formula_structural   Tb3Y17FeCo3Bi8
_chemical_formula_sum   'Tb3 Y17 Fe1 Co3 Bi8'
_cell_volume   891.55460066
_cell_formula_units_Z   1
loop_
 _symmetry_equiv_pos_site_id
 _symmetry_equiv_pos_as_xyz
  1  'x, y, z'
loop_
 _atom_site_type_symbol
 _atom_site_label
 _atom_site_symmetry_multiplicity
 _atom_site_fract_x
 _atom_site_fract_y
 _atom_site_fract_z
 _atom_site_occupancy
  Tb  Tb0  1  0.674410  0.469959  0.561728  1
  Tb  Tb1  1  0.823428  0.466435  0.062824  1
  Tb  Tb2  1  0.176936  0.533112  0.936991  1
  Y  Y3  1  0.847224  0.749808  0.799855  1
  Y  Y4  1  0.151668  0.250184  0.198689  1
  Y  Y5  1  0.348895  0.250072  0.699067  1
  Y  Y6  1  0.650464  0.749979  0.301688  1
  Y  Y7  1  0.380929  0.749986  0.690291  1
  Y  Y8  1  0.620242  0.249898  0.309494  1
  Y  Y9  1  0.879494  0.249898  0.809822  1
  Y  Y10  1  0.119787  0.750315  0.189801  1
  Y  Y11  1  0.952217  0.749602  0.503530  1
  Y  Y12  1  0.046558  0.250406  0.497137  1
  Y  Y13  1  0.455575  0.250771  0.997496  1
  Y  Y14  1  0.545072  0.749268  0.003023  1
  Y  Y15  1  0.675142  0.031143  0.562649  1
  Y  Y16  1  0.323052  0.963705  0.436697  1
  Y  Y17  1  0.176826  0.966388  0.936260  1
  Y  Y18  1  0.322508  0.535426  0.436708  1
  Y  Y19  1  0.823564  0.034220  0.063497  1
  Fe  Fe20  1  0.565229  0.748704  0.510039  1
  Co  Co21  1  0.439177  0.250299  0.491610  1
  Co  Co22  1  0.059116  0.250939  0.991567  1
  Co  Co23  1  0.940697  0.749086  0.007662  1
  Bi  Bi24  1  0.571736  0.492360  0.826365  1
  Bi  Bi25  1  0.428007  0.507557  0.174240  1
  Bi  Bi26  1  0.071886  0.507337  0.674176  1
  Bi  Bi27  1  0.428763  0.992649  0.173681  1
  Bi  Bi28  1  0.929499  0.492543  0.326178  1
  Bi  Bi29  1  0.571075  0.007630  0.826843  1
  Bi  Bi30  1  0.929786  0.007705  0.326332  1
  Bi  Bi31  1  0.071039  0.992617  0.674062  1
