# generated using pymatgen
data_Y4Zr3AlPt4
_symmetry_space_group_name_H-M   'P 1'
_cell_length_a   4.59375000
_cell_length_b   7.12765077
_cell_length_c   8.20584682
_cell_angle_alpha   87.12757077
_cell_angle_beta   90.00000000
_cell_angle_gamma   90.00000000
_symmetry_Int_Tables_number   1
_chemical_formula_structural   Y4Zr3AlPt4
_chemical_formula_sum   'Y4 Zr3 Al1 Pt4'
_cell_volume   268.34356075
_cell_formula_units_Z   1
loop_
 _symmetry_equiv_pos_site_id
 _symmetry_equiv_pos_as_xyz
  1  'x, y, z'
loop_
 _atom_site_type_symbol
 _atom_site_label
 _atom_site_symmetry_multiplicity
 _atom_site_fract_x
 _atom_site_fract_y
 _atom_site_fract_z
 _atom_site_occupancy
  Y  Y0  1  0.250000  0.036653  0.671744  1
  Y  Y1  1  0.250000  0.516268  0.813998  1
  Y  Y2  1  0.750000  0.988518  0.336951  1
  Y  Y3  1  0.750000  0.474771  0.187594  1
  Zr  Zr4  1  0.250000  0.142220  0.072011  1
  Zr  Zr5  1  0.250000  0.639172  0.434379  1
  Zr  Zr6  1  0.750000  0.855350  0.921963  1
  Al  Al7  1  0.750000  0.356822  0.572495  1
  Pt  Pt8  1  0.250000  0.267011  0.385736  1
  Pt  Pt9  1  0.250000  0.767920  0.101599  1
  Pt  Pt10  1  0.750000  0.723570  0.610137  1
  Pt  Pt11  1  0.750000  0.231723  0.891395  1
