# generated using pymatgen
data_Ho5Er3(Si3Pt)4
_symmetry_space_group_name_H-M   'P 1'
_cell_length_a   8.12208000
_cell_length_b   8.12208034
_cell_length_c   8.09050200
_cell_angle_alpha   90.00000000
_cell_angle_beta   90.00000000
_cell_angle_gamma   119.99999863
_symmetry_Int_Tables_number   1
_chemical_formula_structural   Ho5Er3(Si3Pt)4
_chemical_formula_sum   'Ho5 Er3 Si12 Pt4'
_cell_volume   462.21139810
_cell_formula_units_Z   1
loop_
 _symmetry_equiv_pos_site_id
 _symmetry_equiv_pos_as_xyz
  1  'x, y, z'
loop_
 _atom_site_type_symbol
 _atom_site_label
 _atom_site_symmetry_multiplicity
 _atom_site_fract_x
 _atom_site_fract_y
 _atom_site_fract_z
 _atom_site_occupancy
  Ho  Ho0  1  0.000000  0.000000  0.250000  1
  Ho  Ho1  1  0.000000  0.000000  0.750000  1
  Ho  Ho2  1  0.499494  0.500506  0.250000  1
  Ho  Ho3  1  0.499494  0.998988  0.250000  1
  Ho  Ho4  1  0.001012  0.500506  0.250000  1
  Er  Er5  1  0.500458  0.499542  0.750000  1
  Er  Er6  1  0.999084  0.499542  0.750000  1
  Er  Er7  1  0.500458  0.000916  0.750000  1
  Si  Si8  1  0.834641  0.165359  0.500092  1
  Si  Si9  1  0.834641  0.669285  0.500092  1
  Si  Si10  1  0.330715  0.165359  0.500092  1
  Si  Si11  1  0.834641  0.165359  0.999908  1
  Si  Si12  1  0.834641  0.669285  0.999908  1
  Si  Si13  1  0.330715  0.165359  0.999908  1
  Si  Si14  1  0.165345  0.834655  0.999436  1
  Si  Si15  1  0.669311  0.834655  0.999436  1
  Si  Si16  1  0.165345  0.330689  0.999436  1
  Si  Si17  1  0.165345  0.834655  0.500564  1
  Si  Si18  1  0.669311  0.834655  0.500564  1
  Si  Si19  1  0.165345  0.330689  0.500564  1
  Pt  Pt20  1  0.666667  0.333333  0.500867  1
  Pt  Pt21  1  0.666667  0.333333  0.999133  1
  Pt  Pt22  1  0.333333  0.666667  0.996729  1
  Pt  Pt23  1  0.333333  0.666667  0.503271  1
