# generated using pymatgen
data_Zr6GaBiPb
_symmetry_space_group_name_H-M   'P 1'
_cell_length_a   3.91368400
_cell_length_b   7.82065310
_cell_length_c   7.82065400
_cell_angle_alpha   120.00000380
_cell_angle_beta   90.00000000
_cell_angle_gamma   90.00000000
_symmetry_Int_Tables_number   1
_chemical_formula_structural   Zr6GaBiPb
_chemical_formula_sum   'Zr6 Ga1 Bi1 Pb1'
_cell_volume   207.30151049
_cell_formula_units_Z   1
loop_
 _symmetry_equiv_pos_site_id
 _symmetry_equiv_pos_as_xyz
  1  'x, y, z'
loop_
 _atom_site_type_symbol
 _atom_site_label
 _atom_site_symmetry_multiplicity
 _atom_site_fract_x
 _atom_site_fract_y
 _atom_site_fract_z
 _atom_site_occupancy
  Zr  Zr0  1  0.500000  0.758876  0.756418  1
  Zr  Zr1  1  0.500000  0.997543  0.241124  1
  Zr  Zr2  1  0.500000  0.243582  0.002457  1
  Zr  Zr3  1  0.000000  0.391454  0.391720  1
  Zr  Zr4  1  0.000000  0.000266  0.608546  1
  Zr  Zr5  1  0.000000  0.608280  0.999734  1
  Ga  Ga6  1  0.000000  0.000000  0.000000  1
  Bi  Bi7  1  0.500000  0.333333  0.666667  1
  Pb  Pb8  1  0.500000  0.666667  0.333333  1
