# generated using pymatgen
data_NdDy7(CdIr)2
_symmetry_space_group_name_H-M   'P 1'
_cell_length_a   9.68115568
_cell_length_b   9.68115561
_cell_length_c   9.66991100
_cell_angle_alpha   60.03841110
_cell_angle_beta   60.03841133
_cell_angle_gamma   59.92317034
_symmetry_Int_Tables_number   1
_chemical_formula_structural   NdDy7(CdIr)2
_chemical_formula_sum   'Nd2 Dy14 Cd4 Ir4'
_cell_volume   640.85634728
_cell_formula_units_Z   2
loop_
 _symmetry_equiv_pos_site_id
 _symmetry_equiv_pos_as_xyz
  1  'x, y, z'
loop_
 _atom_site_type_symbol
 _atom_site_label
 _atom_site_symmetry_multiplicity
 _atom_site_fract_x
 _atom_site_fract_y
 _atom_site_fract_z
 _atom_site_occupancy
  Nd  Nd0  1  0.563698  0.563698  0.936302  1
  Nd  Nd1  1  0.936302  0.936302  0.563698  1
  Dy  Dy2  1  0.348754  0.348754  0.347843  1
  Dy  Dy3  1  0.348754  0.348754  0.954648  1
  Dy  Dy4  1  0.347843  0.954648  0.348754  1
  Dy  Dy5  1  0.954648  0.347843  0.348754  1
  Dy  Dy6  1  0.811073  0.188927  0.188927  1
  Dy  Dy7  1  0.188927  0.811073  0.811073  1
  Dy  Dy8  1  0.188927  0.811073  0.188927  1
  Dy  Dy9  1  0.811073  0.188927  0.811073  1
  Dy  Dy10  1  0.189986  0.189986  0.810014  1
  Dy  Dy11  1  0.810014  0.810014  0.189986  1
  Dy  Dy12  1  0.940762  0.559238  0.559238  1
  Dy  Dy13  1  0.559238  0.940762  0.940762  1
  Dy  Dy14  1  0.559238  0.940762  0.559238  1
  Dy  Dy15  1  0.940762  0.559238  0.940762  1
  Cd  Cd16  1  0.581747  0.581747  0.578700  1
  Cd  Cd17  1  0.581747  0.581747  0.257806  1
  Cd  Cd18  1  0.578700  0.257806  0.581747  1
  Cd  Cd19  1  0.257806  0.578700  0.581747  1
  Ir  Ir20  1  0.142987  0.142987  0.138678  1
  Ir  Ir21  1  0.142987  0.142987  0.575348  1
  Ir  Ir22  1  0.138678  0.575348  0.142987  1
  Ir  Ir23  1  0.575348  0.138678  0.142987  1
