# generated using pymatgen
data_TmSc2Mn(Co4P3)2
_symmetry_space_group_name_H-M   'P 1'
_cell_length_a   3.61082700
_cell_length_b   10.38713300
_cell_length_c   11.99545400
_cell_angle_alpha   90.00000000
_cell_angle_beta   90.00000000
_cell_angle_gamma   90.00000000
_symmetry_Int_Tables_number   1
_chemical_formula_structural   TmSc2Mn(Co4P3)2
_chemical_formula_sum   'Tm2 Sc4 Mn2 Co16 P12'
_cell_volume   449.90318055
_cell_formula_units_Z   2
loop_
 _symmetry_equiv_pos_site_id
 _symmetry_equiv_pos_as_xyz
  1  'x, y, z'
loop_
 _atom_site_type_symbol
 _atom_site_label
 _atom_site_symmetry_multiplicity
 _atom_site_fract_x
 _atom_site_fract_y
 _atom_site_fract_z
 _atom_site_occupancy
  Tm  Tm0  1  0.000000  0.500000  0.524578  1
  Tm  Tm1  1  0.500000  0.000000  0.475422  1
  Sc  Sc2  1  0.500000  0.818816  0.204484  1
  Sc  Sc3  1  0.500000  0.181184  0.204484  1
  Sc  Sc4  1  0.000000  0.681184  0.795516  1
  Sc  Sc5  1  0.000000  0.318816  0.795516  1
  Mn  Mn6  1  0.500000  0.500000  0.159051  1
  Mn  Mn7  1  0.000000  0.000000  0.840949  1
  Co  Co8  1  0.500000  0.500000  0.704644  1
  Co  Co9  1  0.000000  0.000000  0.295356  1
  Co  Co10  1  0.000000  0.500000  0.986285  1
  Co  Co11  1  0.500000  0.000000  0.013715  1
  Co  Co12  1  0.500000  0.332557  0.992724  1
  Co  Co13  1  0.500000  0.667443  0.992724  1
  Co  Co14  1  0.000000  0.167443  0.007276  1
  Co  Co15  1  0.000000  0.832557  0.007276  1
  Co  Co16  1  0.500000  0.296707  0.430421  1
  Co  Co17  1  0.500000  0.703293  0.430421  1
  Co  Co18  1  0.000000  0.203293  0.569579  1
  Co  Co19  1  0.000000  0.796707  0.569579  1
  Co  Co20  1  0.500000  0.877385  0.709580  1
  Co  Co21  1  0.500000  0.122615  0.709580  1
  Co  Co22  1  0.000000  0.622615  0.290420  1
  Co  Co23  1  0.000000  0.377385  0.290420  1
  P  P24  1  0.500000  0.500000  0.880601  1
  P  P25  1  0.000000  0.000000  0.119399  1
  P  P26  1  0.500000  0.500000  0.346502  1
  P  P27  1  0.000000  0.000000  0.653498  1
  P  P28  1  0.500000  0.313375  0.619535  1
  P  P29  1  0.500000  0.686625  0.619535  1
  P  P30  1  0.000000  0.186625  0.380465  1
  P  P31  1  0.000000  0.813375  0.380465  1
  P  P32  1  0.500000  0.845035  0.890423  1
  P  P33  1  0.500000  0.154965  0.890423  1
  P  P34  1  0.000000  0.654965  0.109577  1
  P  P35  1  0.000000  0.345035  0.109577  1
