# generated using pymatgen
data_Tb2Dy4Al24Ru3Rh5
_symmetry_space_group_name_H-M   'P 1'
_cell_length_a   8.83189907
_cell_length_b   8.79469863
_cell_length_c   9.55181943
_cell_angle_alpha   89.99999876
_cell_angle_beta   90.12903592
_cell_angle_gamma   119.86076496
_symmetry_Int_Tables_number   1
_chemical_formula_structural   Tb2Dy4Al24Ru3Rh5
_chemical_formula_sum   'Tb2 Dy4 Al24 Ru3 Rh5'
_cell_volume   643.42502479
_cell_formula_units_Z   1
loop_
 _symmetry_equiv_pos_site_id
 _symmetry_equiv_pos_as_xyz
  1  'x, y, z'
loop_
 _atom_site_type_symbol
 _atom_site_label
 _atom_site_symmetry_multiplicity
 _atom_site_fract_x
 _atom_site_fract_y
 _atom_site_fract_z
 _atom_site_occupancy
  Tb  Tb0  1  0.190097  0.805927  0.249521  1
  Tb  Tb1  1  0.190097  0.384170  0.249521  1
  Dy  Dy2  1  0.616303  0.808151  0.249599  1
  Dy  Dy3  1  0.809765  0.194402  0.750501  1
  Dy  Dy4  1  0.809765  0.615363  0.750501  1
  Dy  Dy5  1  0.383847  0.191923  0.750399  1
  Al  Al6  1  0.561242  0.437316  0.250479  1
  Al  Al7  1  0.561242  0.123925  0.250479  1
  Al  Al8  1  0.874186  0.437093  0.249211  1
  Al  Al9  1  0.438968  0.562719  0.749523  1
  Al  Al10  1  0.438968  0.876249  0.749523  1
  Al  Al11  1  0.125415  0.562708  0.750782  1
  Al  Al12  1  0.325591  0.162795  0.422770  1
  Al  Al13  1  0.835361  0.162146  0.422757  1
  Al  Al14  1  0.835361  0.673215  0.422757  1
  Al  Al15  1  0.674491  0.837246  0.577388  1
  Al  Al16  1  0.164529  0.837805  0.577465  1
  Al  Al17  1  0.164529  0.326725  0.577465  1
  Al  Al18  1  0.674286  0.837143  0.923033  1
  Al  Al19  1  0.162415  0.835344  0.922890  1
  Al  Al20  1  0.162415  0.327071  0.922890  1
  Al  Al21  1  0.325793  0.162896  0.076806  1
  Al  Al22  1  0.837456  0.164600  0.076881  1
  Al  Al23  1  0.837456  0.672856  0.076881  1
  Al  Al24  1  0.666676  0.333338  0.527965  1
  Al  Al25  1  0.333506  0.666753  0.472352  1
  Al  Al26  1  0.331201  0.665601  0.026836  1
  Al  Al27  1  0.668966  0.334483  0.972850  1
  Al  Al28  1  0.998244  0.999122  0.249967  1
  Al  Al29  1  0.001576  0.000788  0.750033  1
  Ru  Ru30  1  0.999983  0.999992  0.500027  1
  Ru  Ru31  1  0.999978  0.999989  0.999968  1
  Ru  Ru32  1  0.999855  0.499928  0.999818  1
  Rh  Rh33  1  0.500142  0.500030  0.500077  1
  Rh  Rh34  1  0.500142  0.000112  0.500077  1
  Rh  Rh35  1  0.999884  0.499942  0.500154  1
  Rh  Rh36  1  0.500134  0.500027  0.999927  1
  Rh  Rh37  1  0.500134  0.000107  0.999927  1
