# generated using pymatgen
data_Sc4Ga20IrRu5
_symmetry_space_group_name_H-M   'P 1'
_cell_length_a   8.85721400
_cell_length_b   8.85721400
_cell_length_c   6.18926000
_cell_angle_alpha   90.00000000
_cell_angle_beta   90.00000000
_cell_angle_gamma   90.00000000
_symmetry_Int_Tables_number   1
_chemical_formula_structural   Sc4Ga20IrRu5
_chemical_formula_sum   'Sc4 Ga20 Ir1 Ru5'
_cell_volume   485.54893144
_cell_formula_units_Z   1
loop_
 _symmetry_equiv_pos_site_id
 _symmetry_equiv_pos_as_xyz
  1  'x, y, z'
loop_
 _atom_site_type_symbol
 _atom_site_label
 _atom_site_symmetry_multiplicity
 _atom_site_fract_x
 _atom_site_fract_y
 _atom_site_fract_z
 _atom_site_occupancy
  Sc  Sc0  1  0.183360  0.682359  0.000000  1
  Sc  Sc1  1  0.816640  0.317641  0.000000  1
  Sc  Sc2  1  0.682359  0.816640  0.000000  1
  Sc  Sc3  1  0.317641  0.183360  0.000000  1
  Ga  Ga4  1  0.062657  0.209418  0.712299  1
  Ga  Ga5  1  0.937343  0.790582  0.712299  1
  Ga  Ga6  1  0.562128  0.291868  0.713590  1
  Ga  Ga7  1  0.437872  0.708132  0.713590  1
  Ga  Ga8  1  0.790582  0.062657  0.712299  1
  Ga  Ga9  1  0.209418  0.937343  0.712299  1
  Ga  Ga10  1  0.708132  0.562128  0.713590  1
  Ga  Ga11  1  0.291868  0.437872  0.713590  1
  Ga  Ga12  1  0.937343  0.790582  0.287701  1
  Ga  Ga13  1  0.062657  0.209418  0.287701  1
  Ga  Ga14  1  0.437872  0.708132  0.286410  1
  Ga  Ga15  1  0.562128  0.291868  0.286410  1
  Ga  Ga16  1  0.209418  0.937343  0.287701  1
  Ga  Ga17  1  0.790582  0.062657  0.287701  1
  Ga  Ga18  1  0.291868  0.437872  0.286410  1
  Ga  Ga19  1  0.708132  0.562128  0.286410  1
  Ga  Ga20  1  0.000000  0.500000  0.728519  1
  Ga  Ga21  1  0.500000  0.000000  0.728519  1
  Ga  Ga22  1  0.000000  0.500000  0.271481  1
  Ga  Ga23  1  0.500000  0.000000  0.271481  1
  Ir  Ir24  1  0.000000  0.000000  0.000000  1
  Ru  Ru25  1  0.176619  0.677873  0.500000  1
  Ru  Ru26  1  0.823381  0.322127  0.500000  1
  Ru  Ru27  1  0.677873  0.823381  0.500000  1
  Ru  Ru28  1  0.322127  0.176619  0.500000  1
  Ru  Ru29  1  0.500000  0.500000  0.000000  1
