# generated using pymatgen
data_RbReP2Pt
_symmetry_space_group_name_H-M   'P 1'
_cell_length_a   7.54973007
_cell_length_b   7.54973010
_cell_length_c   7.54973025
_cell_angle_alpha   149.02100169
_cell_angle_beta   149.02099791
_cell_angle_gamma   44.38039084
_symmetry_Int_Tables_number   1
_chemical_formula_structural   RbReP2Pt
_chemical_formula_sum   'Rb1 Re1 P2 Pt1'
_cell_volume   113.67327128
_cell_formula_units_Z   1
loop_
 _symmetry_equiv_pos_site_id
 _symmetry_equiv_pos_as_xyz
  1  'x, y, z'
loop_
 _atom_site_type_symbol
 _atom_site_label
 _atom_site_symmetry_multiplicity
 _atom_site_fract_x
 _atom_site_fract_y
 _atom_site_fract_z
 _atom_site_occupancy
  Rb  Rb0  1  0.000000  0.000000  0.000000  1
  Re  Re1  1  0.250000  0.750000  0.500000  1
  P  P2  1  0.342117  0.342117  0.000000  1
  P  P3  1  0.657883  0.657883  0.000000  1
  Pt  Pt4  1  0.750000  0.250000  0.500000  1
