# generated using pymatgen
data_DyHo(ZrRh)2
_symmetry_space_group_name_H-M   'P 1'
_cell_length_a   4.57875200
_cell_length_b   7.06856300
_cell_length_c   8.26546500
_cell_angle_alpha   90.00155630
_cell_angle_beta   90.00000000
_cell_angle_gamma   90.00000000
_symmetry_Int_Tables_number   1
_chemical_formula_structural   DyHo(ZrRh)2
_chemical_formula_sum   'Dy2 Ho2 Zr4 Rh4'
_cell_volume   267.51340280
_cell_formula_units_Z   2
loop_
 _symmetry_equiv_pos_site_id
 _symmetry_equiv_pos_as_xyz
  1  'x, y, z'
loop_
 _atom_site_type_symbol
 _atom_site_label
 _atom_site_symmetry_multiplicity
 _atom_site_fract_x
 _atom_site_fract_y
 _atom_site_fract_z
 _atom_site_occupancy
  Dy  Dy0  1  0.750000  0.983607  0.677011  1
  Dy  Dy1  1  0.250000  0.016393  0.322989  1
  Ho  Ho2  1  0.250000  0.516937  0.176059  1
  Ho  Ho3  1  0.750000  0.483063  0.823941  1
  Zr  Zr4  1  0.250000  0.641325  0.577302  1
  Zr  Zr5  1  0.750000  0.358675  0.422698  1
  Zr  Zr6  1  0.750000  0.856973  0.075711  1
  Zr  Zr7  1  0.250000  0.143027  0.924289  1
  Rh  Rh8  1  0.250000  0.766851  0.910407  1
  Rh  Rh9  1  0.750000  0.233149  0.089593  1
  Rh  Rh10  1  0.750000  0.733004  0.410406  1
  Rh  Rh11  1  0.250000  0.266996  0.589594  1
