# generated using pymatgen
data_Tm3Hg5Ir
_symmetry_space_group_name_H-M   'P 1'
_cell_length_a   8.08646500
_cell_length_b   8.08646551
_cell_length_c   3.69349300
_cell_angle_alpha   90.00000000
_cell_angle_beta   90.00000000
_cell_angle_gamma   119.99999380
_symmetry_Int_Tables_number   1
_chemical_formula_structural   Tm3Hg5Ir
_chemical_formula_sum   'Tm3 Hg5 Ir1'
_cell_volume   209.16325373
_cell_formula_units_Z   1
loop_
 _symmetry_equiv_pos_site_id
 _symmetry_equiv_pos_as_xyz
  1  'x, y, z'
loop_
 _atom_site_type_symbol
 _atom_site_label
 _atom_site_symmetry_multiplicity
 _atom_site_fract_x
 _atom_site_fract_y
 _atom_site_fract_z
 _atom_site_occupancy
  Tm  Tm0  1  0.421563  0.378498  0.500000  1
  Tm  Tm1  1  0.621502  0.043067  0.500000  1
  Tm  Tm2  1  0.956933  0.578437  0.500000  1
  Hg  Hg3  1  0.713795  0.716283  0.000000  1
  Hg  Hg4  1  0.283717  0.997513  0.000000  1
  Hg  Hg5  1  0.002487  0.286205  0.000000  1
  Hg  Hg6  1  0.333333  0.666667  0.000000  1
  Hg  Hg7  1  0.000000  0.000000  0.500000  1
  Ir  Ir8  1  0.666667  0.333333  0.000000  1
