# generated using pymatgen
data_LaCe(Zn9Au2)2
_symmetry_space_group_name_H-M   'P 1'
_cell_length_a   8.40570633
_cell_length_b   8.40570744
_cell_length_c   8.40570700
_cell_angle_alpha   99.91025657
_cell_angle_beta   99.91025097
_cell_angle_gamma   130.97952406
_symmetry_Int_Tables_number   1
_chemical_formula_structural   LaCe(Zn9Au2)2
_chemical_formula_sum   'La1 Ce1 Zn18 Au4'
_cell_volume   407.96694870
_cell_formula_units_Z   1
loop_
 _symmetry_equiv_pos_site_id
 _symmetry_equiv_pos_as_xyz
  1  'x, y, z'
loop_
 _atom_site_type_symbol
 _atom_site_label
 _atom_site_symmetry_multiplicity
 _atom_site_fract_x
 _atom_site_fract_y
 _atom_site_fract_z
 _atom_site_occupancy
  La  La0  1  0.000000  0.000000  0.000000  1
  Ce  Ce1  1  0.250000  0.750000  0.500000  1
  Zn  Zn2  1  0.753942  0.168706  0.826697  1
  Zn  Zn3  1  0.072754  0.246058  0.414764  1
  Zn  Zn4  1  0.342010  0.168706  0.414764  1
  Zn  Zn5  1  0.072754  0.657990  0.826697  1
  Zn  Zn6  1  0.910454  0.580678  0.087104  1
  Zn  Zn7  1  0.342010  0.927246  0.173303  1
  Zn  Zn8  1  0.750000  0.250000  0.500000  1
  Zn  Zn9  1  0.910454  0.823350  0.329777  1
  Zn  Zn10  1  0.500000  0.500000  0.000000  1
  Zn  Zn11  1  0.419322  0.089546  0.912896  1
  Zn  Zn12  1  0.493573  0.580678  0.670223  1
  Zn  Zn13  1  0.176650  0.089546  0.670223  1
  Zn  Zn14  1  0.753942  0.927246  0.585236  1
  Zn  Zn15  1  0.831294  0.657990  0.585236  1
  Zn  Zn16  1  0.419322  0.506427  0.329777  1
  Zn  Zn17  1  0.493573  0.823350  0.912896  1
  Zn  Zn18  1  0.176650  0.506427  0.087104  1
  Zn  Zn19  1  0.831294  0.246058  0.173303  1
  Au  Au20  1  0.625279  0.874148  0.248869  1
  Au  Au21  1  0.623590  0.374721  0.248869  1
  Au  Au22  1  0.125852  0.374721  0.751131  1
  Au  Au23  1  0.625279  0.376410  0.751131  1
