# generated using pymatgen
data_Dy2Tm2Al17Ga7Pt9
_symmetry_space_group_name_H-M   'P 1'
_cell_length_a   7.52340740
_cell_length_b   7.52449281
_cell_length_c   13.22380100
_cell_angle_alpha   84.65259142
_cell_angle_beta   100.80053520
_cell_angle_gamma   119.91075333
_symmetry_Int_Tables_number   1
_chemical_formula_structural   Dy2Tm2Al17Ga7Pt9
_chemical_formula_sum   'Dy2 Tm2 Al17 Ga7 Pt9'
_cell_volume   637.39158583
_cell_formula_units_Z   1
loop_
 _symmetry_equiv_pos_site_id
 _symmetry_equiv_pos_as_xyz
  1  'x, y, z'
loop_
 _atom_site_type_symbol
 _atom_site_label
 _atom_site_symmetry_multiplicity
 _atom_site_fract_x
 _atom_site_fract_y
 _atom_site_fract_z
 _atom_site_occupancy
  Dy  Dy0  1  0.736364  0.002854  0.191362  1
  Dy  Dy1  1  0.261941  0.995639  0.808006  1
  Tm  Tm2  1  0.059022  0.665454  0.190571  1
  Tm  Tm3  1  0.940849  0.335792  0.809031  1
  Al  Al4  1  0.118918  0.335213  0.331872  1
  Al  Al5  1  0.601715  0.456647  0.815360  1
  Al  Al6  1  0.397502  0.542895  0.184620  1
  Al  Al7  1  0.230135  0.339599  0.669194  1
  Al  Al8  1  0.770022  0.660443  0.330985  1
  Al  Al9  1  0.853684  0.332517  0.558381  1
  Al  Al10  1  0.186173  0.999823  0.558320  1
  Al  Al11  1  0.813847  0.000689  0.440914  1
  Al  Al12  1  0.351825  0.000062  0.055536  1
  Al  Al13  1  0.647949  0.000391  0.944490  1
  Al  Al14  1  0.556452  0.994927  0.669459  1
  Al  Al15  1  0.443639  0.004859  0.330755  1
  Al  Al16  1  0.520689  0.668088  0.560285  1
  Al  Al17  1  0.480177  0.331846  0.439473  1
  Al  Al18  1  0.684730  0.666895  0.048764  1
  Al  Al19  1  0.314570  0.332824  0.951323  1
  Al  Al20  1  0.146096  0.666988  0.440516  1
  Ga  Ga21  1  0.802450  0.871975  0.814954  1
  Ga  Ga22  1  0.197508  0.129749  0.185365  1
  Ga  Ga23  1  0.981540  0.665417  0.939843  1
  Ga  Ga24  1  0.018018  0.334565  0.060964  1
  Ga  Ga25  1  0.400589  0.662680  0.816300  1
  Ga  Ga26  1  0.599736  0.337207  0.183664  1
  Ga  Ga27  1  0.883545  0.664349  0.671405  1
  Pt  Pt28  1  0.336787  0.674422  0.003553  1
  Pt  Pt29  1  0.543639  0.322469  0.637397  1
  Pt  Pt30  1  0.453347  0.674094  0.362381  1
  Pt  Pt31  1  0.887656  0.011768  0.636514  1
  Pt  Pt32  1  0.112226  0.991249  0.363213  1
  Pt  Pt33  1  0.662753  0.325604  0.996288  1
  Pt  Pt34  1  0.207262  0.666662  0.635925  1
  Pt  Pt35  1  0.796642  0.333325  0.362784  1
  Pt  Pt36  1  0.000000  0.000016  0.000236  1
