# generated using pymatgen
data_Pr5NdBi2(TePt)6
_symmetry_space_group_name_H-M   'P 1'
_cell_length_a   8.74268963
_cell_length_b   8.71652878
_cell_length_c   8.71576384
_cell_angle_alpha   109.39685568
_cell_angle_beta   109.49842333
_cell_angle_gamma   109.39765301
_symmetry_Int_Tables_number   1
_chemical_formula_structural   Pr5NdBi2(TePt)6
_chemical_formula_sum   'Pr5 Nd1 Bi2 Te6 Pt6'
_cell_volume   512.05576027
_cell_formula_units_Z   1
loop_
 _symmetry_equiv_pos_site_id
 _symmetry_equiv_pos_as_xyz
  1  'x, y, z'
loop_
 _atom_site_type_symbol
 _atom_site_label
 _atom_site_symmetry_multiplicity
 _atom_site_fract_x
 _atom_site_fract_y
 _atom_site_fract_z
 _atom_site_occupancy
  Pr  Pr0  1  0.373341  0.626747  0.747441  1
  Pr  Pr1  1  0.872678  0.249985  0.124505  1
  Pr  Pr2  1  0.627349  0.751848  0.377292  1
  Pr  Pr3  1  0.249989  0.122533  0.872541  1
  Pr  Pr4  1  0.749984  0.375887  0.625892  1
  Nd  Nd5  1  0.126724  0.874107  0.253587  1
  Bi  Bi6  1  0.499695  0.998274  0.672808  1
  Bi  Bi7  1  0.000174  0.673286  0.498334  1
  Te  Te8  1  0.334290  0.334147  0.333638  1
  Te  Te9  1  0.165574  0.499461  0.000008  1
  Te  Te10  1  0.000507  0.164290  0.499332  1
  Te  Te11  1  0.840254  0.837837  0.838652  1
  Te  Te12  1  0.499408  0.998939  0.164023  1
  Te  Te13  1  0.660051  0.498448  0.997748  1
  Pt  Pt14  1  0.624193  0.372838  0.252282  1
  Pt  Pt15  1  0.875801  0.128091  0.748646  1
  Pt  Pt16  1  0.372915  0.248772  0.620675  1
  Pt  Pt17  1  0.126700  0.748164  0.876637  1
  Pt  Pt18  1  0.249807  0.620991  0.370421  1
  Pt  Pt19  1  0.750566  0.875355  0.125539  1
