# generated using pymatgen
data_Tb2Er2ReB12Rh
_symmetry_space_group_name_H-M   'P 1'
_cell_length_a   3.67551400
_cell_length_b   9.13919051
_cell_length_c   11.54057810
_cell_angle_alpha   90.41516285
_cell_angle_beta   90.00000000
_cell_angle_gamma   90.00000000
_symmetry_Int_Tables_number   1
_chemical_formula_structural   Tb2Er2ReB12Rh
_chemical_formula_sum   'Tb4 Er4 Re2 B24 Rh2'
_cell_volume   387.65195149
_cell_formula_units_Z   2
loop_
 _symmetry_equiv_pos_site_id
 _symmetry_equiv_pos_as_xyz
  1  'x, y, z'
loop_
 _atom_site_type_symbol
 _atom_site_label
 _atom_site_symmetry_multiplicity
 _atom_site_fract_x
 _atom_site_fract_y
 _atom_site_fract_z
 _atom_site_occupancy
  Tb  Tb0  1  0.000000  0.318680  0.411061  1
  Tb  Tb1  1  0.000000  0.681320  0.588939  1
  Tb  Tb2  1  0.000000  0.825788  0.083057  1
  Tb  Tb3  1  0.000000  0.174212  0.916943  1
  Er  Er4  1  0.000000  0.945408  0.371804  1
  Er  Er5  1  0.000000  0.054592  0.628196  1
  Er  Er6  1  0.000000  0.442406  0.126711  1
  Er  Er7  1  0.000000  0.557594  0.873289  1
  Re  Re8  1  0.000000  0.139176  0.180115  1
  Re  Re9  1  0.000000  0.860824  0.819885  1
  B  B10  1  0.500000  0.554700  0.433744  1
  B  B11  1  0.500000  0.445300  0.566256  1
  B  B12  1  0.500000  0.053303  0.067843  1
  B  B13  1  0.500000  0.946697  0.932157  1
  B  B14  1  0.500000  0.749545  0.420890  1
  B  B15  1  0.500000  0.250455  0.579110  1
  B  B16  1  0.500000  0.248969  0.081731  1
  B  B17  1  0.500000  0.751031  0.918269  1
  B  B18  1  0.500000  0.791223  0.265444  1
  B  B19  1  0.500000  0.208777  0.734556  1
  B  B20  1  0.500000  0.292823  0.234549  1
  B  B21  1  0.500000  0.707177  0.765451  1
  B  B22  1  0.500000  0.631917  0.183513  1
  B  B23  1  0.500000  0.368083  0.816487  1
  B  B24  1  0.500000  0.131498  0.314913  1
  B  B25  1  0.500000  0.868502  0.685087  1
  B  B26  1  0.500000  0.983096  0.213435  1
  B  B27  1  0.500000  0.016904  0.786565  1
  B  B28  1  0.500000  0.483709  0.287371  1
  B  B29  1  0.500000  0.516291  0.712629  1
  B  B30  1  0.500000  0.604844  0.029095  1
  B  B31  1  0.500000  0.395156  0.970905  1
  B  B32  1  0.500000  0.106184  0.471442  1
  B  B33  1  0.500000  0.893816  0.528558  1
  Rh  Rh34  1  0.000000  0.638254  0.320896  1
  Rh  Rh35  1  0.000000  0.361746  0.679104  1
