# generated using pymatgen
data_SmPa3(GeRu)4
_symmetry_space_group_name_H-M   'P 1'
_cell_length_a   4.41421800
_cell_length_b   7.17766158
_cell_length_c   7.23083667
_cell_angle_alpha   90.57478470
_cell_angle_beta   90.00000000
_cell_angle_gamma   90.00000000
_symmetry_Int_Tables_number   1
_chemical_formula_structural   SmPa3(GeRu)4
_chemical_formula_sum   'Sm1 Pa3 Ge4 Ru4'
_cell_volume   229.08858705
_cell_formula_units_Z   1
loop_
 _symmetry_equiv_pos_site_id
 _symmetry_equiv_pos_as_xyz
  1  'x, y, z'
loop_
 _atom_site_type_symbol
 _atom_site_label
 _atom_site_symmetry_multiplicity
 _atom_site_fract_x
 _atom_site_fract_y
 _atom_site_fract_z
 _atom_site_occupancy
  Sm  Sm0  1  0.250000  0.316879  0.490189  1
  Pa  Pa1  1  0.250000  0.183920  0.987831  1
  Pa  Pa2  1  0.750000  0.817082  0.010540  1
  Pa  Pa3  1  0.750000  0.696290  0.515458  1
  Ge  Ge4  1  0.250000  0.887509  0.288372  1
  Ge  Ge5  1  0.750000  0.116237  0.705668  1
  Ge  Ge6  1  0.750000  0.392638  0.214780  1
  Ge  Ge7  1  0.250000  0.607757  0.789792  1
  Ru  Ru8  1  0.250000  0.561004  0.135331  1
  Ru  Ru9  1  0.750000  0.443300  0.862534  1
  Ru  Ru10  1  0.750000  0.045909  0.348251  1
  Ru  Ru11  1  0.250000  0.931477  0.651254  1
