# generated using pymatgen
data_CaLa8Mn(Si3O13)2
_symmetry_space_group_name_H-M   'P 1'
_cell_length_a   9.70682000
_cell_length_b   9.70682012
_cell_length_c   7.11901700
_cell_angle_alpha   90.00000000
_cell_angle_beta   90.00000000
_cell_angle_gamma   120.00000368
_symmetry_Int_Tables_number   1
_chemical_formula_structural   CaLa8Mn(Si3O13)2
_chemical_formula_sum   'Ca1 La8 Mn1 Si6 O26'
_cell_volume   580.90431632
_cell_formula_units_Z   1
loop_
 _symmetry_equiv_pos_site_id
 _symmetry_equiv_pos_as_xyz
  1  'x, y, z'
loop_
 _atom_site_type_symbol
 _atom_site_label
 _atom_site_symmetry_multiplicity
 _atom_site_fract_x
 _atom_site_fract_y
 _atom_site_fract_z
 _atom_site_occupancy
  Ca  Ca0  1  0.333333  0.666667  0.562742  1
  La  La1  1  0.243010  0.232223  0.813241  1
  La  La2  1  0.989213  0.756990  0.813241  1
  La  La3  1  0.767777  0.010787  0.813241  1
  La  La4  1  0.757079  0.770090  0.312215  1
  La  La5  1  0.013011  0.242921  0.312215  1
  La  La6  1  0.229910  0.986989  0.312215  1
  La  La7  1  0.666667  0.333333  0.555968  1
  La  La8  1  0.333333  0.666667  0.064695  1
  Mn  Mn9  1  0.666667  0.333333  0.052197  1
  Si  Si10  1  0.025765  0.401764  0.818977  1
  Si  Si11  1  0.375999  0.974235  0.818977  1
  Si  Si12  1  0.598236  0.624001  0.818977  1
  Si  Si13  1  0.968037  0.595328  0.310078  1
  Si  Si14  1  0.627292  0.031963  0.310078  1
  Si  Si15  1  0.404672  0.372708  0.310078  1
  O  O16  1  0.893061  0.626028  0.504509  1
  O  O17  1  0.732965  0.106939  0.504509  1
  O  O18  1  0.373972  0.267035  0.504509  1
  O  O19  1  0.101125  0.360649  0.004251  1
  O  O20  1  0.259524  0.898875  0.004251  1
  O  O21  1  0.639351  0.740476  0.004251  1
  O  O22  1  0.125822  0.596771  0.802070  1
  O  O23  1  0.470949  0.874178  0.802070  1
  O  O24  1  0.403229  0.529051  0.802070  1
  O  O25  1  0.865653  0.402396  0.273432  1
  O  O26  1  0.536743  0.134347  0.273432  1
  O  O27  1  0.597604  0.463257  0.273432  1
  O  O28  1  0.832422  0.324418  0.832240  1
  O  O29  1  0.491996  0.167578  0.832240  1
  O  O30  1  0.675582  0.508004  0.832240  1
  O  O31  1  0.159610  0.664208  0.325911  1
  O  O32  1  0.504599  0.840390  0.325911  1
  O  O33  1  0.335792  0.495401  0.325911  1
  O  O34  1  0.068804  0.319735  0.641529  1
  O  O35  1  0.250931  0.931196  0.641529  1
  O  O36  1  0.680265  0.749069  0.641529  1
  O  O37  1  0.938894  0.700103  0.148289  1
  O  O38  1  0.761210  0.061106  0.148289  1
  O  O39  1  0.299897  0.238790  0.148289  1
  O  O40  1  0.000000  0.000000  0.846932  1
  O  O41  1  0.000000  0.000000  0.363278  1
