# generated using pymatgen
data_Y3Lu2Sb3
_symmetry_space_group_name_H-M   'P 1'
_cell_length_a   6.25317400
_cell_length_b   8.93428579
_cell_length_c   8.93305707
_cell_angle_alpha   120.00455606
_cell_angle_beta   90.00000000
_cell_angle_gamma   90.00000000
_symmetry_Int_Tables_number   1
_chemical_formula_structural   Y3Lu2Sb3
_chemical_formula_sum   'Y6 Lu4 Sb6'
_cell_volume   432.18645767
_cell_formula_units_Z   2
loop_
 _symmetry_equiv_pos_site_id
 _symmetry_equiv_pos_as_xyz
  1  'x, y, z'
loop_
 _atom_site_type_symbol
 _atom_site_label
 _atom_site_symmetry_multiplicity
 _atom_site_fract_x
 _atom_site_fract_y
 _atom_site_fract_z
 _atom_site_occupancy
  Y  Y0  1  0.750023  0.248231  0.000000  1
  Y  Y1  1  0.750006  0.751899  0.751876  1
  Y  Y2  1  0.750006  0.000022  0.248124  1
  Y  Y3  1  0.250023  0.751769  0.000000  1
  Y  Y4  1  0.250006  0.248101  0.248124  1
  Y  Y5  1  0.250006  0.999978  0.751876  1
  Lu  Lu6  1  0.499978  0.333307  0.666654  1
  Lu  Lu7  1  0.499978  0.666653  0.333346  1
  Lu  Lu8  1  0.999978  0.666693  0.333346  1
  Lu  Lu9  1  0.999978  0.333347  0.666654  1
  Sb  Sb10  1  0.750009  0.609737  0.000000  1
  Sb  Sb11  1  0.749999  0.390295  0.390313  1
  Sb  Sb12  1  0.749999  0.999981  0.609687  1
  Sb  Sb13  1  0.250009  0.390263  0.000000  1
  Sb  Sb14  1  0.249999  0.609705  0.609687  1
  Sb  Sb15  1  0.249999  0.000019  0.390313  1
