# generated using pymatgen
data_Tb5Nd4TmPb8
_symmetry_space_group_name_H-M   'P 1'
_cell_length_a   8.26078100
_cell_length_b   8.36062800
_cell_length_c   15.74962800
_cell_angle_alpha   90.00000000
_cell_angle_beta   90.00000000
_cell_angle_gamma   90.00000000
_symmetry_Int_Tables_number   1
_chemical_formula_structural   Tb5Nd4TmPb8
_chemical_formula_sum   'Tb10 Nd8 Tm2 Pb16'
_cell_volume   1087.75304936
_cell_formula_units_Z   2
loop_
 _symmetry_equiv_pos_site_id
 _symmetry_equiv_pos_as_xyz
  1  'x, y, z'
loop_
 _atom_site_type_symbol
 _atom_site_label
 _atom_site_symmetry_multiplicity
 _atom_site_fract_x
 _atom_site_fract_y
 _atom_site_fract_z
 _atom_site_occupancy
  Tb  Tb0  1  0.628809  0.159423  0.621394  1
  Tb  Tb1  1  0.128809  0.340577  0.878606  1
  Tb  Tb2  1  0.370877  0.840539  0.120998  1
  Tb  Tb3  1  0.870877  0.659461  0.379002  1
  Tb  Tb4  1  0.370877  0.840539  0.379002  1
  Tb  Tb5  1  0.870877  0.659461  0.120998  1
  Tb  Tb6  1  0.628809  0.159423  0.878606  1
  Tb  Tb7  1  0.128809  0.340577  0.621394  1
  Tb  Tb8  1  0.204904  0.504244  0.250000  1
  Tb  Tb9  1  0.704904  0.995756  0.250000  1
  Nd  Nd10  1  0.472798  0.677841  0.598571  1
  Nd  Nd11  1  0.972798  0.822159  0.901429  1
  Nd  Nd12  1  0.527406  0.322220  0.098303  1
  Nd  Nd13  1  0.027406  0.177780  0.401697  1
  Nd  Nd14  1  0.527406  0.322220  0.401697  1
  Nd  Nd15  1  0.027406  0.177780  0.098303  1
  Nd  Nd16  1  0.472798  0.677841  0.901429  1
  Nd  Nd17  1  0.972798  0.822159  0.598571  1
  Tm  Tm18  1  0.794981  0.495335  0.750000  1
  Tm  Tm19  1  0.294981  0.004665  0.750000  1
  Pb  Pb20  1  0.710112  0.962493  0.456899  1
  Pb  Pb21  1  0.210112  0.537507  0.043101  1
  Pb  Pb22  1  0.289807  0.037344  0.955915  1
  Pb  Pb23  1  0.789807  0.462656  0.544085  1
  Pb  Pb24  1  0.289807  0.037344  0.544085  1
  Pb  Pb25  1  0.789807  0.462656  0.955915  1
  Pb  Pb26  1  0.710112  0.962493  0.043101  1
  Pb  Pb27  1  0.210112  0.537507  0.456899  1
  Pb  Pb28  1  0.432850  0.373084  0.750000  1
  Pb  Pb29  1  0.932850  0.126916  0.750000  1
  Pb  Pb30  1  0.568159  0.627154  0.250000  1
  Pb  Pb31  1  0.068159  0.872846  0.250000  1
  Pb  Pb32  1  0.661323  0.850073  0.750000  1
  Pb  Pb33  1  0.161323  0.649927  0.750000  1
  Pb  Pb34  1  0.338164  0.148612  0.250000  1
  Pb  Pb35  1  0.838164  0.351388  0.250000  1
