# generated using pymatgen
data_La16YHo3Sn16
_symmetry_space_group_name_H-M   'P 1'
_cell_length_a   8.40810000
_cell_length_b   8.50674600
_cell_length_c   16.27087300
_cell_angle_alpha   90.00000000
_cell_angle_beta   90.00000000
_cell_angle_gamma   89.99621298
_symmetry_Int_Tables_number   1
_chemical_formula_structural   La16YHo3Sn16
_chemical_formula_sum   'La16 Y1 Ho3 Sn16'
_cell_volume   1163.78348142
_cell_formula_units_Z   1
loop_
 _symmetry_equiv_pos_site_id
 _symmetry_equiv_pos_as_xyz
  1  'x, y, z'
loop_
 _atom_site_type_symbol
 _atom_site_label
 _atom_site_symmetry_multiplicity
 _atom_site_fract_x
 _atom_site_fract_y
 _atom_site_fract_z
 _atom_site_occupancy
  La  La0  1  0.971230  0.819315  0.899971  1
  La  La1  1  0.471237  0.680691  0.600030  1
  La  La2  1  0.528763  0.319311  0.100032  1
  La  La3  1  0.028764  0.180692  0.399969  1
  La  La4  1  0.971230  0.819315  0.600029  1
  La  La5  1  0.471237  0.680691  0.899970  1
  La  La6  1  0.528763  0.319311  0.399968  1
  La  La7  1  0.028764  0.180692  0.100031  1
  La  La8  1  0.876605  0.658571  0.382075  1
  La  La9  1  0.376610  0.841423  0.117931  1
  La  La10  1  0.623405  0.158580  0.617927  1
  La  La11  1  0.123386  0.341428  0.882076  1
  La  La12  1  0.123386  0.341428  0.617924  1
  La  La13  1  0.623405  0.158580  0.882073  1
  La  La14  1  0.376610  0.841423  0.382069  1
  La  La15  1  0.876605  0.658571  0.117925  1
  Y  Y16  1  0.289295  0.003063  0.750000  1
  Ho  Ho17  1  0.789286  0.496925  0.750000  1
  Ho  Ho18  1  0.210711  0.503069  0.250000  1
  Ho  Ho19  1  0.710713  0.996931  0.250000  1
  Sn  Sn20  1  0.782585  0.470534  0.547339  1
  Sn  Sn21  1  0.282582  0.029463  0.952661  1
  Sn  Sn22  1  0.717416  0.970534  0.452660  1
  Sn  Sn23  1  0.217415  0.529463  0.047341  1
  Sn  Sn24  1  0.217415  0.529463  0.452659  1
  Sn  Sn25  1  0.717416  0.970534  0.047340  1
  Sn  Sn26  1  0.282582  0.029463  0.547339  1
  Sn  Sn27  1  0.782585  0.470534  0.952661  1
  Sn  Sn28  1  0.167470  0.647155  0.750000  1
  Sn  Sn29  1  0.667440  0.852843  0.750000  1
  Sn  Sn30  1  0.332539  0.147164  0.250000  1
  Sn  Sn31  1  0.832540  0.352844  0.250000  1
  Sn  Sn32  1  0.926278  0.118512  0.750000  1
  Sn  Sn33  1  0.426263  0.381483  0.750000  1
  Sn  Sn34  1  0.573735  0.618510  0.250000  1
  Sn  Sn35  1  0.073732  0.881491  0.250000  1
