# generated using pymatgen
data_MgTa6VSe12
_symmetry_space_group_name_H-M   'P 1'
_cell_length_a   6.07002000
_cell_length_b   6.07002128
_cell_length_c   13.26923700
_cell_angle_alpha   90.00000000
_cell_angle_beta   90.00000000
_cell_angle_gamma   119.99999302
_symmetry_Int_Tables_number   1
_chemical_formula_structural   MgTa6VSe12
_chemical_formula_sum   'Mg1 Ta6 V1 Se12'
_cell_volume   423.40594239
_cell_formula_units_Z   1
loop_
 _symmetry_equiv_pos_site_id
 _symmetry_equiv_pos_as_xyz
  1  'x, y, z'
loop_
 _atom_site_type_symbol
 _atom_site_label
 _atom_site_symmetry_multiplicity
 _atom_site_fract_x
 _atom_site_fract_y
 _atom_site_fract_z
 _atom_site_occupancy
  Mg  Mg0  1  0.333333  0.666667  0.250000  1
  Ta  Ta1  1  0.000000  0.000000  0.510467  1
  Ta  Ta2  1  0.000000  0.000000  0.989533  1
  Ta  Ta3  1  0.333333  0.666667  0.989098  1
  Ta  Ta4  1  0.666667  0.333333  0.989577  1
  Ta  Ta5  1  0.666667  0.333333  0.510423  1
  Ta  Ta6  1  0.333333  0.666667  0.510902  1
  V  V7  1  0.666667  0.333333  0.750000  1
  Se  Se8  1  0.332540  0.329136  0.384304  1
  Se  Se9  1  0.670864  0.003405  0.384304  1
  Se  Se10  1  0.996595  0.667460  0.384304  1
  Se  Se11  1  0.329791  0.333095  0.635408  1
  Se  Se12  1  0.003304  0.670209  0.635408  1
  Se  Se13  1  0.666905  0.996696  0.635408  1
  Se  Se14  1  0.666905  0.670209  0.864592  1
  Se  Se15  1  0.329791  0.996696  0.864592  1
  Se  Se16  1  0.003304  0.333095  0.864592  1
  Se  Se17  1  0.670864  0.667460  0.115696  1
  Se  Se18  1  0.996595  0.329136  0.115696  1
  Se  Se19  1  0.332540  0.003405  0.115696  1
