# generated using pymatgen
data_SeI28
_symmetry_space_group_name_H-M   'P 1'
_cell_length_a   10.67681737
_cell_length_b   14.33344904
_cell_length_c   12.98270300
_cell_angle_alpha   108.44914254
_cell_angle_beta   105.43469067
_cell_angle_gamma   86.57346759
_symmetry_Int_Tables_number   1
_chemical_formula_structural   SeI28
_chemical_formula_sum   'Se1 I28'
_cell_volume   1816.08072199
_cell_formula_units_Z   1
loop_
 _symmetry_equiv_pos_site_id
 _symmetry_equiv_pos_as_xyz
  1  'x, y, z'
loop_
 _atom_site_type_symbol
 _atom_site_label
 _atom_site_symmetry_multiplicity
 _atom_site_fract_x
 _atom_site_fract_y
 _atom_site_fract_z
 _atom_site_occupancy
  Se  Se0  1  0.500000  0.000000  0.000000  1
  I  I1  1  0.096928  0.112827  0.419678  1
  I  I2  1  0.584012  0.145601  0.411644  1
  I  I3  1  0.302178  0.257808  0.852833  1
  I  I4  1  0.796749  0.279084  0.855026  1
  I  I5  1  0.207291  0.494983  0.661108  1
  I  I6  1  0.783099  0.568689  0.733383  1
  I  I7  1  0.415988  0.854399  0.588356  1
  I  I8  1  0.903072  0.887173  0.580322  1
  I  I9  1  0.203251  0.720916  0.144974  1
  I  I10  1  0.697822  0.742192  0.147167  1
  I  I11  1  0.216901  0.431311  0.266617  1
  I  I12  1  0.792709  0.505017  0.338892  1
  I  I13  1  0.856471  0.076599  0.729192  1
  I  I14  1  0.308165  0.949942  0.797348  1
  I  I15  1  0.994083  0.646265  0.944061  1
  I  I16  1  0.485254  0.799360  0.983232  1
  I  I17  1  0.696651  0.370083  0.416963  1
  I  I18  1  0.165635  0.270266  0.342958  1
  I  I19  1  0.691835  0.050058  0.202652  1
  I  I20  1  0.143529  0.923401  0.270808  1
  I  I21  1  0.514746  0.200640  0.016768  1
  I  I22  1  0.005917  0.353735  0.055939  1
  I  I23  1  0.834365  0.729734  0.657042  1
  I  I24  1  0.303349  0.629917  0.583037  1
  I  I25  1  0.088121  0.327498  0.707785  1
  I  I26  1  0.494504  0.216036  0.606730  1
  I  I27  1  0.505496  0.783964  0.393270  1
  I  I28  1  0.911879  0.672502  0.292215  1
