# generated using pymatgen
data_PrNdGa9RuPt2
_symmetry_space_group_name_H-M   'P 1'
_cell_length_a   7.70785916
_cell_length_b   7.70853859
_cell_length_c   9.64439300
_cell_angle_alpha   90.00000000
_cell_angle_beta   90.00000000
_cell_angle_gamma   119.62181431
_symmetry_Int_Tables_number   1
_chemical_formula_structural   PrNdGa9RuPt2
_chemical_formula_sum   'Pr2 Nd2 Ga18 Ru2 Pt4'
_cell_volume   498.14273503
_cell_formula_units_Z   2
loop_
 _symmetry_equiv_pos_site_id
 _symmetry_equiv_pos_as_xyz
  1  'x, y, z'
loop_
 _atom_site_type_symbol
 _atom_site_label
 _atom_site_symmetry_multiplicity
 _atom_site_fract_x
 _atom_site_fract_y
 _atom_site_fract_z
 _atom_site_occupancy
  Pr  Pr0  1  0.997304  0.666578  0.250000  1
  Pr  Pr1  1  0.002696  0.333422  0.750000  1
  Nd  Nd2  1  0.666714  0.997322  0.250000  1
  Nd  Nd3  1  0.333286  0.002678  0.750000  1
  Ga  Ga4  1  0.122038  0.122183  0.250000  1
  Ga  Ga5  1  0.877962  0.877817  0.750000  1
  Ga  Ga6  1  0.001558  0.328540  0.078930  1
  Ga  Ga7  1  0.998442  0.671460  0.921070  1
  Ga  Ga8  1  0.998442  0.671460  0.578930  1
  Ga  Ga9  1  0.329080  0.001818  0.421256  1
  Ga  Ga10  1  0.001558  0.328540  0.421070  1
  Ga  Ga11  1  0.670920  0.998182  0.578744  1
  Ga  Ga12  1  0.670920  0.998182  0.921256  1
  Ga  Ga13  1  0.329080  0.001818  0.078744  1
  Ga  Ga14  1  0.326779  0.326539  0.562029  1
  Ga  Ga15  1  0.673221  0.673461  0.437971  1
  Ga  Ga16  1  0.673221  0.673461  0.062029  1
  Ga  Ga17  1  0.326779  0.326539  0.937971  1
  Ga  Ga18  1  0.343557  0.542714  0.250000  1
  Ga  Ga19  1  0.656443  0.457286  0.750000  1
  Ga  Ga20  1  0.542482  0.343206  0.250000  1
  Ga  Ga21  1  0.457518  0.656794  0.750000  1
  Ru  Ru22  1  0.000000  0.000000  0.000000  1
  Ru  Ru23  1  0.000000  0.000000  0.500000  1
  Pt  Pt24  1  0.670901  0.328939  0.999988  1
  Pt  Pt25  1  0.329099  0.671061  0.000012  1
  Pt  Pt26  1  0.329099  0.671061  0.499988  1
  Pt  Pt27  1  0.670901  0.328939  0.500012  1
