# generated using pymatgen
data_Li8Sm8Bi3Pb5
_symmetry_space_group_name_H-M   'P 1'
_cell_length_a   9.65078200
_cell_length_b   9.65078161
_cell_length_c   7.51402300
_cell_angle_alpha   89.99983949
_cell_angle_beta   90.00012037
_cell_angle_gamma   120.00016672
_symmetry_Int_Tables_number   1
_chemical_formula_structural   Li8Sm8Bi3Pb5
_chemical_formula_sum   'Li8 Sm8 Bi3 Pb5'
_cell_volume   606.07645907
_cell_formula_units_Z   1
loop_
 _symmetry_equiv_pos_site_id
 _symmetry_equiv_pos_as_xyz
  1  'x, y, z'
loop_
 _atom_site_type_symbol
 _atom_site_label
 _atom_site_symmetry_multiplicity
 _atom_site_fract_x
 _atom_site_fract_y
 _atom_site_fract_z
 _atom_site_occupancy
  Li  Li0  1  0.832953  0.167046  0.719360  1
  Li  Li1  1  0.832953  0.665907  0.719360  1
  Li  Li2  1  0.334093  0.167046  0.719360  1
  Li  Li3  1  0.167607  0.832394  0.212340  1
  Li  Li4  1  0.167606  0.335211  0.212340  1
  Li  Li5  1  0.664789  0.832394  0.212340  1
  Li  Li6  1  0.666668  0.333334  0.331303  1
  Li  Li7  1  0.333334  0.666667  0.822491  1
  Sm  Sm8  1  0.486356  0.513644  0.508736  1
  Sm  Sm9  1  0.486355  0.972711  0.508736  1
  Sm  Sm10  1  0.027289  0.513645  0.508736  1
  Sm  Sm11  1  0.510110  0.489890  0.002434  1
  Sm  Sm12  1  0.510110  0.020220  0.002434  1
  Sm  Sm13  1  0.979779  0.489889  0.002434  1
  Sm  Sm14  1  0.000000  0.000000  0.503213  1
  Sm  Sm15  1  0.000000  0.999999  0.994866  1
  Bi  Bi16  1  0.833168  0.166832  0.266164  1
  Bi  Bi17  1  0.833168  0.666335  0.266165  1
  Bi  Bi18  1  0.333665  0.166832  0.266164  1
  Pb  Pb19  1  0.166755  0.833245  0.767203  1
  Pb  Pb20  1  0.166760  0.333520  0.767186  1
  Pb  Pb21  1  0.666482  0.833240  0.767187  1
  Pb  Pb22  1  0.666666  0.333334  0.739436  1
  Pb  Pb23  1  0.333334  0.666666  0.238027  1
