# generated using pymatgen
data_Pr8Sm2Si5Hg
_symmetry_space_group_name_H-M   'P 1'
_cell_length_a   7.82946639
_cell_length_b   7.82946659
_cell_length_c   9.11572669
_cell_angle_alpha   115.43254236
_cell_angle_beta   115.43254806
_cell_angle_gamma   90.00000914
_symmetry_Int_Tables_number   1
_chemical_formula_structural   Pr8Sm2Si5Hg
_chemical_formula_sum   'Pr8 Sm2 Si5 Hg1'
_cell_volume   443.93705895
_cell_formula_units_Z   1
loop_
 _symmetry_equiv_pos_site_id
 _symmetry_equiv_pos_as_xyz
  1  'x, y, z'
loop_
 _atom_site_type_symbol
 _atom_site_label
 _atom_site_symmetry_multiplicity
 _atom_site_fract_x
 _atom_site_fract_y
 _atom_site_fract_z
 _atom_site_occupancy
  Pr  Pr0  1  0.969477  0.824708  0.286521  1
  Pr  Pr1  1  0.317045  0.461812  0.286521  1
  Pr  Pr2  1  0.824708  0.317045  0.286521  1
  Pr  Pr3  1  0.461812  0.969477  0.286521  1
  Pr  Pr4  1  0.038188  0.182955  0.713479  1
  Pr  Pr5  1  0.675292  0.530523  0.713479  1
  Pr  Pr6  1  0.182955  0.675292  0.713479  1
  Pr  Pr7  1  0.530523  0.038188  0.713479  1
  Sm  Sm8  1  0.496967  0.496967  0.993935  1
  Sm  Sm9  1  0.003033  0.003033  0.006065  1
  Si  Si10  1  0.250000  0.250000  0.500000  1
  Si  Si11  1  0.615695  0.884305  0.000000  1
  Si  Si12  1  0.384305  0.115695  0.000000  1
  Si  Si13  1  0.884305  0.384305  0.000000  1
  Si  Si14  1  0.115695  0.615695  0.000000  1
  Hg  Hg15  1  0.750000  0.750000  0.500000  1
