# generated using pymatgen
data_Ba7CeSb6
_symmetry_space_group_name_H-M   'P 1'
_cell_length_a   9.01892838
_cell_length_b   9.01892884
_cell_length_c   9.01892812
_cell_angle_alpha   109.74249759
_cell_angle_beta   109.74249635
_cell_angle_gamma   109.74249713
_symmetry_Int_Tables_number   1
_chemical_formula_structural   Ba7CeSb6
_chemical_formula_sum   'Ba7 Ce1 Sb6'
_cell_volume   558.98874583
_cell_formula_units_Z   1
loop_
 _symmetry_equiv_pos_site_id
 _symmetry_equiv_pos_as_xyz
  1  'x, y, z'
loop_
 _atom_site_type_symbol
 _atom_site_label
 _atom_site_symmetry_multiplicity
 _atom_site_fract_x
 _atom_site_fract_y
 _atom_site_fract_z
 _atom_site_occupancy
  Ba  Ba0  1  0.496307  0.005343  0.865024  1
  Ba  Ba1  1  0.865024  0.496307  0.005343  1
  Ba  Ba2  1  0.140620  0.140620  0.140620  1
  Ba  Ba3  1  0.005343  0.865024  0.496307  1
  Ba  Ba4  1  0.498756  0.000644  0.355503  1
  Ba  Ba5  1  0.000644  0.355503  0.498756  1
  Ba  Ba6  1  0.355503  0.498756  0.000644  1
  Ce  Ce7  1  0.643190  0.643190  0.643190  1
  Sb  Sb8  1  0.739864  0.857017  0.094835  1
  Sb  Sb9  1  0.396416  0.278624  0.627856  1
  Sb  Sb10  1  0.278624  0.627856  0.396416  1
  Sb  Sb11  1  0.857017  0.094835  0.739864  1
  Sb  Sb12  1  0.627856  0.396416  0.278624  1
  Sb  Sb13  1  0.094835  0.739864  0.857017  1
