# generated using pymatgen
data_Li2Pr8CdSi12Pd
_symmetry_space_group_name_H-M   'P 1'
_cell_length_a   8.34393900
_cell_length_b   8.34394049
_cell_length_c   8.57884400
_cell_angle_alpha   90.00000000
_cell_angle_beta   90.00000000
_cell_angle_gamma   120.00000597
_symmetry_Int_Tables_number   1
_chemical_formula_structural   Li2Pr8CdSi12Pd
_chemical_formula_sum   'Li2 Pr8 Cd1 Si12 Pd1'
_cell_volume   517.25142372
_cell_formula_units_Z   1
loop_
 _symmetry_equiv_pos_site_id
 _symmetry_equiv_pos_as_xyz
  1  'x, y, z'
loop_
 _atom_site_type_symbol
 _atom_site_label
 _atom_site_symmetry_multiplicity
 _atom_site_fract_x
 _atom_site_fract_y
 _atom_site_fract_z
 _atom_site_occupancy
  Li  Li0  1  0.666667  0.333333  0.995595  1
  Li  Li1  1  0.333333  0.666667  0.004339  1
  Pr  Pr2  1  0.500440  0.499560  0.753492  1
  Pr  Pr3  1  0.502002  0.497998  0.246349  1
  Pr  Pr4  1  0.999121  0.499560  0.753492  1
  Pr  Pr5  1  0.995996  0.497998  0.246349  1
  Pr  Pr6  1  0.500440  0.000879  0.753492  1
  Pr  Pr7  1  0.502002  0.004004  0.246349  1
  Pr  Pr8  1  0.000000  0.000000  0.754053  1
  Pr  Pr9  1  0.000000  0.000000  0.246015  1
  Cd  Cd10  1  0.333333  0.666667  0.497299  1
  Si  Si11  1  0.833819  0.166181  0.000494  1
  Si  Si12  1  0.165687  0.834313  0.999555  1
  Si  Si13  1  0.332362  0.166181  0.000494  1
  Si  Si14  1  0.157689  0.842311  0.500105  1
  Si  Si15  1  0.668626  0.834313  0.999555  1
  Si  Si16  1  0.831403  0.168597  0.500134  1
  Si  Si17  1  0.833819  0.667638  0.000494  1
  Si  Si18  1  0.684621  0.842311  0.500105  1
  Si  Si19  1  0.165687  0.331374  0.999555  1
  Si  Si20  1  0.337195  0.168597  0.500134  1
  Si  Si21  1  0.157689  0.315379  0.500105  1
  Si  Si22  1  0.831403  0.662805  0.500134  1
  Pd  Pd23  1  0.666667  0.333333  0.502317  1
