# generated using pymatgen
data_Sr4YbEu(SbO6)2
_symmetry_space_group_name_H-M   'P 1'
_cell_length_a   5.97516181
_cell_length_b   5.88216927
_cell_length_c   10.21388592
_cell_angle_alpha   54.86477848
_cell_angle_beta   90.11005627
_cell_angle_gamma   90.17196735
_symmetry_Int_Tables_number   1
_chemical_formula_structural   Sr4YbEu(SbO6)2
_chemical_formula_sum   'Sr4 Yb1 Eu1 Sb2 O12'
_cell_volume   293.57647542
_cell_formula_units_Z   1
loop_
 _symmetry_equiv_pos_site_id
 _symmetry_equiv_pos_as_xyz
  1  'x, y, z'
loop_
 _atom_site_type_symbol
 _atom_site_label
 _atom_site_symmetry_multiplicity
 _atom_site_fract_x
 _atom_site_fract_y
 _atom_site_fract_z
 _atom_site_occupancy
  Sr  Sr0  1  0.461710  0.230261  0.760732  1
  Sr  Sr1  1  0.538290  0.769739  0.239268  1
  Sr  Sr2  1  0.955087  0.750270  0.762336  1
  Sr  Sr3  1  0.044913  0.249730  0.237664  1
  Yb  Yb4  1  0.500000  0.500000  0.000000  1
  Eu  Eu5  1  0.000000  0.500000  0.500000  1
  Sb  Sb6  1  0.000000  0.000000  0.000000  1
  Sb  Sb7  1  0.500000  0.000000  0.500000  1
  O  O8  1  0.730122  0.850868  0.955482  1
  O  O9  1  0.269878  0.149132  0.044518  1
  O  O10  1  0.226305  0.139625  0.553259  1
  O  O11  1  0.773695  0.860375  0.446741  1
  O  O12  1  0.030548  0.325155  0.762818  1
  O  O13  1  0.969452  0.674845  0.237182  1
  O  O14  1  0.528993  0.685628  0.730305  1
  O  O15  1  0.471007  0.314372  0.269695  1
  O  O16  1  0.196830  0.767850  0.962375  1
  O  O17  1  0.803170  0.232150  0.037625  1
  O  O18  1  0.695850  0.229719  0.545734  1
  O  O19  1  0.304150  0.770281  0.454266  1
