# generated using pymatgen
data_K4TeWO8
_symmetry_space_group_name_H-M   'P 1'
_cell_length_a   7.05955686
_cell_length_b   7.05955659
_cell_length_c   7.70930203
_cell_angle_alpha   66.95883751
_cell_angle_beta   66.95883782
_cell_angle_gamma   52.96310163
_symmetry_Int_Tables_number   1
_chemical_formula_structural   K4TeWO8
_chemical_formula_sum   'K4 Te1 W1 O8'
_cell_volume   275.82043713
_cell_formula_units_Z   1
loop_
 _symmetry_equiv_pos_site_id
 _symmetry_equiv_pos_as_xyz
  1  'x, y, z'
loop_
 _atom_site_type_symbol
 _atom_site_label
 _atom_site_symmetry_multiplicity
 _atom_site_fract_x
 _atom_site_fract_y
 _atom_site_fract_z
 _atom_site_occupancy
  K  K0  1  0.842861  0.842861  0.750866  1
  K  K1  1  0.155544  0.155544  0.251834  1
  K  K2  1  0.508766  0.508766  0.766944  1
  K  K3  1  0.493097  0.493097  0.232675  1
  Te  Te4  1  0.824253  0.824253  0.229656  1
  W  W5  1  0.176169  0.176169  0.769529  1
  O  O6  1  0.906946  0.379601  0.920101  1
  O  O7  1  0.379601  0.906946  0.920101  1
  O  O8  1  0.098185  0.614896  0.078648  1
  O  O9  1  0.614896  0.098185  0.078648  1
  O  O10  1  0.333548  0.333548  0.611349  1
  O  O11  1  0.664271  0.664271  0.388941  1
  O  O12  1  0.087528  0.087528  0.636153  1
  O  O13  1  0.914333  0.914333  0.364557  1
