# generated using pymatgen
data_Tb3Sc3NbBi2
_symmetry_space_group_name_H-M   'P 1'
_cell_length_a   8.00393700
_cell_length_b   8.00393608
_cell_length_c   4.40634200
_cell_angle_alpha   90.00000000
_cell_angle_beta   90.00000000
_cell_angle_gamma   119.99999966
_symmetry_Int_Tables_number   1
_chemical_formula_structural   Tb3Sc3NbBi2
_chemical_formula_sum   'Tb3 Sc3 Nb1 Bi2'
_cell_volume   244.46467267
_cell_formula_units_Z   1
loop_
 _symmetry_equiv_pos_site_id
 _symmetry_equiv_pos_as_xyz
  1  'x, y, z'
loop_
 _atom_site_type_symbol
 _atom_site_label
 _atom_site_symmetry_multiplicity
 _atom_site_fract_x
 _atom_site_fract_y
 _atom_site_fract_z
 _atom_site_occupancy
  Tb  Tb0  1  0.000000  0.601006  0.500000  1
  Tb  Tb1  1  0.398994  0.398994  0.500000  1
  Tb  Tb2  1  0.601006  0.000000  0.500000  1
  Sc  Sc3  1  0.230797  0.000000  0.000000  1
  Sc  Sc4  1  0.769203  0.769203  0.000000  1
  Sc  Sc5  1  0.000000  0.230797  0.000000  1
  Nb  Nb6  1  0.000000  0.000000  0.500000  1
  Bi  Bi7  1  0.333333  0.666667  0.000000  1
  Bi  Bi8  1  0.666667  0.333333  0.000000  1
