# generated using pymatgen
data_CeTm5(Al3Os)8
_symmetry_space_group_name_H-M   'P 1'
_cell_length_a   8.78914400
_cell_length_b   8.78507661
_cell_length_c   9.58632400
_cell_angle_alpha   90.00000000
_cell_angle_beta   90.00000000
_cell_angle_gamma   120.01531673
_symmetry_Int_Tables_number   1
_chemical_formula_structural   CeTm5(Al3Os)8
_chemical_formula_sum   'Ce1 Tm5 Al24 Os8'
_cell_volume   640.92589361
_cell_formula_units_Z   1
loop_
 _symmetry_equiv_pos_site_id
 _symmetry_equiv_pos_as_xyz
  1  'x, y, z'
loop_
 _atom_site_type_symbol
 _atom_site_label
 _atom_site_symmetry_multiplicity
 _atom_site_fract_x
 _atom_site_fract_y
 _atom_site_fract_z
 _atom_site_occupancy
  Ce  Ce0  1  0.193467  0.386934  0.250000  1
  Tm  Tm1  1  0.806084  0.612169  0.750000  1
  Tm  Tm2  1  0.610833  0.804434  0.250000  1
  Tm  Tm3  1  0.390034  0.194453  0.750000  1
  Tm  Tm4  1  0.193601  0.804434  0.250000  1
  Tm  Tm5  1  0.804419  0.194453  0.750000  1
  Al  Al6  1  0.334759  0.669518  0.018204  1
  Al  Al7  1  0.667156  0.334311  0.978983  1
  Al  Al8  1  0.667156  0.334311  0.521017  1
  Al  Al9  1  0.334759  0.669518  0.481796  1
  Al  Al10  1  0.163120  0.326240  0.578165  1
  Al  Al11  1  0.836678  0.673356  0.424367  1
  Al  Al12  1  0.673532  0.836848  0.576662  1
  Al  Al13  1  0.836678  0.673356  0.075633  1
  Al  Al14  1  0.326949  0.162197  0.423693  1
  Al  Al15  1  0.163120  0.326240  0.921835  1
  Al  Al16  1  0.163317  0.836848  0.576662  1
  Al  Al17  1  0.326949  0.162197  0.076307  1
  Al  Al18  1  0.835248  0.162197  0.423693  1
  Al  Al19  1  0.673532  0.836848  0.923338  1
  Al  Al20  1  0.835248  0.162197  0.076307  1
  Al  Al21  1  0.163317  0.836848  0.923338  1
  Al  Al22  1  0.561198  0.122397  0.250000  1
  Al  Al23  1  0.438319  0.876639  0.750000  1
  Al  Al24  1  0.873788  0.438212  0.250000  1
  Al  Al25  1  0.122193  0.561392  0.750000  1
  Al  Al26  1  0.564423  0.438212  0.250000  1
  Al  Al27  1  0.439199  0.561392  0.750000  1
  Al  Al28  1  0.998445  0.996890  0.250000  1
  Al  Al29  1  0.000573  0.001145  0.750000  1
  Os  Os30  1  0.500861  0.001721  0.998657  1
  Os  Os31  1  0.000527  0.500516  0.000902  1
  Os  Os32  1  0.500861  0.001721  0.501343  1
  Os  Os33  1  0.499988  0.500516  0.000902  1
  Os  Os34  1  0.000527  0.500516  0.499098  1
  Os  Os35  1  0.499988  0.500516  0.499098  1
  Os  Os36  1  0.999576  0.999153  0.999503  1
  Os  Os37  1  0.999576  0.999153  0.500497  1
