# generated using pymatgen
data_AcSc3(ZnSn)4
_symmetry_space_group_name_H-M   'P 1'
_cell_length_a   4.47816500
_cell_length_b   4.47816692
_cell_length_c   15.77311300
_cell_angle_alpha   90.00000000
_cell_angle_beta   90.00000000
_cell_angle_gamma   120.00000800
_symmetry_Int_Tables_number   1
_chemical_formula_structural   AcSc3(ZnSn)4
_chemical_formula_sum   'Ac1 Sc3 Zn4 Sn4'
_cell_volume   273.93553952
_cell_formula_units_Z   1
loop_
 _symmetry_equiv_pos_site_id
 _symmetry_equiv_pos_as_xyz
  1  'x, y, z'
loop_
 _atom_site_type_symbol
 _atom_site_label
 _atom_site_symmetry_multiplicity
 _atom_site_fract_x
 _atom_site_fract_y
 _atom_site_fract_z
 _atom_site_occupancy
  Ac  Ac0  1  0.000000  0.000000  0.000000  1
  Sc  Sc1  1  0.000000  0.000000  0.267245  1
  Sc  Sc2  1  0.000000  0.000000  0.732755  1
  Sc  Sc3  1  0.000000  0.000000  0.500000  1
  Zn  Zn4  1  0.333333  0.666667  0.180888  1
  Zn  Zn5  1  0.666667  0.333333  0.819112  1
  Zn  Zn6  1  0.666667  0.333333  0.652324  1
  Zn  Zn7  1  0.333333  0.666667  0.347676  1
  Sn  Sn8  1  0.333333  0.666667  0.602117  1
  Sn  Sn9  1  0.666667  0.333333  0.397883  1
  Sn  Sn10  1  0.666667  0.333333  0.137652  1
  Sn  Sn11  1  0.333333  0.666667  0.862348  1
