# generated using pymatgen
data_Mg4Ge2Pd7Pt3
_symmetry_space_group_name_H-M   'P 1'
_cell_length_a   4.07826200
_cell_length_b   5.58972369
_cell_length_c   10.86480835
_cell_angle_alpha   89.94289151
_cell_angle_beta   90.00000000
_cell_angle_gamma   90.00000000
_symmetry_Int_Tables_number   1
_chemical_formula_structural   Mg4Ge2Pd7Pt3
_chemical_formula_sum   'Mg4 Ge2 Pd7 Pt3'
_cell_volume   247.67793479
_cell_formula_units_Z   1
loop_
 _symmetry_equiv_pos_site_id
 _symmetry_equiv_pos_as_xyz
  1  'x, y, z'
loop_
 _atom_site_type_symbol
 _atom_site_label
 _atom_site_symmetry_multiplicity
 _atom_site_fract_x
 _atom_site_fract_y
 _atom_site_fract_z
 _atom_site_occupancy
  Mg  Mg0  1  0.500000  0.163214  0.142336  1
  Mg  Mg1  1  0.500000  0.836558  0.857034  1
  Mg  Mg2  1  0.500000  0.335694  0.642876  1
  Mg  Mg3  1  0.500000  0.664410  0.357670  1
  Ge  Ge4  1  0.000000  0.000114  0.500290  1
  Ge  Ge5  1  0.000000  0.499081  0.000027  1
  Pd  Pd6  1  0.500000  0.682894  0.105898  1
  Pd  Pd7  1  0.000000  0.419569  0.237602  1
  Pd  Pd8  1  0.000000  0.581919  0.760893  1
  Pd  Pd9  1  0.000000  0.081691  0.739407  1
  Pd  Pd10  1  0.000000  0.918624  0.261389  1
  Pd  Pd11  1  0.000000  0.996088  0.000201  1
  Pd  Pd12  1  0.000000  0.499413  0.499206  1
  Pt  Pt13  1  0.500000  0.183119  0.394066  1
  Pt  Pt14  1  0.500000  0.817864  0.605858  1
  Pt  Pt15  1  0.500000  0.319750  0.895246  1
