# generated using pymatgen
data_Dy2Sc3Si3Sn
_symmetry_space_group_name_H-M   'P 1'
_cell_length_a   7.23384851
_cell_length_b   7.50735855
_cell_length_c   14.31067661
_cell_angle_alpha   89.90768029
_cell_angle_beta   89.33973948
_cell_angle_gamma   90.01939990
_symmetry_Int_Tables_number   1
_chemical_formula_structural   Dy2Sc3Si3Sn
_chemical_formula_sum   'Dy8 Sc12 Si12 Sn4'
_cell_volume   777.11860566
_cell_formula_units_Z   4
loop_
 _symmetry_equiv_pos_site_id
 _symmetry_equiv_pos_as_xyz
  1  'x, y, z'
loop_
 _atom_site_type_symbol
 _atom_site_label
 _atom_site_symmetry_multiplicity
 _atom_site_fract_x
 _atom_site_fract_y
 _atom_site_fract_z
 _atom_site_occupancy
  Dy  Dy0  1  0.009929  0.170388  0.096364  1
  Dy  Dy1  1  0.994255  0.830351  0.900128  1
  Dy  Dy2  1  0.488942  0.678835  0.901059  1
  Dy  Dy3  1  0.992709  0.832027  0.606823  1
  Dy  Dy4  1  0.497507  0.316675  0.098192  1
  Dy  Dy5  1  0.993536  0.172797  0.394542  1
  Dy  Dy6  1  0.500347  0.318574  0.392935  1
  Dy  Dy7  1  0.503923  0.682466  0.609458  1
  Sc  Sc8  1  0.167120  0.501347  0.755661  1
  Sc  Sc9  1  0.832502  0.498881  0.247846  1
  Sc  Sc10  1  0.331206  0.001862  0.244853  1
  Sc  Sc11  1  0.668433  0.997533  0.753213  1
  Sc  Sc12  1  0.351082  0.167890  0.637107  1
  Sc  Sc13  1  0.663750  0.840591  0.365775  1
  Sc  Sc14  1  0.162157  0.667453  0.361551  1
  Sc  Sc15  1  0.659017  0.839324  0.127823  1
  Sc  Sc16  1  0.832030  0.319001  0.634126  1
  Sc  Sc17  1  0.334394  0.174399  0.875179  1
  Sc  Sc18  1  0.835783  0.316074  0.872069  1
  Sc  Sc19  1  0.178059  0.674408  0.124323  1
  Si  Si20  1  0.040730  0.117143  0.752728  1
  Si  Si21  1  0.964142  0.878920  0.244439  1
  Si  Si22  1  0.468145  0.618752  0.247194  1
  Si  Si23  1  0.537103  0.385612  0.754988  1
  Si  Si24  1  0.293124  0.871575  0.753694  1
  Si  Si25  1  0.705659  0.134590  0.245535  1
  Si  Si26  1  0.201881  0.365717  0.246107  1
  Si  Si27  1  0.796092  0.627751  0.754349  1
  Si  Si28  1  0.672901  0.039583  0.542079  1
  Si  Si29  1  0.168349  0.461664  0.959112  1
  Si  Si30  1  0.657649  0.034967  0.959943  1
  Si  Si31  1  0.342218  0.963362  0.037553  1
  Sn  Sn32  1  0.180989  0.456353  0.539618  1
  Sn  Sn33  1  0.819898  0.545482  0.462920  1
  Sn  Sn34  1  0.324458  0.955736  0.463579  1
  Sn  Sn35  1  0.829980  0.541916  0.037137  1
