# generated using pymatgen
data_IrSe29
_symmetry_space_group_name_H-M   'P 1'
_cell_length_a   7.55272458
_cell_length_b   9.84090822
_cell_length_c   11.71515428
_cell_angle_alpha   74.49728724
_cell_angle_beta   80.58808384
_cell_angle_gamma   67.52818622
_symmetry_Int_Tables_number   1
_chemical_formula_structural   IrSe29
_chemical_formula_sum   'Ir1 Se29'
_cell_volume   773.50230096
_cell_formula_units_Z   1
loop_
 _symmetry_equiv_pos_site_id
 _symmetry_equiv_pos_as_xyz
  1  'x, y, z'
loop_
 _atom_site_type_symbol
 _atom_site_label
 _atom_site_symmetry_multiplicity
 _atom_site_fract_x
 _atom_site_fract_y
 _atom_site_fract_z
 _atom_site_occupancy
  Ir  Ir0  1  0.000000  0.000000  0.000000  1
  Se  Se1  1  0.500000  0.000000  0.000000  1
  Se  Se2  1  0.100537  0.199472  0.200991  1
  Se  Se3  1  0.699990  0.403423  0.398127  1
  Se  Se4  1  0.300010  0.596577  0.601873  1
  Se  Se5  1  0.599684  0.200010  0.201794  1
  Se  Se6  1  0.899463  0.800528  0.799009  1
  Se  Se7  1  0.201045  0.397097  0.399977  1
  Se  Se8  1  0.798955  0.602903  0.600023  1
  Se  Se9  1  0.400316  0.799990  0.798206  1
  Se  Se10  1  0.237494  0.074095  0.845804  1
  Se  Se11  1  0.647734  0.717824  0.966453  1
  Se  Se12  1  0.861085  0.262649  0.034389  1
  Se  Se13  1  0.233428  0.925438  0.154052  1
  Se  Se14  1  0.452042  0.484752  0.233019  1
  Se  Se15  1  0.766572  0.074562  0.845948  1
  Se  Se16  1  0.851262  0.114923  0.365220  1
  Se  Se17  1  0.138915  0.737351  0.965611  1
  Se  Se18  1  0.051932  0.679992  0.433491  1
  Se  Se19  1  0.352266  0.282176  0.033547  1
  Se  Se20  1  0.762506  0.925905  0.154196  1
  Se  Se21  1  0.448215  0.319335  0.566778  1
  Se  Se22  1  0.648429  0.887645  0.629601  1
  Se  Se23  1  0.950460  0.483509  0.232885  1
  Se  Se24  1  0.049540  0.516491  0.767115  1
  Se  Se25  1  0.351571  0.112355  0.370399  1
  Se  Se26  1  0.551785  0.680665  0.433222  1
  Se  Se27  1  0.948068  0.320008  0.566509  1
  Se  Se28  1  0.148738  0.885077  0.634780  1
  Se  Se29  1  0.547958  0.515248  0.766981  1
