# generated using pymatgen
data_Tb4ErTm3Au4
_symmetry_space_group_name_H-M   'P 1'
_cell_length_a   4.91371900
_cell_length_b   7.14635605
_cell_length_c   8.91240425
_cell_angle_alpha   90.01283717
_cell_angle_beta   90.00000000
_cell_angle_gamma   90.00000000
_symmetry_Int_Tables_number   1
_chemical_formula_structural   Tb4ErTm3Au4
_chemical_formula_sum   'Tb4 Er1 Tm3 Au4'
_cell_volume   312.96072094
_cell_formula_units_Z   1
loop_
 _symmetry_equiv_pos_site_id
 _symmetry_equiv_pos_as_xyz
  1  'x, y, z'
loop_
 _atom_site_type_symbol
 _atom_site_label
 _atom_site_symmetry_multiplicity
 _atom_site_fract_x
 _atom_site_fract_y
 _atom_site_fract_z
 _atom_site_occupancy
  Tb  Tb0  1  0.250000  0.485259  0.176629  1
  Tb  Tb1  1  0.250000  0.986702  0.323558  1
  Tb  Tb2  1  0.750000  0.514461  0.822981  1
  Tb  Tb3  1  0.750000  0.014625  0.677434  1
  Er  Er4  1  0.750000  0.647596  0.419647  1
  Tm  Tm5  1  0.250000  0.852293  0.920950  1
  Tm  Tm6  1  0.250000  0.352752  0.580124  1
  Tm  Tm7  1  0.750000  0.147970  0.079110  1
  Au  Au8  1  0.250000  0.252592  0.899653  1
  Au  Au9  1  0.250000  0.753381  0.601819  1
  Au  Au10  1  0.750000  0.747370  0.098322  1
  Au  Au11  1  0.750000  0.244997  0.399772  1
