# generated using pymatgen
data_Sr6YTmBi6
_symmetry_space_group_name_H-M   'P 1'
_cell_length_a   8.62280735
_cell_length_b   8.76831815
_cell_length_c   8.62276267
_cell_angle_alpha   109.73196951
_cell_angle_beta   108.87849774
_cell_angle_gamma   109.77504208
_symmetry_Int_Tables_number   1
_chemical_formula_structural   Sr6YTmBi6
_chemical_formula_sum   'Sr6 Y1 Tm1 Bi6'
_cell_volume   502.01305715
_cell_formula_units_Z   1
loop_
 _symmetry_equiv_pos_site_id
 _symmetry_equiv_pos_as_xyz
  1  'x, y, z'
loop_
 _atom_site_type_symbol
 _atom_site_label
 _atom_site_symmetry_multiplicity
 _atom_site_fract_x
 _atom_site_fract_y
 _atom_site_fract_z
 _atom_site_occupancy
  Sr  Sr0  1  0.359704  0.354887  0.356951  1
  Sr  Sr1  1  0.000106  0.139787  0.497209  1
  Sr  Sr2  1  0.857139  0.854741  0.859819  1
  Sr  Sr3  1  0.996925  0.639618  0.500048  1
  Sr  Sr4  1  0.504829  0.004672  0.139434  1
  Sr  Sr5  1  0.639437  0.504894  0.005001  1
  Y  Y6  1  0.502025  0.003845  0.640761  1
  Tm  Tm7  1  0.140129  0.503891  0.002156  1
  Bi  Bi8  1  0.877241  0.253768  0.104093  1
  Bi  Bi9  1  0.139553  0.864667  0.255404  1
  Bi  Bi10  1  0.370017  0.628177  0.752327  1
  Bi  Bi11  1  0.251944  0.128445  0.870201  1
  Bi  Bi12  1  0.757106  0.365969  0.640558  1
  Bi  Bi13  1  0.603844  0.752641  0.376038  1
