# generated using pymatgen
data_Tb4CeEr3(ReB6)4
_symmetry_space_group_name_H-M   'P 1'
_cell_length_a   3.69460000
_cell_length_b   9.17966122
_cell_length_c   11.57001306
_cell_angle_alpha   90.06064576
_cell_angle_beta   90.00000000
_cell_angle_gamma   90.00000000
_symmetry_Int_Tables_number   1
_chemical_formula_structural   Tb4CeEr3(ReB6)4
_chemical_formula_sum   'Tb4 Ce1 Er3 Re4 B24'
_cell_volume   392.39881325
_cell_formula_units_Z   1
loop_
 _symmetry_equiv_pos_site_id
 _symmetry_equiv_pos_as_xyz
  1  'x, y, z'
loop_
 _atom_site_type_symbol
 _atom_site_label
 _atom_site_symmetry_multiplicity
 _atom_site_fract_x
 _atom_site_fract_y
 _atom_site_fract_z
 _atom_site_occupancy
  Tb  Tb0  1  0.000000  0.677133  0.586845  1
  Tb  Tb1  1  0.000000  0.822989  0.085251  1
  Tb  Tb2  1  0.000000  0.176408  0.913801  1
  Tb  Tb3  1  0.000000  0.942830  0.370177  1
  Ce  Ce4  1  0.000000  0.323431  0.414162  1
  Er  Er5  1  0.000000  0.056725  0.631178  1
  Er  Er6  1  0.000000  0.443245  0.128996  1
  Er  Er7  1  0.000000  0.557070  0.870126  1
  Re  Re8  1  0.000000  0.637097  0.320607  1
  Re  Re9  1  0.000000  0.361448  0.679149  1
  Re  Re10  1  0.000000  0.140131  0.179457  1
  Re  Re11  1  0.000000  0.861161  0.820666  1
  B  B12  1  0.500000  0.553399  0.432059  1
  B  B13  1  0.500000  0.445810  0.568146  1
  B  B14  1  0.500000  0.053729  0.066931  1
  B  B15  1  0.500000  0.946438  0.932471  1
  B  B16  1  0.500000  0.748687  0.417929  1
  B  B17  1  0.500000  0.250652  0.582772  1
  B  B18  1  0.500000  0.249632  0.081195  1
  B  B19  1  0.500000  0.750337  0.918032  1
  B  B20  1  0.500000  0.791038  0.265339  1
  B  B21  1  0.500000  0.208172  0.734962  1
  B  B22  1  0.500000  0.292084  0.233697  1
  B  B23  1  0.500000  0.707910  0.765787  1
  B  B24  1  0.500000  0.630598  0.184825  1
  B  B25  1  0.500000  0.369859  0.814652  1
  B  B26  1  0.500000  0.131598  0.313395  1
  B  B27  1  0.500000  0.869344  0.686014  1
  B  B28  1  0.500000  0.983181  0.211239  1
  B  B29  1  0.500000  0.017117  0.787929  1
  B  B30  1  0.500000  0.483248  0.287114  1
  B  B31  1  0.500000  0.517538  0.713087  1
  B  B32  1  0.500000  0.599567  0.027448  1
  B  B33  1  0.500000  0.400776  0.971851  1
  B  B34  1  0.500000  0.100311  0.473308  1
  B  B35  1  0.500000  0.899304  0.529401  1
