# generated using pymatgen
data_HoTm15(ScIr3)4
_symmetry_space_group_name_H-M   'P 1'
_cell_length_a   10.65530011
_cell_length_b   10.65762602
_cell_length_c   6.22210600
_cell_angle_alpha   90.00307509
_cell_angle_beta   89.99176749
_cell_angle_gamma   89.99974239
_symmetry_Int_Tables_number   1
_chemical_formula_structural   HoTm15(ScIr3)4
_chemical_formula_sum   'Ho1 Tm15 Sc4 Ir12'
_cell_volume   706.58361620
_cell_formula_units_Z   1
loop_
 _symmetry_equiv_pos_site_id
 _symmetry_equiv_pos_as_xyz
  1  'x, y, z'
loop_
 _atom_site_type_symbol
 _atom_site_label
 _atom_site_symmetry_multiplicity
 _atom_site_fract_x
 _atom_site_fract_y
 _atom_site_fract_z
 _atom_site_occupancy
  Ho  Ho0  1  0.288321  0.086093  0.376452  1
  Tm  Tm1  1  0.288585  0.913856  0.876368  1
  Tm  Tm2  1  0.711447  0.086002  0.876437  1
  Tm  Tm3  1  0.711471  0.914004  0.376397  1
  Tm  Tm4  1  0.586000  0.788533  0.876421  1
  Tm  Tm5  1  0.586160  0.211476  0.376416  1
  Tm  Tm6  1  0.414073  0.788388  0.376461  1
  Tm  Tm7  1  0.414119  0.211537  0.876429  1
  Tm  Tm8  1  0.211397  0.414055  0.623586  1
  Tm  Tm9  1  0.211406  0.585985  0.123560  1
  Tm  Tm10  1  0.788530  0.414002  0.123569  1
  Tm  Tm11  1  0.788546  0.586010  0.623589  1
  Tm  Tm12  1  0.913947  0.711415  0.123577  1
  Tm  Tm13  1  0.913945  0.288583  0.623536  1
  Tm  Tm14  1  0.085947  0.711424  0.623571  1
  Tm  Tm15  1  0.085868  0.288651  0.123468  1
  Sc  Sc16  1  0.000200  0.000082  0.500017  1
  Sc  Sc17  1  0.000026  0.999988  0.999912  1
  Sc  Sc18  1  0.499917  0.500091  0.999740  1
  Sc  Sc19  1  0.499781  0.499905  0.500017  1
  Ir  Ir20  1  0.850830  0.149130  0.249984  1
  Ir  Ir21  1  0.850792  0.850892  0.749981  1
  Ir  Ir22  1  0.148767  0.149360  0.750885  1
  Ir  Ir23  1  0.148907  0.850439  0.249829  1
  Ir  Ir24  1  0.649136  0.350937  0.749959  1
  Ir  Ir25  1  0.649083  0.649128  0.249983  1
  Ir  Ir26  1  0.351011  0.351373  0.249772  1
  Ir  Ir27  1  0.350851  0.649074  0.749993  1
  Ir  Ir28  1  0.500502  0.999766  0.122327  1
  Ir  Ir29  1  0.500541  0.999784  0.623354  1
  Ir  Ir30  1  0.999945  0.499994  0.877242  1
  Ir  Ir31  1  0.999952  0.500043  0.377167  1
