# generated using pymatgen
data_Tb2Zn3Ag4
_symmetry_space_group_name_H-M   'P 1'
_cell_length_a   5.34649625
_cell_length_b   5.34649635
_cell_length_c   13.93817300
_cell_angle_alpha   90.00000000
_cell_angle_beta   90.00000000
_cell_angle_gamma   119.73493926
_symmetry_Int_Tables_number   1
_chemical_formula_structural   Tb2Zn3Ag4
_chemical_formula_sum   'Tb4 Zn6 Ag8'
_cell_volume   345.96232557
_cell_formula_units_Z   2
loop_
 _symmetry_equiv_pos_site_id
 _symmetry_equiv_pos_as_xyz
  1  'x, y, z'
loop_
 _atom_site_type_symbol
 _atom_site_label
 _atom_site_symmetry_multiplicity
 _atom_site_fract_x
 _atom_site_fract_y
 _atom_site_fract_z
 _atom_site_occupancy
  Tb  Tb0  1  0.818540  0.818540  0.120935  1
  Tb  Tb1  1  0.181460  0.181460  0.879065  1
  Tb  Tb2  1  0.818540  0.818540  0.379065  1
  Tb  Tb3  1  0.181460  0.181460  0.620935  1
  Zn  Zn4  1  0.173914  0.677492  0.750000  1
  Zn  Zn5  1  0.677492  0.173914  0.750000  1
  Zn  Zn6  1  0.677821  0.677821  0.750000  1
  Zn  Zn7  1  0.322508  0.826086  0.250000  1
  Zn  Zn8  1  0.826086  0.322508  0.250000  1
  Zn  Zn9  1  0.322179  0.322179  0.250000  1
  Ag  Ag10  1  0.161286  0.484155  0.077659  1
  Ag  Ag11  1  0.515845  0.838714  0.922341  1
  Ag  Ag12  1  0.484155  0.161286  0.077659  1
  Ag  Ag13  1  0.838714  0.515845  0.577659  1
  Ag  Ag14  1  0.484155  0.161286  0.422341  1
  Ag  Ag15  1  0.838714  0.515845  0.922341  1
  Ag  Ag16  1  0.515845  0.838714  0.577659  1
  Ag  Ag17  1  0.161286  0.484155  0.422341  1
