# generated using pymatgen
data_LaFe7CoP5
_symmetry_space_group_name_H-M   'P 1'
_cell_length_a   3.60667400
_cell_length_b   9.15630100
_cell_length_c   10.55322000
_cell_angle_alpha   90.00000000
_cell_angle_beta   90.00000000
_cell_angle_gamma   90.00000000
_symmetry_Int_Tables_number   1
_chemical_formula_structural   LaFe7CoP5
_chemical_formula_sum   'La2 Fe14 Co2 P10'
_cell_volume   348.50735016
_cell_formula_units_Z   2
loop_
 _symmetry_equiv_pos_site_id
 _symmetry_equiv_pos_as_xyz
  1  'x, y, z'
loop_
 _atom_site_type_symbol
 _atom_site_label
 _atom_site_symmetry_multiplicity
 _atom_site_fract_x
 _atom_site_fract_y
 _atom_site_fract_z
 _atom_site_occupancy
  La  La0  1  0.750000  0.820431  0.750000  1
  La  La1  1  0.250000  0.179569  0.250000  1
  Fe  Fe2  1  0.750000  0.518481  0.918915  1
  Fe  Fe3  1  0.750000  0.518481  0.581085  1
  Fe  Fe4  1  0.250000  0.481519  0.081085  1
  Fe  Fe5  1  0.250000  0.481519  0.418915  1
  Fe  Fe6  1  0.750000  0.109523  0.991017  1
  Fe  Fe7  1  0.750000  0.109523  0.508983  1
  Fe  Fe8  1  0.250000  0.890477  0.008983  1
  Fe  Fe9  1  0.250000  0.890477  0.491017  1
  Fe  Fe10  1  0.750000  0.693686  0.106213  1
  Fe  Fe11  1  0.750000  0.693686  0.393787  1
  Fe  Fe12  1  0.250000  0.306314  0.893787  1
  Fe  Fe13  1  0.250000  0.306314  0.606213  1
  Fe  Fe14  1  0.750000  0.153248  0.750000  1
  Fe  Fe15  1  0.250000  0.846752  0.250000  1
  Co  Co16  1  0.250000  0.545662  0.750000  1
  Co  Co17  1  0.750000  0.454338  0.250000  1
  P  P18  1  0.750000  0.933259  0.130134  1
  P  P19  1  0.750000  0.933259  0.369866  1
  P  P20  1  0.250000  0.066741  0.869866  1
  P  P21  1  0.250000  0.066741  0.630134  1
  P  P22  1  0.750000  0.339815  0.059048  1
  P  P23  1  0.750000  0.339815  0.440952  1
  P  P24  1  0.250000  0.660185  0.940952  1
  P  P25  1  0.250000  0.660185  0.559048  1
  P  P26  1  0.750000  0.389022  0.750000  1
  P  P27  1  0.250000  0.610978  0.250000  1
