# generated using pymatgen
data_La4Pd3RhPb2
_symmetry_space_group_name_H-M   'P 1'
_cell_length_a   8.01476573
_cell_length_b   8.01476573
_cell_length_c   3.93674200
_cell_angle_alpha   90.00000000
_cell_angle_beta   90.00000000
_cell_angle_gamma   89.74574636
_symmetry_Int_Tables_number   1
_chemical_formula_structural   La4Pd3RhPb2
_chemical_formula_sum   'La4 Pd3 Rh1 Pb2'
_cell_volume   252.87991825
_cell_formula_units_Z   1
loop_
 _symmetry_equiv_pos_site_id
 _symmetry_equiv_pos_as_xyz
  1  'x, y, z'
loop_
 _atom_site_type_symbol
 _atom_site_label
 _atom_site_symmetry_multiplicity
 _atom_site_fract_x
 _atom_site_fract_y
 _atom_site_fract_z
 _atom_site_occupancy
  La  La0  1  0.669825  0.177217  0.500000  1
  La  La1  1  0.185357  0.314643  0.500000  1
  La  La2  1  0.823114  0.676886  0.500000  1
  La  La3  1  0.322783  0.830175  0.500000  1
  Pd  Pd4  1  0.124155  0.624665  0.000000  1
  Pd  Pd5  1  0.625350  0.874650  0.000000  1
  Pd  Pd6  1  0.875335  0.375845  0.000000  1
  Rh  Rh7  1  0.372268  0.127732  0.000000  1
  Pb  Pb8  1  0.001977  0.000164  0.000000  1
  Pb  Pb9  1  0.499836  0.498023  0.000000  1
