# generated using pymatgen
data_HfZr4Co16Si7W
_symmetry_space_group_name_H-M   'P 1'
_cell_length_a   7.98087731
_cell_length_b   8.00703957
_cell_length_c   8.00677516
_cell_angle_alpha   59.78501940
_cell_angle_beta   60.10914065
_cell_angle_gamma   60.14074200
_symmetry_Int_Tables_number   1
_chemical_formula_structural   HfZr4Co16Si7W
_chemical_formula_sum   'Hf1 Zr4 Co16 Si7 W1'
_cell_volume   361.88413610
_cell_formula_units_Z   1
loop_
 _symmetry_equiv_pos_site_id
 _symmetry_equiv_pos_as_xyz
  1  'x, y, z'
loop_
 _atom_site_type_symbol
 _atom_site_label
 _atom_site_symmetry_multiplicity
 _atom_site_fract_x
 _atom_site_fract_y
 _atom_site_fract_z
 _atom_site_occupancy
  Hf  Hf0  1  0.206203  0.793797  0.203601  1
  Zr  Zr1  1  0.798298  0.795346  0.202171  1
  Zr  Zr2  1  0.791023  0.208977  0.209571  1
  Zr  Zr3  1  0.204654  0.201702  0.795815  1
  Zr  Zr4  1  0.797072  0.202928  0.794431  1
  Co  Co5  1  0.618732  0.622287  0.137982  1
  Co  Co6  1  0.169369  0.496781  0.165511  1
  Co  Co7  1  0.862486  0.380031  0.379196  1
  Co  Co8  1  0.503219  0.830631  0.831658  1
  Co  Co9  1  0.485885  0.171003  0.171317  1
  Co  Co10  1  0.830301  0.828452  0.512290  1
  Co  Co11  1  0.169745  0.165911  0.494737  1
  Co  Co12  1  0.145058  0.622324  0.620904  1
  Co  Co13  1  0.171548  0.169699  0.171045  1
  Co  Co14  1  0.377680  0.389343  0.854921  1
  Co  Co15  1  0.610657  0.622320  0.621945  1
  Co  Co16  1  0.377676  0.854942  0.388283  1
  Co  Co17  1  0.377713  0.381268  0.379000  1
  Co  Co18  1  0.834089  0.830255  0.830391  1
  Co  Co19  1  0.619969  0.137514  0.621715  1
  Co  Co20  1  0.828997  0.514115  0.828203  1
  Si  Si21  1  0.498711  0.995473  0.501373  1
  Si  Si22  1  0.498751  0.501249  0.996383  1
  Si  Si23  1  0.504729  0.495271  0.495664  1
  Si  Si24  1  0.005131  0.994869  0.501335  1
  Si  Si25  1  0.004527  0.501289  0.995556  1
  Si  Si26  1  0.001692  0.499313  0.498807  1
  Si  Si27  1  0.500687  0.998308  0.999812  1
  W  W28  1  0.205399  0.794601  0.796383  1
