# generated using pymatgen
data_CsCaGaF6
_symmetry_space_group_name_H-M   'P 1'
_cell_length_a   7.90469100
_cell_length_b   7.63287600
_cell_length_c   10.48783600
_cell_angle_alpha   90.00000000
_cell_angle_beta   90.00000000
_cell_angle_gamma   90.00000000
_symmetry_Int_Tables_number   1
_chemical_formula_structural   CsCaGaF6
_chemical_formula_sum   'Cs4 Ca4 Ga4 F24'
_cell_volume   632.78910398
_cell_formula_units_Z   4
loop_
 _symmetry_equiv_pos_site_id
 _symmetry_equiv_pos_as_xyz
  1  'x, y, z'
loop_
 _atom_site_type_symbol
 _atom_site_label
 _atom_site_symmetry_multiplicity
 _atom_site_fract_x
 _atom_site_fract_y
 _atom_site_fract_z
 _atom_site_occupancy
  Cs  Cs0  1  0.021195  0.250000  0.630213  1
  Cs  Cs1  1  0.978805  0.750000  0.369787  1
  Cs  Cs2  1  0.478805  0.750000  0.130213  1
  Cs  Cs3  1  0.521195  0.250000  0.869787  1
  Ca  Ca4  1  0.212339  0.250000  0.251254  1
  Ca  Ca5  1  0.787661  0.750000  0.748746  1
  Ca  Ca6  1  0.287661  0.750000  0.751254  1
  Ca  Ca7  1  0.712339  0.250000  0.248746  1
  Ga  Ga8  1  0.000000  0.000000  0.000000  1
  Ga  Ga9  1  0.500000  0.000000  0.500000  1
  Ga  Ga10  1  0.000000  0.500000  0.000000  1
  Ga  Ga11  1  0.500000  0.500000  0.500000  1
  F  F12  1  0.303014  0.052165  0.402617  1
  F  F13  1  0.696986  0.947835  0.597383  1
  F  F14  1  0.196986  0.947835  0.902617  1
  F  F15  1  0.696986  0.552165  0.597383  1
  F  F16  1  0.803014  0.052165  0.097383  1
  F  F17  1  0.303014  0.447835  0.402617  1
  F  F18  1  0.803014  0.447835  0.097383  1
  F  F19  1  0.196986  0.552165  0.902617  1
  F  F20  1  0.563985  0.250000  0.507392  1
  F  F21  1  0.436015  0.750000  0.492608  1
  F  F22  1  0.936015  0.750000  0.007392  1
  F  F23  1  0.063985  0.250000  0.992608  1
  F  F24  1  0.131203  0.513323  0.152201  1
  F  F25  1  0.868797  0.486677  0.847799  1
  F  F26  1  0.368797  0.486677  0.652201  1
  F  F27  1  0.868797  0.013323  0.847799  1
  F  F28  1  0.631203  0.513323  0.347799  1
  F  F29  1  0.131203  0.986677  0.152201  1
  F  F30  1  0.631203  0.986677  0.347799  1
  F  F31  1  0.368797  0.013323  0.652201  1
  F  F32  1  0.460480  0.250000  0.153067  1
  F  F33  1  0.539520  0.750000  0.846933  1
  F  F34  1  0.039520  0.750000  0.653067  1
  F  F35  1  0.960480  0.250000  0.346933  1
