# generated using pymatgen
data_Hf8MnNiBi4
_symmetry_space_group_name_H-M   'P 1'
_cell_length_a   8.26325806
_cell_length_b   8.26325005
_cell_length_c   8.26325877
_cell_angle_alpha   95.76919540
_cell_angle_beta   95.76979867
_cell_angle_gamma   143.02971721
_symmetry_Int_Tables_number   1
_chemical_formula_structural   Hf8MnNiBi4
_chemical_formula_sum   'Hf8 Mn1 Ni1 Bi4'
_cell_volume   321.81891405
_cell_formula_units_Z   1
loop_
 _symmetry_equiv_pos_site_id
 _symmetry_equiv_pos_as_xyz
  1  'x, y, z'
loop_
 _atom_site_type_symbol
 _atom_site_label
 _atom_site_symmetry_multiplicity
 _atom_site_fract_x
 _atom_site_fract_y
 _atom_site_fract_z
 _atom_site_occupancy
  Hf  Hf0  1  0.697102  0.584276  0.275047  1
  Hf  Hf1  1  0.309230  0.422053  0.724951  1
  Hf  Hf2  1  0.584281  0.309232  0.887179  1
  Hf  Hf3  1  0.077947  0.190768  0.275049  1
  Hf  Hf4  1  0.802898  0.077947  0.887177  1
  Hf  Hf5  1  0.422057  0.697105  0.112828  1
  Hf  Hf6  1  0.915723  0.802895  0.724952  1
  Hf  Hf7  1  0.190771  0.915724  0.112826  1
  Mn  Mn8  1  0.750003  0.750000  0.000003  1
  Ni  Ni9  1  0.249993  0.250000  0.999993  1
  Bi  Bi10  1  0.138290  0.638294  0.776583  1
  Bi  Bi11  1  0.361708  0.138289  0.499996  1
  Bi  Bi12  1  0.861707  0.361711  0.223418  1
  Bi  Bi13  1  0.638289  0.861706  0.499996  1
