# generated using pymatgen
data_Pr3Nd(Re2Br)2
_symmetry_space_group_name_H-M   'P 1'
_cell_length_a   4.20213000
_cell_length_b   4.20213008
_cell_length_c   17.78928800
_cell_angle_alpha   90.00000000
_cell_angle_beta   90.00000000
_cell_angle_gamma   119.99998362
_symmetry_Int_Tables_number   1
_chemical_formula_structural   Pr3Nd(Re2Br)2
_chemical_formula_sum   'Pr3 Nd1 Re4 Br2'
_cell_volume   272.03716839
_cell_formula_units_Z   1
loop_
 _symmetry_equiv_pos_site_id
 _symmetry_equiv_pos_as_xyz
  1  'x, y, z'
loop_
 _atom_site_type_symbol
 _atom_site_label
 _atom_site_symmetry_multiplicity
 _atom_site_fract_x
 _atom_site_fract_y
 _atom_site_fract_z
 _atom_site_occupancy
  Pr  Pr0  1  0.000000  0.000000  0.118292  1
  Pr  Pr1  1  0.000000  0.000000  0.381236  1
  Pr  Pr2  1  0.000000  0.000000  0.618931  1
  Nd  Nd3  1  0.000000  0.000000  0.882023  1
  Re  Re4  1  0.666666  0.333332  0.015495  1
  Re  Re5  1  0.333334  0.666667  0.983369  1
  Re  Re6  1  0.666666  0.333332  0.483894  1
  Re  Re7  1  0.333334  0.666667  0.516177  1
  Br  Br8  1  0.333334  0.666667  0.249970  1
  Br  Br9  1  0.666666  0.333332  0.750612  1
