# generated using pymatgen
data_Pr3Nd5Cd2IrPd
_symmetry_space_group_name_H-M   'P 1'
_cell_length_a   10.01296585
_cell_length_b   10.01296544
_cell_length_c   9.98727300
_cell_angle_alpha   60.08484692
_cell_angle_beta   60.08484828
_cell_angle_gamma   60.25191419
_symmetry_Int_Tables_number   1
_chemical_formula_structural   Pr3Nd5Cd2IrPd
_chemical_formula_sum   'Pr6 Nd10 Cd4 Ir2 Pd2'
_cell_volume   710.28933355
_cell_formula_units_Z   2
loop_
 _symmetry_equiv_pos_site_id
 _symmetry_equiv_pos_as_xyz
  1  'x, y, z'
loop_
 _atom_site_type_symbol
 _atom_site_label
 _atom_site_symmetry_multiplicity
 _atom_site_fract_x
 _atom_site_fract_y
 _atom_site_fract_z
 _atom_site_occupancy
  Pr  Pr0  1  0.939330  0.564460  0.560629  1
  Pr  Pr1  1  0.564460  0.939330  0.935581  1
  Pr  Pr2  1  0.564460  0.939330  0.560629  1
  Pr  Pr3  1  0.939330  0.564460  0.935581  1
  Pr  Pr4  1  0.562457  0.562457  0.937543  1
  Pr  Pr5  1  0.937997  0.937997  0.562003  1
  Nd  Nd6  1  0.350467  0.350467  0.344750  1
  Nd  Nd7  1  0.350467  0.350467  0.954315  1
  Nd  Nd8  1  0.356577  0.945244  0.349088  1
  Nd  Nd9  1  0.945244  0.356577  0.349088  1
  Nd  Nd10  1  0.804826  0.190630  0.190105  1
  Nd  Nd11  1  0.190630  0.804826  0.814439  1
  Nd  Nd12  1  0.190630  0.804826  0.190105  1
  Nd  Nd13  1  0.804826  0.190630  0.814439  1
  Nd  Nd14  1  0.191699  0.191699  0.808301  1
  Nd  Nd15  1  0.810495  0.810495  0.189505  1
  Cd  Cd16  1  0.580262  0.580262  0.580473  1
  Cd  Cd17  1  0.580262  0.580262  0.259002  1
  Cd  Cd18  1  0.579225  0.259857  0.580459  1
  Cd  Cd19  1  0.259857  0.579225  0.580459  1
  Ir  Ir20  1  0.140918  0.572000  0.143541  1
  Ir  Ir21  1  0.572000  0.140918  0.143541  1
  Pd  Pd22  1  0.141789  0.141789  0.146402  1
  Pd  Pd23  1  0.141789  0.141789  0.570020  1
