# generated using pymatgen
data_Y2HoTm2Bi3
_symmetry_space_group_name_H-M   'P 1'
_cell_length_a   8.23758900
_cell_length_b   9.46754800
_cell_length_c   12.05365700
_cell_angle_alpha   90.00000000
_cell_angle_beta   90.00000000
_cell_angle_gamma   90.00000000
_symmetry_Int_Tables_number   1
_chemical_formula_structural   Y2HoTm2Bi3
_chemical_formula_sum   'Y8 Ho4 Tm8 Bi12'
_cell_volume   940.06192819
_cell_formula_units_Z   4
loop_
 _symmetry_equiv_pos_site_id
 _symmetry_equiv_pos_as_xyz
  1  'x, y, z'
loop_
 _atom_site_type_symbol
 _atom_site_label
 _atom_site_symmetry_multiplicity
 _atom_site_fract_x
 _atom_site_fract_y
 _atom_site_fract_z
 _atom_site_occupancy
  Y  Y0  1  0.186403  0.750047  0.718708  1
  Y  Y1  1  0.686403  0.749953  0.781292  1
  Y  Y2  1  0.813597  0.250047  0.281292  1
  Y  Y3  1  0.313597  0.249953  0.218708  1
  Y  Y4  1  0.353691  0.749979  0.215997  1
  Y  Y5  1  0.853691  0.750021  0.284003  1
  Y  Y6  1  0.646309  0.249979  0.784003  1
  Y  Y7  1  0.146309  0.250021  0.715997  1
  Ho  Ho8  1  0.306694  0.434762  0.940410  1
  Ho  Ho9  1  0.806694  0.065238  0.559590  1
  Ho  Ho10  1  0.693306  0.934762  0.059590  1
  Ho  Ho11  1  0.193306  0.565238  0.440410  1
  Tm  Tm12  1  0.025223  0.749959  0.989065  1
  Tm  Tm13  1  0.525223  0.750041  0.510935  1
  Tm  Tm14  1  0.974777  0.249959  0.010935  1
  Tm  Tm15  1  0.474777  0.250041  0.489065  1
  Tm  Tm16  1  0.693253  0.565510  0.059546  1
  Tm  Tm17  1  0.193253  0.934490  0.440454  1
  Tm  Tm18  1  0.306747  0.065510  0.940454  1
  Tm  Tm19  1  0.806747  0.434490  0.559546  1
  Bi  Bi20  1  0.433862  0.003875  0.672468  1
  Bi  Bi21  1  0.933862  0.496125  0.827532  1
  Bi  Bi22  1  0.566138  0.503875  0.327532  1
  Bi  Bi23  1  0.066138  0.996125  0.172468  1
  Bi  Bi24  1  0.566049  0.996178  0.327508  1
  Bi  Bi25  1  0.066049  0.503822  0.172492  1
  Bi  Bi26  1  0.433951  0.496178  0.672492  1
  Bi  Bi27  1  0.933951  0.003822  0.827508  1
  Bi  Bi28  1  0.406951  0.750346  0.957944  1
  Bi  Bi29  1  0.906951  0.749654  0.542056  1
  Bi  Bi30  1  0.593049  0.250346  0.042056  1
  Bi  Bi31  1  0.093049  0.249654  0.457944  1
