# generated using pymatgen
data_Nb18CoNi4GePt4
_symmetry_space_group_name_H-M   'P 1'
_cell_length_a   5.12548543
_cell_length_b   9.81320293
_cell_length_c   9.81320286
_cell_angle_alpha   86.08935558
_cell_angle_beta   74.86154053
_cell_angle_gamma   74.86154600
_symmetry_Int_Tables_number   1
_chemical_formula_structural   Nb18CoNi4GePt4
_chemical_formula_sum   'Nb18 Co1 Ni4 Ge1 Pt4'
_cell_volume   459.91648871
_cell_formula_units_Z   1
loop_
 _symmetry_equiv_pos_site_id
 _symmetry_equiv_pos_as_xyz
  1  'x, y, z'
loop_
 _atom_site_type_symbol
 _atom_site_label
 _atom_site_symmetry_multiplicity
 _atom_site_fract_x
 _atom_site_fract_y
 _atom_site_fract_z
 _atom_site_occupancy
  Nb  Nb0  1  0.750000  0.500000  0.500000  1
  Nb  Nb1  1  0.250000  0.500000  0.500000  1
  Nb  Nb2  1  0.789264  0.780763  0.638586  1
  Nb  Nb3  1  0.208615  0.219237  0.361414  1
  Nb  Nb4  1  0.710736  0.361414  0.219237  1
  Nb  Nb5  1  0.291385  0.638586  0.780763  1
  Nb  Nb6  1  0.570029  0.638586  0.219237  1
  Nb  Nb7  1  0.427850  0.361414  0.780763  1
  Nb  Nb8  1  0.072150  0.219237  0.638586  1
  Nb  Nb9  1  0.929971  0.780763  0.361414  1
  Nb  Nb10  1  0.579685  0.077189  0.758979  1
  Nb  Nb11  1  0.415852  0.922811  0.241021  1
  Nb  Nb12  1  0.920315  0.241021  0.922811  1
  Nb  Nb13  1  0.084148  0.758979  0.077189  1
  Nb  Nb14  1  0.656874  0.758979  0.922811  1
  Nb  Nb15  1  0.338663  0.241021  0.077189  1
  Nb  Nb16  1  0.161337  0.922811  0.758979  1
  Nb  Nb17  1  0.843126  0.077189  0.241021  1
  Co  Co18  1  0.250000  0.000000  0.000000  1
  Ni  Ni19  1  0.499739  0.000000  0.500523  1
  Ni  Ni20  1  0.000261  0.000000  0.499477  1
  Ni  Ni21  1  0.499739  0.500523  0.000000  1
  Ni  Ni22  1  0.000261  0.499477  0.000000  1
  Ge  Ge23  1  0.750000  0.000000  0.000000  1
  Pt  Pt24  1  0.130625  0.500000  0.238749  1
  Pt  Pt25  1  0.869375  0.500000  0.761251  1
  Pt  Pt26  1  0.369375  0.761251  0.500000  1
  Pt  Pt27  1  0.630625  0.238749  0.500000  1
