# generated using pymatgen
data_SrPr7(Si3Pt)4
_symmetry_space_group_name_H-M   'P 1'
_cell_length_a   8.26567203
_cell_length_b   8.26567219
_cell_length_c   8.74611500
_cell_angle_alpha   90.00000000
_cell_angle_beta   90.00000000
_cell_angle_gamma   119.93852061
_symmetry_Int_Tables_number   1
_chemical_formula_structural   SrPr7(Si3Pt)4
_chemical_formula_sum   'Sr1 Pr7 Si12 Pt4'
_cell_volume   517.81052913
_cell_formula_units_Z   1
loop_
 _symmetry_equiv_pos_site_id
 _symmetry_equiv_pos_as_xyz
  1  'x, y, z'
loop_
 _atom_site_type_symbol
 _atom_site_label
 _atom_site_symmetry_multiplicity
 _atom_site_fract_x
 _atom_site_fract_y
 _atom_site_fract_z
 _atom_site_occupancy
  Sr  Sr0  1  0.499375  0.500625  0.750000  1
  Pr  Pr1  1  0.500514  0.499486  0.250000  1
  Pr  Pr2  1  0.001042  0.500468  0.750000  1
  Pr  Pr3  1  0.999016  0.499493  0.250000  1
  Pr  Pr4  1  0.499532  0.998958  0.750000  1
  Pr  Pr5  1  0.500507  0.000984  0.250000  1
  Pr  Pr6  1  0.999994  0.000006  0.750000  1
  Pr  Pr7  1  0.999944  0.000056  0.250000  1
  Si  Si8  1  0.834257  0.165743  0.001136  1
  Si  Si9  1  0.165750  0.834250  0.999484  1
  Si  Si10  1  0.331885  0.165358  0.002652  1
  Si  Si11  1  0.165750  0.834250  0.500516  1
  Si  Si12  1  0.668169  0.834692  0.001152  1
  Si  Si13  1  0.834257  0.165743  0.498864  1
  Si  Si14  1  0.834642  0.668115  0.002652  1
  Si  Si15  1  0.668169  0.834692  0.498848  1
  Si  Si16  1  0.165308  0.331831  0.001152  1
  Si  Si17  1  0.331885  0.165358  0.497348  1
  Si  Si18  1  0.165308  0.331831  0.498848  1
  Si  Si19  1  0.834642  0.668115  0.497348  1
  Pt  Pt20  1  0.667284  0.332716  0.000130  1
  Pt  Pt21  1  0.332743  0.667257  0.004653  1
  Pt  Pt22  1  0.332743  0.667257  0.495347  1
  Pt  Pt23  1  0.667284  0.332716  0.499870  1
