# generated using pymatgen
data_SrAc3(ZnGe)4
_symmetry_space_group_name_H-M   'P 1'
_cell_length_a   4.35167700
_cell_length_b   4.35167776
_cell_length_c   18.13349400
_cell_angle_alpha   90.00000000
_cell_angle_beta   90.00000000
_cell_angle_gamma   119.99998660
_symmetry_Int_Tables_number   1
_chemical_formula_structural   SrAc3(ZnGe)4
_chemical_formula_sum   'Sr1 Ac3 Zn4 Ge4'
_cell_volume   297.38945482
_cell_formula_units_Z   1
loop_
 _symmetry_equiv_pos_site_id
 _symmetry_equiv_pos_as_xyz
  1  'x, y, z'
loop_
 _atom_site_type_symbol
 _atom_site_label
 _atom_site_symmetry_multiplicity
 _atom_site_fract_x
 _atom_site_fract_y
 _atom_site_fract_z
 _atom_site_occupancy
  Sr  Sr0  1  0.000000  0.000000  0.500000  1
  Ac  Ac1  1  0.000000  0.000000  0.252352  1
  Ac  Ac2  1  0.000000  0.000000  0.747648  1
  Ac  Ac3  1  0.000000  0.000000  0.000000  1
  Zn  Zn4  1  0.333333  0.666667  0.130675  1
  Zn  Zn5  1  0.666667  0.333333  0.869325  1
  Zn  Zn6  1  0.666667  0.333333  0.630364  1
  Zn  Zn7  1  0.333333  0.666667  0.369636  1
  Ge  Ge8  1  0.333333  0.666667  0.622446  1
  Ge  Ge9  1  0.666667  0.333333  0.377554  1
  Ge  Ge10  1  0.666667  0.333333  0.122288  1
  Ge  Ge11  1  0.333333  0.666667  0.877712  1
