# generated using pymatgen
data_La4Ag3Pd5
_symmetry_space_group_name_H-M   'P 1'
_cell_length_a   7.41213573
_cell_length_b   4.26782500
_cell_length_c   8.68237500
_cell_angle_alpha   90.00000000
_cell_angle_beta   90.41532086
_cell_angle_gamma   90.00000000
_symmetry_Int_Tables_number   1
_chemical_formula_structural   La4Ag3Pd5
_chemical_formula_sum   'La4 Ag3 Pd5'
_cell_volume   274.64841447
_cell_formula_units_Z   1
loop_
 _symmetry_equiv_pos_site_id
 _symmetry_equiv_pos_as_xyz
  1  'x, y, z'
loop_
 _atom_site_type_symbol
 _atom_site_label
 _atom_site_symmetry_multiplicity
 _atom_site_fract_x
 _atom_site_fract_y
 _atom_site_fract_z
 _atom_site_occupancy
  La  La0  1  0.047915  0.250000  0.301361  1
  La  La1  1  0.562471  0.250000  0.184820  1
  La  La2  1  0.946113  0.750000  0.693926  1
  La  La3  1  0.449461  0.750000  0.812054  1
  Ag  Ag4  1  0.622197  0.250000  0.561133  1
  Ag  Ag5  1  0.123798  0.250000  0.939181  1
  Ag  Ag6  1  0.370667  0.750000  0.437516  1
  Pd  Pd7  1  0.875704  0.750000  0.067549  1
  Pd  Pd8  1  0.234013  0.250000  0.624685  1
  Pd  Pd9  1  0.739278  0.250000  0.875924  1
  Pd  Pd10  1  0.761800  0.750000  0.381512  1
  Pd  Pd11  1  0.266584  0.750000  0.120339  1
