# generated using pymatgen
data_Sc12Hg2MoI16
_symmetry_space_group_name_H-M   'P 1'
_cell_length_a   9.48930382
_cell_length_b   12.14878865
_cell_length_c   12.92389603
_cell_angle_alpha   116.81006805
_cell_angle_beta   101.56300576
_cell_angle_gamma   100.80970902
_symmetry_Int_Tables_number   1
_chemical_formula_structural   Sc12Hg2MoI16
_chemical_formula_sum   'Sc12 Hg2 Mo1 I16'
_cell_volume   1235.19405955
_cell_formula_units_Z   1
loop_
 _symmetry_equiv_pos_site_id
 _symmetry_equiv_pos_as_xyz
  1  'x, y, z'
loop_
 _atom_site_type_symbol
 _atom_site_label
 _atom_site_symmetry_multiplicity
 _atom_site_fract_x
 _atom_site_fract_y
 _atom_site_fract_z
 _atom_site_occupancy
  Sc  Sc0  1  0.090466  0.258197  0.351729  1
  Sc  Sc1  1  0.900403  0.727302  0.639474  1
  Sc  Sc2  1  0.771586  0.536675  0.333521  1
  Sc  Sc3  1  0.227730  0.460801  0.677098  1
  Sc  Sc4  1  0.287044  0.742128  0.647043  1
  Sc  Sc5  1  0.715212  0.272208  0.361573  1
  Sc  Sc6  1  0.149920  0.539487  0.322156  1
  Sc  Sc7  1  0.843827  0.462904  0.667556  1
  Sc  Sc8  1  0.422924  0.362451  0.279120  1
  Sc  Sc9  1  0.608819  0.637687  0.720947  1
  Sc  Sc10  1  0.474878  0.309405  0.520248  1
  Sc  Sc11  1  0.556390  0.690876  0.479771  1
  Hg  Hg12  1  0.997515  0.499767  0.500398  1
  Hg  Hg13  1  0.344763  0.500353  0.499669  1
  Mo  Mo14  1  0.659810  0.499872  0.500277  1
  I  I15  1  0.394176  0.732852  0.873080  1
  I  I16  1  0.606541  0.262028  0.118590  1
  I  I17  1  0.183900  0.955428  0.777003  1
  I  I18  1  0.814469  0.044631  0.222966  1
  I  I19  1  0.321324  0.099611  0.255369  1
  I  I20  1  0.646470  0.900455  0.744402  1
  I  I21  1  0.548114  0.435135  0.793932  1
  I  I22  1  0.419882  0.565086  0.206245  1
  I  I23  1  0.306083  0.823297  0.465102  1
  I  I24  1  0.695776  0.169853  0.535767  1
  I  I25  1  0.169358  0.177495  0.533842  1
  I  I26  1  0.836870  0.829010  0.465082  1
  I  I27  1  0.925509  0.575522  0.167371  1
  I  I28  1  0.072638  0.424350  0.832413  1
  I  I29  1  0.928154  0.737576  0.882274  1
  I  I30  1  0.079448  0.267557  0.125982  1
