# generated using pymatgen
data_Ce3U7Se20
_symmetry_space_group_name_H-M   'P 1'
_cell_length_a   10.74342882
_cell_length_b   10.74979256
_cell_length_c   6.60784654
_cell_angle_alpha   89.80033686
_cell_angle_beta   89.77906640
_cell_angle_gamma   89.89907663
_symmetry_Int_Tables_number   1
_chemical_formula_structural   Ce3U7Se20
_chemical_formula_sum   'Ce3 U7 Se20'
_cell_volume   763.12628714
_cell_formula_units_Z   1
loop_
 _symmetry_equiv_pos_site_id
 _symmetry_equiv_pos_as_xyz
  1  'x, y, z'
loop_
 _atom_site_type_symbol
 _atom_site_label
 _atom_site_symmetry_multiplicity
 _atom_site_fract_x
 _atom_site_fract_y
 _atom_site_fract_z
 _atom_site_occupancy
  Ce  Ce0  1  0.841113  0.152437  0.247853  1
  Ce  Ce1  1  0.499032  0.999952  0.860899  1
  Ce  Ce2  1  0.000464  0.500375  0.138836  1
  U  U3  1  0.653953  0.658517  0.251595  1
  U  U4  1  0.346993  0.340445  0.249934  1
  U  U5  1  0.160052  0.845579  0.251120  1
  U  U6  1  0.338884  0.654381  0.751447  1
  U  U7  1  0.154361  0.161633  0.751633  1
  U  U8  1  0.845646  0.839406  0.749533  1
  U  U9  1  0.659694  0.346214  0.748821  1
  Se  Se10  1  0.711449  0.089541  0.626805  1
  Se  Se11  1  0.590383  0.787116  0.615115  1
  Se  Se12  1  0.408901  0.211559  0.614788  1
  Se  Se13  1  0.290303  0.908548  0.614819  1
  Se  Se14  1  0.709287  0.906244  0.109408  1
  Se  Se15  1  0.584753  0.212941  0.111112  1
  Se  Se16  1  0.409811  0.787501  0.111124  1
  Se  Se17  1  0.286696  0.090430  0.111800  1
  Se  Se18  1  0.500121  0.501124  0.999181  1
  Se  Se19  1  0.002409  0.996872  0.996054  1
  Se  Se20  1  0.213373  0.410843  0.888323  1
  Se  Se21  1  0.089965  0.711196  0.887496  1
  Se  Se22  1  0.913086  0.291333  0.879142  1
  Se  Se23  1  0.787679  0.589588  0.889466  1
  Se  Se24  1  0.498033  0.499042  0.501389  1
  Se  Se25  1  0.003338  0.997754  0.503235  1
  Se  Se26  1  0.211248  0.591470  0.385146  1
  Se  Se27  1  0.093171  0.291160  0.386040  1
  Se  Se28  1  0.908855  0.712242  0.383593  1
  Se  Se29  1  0.786954  0.414557  0.384294  1
