# generated using pymatgen
data_Nb12CrSi4Os7N4
_symmetry_space_group_name_H-M   'P 1'
_cell_length_a   8.22082117
_cell_length_b   8.22082176
_cell_length_c   8.22082178
_cell_angle_alpha   60.32667640
_cell_angle_beta   60.32666499
_cell_angle_gamma   60.32667612
_symmetry_Int_Tables_number   1
_chemical_formula_structural   Nb12CrSi4Os7N4
_chemical_formula_sum   'Nb12 Cr1 Si4 Os7 N4'
_cell_volume   395.75714728
_cell_formula_units_Z   1
loop_
 _symmetry_equiv_pos_site_id
 _symmetry_equiv_pos_as_xyz
  1  'x, y, z'
loop_
 _atom_site_type_symbol
 _atom_site_label
 _atom_site_symmetry_multiplicity
 _atom_site_fract_x
 _atom_site_fract_y
 _atom_site_fract_z
 _atom_site_occupancy
  Nb  Nb0  1  0.806245  0.806245  0.187846  1
  Nb  Nb1  1  0.196179  0.196179  0.804739  1
  Nb  Nb2  1  0.806245  0.187846  0.806245  1
  Nb  Nb3  1  0.196179  0.804739  0.196179  1
  Nb  Nb4  1  0.187846  0.806245  0.806245  1
  Nb  Nb5  1  0.804739  0.196179  0.196179  1
  Nb  Nb6  1  0.445599  0.445599  0.053390  1
  Nb  Nb7  1  0.053137  0.053137  0.446921  1
  Nb  Nb8  1  0.445599  0.053390  0.445599  1
  Nb  Nb9  1  0.053137  0.446921  0.053137  1
  Nb  Nb10  1  0.053390  0.445599  0.445599  1
  Nb  Nb11  1  0.446921  0.053137  0.053137  1
  Cr  Cr12  1  0.831703  0.831703  0.831703  1
  Si  Si13  1  0.122523  0.628719  0.628719  1
  Si  Si14  1  0.628719  0.122523  0.628719  1
  Si  Si15  1  0.628719  0.628719  0.122523  1
  Si  Si16  1  0.625267  0.625267  0.625267  1
  Os  Os17  1  0.748907  0.417205  0.417205  1
  Os  Os18  1  0.417205  0.748907  0.417205  1
  Os  Os19  1  0.417205  0.417205  0.748907  1
  Os  Os20  1  0.416538  0.416538  0.416538  1
  Os  Os21  1  0.501464  0.833474  0.833474  1
  Os  Os22  1  0.833474  0.501464  0.833474  1
  Os  Os23  1  0.833474  0.833474  0.501464  1
  N  N24  1  0.625676  0.124754  0.124754  1
  N  N25  1  0.124754  0.625676  0.124754  1
  N  N26  1  0.124754  0.124754  0.625676  1
  N  N27  1  0.124401  0.124401  0.124401  1
