# generated using pymatgen
data_Rb6HoLuF12
_symmetry_space_group_name_H-M   'P 1'
_cell_length_a   6.85990627
_cell_length_b   6.61787883
_cell_length_c   11.50017931
_cell_angle_alpha   55.26956411
_cell_angle_beta   89.92437411
_cell_angle_gamma   90.02448214
_symmetry_Int_Tables_number   1
_chemical_formula_structural   Rb6HoLuF12
_chemical_formula_sum   'Rb6 Ho1 Lu1 F12'
_cell_volume   429.07069880
_cell_formula_units_Z   1
loop_
 _symmetry_equiv_pos_site_id
 _symmetry_equiv_pos_as_xyz
  1  'x, y, z'
loop_
 _atom_site_type_symbol
 _atom_site_label
 _atom_site_symmetry_multiplicity
 _atom_site_fract_x
 _atom_site_fract_y
 _atom_site_fract_z
 _atom_site_occupancy
  Rb  Rb0  1  0.500000  0.500000  0.000000  1
  Rb  Rb1  1  0.000000  0.500000  0.500000  1
  Rb  Rb2  1  0.049905  0.735918  0.749942  1
  Rb  Rb3  1  0.950095  0.264082  0.250058  1
  Rb  Rb4  1  0.549246  0.269465  0.743933  1
  Rb  Rb5  1  0.450754  0.730535  0.256067  1
  Ho  Ho6  1  0.000000  0.000000  0.000000  1
  Lu  Lu7  1  0.500000  0.000000  0.500000  1
  F  F8  1  0.756241  0.777170  0.561387  1
  F  F9  1  0.243759  0.222830  0.438613  1
  F  F10  1  0.263072  0.227013  0.933529  1
  F  F11  1  0.736928  0.772987  0.066471  1
  F  F12  1  0.452348  0.888069  0.712289  1
  F  F13  1  0.547652  0.111931  0.287711  1
  F  F14  1  0.949199  0.112117  0.783423  1
  F  F15  1  0.050801  0.887883  0.216577  1
  F  F16  1  0.329952  0.694396  0.543429  1
  F  F17  1  0.670048  0.305604  0.456571  1
  F  F18  1  0.830061  0.316426  0.953167  1
  F  F19  1  0.169939  0.683574  0.046833  1
