# generated using pymatgen
data_TbDy7Nb12Si15Ge
_symmetry_space_group_name_H-M   'P 1'
_cell_length_a   6.88734475
_cell_length_b   7.08253081
_cell_length_c   13.45725332
_cell_angle_alpha   90.03595559
_cell_angle_beta   89.92832439
_cell_angle_gamma   90.01639782
_symmetry_Int_Tables_number   1
_chemical_formula_structural   TbDy7Nb12Si15Ge
_chemical_formula_sum   'Tb1 Dy7 Nb12 Si15 Ge1'
_cell_volume   656.44187825
_cell_formula_units_Z   1
loop_
 _symmetry_equiv_pos_site_id
 _symmetry_equiv_pos_as_xyz
  1  'x, y, z'
loop_
 _atom_site_type_symbol
 _atom_site_label
 _atom_site_symmetry_multiplicity
 _atom_site_fract_x
 _atom_site_fract_y
 _atom_site_fract_z
 _atom_site_occupancy
  Tb  Tb0  1  0.502944  0.328844  0.095680  1
  Dy  Dy1  1  0.001874  0.170961  0.403888  1
  Dy  Dy2  1  0.500119  0.673251  0.596477  1
  Dy  Dy3  1  0.997055  0.828488  0.904620  1
  Dy  Dy4  1  0.496976  0.671288  0.904464  1
  Dy  Dy5  1  0.996927  0.829309  0.595956  1
  Dy  Dy6  1  0.503395  0.327369  0.403351  1
  Dy  Dy7  1  0.002827  0.171625  0.095537  1
  Nb  Nb8  1  0.664653  0.008602  0.750165  1
  Nb  Nb9  1  0.164543  0.490553  0.751889  1
  Nb  Nb10  1  0.334988  0.991391  0.249820  1
  Nb  Nb11  1  0.835435  0.508965  0.249916  1
  Nb  Nb12  1  0.836442  0.324327  0.625918  1
  Nb  Nb13  1  0.338100  0.174964  0.874644  1
  Nb  Nb14  1  0.161677  0.675352  0.125384  1
  Nb  Nb15  1  0.661390  0.825246  0.374067  1
  Nb  Nb16  1  0.160176  0.677725  0.372915  1
  Nb  Nb17  1  0.661057  0.824708  0.125353  1
  Nb  Nb18  1  0.838185  0.324667  0.874637  1
  Nb  Nb19  1  0.340741  0.171565  0.626777  1
  Si  Si20  1  0.797226  0.625556  0.750189  1
  Si  Si21  1  0.296184  0.873331  0.750572  1
  Si  Si22  1  0.202961  0.374530  0.249838  1
  Si  Si23  1  0.703455  0.125414  0.249692  1
  Si  Si24  1  0.542921  0.376343  0.750398  1
  Si  Si25  1  0.042991  0.123987  0.750078  1
  Si  Si26  1  0.456562  0.624010  0.249944  1
  Si  Si27  1  0.956067  0.876622  0.249089  1
  Si  Si28  1  0.663680  0.037660  0.540108  1
  Si  Si29  1  0.162821  0.462725  0.959535  1
  Si  Si30  1  0.336536  0.962538  0.040493  1
  Si  Si31  1  0.832994  0.538157  0.458670  1
  Si  Si32  1  0.336356  0.962250  0.459570  1
  Si  Si33  1  0.837387  0.537588  0.040649  1
  Si  Si34  1  0.663169  0.037131  0.959450  1
  Ge  Ge35  1  0.169184  0.462958  0.540266  1
