# generated using pymatgen
data_HoScFe3P7Ru9
_symmetry_space_group_name_H-M   'P 1'
_cell_length_a   9.27135900
_cell_length_b   9.27135838
_cell_length_c   3.83686000
_cell_angle_alpha   90.00000000
_cell_angle_beta   90.00000000
_cell_angle_gamma   119.99999863
_symmetry_Int_Tables_number   1
_chemical_formula_structural   HoScFe3P7Ru9
_chemical_formula_sum   'Ho1 Sc1 Fe3 P7 Ru9'
_cell_volume   285.62311914
_cell_formula_units_Z   1
loop_
 _symmetry_equiv_pos_site_id
 _symmetry_equiv_pos_as_xyz
  1  'x, y, z'
loop_
 _atom_site_type_symbol
 _atom_site_label
 _atom_site_symmetry_multiplicity
 _atom_site_fract_x
 _atom_site_fract_y
 _atom_site_fract_z
 _atom_site_occupancy
  Ho  Ho0  1  0.333333  0.666667  0.000000  1
  Sc  Sc1  1  0.666667  0.333333  0.500000  1
  Fe  Fe2  1  0.731065  0.890670  0.000000  1
  Fe  Fe3  1  0.109330  0.840394  0.000000  1
  Fe  Fe4  1  0.159606  0.268935  0.000000  1
  P  P5  1  0.603888  0.721623  0.500000  1
  P  P6  1  0.000000  0.000000  0.000000  1
  P  P7  1  0.278377  0.882266  0.500000  1
  P  P8  1  0.117734  0.396112  0.500000  1
  P  P9  1  0.888493  0.581762  0.000000  1
  P  P10  1  0.418238  0.306730  0.000000  1
  P  P11  1  0.693270  0.111507  0.000000  1
  Ru  Ru12  1  0.561544  0.950588  0.500000  1
  Ru  Ru13  1  0.389045  0.438456  0.500000  1
  Ru  Ru14  1  0.912582  0.116281  0.500000  1
  Ru  Ru15  1  0.203699  0.087418  0.500000  1
  Ru  Ru16  1  0.883719  0.796301  0.500000  1
  Ru  Ru17  1  0.421906  0.064019  0.000000  1
  Ru  Ru18  1  0.935981  0.357888  0.000000  1
  Ru  Ru19  1  0.642112  0.578094  0.000000  1
  Ru  Ru20  1  0.049412  0.610955  0.500000  1
