# generated using pymatgen
data_HoPa7TlPt8Pb3
_symmetry_space_group_name_H-M   'P 1'
_cell_length_a   7.89730411
_cell_length_b   7.90110165
_cell_length_c   7.32350000
_cell_angle_alpha   90.00905823
_cell_angle_beta   90.06838046
_cell_angle_gamma   90.24530369
_symmetry_Int_Tables_number   1
_chemical_formula_structural   HoPa7TlPt8Pb3
_chemical_formula_sum   'Ho1 Pa7 Tl1 Pt8 Pb3'
_cell_volume   456.96285783
_cell_formula_units_Z   1
loop_
 _symmetry_equiv_pos_site_id
 _symmetry_equiv_pos_as_xyz
  1  'x, y, z'
loop_
 _atom_site_type_symbol
 _atom_site_label
 _atom_site_symmetry_multiplicity
 _atom_site_fract_x
 _atom_site_fract_y
 _atom_site_fract_z
 _atom_site_occupancy
  Ho  Ho0  1  0.181317  0.821906  0.501079  1
  Pa  Pa1  1  0.682633  0.681675  0.999358  1
  Pa  Pa2  1  0.340741  0.341495  0.500608  1
  Pa  Pa3  1  0.819266  0.179948  0.499958  1
  Pa  Pa4  1  0.657104  0.659879  0.500406  1
  Pa  Pa5  1  0.319843  0.316062  0.999640  1
  Pa  Pa6  1  0.841935  0.156230  0.999142  1
  Pa  Pa7  1  0.160927  0.839268  0.999361  1
  Tl  Tl8  1  0.494597  0.997736  0.747312  1
  Pt  Pt9  1  0.865897  0.873604  0.729485  1
  Pt  Pt10  1  0.127904  0.132716  0.731053  1
  Pt  Pt11  1  0.630785  0.367006  0.772740  1
  Pt  Pt12  1  0.631909  0.368546  0.225852  1
  Pt  Pt13  1  0.375639  0.624412  0.223803  1
  Pt  Pt14  1  0.126910  0.133127  0.269330  1
  Pt  Pt15  1  0.867496  0.872932  0.270250  1
  Pt  Pt16  1  0.375995  0.625347  0.776307  1
  Pb  Pb17  1  0.495009  0.997818  0.254107  1
  Pb  Pb18  1  0.001937  0.505009  0.747189  1
  Pb  Pb19  1  0.002152  0.505285  0.253021  1
