# generated using pymatgen
data_Dy17Y(TmSn8)2
_symmetry_space_group_name_H-M   'P 1'
_cell_length_a   8.02913400
_cell_length_b   8.15497107
_cell_length_c   15.44246600
_cell_angle_alpha   90.00000000
_cell_angle_beta   90.00000000
_cell_angle_gamma   89.99251745
_symmetry_Int_Tables_number   1
_chemical_formula_structural   Dy17Y(TmSn8)2
_chemical_formula_sum   'Dy17 Y1 Tm2 Sn16'
_cell_volume   1011.13182720
_cell_formula_units_Z   1
loop_
 _symmetry_equiv_pos_site_id
 _symmetry_equiv_pos_as_xyz
  1  'x, y, z'
loop_
 _atom_site_type_symbol
 _atom_site_label
 _atom_site_symmetry_multiplicity
 _atom_site_fract_x
 _atom_site_fract_y
 _atom_site_fract_z
 _atom_site_occupancy
  Dy  Dy0  1  0.367634  0.837315  0.877499  1
  Dy  Dy1  1  0.867646  0.662700  0.622483  1
  Dy  Dy2  1  0.632418  0.162757  0.378105  1
  Dy  Dy3  1  0.132419  0.337199  0.121886  1
  Dy  Dy4  1  0.632418  0.162757  0.121895  1
  Dy  Dy5  1  0.132419  0.337199  0.378114  1
  Dy  Dy6  1  0.367634  0.837315  0.622501  1
  Dy  Dy7  1  0.867646  0.662700  0.877517  1
  Dy  Dy8  1  0.520678  0.320756  0.902414  1
  Dy  Dy9  1  0.020699  0.179222  0.597595  1
  Dy  Dy10  1  0.479425  0.679231  0.402854  1
  Dy  Dy11  1  0.979433  0.820766  0.097142  1
  Dy  Dy12  1  0.479425  0.679231  0.097146  1
  Dy  Dy13  1  0.979433  0.820766  0.402858  1
  Dy  Dy14  1  0.520678  0.320756  0.597586  1
  Dy  Dy15  1  0.020699  0.179222  0.902405  1
  Dy  Dy16  1  0.301128  0.002908  0.250000  1
  Y  Y17  1  0.801029  0.497123  0.250000  1
  Tm  Tm18  1  0.198797  0.502987  0.750000  1
  Tm  Tm19  1  0.698801  0.996994  0.750000  1
  Sn  Sn20  1  0.292912  0.036778  0.041415  1
  Sn  Sn21  1  0.792927  0.463209  0.458591  1
  Sn  Sn22  1  0.707336  0.963644  0.542516  1
  Sn  Sn23  1  0.207337  0.536367  0.957475  1
  Sn  Sn24  1  0.707336  0.963644  0.957484  1
  Sn  Sn25  1  0.207337  0.536367  0.542525  1
  Sn  Sn26  1  0.292912  0.036778  0.458585  1
  Sn  Sn27  1  0.792927  0.463209  0.041409  1
  Sn  Sn28  1  0.564305  0.618268  0.750000  1
  Sn  Sn29  1  0.064232  0.881743  0.750000  1
  Sn  Sn30  1  0.434531  0.381394  0.250000  1
  Sn  Sn31  1  0.934585  0.118577  0.250000  1
  Sn  Sn32  1  0.330273  0.149033  0.750000  1
  Sn  Sn33  1  0.830254  0.351012  0.750000  1
  Sn  Sn34  1  0.670083  0.852377  0.250000  1
  Sn  Sn35  1  0.170258  0.647695  0.250000  1
