# generated using pymatgen
data_Dy4(Zn3Hg)3
_symmetry_space_group_name_H-M   'P 1'
_cell_length_a   4.44648000
_cell_length_b   6.95527024
_cell_length_c   10.19941144
_cell_angle_alpha   90.13955873
_cell_angle_beta   90.00000000
_cell_angle_gamma   90.00000000
_symmetry_Int_Tables_number   1
_chemical_formula_structural   Dy4(Zn3Hg)3
_chemical_formula_sum   'Dy4 Zn9 Hg3'
_cell_volume   315.43085653
_cell_formula_units_Z   1
loop_
 _symmetry_equiv_pos_site_id
 _symmetry_equiv_pos_as_xyz
  1  'x, y, z'
loop_
 _atom_site_type_symbol
 _atom_site_label
 _atom_site_symmetry_multiplicity
 _atom_site_fract_x
 _atom_site_fract_y
 _atom_site_fract_z
 _atom_site_occupancy
  Dy  Dy0  1  0.250000  0.285407  0.667798  1
  Dy  Dy1  1  0.750000  0.715512  0.332700  1
  Dy  Dy2  1  0.250000  0.790209  0.832046  1
  Dy  Dy3  1  0.750000  0.210508  0.167447  1
  Zn  Zn4  1  0.750000  0.962274  0.605185  1
  Zn  Zn5  1  0.750000  0.293835  0.463004  1
  Zn  Zn6  1  0.250000  0.704301  0.544122  1
  Zn  Zn7  1  0.750000  0.811133  0.040297  1
  Zn  Zn8  1  0.250000  0.188301  0.957169  1
  Zn  Zn9  1  0.750000  0.585306  0.636289  1
  Zn  Zn10  1  0.250000  0.424385  0.365602  1
  Zn  Zn11  1  0.750000  0.076550  0.846972  1
  Zn  Zn12  1  0.250000  0.921289  0.142626  1
  Hg  Hg13  1  0.250000  0.529309  0.107849  1
  Hg  Hg14  1  0.750000  0.468375  0.891763  1
  Hg  Hg15  1  0.250000  0.033306  0.399129  1
