# generated using pymatgen
data_EuGaAsIr2
_symmetry_space_group_name_H-M   'P 1'
_cell_length_a   6.04119834
_cell_length_b   6.04119875
_cell_length_c   6.04119923
_cell_angle_alpha   139.48453794
_cell_angle_beta   139.48454017
_cell_angle_gamma   58.63679189
_symmetry_Int_Tables_number   1
_chemical_formula_structural   EuGaAsIr2
_chemical_formula_sum   'Eu1 Ga1 As1 Ir2'
_cell_volume   92.18614938
_cell_formula_units_Z   1
loop_
 _symmetry_equiv_pos_site_id
 _symmetry_equiv_pos_as_xyz
  1  'x, y, z'
loop_
 _atom_site_type_symbol
 _atom_site_label
 _atom_site_symmetry_multiplicity
 _atom_site_fract_x
 _atom_site_fract_y
 _atom_site_fract_z
 _atom_site_occupancy
  Eu  Eu0  1  0.997858  0.997858  0.000000  1
  Ga  Ga1  1  0.622981  0.622981  0.000000  1
  As  As2  1  0.374694  0.374694  0.000000  1
  Ir  Ir3  1  0.752234  0.252234  0.500000  1
  Ir  Ir4  1  0.252234  0.752234  0.500000  1
