# generated using pymatgen
data_Dy3Er9CuNi4Sn
_symmetry_space_group_name_H-M   'P 1'
_cell_length_a   8.29569494
_cell_length_b   8.29569480
_cell_length_c   8.30084772
_cell_angle_alpha   112.21759992
_cell_angle_beta   109.53903622
_cell_angle_gamma   106.67743600
_symmetry_Int_Tables_number   1
_chemical_formula_structural   Dy3Er9CuNi4Sn
_chemical_formula_sum   'Dy3 Er9 Cu1 Ni4 Sn1'
_cell_volume   438.86901419
_cell_formula_units_Z   1
loop_
 _symmetry_equiv_pos_site_id
 _symmetry_equiv_pos_as_xyz
  1  'x, y, z'
loop_
 _atom_site_type_symbol
 _atom_site_label
 _atom_site_symmetry_multiplicity
 _atom_site_fract_x
 _atom_site_fract_y
 _atom_site_fract_z
 _atom_site_occupancy
  Dy  Dy0  1  0.820241  0.207393  0.027633  1
  Dy  Dy1  1  0.180699  0.793832  0.974533  1
  Dy  Dy2  1  0.819204  0.793469  0.612673  1
  Er  Er3  1  0.025493  0.720472  0.306059  1
  Er  Er4  1  0.974955  0.281384  0.693381  1
  Er  Er5  1  0.585587  0.280567  0.306059  1
  Er  Er6  1  0.411997  0.718424  0.693381  1
  Er  Er7  1  0.675610  0.867334  0.191528  1
  Er  Er8  1  0.324194  0.515916  0.191528  1
  Er  Er9  1  0.323967  0.132826  0.807878  1
  Er  Er10  1  0.675051  0.483912  0.807878  1
  Er  Er11  1  0.181133  0.207160  0.388293  1
  Cu  Cu12  1  0.999069  0.498286  0.497355  1
  Ni  Ni13  1  0.641125  0.500265  0.141389  1
  Ni  Ni14  1  0.358669  0.498731  0.857400  1
  Ni  Ni15  1  0.875443  0.874235  0.001190  1
  Ni  Ni16  1  0.126955  0.125747  0.001190  1
  Sn  Sn17  1  0.500607  0.000046  0.500654  1
