# generated using pymatgen
data_LiCa(PrAu)4
_symmetry_space_group_name_H-M   'P 1'
_cell_length_a   8.33345400
_cell_length_b   8.33345400
_cell_length_c   3.95231400
_cell_angle_alpha   90.00000000
_cell_angle_beta   90.00000000
_cell_angle_gamma   90.00000000
_symmetry_Int_Tables_number   1
_chemical_formula_structural   LiCa(PrAu)4
_chemical_formula_sum   'Li1 Ca1 Pr4 Au4'
_cell_volume   274.47419860
_cell_formula_units_Z   1
loop_
 _symmetry_equiv_pos_site_id
 _symmetry_equiv_pos_as_xyz
  1  'x, y, z'
loop_
 _atom_site_type_symbol
 _atom_site_label
 _atom_site_symmetry_multiplicity
 _atom_site_fract_x
 _atom_site_fract_y
 _atom_site_fract_z
 _atom_site_occupancy
  Li  Li0  1  0.500000  0.500000  0.000000  1
  Ca  Ca1  1  0.000000  0.000000  0.000000  1
  Pr  Pr2  1  0.637994  0.188037  0.500000  1
  Pr  Pr3  1  0.362006  0.811963  0.500000  1
  Pr  Pr4  1  0.188037  0.362006  0.500000  1
  Pr  Pr5  1  0.811963  0.637994  0.500000  1
  Au  Au6  1  0.122678  0.641310  0.000000  1
  Au  Au7  1  0.877322  0.358690  0.000000  1
  Au  Au8  1  0.641310  0.877322  0.000000  1
  Au  Au9  1  0.358690  0.122678  0.000000  1
