# generated using pymatgen
data_La2Eu2Zr3SbO14
_symmetry_space_group_name_H-M   'P 1'
_cell_length_a   7.66160291
_cell_length_b   7.64403071
_cell_length_c   7.64403028
_cell_angle_alpha   59.87909651
_cell_angle_beta   60.02623062
_cell_angle_gamma   60.02622961
_symmetry_Int_Tables_number   1
_chemical_formula_structural   La2Eu2Zr3SbO14
_chemical_formula_sum   'La2 Eu2 Zr3 Sb1 O14'
_cell_volume   316.39005291
_cell_formula_units_Z   1
loop_
 _symmetry_equiv_pos_site_id
 _symmetry_equiv_pos_as_xyz
  1  'x, y, z'
loop_
 _atom_site_type_symbol
 _atom_site_label
 _atom_site_symmetry_multiplicity
 _atom_site_fract_x
 _atom_site_fract_y
 _atom_site_fract_z
 _atom_site_occupancy
  La  La0  1  0.125000  0.625000  0.625000  1
  La  La1  1  0.625000  0.625000  0.625000  1
  Eu  Eu2  1  0.625000  0.125000  0.625000  1
  Eu  Eu3  1  0.625000  0.625000  0.125000  1
  Zr  Zr4  1  0.125000  0.125000  0.125000  1
  Zr  Zr5  1  0.125000  0.125000  0.625000  1
  Zr  Zr6  1  0.125000  0.625000  0.125000  1
  Sb  Sb7  1  0.625000  0.125000  0.125000  1
  O  O8  1  0.216719  0.790342  0.790342  1
  O  O9  1  0.793469  0.809460  0.199384  1
  O  O10  1  0.793469  0.199384  0.809460  1
  O  O11  1  0.214605  0.790664  0.202936  1
  O  O12  1  0.214605  0.202936  0.790664  1
  O  O13  1  0.793647  0.197427  0.197427  1
  O  O14  1  0.456353  0.052573  0.052573  1
  O  O15  1  0.035395  0.047064  0.459336  1
  O  O16  1  0.035395  0.459336  0.047064  1
  O  O17  1  0.456531  0.050616  0.440540  1
  O  O18  1  0.747374  0.750636  0.750636  1
  O  O19  1  0.456531  0.440540  0.050616  1
  O  O20  1  0.033281  0.459658  0.459658  1
  O  O21  1  0.502626  0.499364  0.499364  1
