# generated using pymatgen
data_Tm4MnOsRu6
_symmetry_space_group_name_H-M   'P 1'
_cell_length_a   5.39036290
_cell_length_b   5.16778733
_cell_length_c   8.84550000
_cell_angle_alpha   90.00000000
_cell_angle_beta   90.00000000
_cell_angle_gamma   121.32620607
_symmetry_Int_Tables_number   1
_chemical_formula_structural   Tm4MnOsRu6
_chemical_formula_sum   'Tm4 Mn1 Os1 Ru6'
_cell_volume   210.48217865
_cell_formula_units_Z   1
loop_
 _symmetry_equiv_pos_site_id
 _symmetry_equiv_pos_as_xyz
  1  'x, y, z'
loop_
 _atom_site_type_symbol
 _atom_site_label
 _atom_site_symmetry_multiplicity
 _atom_site_fract_x
 _atom_site_fract_y
 _atom_site_fract_z
 _atom_site_occupancy
  Tm  Tm0  1  0.668103  0.336105  0.565924  1
  Tm  Tm1  1  0.330533  0.661423  0.433579  1
  Tm  Tm2  1  0.330533  0.661423  0.066421  1
  Tm  Tm3  1  0.668103  0.336105  0.934076  1
  Mn  Mn4  1  0.168103  0.334609  0.750000  1
  Os  Os5  1  0.836494  0.673495  0.250000  1
  Ru  Ru6  1  0.996826  0.994275  0.502703  1
  Ru  Ru7  1  0.996826  0.994275  0.997297  1
  Ru  Ru8  1  0.173310  0.824884  0.750000  1
  Ru  Ru9  1  0.651703  0.825068  0.750000  1
  Ru  Ru10  1  0.830206  0.179337  0.250000  1
  Ru  Ru11  1  0.349260  0.179000  0.250000  1
