# generated using pymatgen
data_Pr2Y4PtI10
_symmetry_space_group_name_H-M   'P 1'
_cell_length_a   7.80974442
_cell_length_b   9.85281541
_cell_length_c   9.99784648
_cell_angle_alpha   107.36079460
_cell_angle_beta   96.60678769
_cell_angle_gamma   105.21328019
_symmetry_Int_Tables_number   1
_chemical_formula_structural   Pr2Y4PtI10
_chemical_formula_sum   'Pr2 Y4 Pt1 I10'
_cell_volume   692.74529627
_cell_formula_units_Z   1
loop_
 _symmetry_equiv_pos_site_id
 _symmetry_equiv_pos_as_xyz
  1  'x, y, z'
loop_
 _atom_site_type_symbol
 _atom_site_label
 _atom_site_symmetry_multiplicity
 _atom_site_fract_x
 _atom_site_fract_y
 _atom_site_fract_z
 _atom_site_occupancy
  Pr  Pr0  1  0.880666  0.957100  0.246377  1
  Pr  Pr1  1  0.119334  0.042900  0.753623  1
  Y  Y2  1  0.349818  0.126956  0.163672  1
  Y  Y3  1  0.650182  0.873044  0.836328  1
  Y  Y4  1  0.972795  0.286968  0.087354  1
  Y  Y5  1  0.027205  0.713032  0.912646  1
  Pt  Pt6  1  0.000000  0.000000  0.000000  1
  I  I7  1  0.353042  0.450679  0.270286  1
  I  I8  1  0.646958  0.549321  0.729714  1
  I  I9  1  0.917569  0.621888  0.173361  1
  I  I10  1  0.082431  0.378112  0.826639  1
  I  I11  1  0.446287  0.817262  0.086611  1
  I  I12  1  0.553713  0.182738  0.913389  1
  I  I13  1  0.271886  0.090508  0.456784  1
  I  I14  1  0.728114  0.909492  0.543216  1
  I  I15  1  0.776103  0.264553  0.342605  1
  I  I16  1  0.223897  0.735447  0.657395  1
