# generated using pymatgen
data_Dy5YTcBi2
_symmetry_space_group_name_H-M   'P 1'
_cell_length_a   8.33698800
_cell_length_b   8.32550853
_cell_length_c   4.28652200
_cell_angle_alpha   90.00000000
_cell_angle_beta   90.00000000
_cell_angle_gamma   120.04562186
_symmetry_Int_Tables_number   1
_chemical_formula_structural   Dy5YTcBi2
_chemical_formula_sum   'Dy5 Y1 Tc1 Bi2'
_cell_volume   257.54658722
_cell_formula_units_Z   1
loop_
 _symmetry_equiv_pos_site_id
 _symmetry_equiv_pos_as_xyz
  1  'x, y, z'
loop_
 _atom_site_type_symbol
 _atom_site_label
 _atom_site_symmetry_multiplicity
 _atom_site_fract_x
 _atom_site_fract_y
 _atom_site_fract_z
 _atom_site_occupancy
  Dy  Dy0  1  0.232702  0.000000  0.500000  1
  Dy  Dy1  1  0.000359  0.233078  0.500000  1
  Dy  Dy2  1  0.767281  0.766922  0.500000  1
  Dy  Dy3  1  0.999998  0.607359  0.000000  1
  Dy  Dy4  1  0.392638  0.392641  0.000000  1
  Y  Y5  1  0.606843  0.000000  0.000000  1
  Tc  Tc6  1  0.000230  0.000000  0.000000  1
  Bi  Bi7  1  0.333338  0.666726  0.500000  1
  Bi  Bi8  1  0.666613  0.333274  0.500000  1
