# generated using pymatgen
data_Sc5Nb2Co16P12Ru
_symmetry_space_group_name_H-M   'P 1'
_cell_length_a   11.94703600
_cell_length_b   11.97114412
_cell_length_c   3.62104400
_cell_angle_alpha   90.00000000
_cell_angle_beta   90.00000000
_cell_angle_gamma   119.93340462
_symmetry_Int_Tables_number   1
_chemical_formula_structural   Sc5Nb2Co16P12Ru
_chemical_formula_sum   'Sc5 Nb2 Co16 P12 Ru1'
_cell_volume   448.79841224
_cell_formula_units_Z   1
loop_
 _symmetry_equiv_pos_site_id
 _symmetry_equiv_pos_as_xyz
  1  'x, y, z'
loop_
 _atom_site_type_symbol
 _atom_site_label
 _atom_site_symmetry_multiplicity
 _atom_site_fract_x
 _atom_site_fract_y
 _atom_site_fract_z
 _atom_site_occupancy
  Sc  Sc0  1  0.817309  0.000000  0.500000  1
  Sc  Sc1  1  0.998303  0.818490  0.500000  1
  Sc  Sc2  1  0.179813  0.181510  0.500000  1
  Sc  Sc3  1  0.333057  0.665940  0.000000  1
  Sc  Sc4  1  0.667118  0.334060  0.000000  1
  Nb  Nb5  1  0.000176  0.446383  0.000000  1
  Nb  Nb6  1  0.553792  0.553617  0.000000  1
  Co  Co7  1  0.282191  0.000000  0.500000  1
  Co  Co8  1  0.999178  0.277683  0.500000  1
  Co  Co9  1  0.721495  0.722317  0.500000  1
  Co  Co10  1  0.626673  0.806362  0.000000  1
  Co  Co11  1  0.198395  0.825496  0.000000  1
  Co  Co12  1  0.176929  0.370845  0.000000  1
  Co  Co13  1  0.372899  0.174504  0.000000  1
  Co  Co14  1  0.806084  0.629155  0.000000  1
  Co  Co15  1  0.820311  0.193638  0.000000  1
  Co  Co16  1  0.516793  0.872456  0.500000  1
  Co  Co17  1  0.129789  0.649284  0.500000  1
  Co  Co18  1  0.353300  0.481351  0.500000  1
  Co  Co19  1  0.480506  0.350716  0.500000  1
  Co  Co20  1  0.871948  0.518649  0.500000  1
  Co  Co21  1  0.644338  0.127544  0.500000  1
  Co  Co22  1  0.001363  0.000000  0.000000  1
  P  P23  1  0.176502  0.000000  0.000000  1
  P  P24  1  0.998920  0.174325  0.000000  1
  P  P25  1  0.824595  0.825675  0.000000  1
  P  P26  1  0.516180  0.687841  0.500000  1
  P  P27  1  0.316315  0.834374  0.500000  1
  P  P28  1  0.170429  0.483121  0.500000  1
  P  P29  1  0.481941  0.165626  0.500000  1
  P  P30  1  0.687308  0.516879  0.500000  1
  P  P31  1  0.828339  0.312159  0.500000  1
  P  P32  1  0.643454  0.000000  0.000000  1
  P  P33  1  0.002604  0.650950  0.000000  1
  P  P34  1  0.351654  0.349050  0.000000  1
  Ru  Ru35  1  0.449999  0.000000  0.000000  1
