# generated using pymatgen
data_Pr2Tm5Lu(WO6)4
_symmetry_space_group_name_H-M   'P 1'
_cell_length_a   5.40954006
_cell_length_b   7.72664965
_cell_length_c   11.47141948
_cell_angle_alpha   75.43808079
_cell_angle_beta   90.00675599
_cell_angle_gamma   90.01749662
_symmetry_Int_Tables_number   1
_chemical_formula_structural   Pr2Tm5Lu(WO6)4
_chemical_formula_sum   'Pr2 Tm5 Lu1 W4 O24'
_cell_volume   464.07550232
_cell_formula_units_Z   1
loop_
 _symmetry_equiv_pos_site_id
 _symmetry_equiv_pos_as_xyz
  1  'x, y, z'
loop_
 _atom_site_type_symbol
 _atom_site_label
 _atom_site_symmetry_multiplicity
 _atom_site_fract_x
 _atom_site_fract_y
 _atom_site_fract_z
 _atom_site_occupancy
  Pr  Pr0  1  0.313611  0.500300  0.749742  1
  Pr  Pr1  1  0.686487  0.500094  0.250034  1
  Tm  Tm2  1  0.255958  0.999799  0.749655  1
  Tm  Tm3  1  0.185160  0.798035  0.077287  1
  Tm  Tm4  1  0.185016  0.201616  0.422888  1
  Tm  Tm5  1  0.744139  0.999804  0.250287  1
  Tm  Tm6  1  0.814770  0.201920  0.922800  1
  Lu  Lu7  1  0.814902  0.797816  0.577602  1
  W  W8  1  0.745952  0.729659  0.883727  1
  W  W9  1  0.254515  0.729847  0.384339  1
  W  W10  1  0.745760  0.270609  0.615993  1
  W  W11  1  0.254245  0.270421  0.116042  1
  O  O12  1  0.539604  0.155648  0.069546  1
  O  O13  1  0.042005  0.056636  0.103868  1
  O  O14  1  0.013647  0.723975  0.767205  1
  O  O15  1  0.460058  0.156018  0.569555  1
  O  O16  1  0.344291  0.492983  0.387545  1
  O  O17  1  0.956583  0.055367  0.603728  1
  O  O18  1  0.545420  0.799326  0.724320  1
  O  O19  1  0.455893  0.799266  0.225433  1
  O  O20  1  0.140624  0.643851  0.545978  1
  O  O21  1  0.041803  0.943139  0.396434  1
  O  O22  1  0.460414  0.844197  0.930100  1
  O  O23  1  0.455794  0.200843  0.274865  1
  O  O24  1  0.857483  0.356929  0.454204  1
  O  O25  1  0.655373  0.492749  0.887302  1
  O  O26  1  0.344581  0.507331  0.112695  1
  O  O27  1  0.958132  0.943278  0.896116  1
  O  O28  1  0.540967  0.843566  0.431458  1
  O  O29  1  0.985910  0.276195  0.232177  1
  O  O30  1  0.544110  0.201038  0.774772  1
  O  O31  1  0.857352  0.643027  0.045732  1
  O  O32  1  0.014191  0.275922  0.731953  1
  O  O33  1  0.142661  0.357088  0.954090  1
  O  O34  1  0.986272  0.723807  0.267910  1
  O  O35  1  0.656319  0.507900  0.612620  1
