# generated using pymatgen
data_CuPbF4
_symmetry_space_group_name_H-M   'P 1'
_cell_length_a   6.79608678
_cell_length_b   6.79608708
_cell_length_c   6.79608757
_cell_angle_alpha   129.26180906
_cell_angle_beta   129.26181130
_cell_angle_gamma   74.58966904
_symmetry_Int_Tables_number   1
_chemical_formula_structural   CuPbF4
_chemical_formula_sum   'Cu2 Pb2 F8'
_cell_volume   183.35307804
_cell_formula_units_Z   2
loop_
 _symmetry_equiv_pos_site_id
 _symmetry_equiv_pos_as_xyz
  1  'x, y, z'
loop_
 _atom_site_type_symbol
 _atom_site_label
 _atom_site_symmetry_multiplicity
 _atom_site_fract_x
 _atom_site_fract_y
 _atom_site_fract_z
 _atom_site_occupancy
  Cu  Cu0  1  0.500000  0.000000  0.500000  1
  Cu  Cu1  1  0.000000  0.500000  0.500000  1
  Pb  Pb2  1  0.250000  0.250000  0.000000  1
  Pb  Pb3  1  0.750000  0.750000  0.000000  1
  F  F4  1  0.955313  0.455313  0.164266  1
  F  F5  1  0.708953  0.208953  0.164266  1
  F  F6  1  0.044687  0.544687  0.835734  1
  F  F7  1  0.544687  0.708953  0.500000  1
  F  F8  1  0.291047  0.791047  0.835734  1
  F  F9  1  0.791047  0.955313  0.500000  1
  F  F10  1  0.455313  0.291047  0.500000  1
  F  F11  1  0.208953  0.044687  0.500000  1
