# generated using pymatgen
data_Th4Sc6Sn7Pb
_symmetry_space_group_name_H-M   'P 1'
_cell_length_a   7.94822700
_cell_length_b   7.97884497
_cell_length_c   15.03083400
_cell_angle_alpha   90.04027084
_cell_angle_beta   90.00000000
_cell_angle_gamma   90.00000000
_symmetry_Int_Tables_number   1
_chemical_formula_structural   Th4Sc6Sn7Pb
_chemical_formula_sum   'Th8 Sc12 Sn14 Pb2'
_cell_volume   953.22025041
_cell_formula_units_Z   2
loop_
 _symmetry_equiv_pos_site_id
 _symmetry_equiv_pos_as_xyz
  1  'x, y, z'
loop_
 _atom_site_type_symbol
 _atom_site_label
 _atom_site_symmetry_multiplicity
 _atom_site_fract_x
 _atom_site_fract_y
 _atom_site_fract_z
 _atom_site_occupancy
  Th  Th0  1  0.516986  0.326626  0.905100  1
  Th  Th1  1  0.016986  0.173374  0.594900  1
  Th  Th2  1  0.480930  0.676921  0.405214  1
  Th  Th3  1  0.980930  0.823079  0.094786  1
  Th  Th4  1  0.485524  0.672636  0.094088  1
  Th  Th5  1  0.985524  0.827364  0.405912  1
  Th  Th6  1  0.513468  0.324105  0.595293  1
  Th  Th7  1  0.013468  0.175895  0.904707  1
  Sc  Sc8  1  0.352481  0.838874  0.873018  1
  Sc  Sc9  1  0.852481  0.661126  0.626982  1
  Sc  Sc10  1  0.646213  0.156214  0.372947  1
  Sc  Sc11  1  0.146213  0.343786  0.127053  1
  Sc  Sc12  1  0.651304  0.160160  0.126246  1
  Sc  Sc13  1  0.151304  0.339840  0.373754  1
  Sc  Sc14  1  0.352463  0.840449  0.626326  1
  Sc  Sc15  1  0.852463  0.659551  0.873674  1
  Sc  Sc16  1  0.182317  0.500041  0.749883  1
  Sc  Sc17  1  0.682317  0.999959  0.750117  1
  Sc  Sc18  1  0.817804  0.500564  0.248250  1
  Sc  Sc19  1  0.317804  0.999436  0.251750  1
  Sn  Sn20  1  0.689335  0.953795  0.544104  1
  Sn  Sn21  1  0.189335  0.546205  0.955896  1
  Sn  Sn22  1  0.690112  0.953749  0.955311  1
  Sn  Sn23  1  0.190112  0.546251  0.544689  1
  Sn  Sn24  1  0.311013  0.046795  0.456418  1
  Sn  Sn25  1  0.811013  0.453205  0.043582  1
  Sn  Sn26  1  0.545756  0.632035  0.749660  1
  Sn  Sn27  1  0.045756  0.867965  0.750340  1
  Sn  Sn28  1  0.455248  0.367567  0.249703  1
  Sn  Sn29  1  0.955248  0.132433  0.250297  1
  Sn  Sn30  1  0.321350  0.141731  0.750762  1
  Sn  Sn31  1  0.821350  0.358269  0.749238  1
  Sn  Sn32  1  0.677778  0.857131  0.249825  1
  Sn  Sn33  1  0.177778  0.642869  0.250175  1
  Pb  Pb34  1  0.309919  0.047146  0.044974  1
  Pb  Pb35  1  0.809919  0.452854  0.455026  1
