# generated using pymatgen
data_Er2Pa2Ge6Ir6W
_symmetry_space_group_name_H-M   'P 1'
_cell_length_a   7.30708732
_cell_length_b   7.30708556
_cell_length_c   7.28866348
_cell_angle_alpha   109.47131314
_cell_angle_beta   109.47129316
_cell_angle_gamma   109.57323305
_symmetry_Int_Tables_number   1
_chemical_formula_structural   Er2Pa2Ge6Ir6W
_chemical_formula_sum   'Er2 Pa2 Ge6 Ir6 W1'
_cell_volume   299.20255305
_cell_formula_units_Z   1
loop_
 _symmetry_equiv_pos_site_id
 _symmetry_equiv_pos_as_xyz
  1  'x, y, z'
loop_
 _atom_site_type_symbol
 _atom_site_label
 _atom_site_symmetry_multiplicity
 _atom_site_fract_x
 _atom_site_fract_y
 _atom_site_fract_z
 _atom_site_occupancy
  Er  Er0  1  0.000000  0.000000  0.500000  1
  Er  Er1  1  0.500000  0.500000  0.500000  1
  Pa  Pa2  1  0.000000  0.500000  0.000000  1
  Pa  Pa3  1  0.500000  0.000000  0.000000  1
  Ge  Ge4  1  0.684331  0.684331  0.000000  1
  Ge  Ge5  1  0.316086  0.005715  0.321801  1
  Ge  Ge6  1  0.005715  0.316086  0.321801  1
  Ge  Ge7  1  0.315669  0.315669  0.000000  1
  Ge  Ge8  1  0.683914  0.994285  0.678199  1
  Ge  Ge9  1  0.994285  0.683914  0.678199  1
  Ir  Ir10  1  0.750000  0.250000  0.500000  1
  Ir  Ir11  1  0.749702  0.495234  0.244936  1
  Ir  Ir12  1  0.504766  0.250298  0.755064  1
  Ir  Ir13  1  0.250298  0.504766  0.755064  1
  Ir  Ir14  1  0.250000  0.750000  0.500000  1
  Ir  Ir15  1  0.495234  0.749702  0.244936  1
  W  W16  1  0.000000  0.000000  0.000000  1
