# generated using pymatgen
data_MnTlRhF6
_symmetry_space_group_name_H-M   'P 1'
_cell_length_a   5.60905400
_cell_length_b   5.60905415
_cell_length_c   11.52490000
_cell_angle_alpha   90.00000000
_cell_angle_beta   90.00000000
_cell_angle_gamma   119.99998735
_symmetry_Int_Tables_number   1
_chemical_formula_structural   MnTlRhF6
_chemical_formula_sum   'Mn2 Tl2 Rh2 F12'
_cell_volume   314.01262273
_cell_formula_units_Z   2
loop_
 _symmetry_equiv_pos_site_id
 _symmetry_equiv_pos_as_xyz
  1  'x, y, z'
loop_
 _atom_site_type_symbol
 _atom_site_label
 _atom_site_symmetry_multiplicity
 _atom_site_fract_x
 _atom_site_fract_y
 _atom_site_fract_z
 _atom_site_occupancy
  Mn  Mn0  1  0.666667  0.333333  0.000000  1
  Mn  Mn1  1  0.333333  0.666666  0.500000  1
  Tl  Tl2  1  0.000000  0.000000  0.250000  1
  Tl  Tl3  1  0.000000  0.000000  0.750000  1
  Rh  Rh4  1  0.333333  0.666666  0.000000  1
  Rh  Rh5  1  0.666667  0.333333  0.500000  1
  F  F6  1  0.018428  0.378291  0.095191  1
  F  F7  1  0.621708  0.640136  0.095191  1
  F  F8  1  0.359865  0.981571  0.095191  1
  F  F9  1  0.640136  0.018429  0.404811  1
  F  F10  1  0.378292  0.359864  0.404811  1
  F  F11  1  0.981571  0.621708  0.404811  1
  F  F12  1  0.378291  0.018429  0.595190  1
  F  F13  1  0.981572  0.359864  0.595190  1
  F  F14  1  0.640136  0.621708  0.595190  1
  F  F15  1  0.359865  0.378291  0.904810  1
  F  F16  1  0.018429  0.640136  0.904810  1
  F  F17  1  0.621707  0.981571  0.904810  1
