# generated using pymatgen
data_KU2(TlI4)3
_symmetry_space_group_name_H-M   'P 1'
_cell_length_a   8.60208105
_cell_length_b   8.41070586
_cell_length_c   14.69980900
_cell_angle_alpha   54.94562459
_cell_angle_beta   90.06206430
_cell_angle_gamma   89.57887556
_symmetry_Int_Tables_number   1
_chemical_formula_structural   KU2(TlI4)3
_chemical_formula_sum   'K1 U2 Tl3 I12'
_cell_volume   870.56749573
_cell_formula_units_Z   1
loop_
 _symmetry_equiv_pos_site_id
 _symmetry_equiv_pos_as_xyz
  1  'x, y, z'
loop_
 _atom_site_type_symbol
 _atom_site_label
 _atom_site_symmetry_multiplicity
 _atom_site_fract_x
 _atom_site_fract_y
 _atom_site_fract_z
 _atom_site_occupancy
  K  K0  1  0.570791  0.264173  0.750319  1
  U  U1  1  0.999670  0.999269  0.000931  1
  U  U2  1  0.498622  0.999808  0.499509  1
  Tl  Tl3  1  0.433777  0.742928  0.249921  1
  Tl  Tl4  1  0.932782  0.261688  0.248370  1
  Tl  Tl5  1  0.066003  0.738174  0.751336  1
  I  I6  1  0.815599  0.346919  0.954298  1
  I  I7  1  0.524243  0.150844  0.256525  1
  I  I8  1  0.475347  0.838887  0.743977  1
  I  I9  1  0.297968  0.218127  0.958372  1
  I  I10  1  0.315724  0.656000  0.545633  1
  I  I11  1  0.198088  0.219831  0.456915  1
  I  I12  1  0.182371  0.651586  0.046456  1
  I  I13  1  0.803691  0.784228  0.542040  1
  I  I14  1  0.699544  0.780487  0.046010  1
  I  I15  1  0.022021  0.846303  0.244118  1
  I  I16  1  0.981749  0.151906  0.756827  1
  I  I17  1  0.682010  0.348842  0.448445  1
