# generated using pymatgen
data_Dy4HoSiBi2
_symmetry_space_group_name_H-M   'P 1'
_cell_length_a   8.05942700
_cell_length_b   9.18842700
_cell_length_c   12.06705600
_cell_angle_alpha   90.00000000
_cell_angle_beta   90.00000000
_cell_angle_gamma   90.00000000
_symmetry_Int_Tables_number   1
_chemical_formula_structural   Dy4HoSiBi2
_chemical_formula_sum   'Dy16 Ho4 Si4 Bi8'
_cell_volume   893.60720841
_cell_formula_units_Z   4
loop_
 _symmetry_equiv_pos_site_id
 _symmetry_equiv_pos_as_xyz
  1  'x, y, z'
loop_
 _atom_site_type_symbol
 _atom_site_label
 _atom_site_symmetry_multiplicity
 _atom_site_fract_x
 _atom_site_fract_y
 _atom_site_fract_z
 _atom_site_occupancy
  Dy  Dy0  1  0.179341  0.447238  0.937215  1
  Dy  Dy1  1  0.320659  0.052762  0.437215  1
  Dy  Dy2  1  0.820659  0.947238  0.062785  1
  Dy  Dy3  1  0.679341  0.552762  0.562785  1
  Dy  Dy4  1  0.166427  0.749907  0.212269  1
  Dy  Dy5  1  0.333573  0.750093  0.712269  1
  Dy  Dy6  1  0.833573  0.249907  0.787731  1
  Dy  Dy7  1  0.666427  0.250093  0.287731  1
  Dy  Dy8  1  0.461063  0.750067  0.001338  1
  Dy  Dy9  1  0.038937  0.749933  0.501338  1
  Dy  Dy10  1  0.538937  0.250067  0.998662  1
  Dy  Dy11  1  0.961063  0.249933  0.498662  1
  Dy  Dy12  1  0.637051  0.749988  0.295516  1
  Dy  Dy13  1  0.862949  0.750012  0.795516  1
  Dy  Dy14  1  0.362949  0.249988  0.704484  1
  Dy  Dy15  1  0.137051  0.250012  0.204484  1
  Ho  Ho16  1  0.821038  0.552877  0.062802  1
  Ho  Ho17  1  0.678962  0.947123  0.562802  1
  Ho  Ho18  1  0.178962  0.052877  0.937198  1
  Ho  Ho19  1  0.321038  0.447123  0.437198  1
  Si  Si20  1  0.412216  0.749788  0.479230  1
  Si  Si21  1  0.087784  0.750212  0.979230  1
  Si  Si22  1  0.587784  0.249788  0.520770  1
  Si  Si23  1  0.912216  0.250212  0.020770  1
  Bi  Bi24  1  0.932868  0.510790  0.325457  1
  Bi  Bi25  1  0.567132  0.989210  0.825457  1
  Bi  Bi26  1  0.067132  0.010790  0.674543  1
  Bi  Bi27  1  0.432868  0.489210  0.174543  1
  Bi  Bi28  1  0.067104  0.489220  0.674451  1
  Bi  Bi29  1  0.432896  0.010780  0.174451  1
  Bi  Bi30  1  0.932896  0.989220  0.325549  1
  Bi  Bi31  1  0.567104  0.510780  0.825549  1
