# generated using pymatgen
data_Tb4Ce2Zn4Pt13
_symmetry_space_group_name_H-M   'P 1'
_cell_length_a   8.32969640
_cell_length_b   8.32969717
_cell_length_c   8.32795500
_cell_angle_alpha   109.48693845
_cell_angle_beta   109.48694034
_cell_angle_gamma   109.44827018
_symmetry_Int_Tables_number   1
_chemical_formula_structural   Tb4Ce2Zn4Pt13
_chemical_formula_sum   'Tb4 Ce2 Zn4 Pt13'
_cell_volume   444.76368286
_cell_formula_units_Z   1
loop_
 _symmetry_equiv_pos_site_id
 _symmetry_equiv_pos_as_xyz
  1  'x, y, z'
loop_
 _atom_site_type_symbol
 _atom_site_label
 _atom_site_symmetry_multiplicity
 _atom_site_fract_x
 _atom_site_fract_y
 _atom_site_fract_z
 _atom_site_occupancy
  Tb  Tb0  1  0.698223  0.698223  0.000877  1
  Tb  Tb1  1  0.301137  0.000422  0.301558  1
  Tb  Tb2  1  0.000422  0.301137  0.301558  1
  Tb  Tb3  1  0.302655  0.302655  0.000877  1
  Ce  Ce4  1  0.699834  0.000346  0.700180  1
  Ce  Ce5  1  0.000346  0.699834  0.700180  1
  Zn  Zn6  1  0.000255  0.000255  0.495825  1
  Zn  Zn7  1  0.000228  0.500228  0.000457  1
  Zn  Zn8  1  0.500228  0.000228  0.000457  1
  Zn  Zn9  1  0.495570  0.495570  0.495825  1
  Pt  Pt10  1  0.329385  0.329385  0.658770  1
  Pt  Pt11  1  0.670141  0.000424  0.330189  1
  Pt  Pt12  1  0.000424  0.670141  0.330189  1
  Pt  Pt13  1  0.670706  0.330808  0.001514  1
  Pt  Pt14  1  0.329765  0.660047  0.330189  1
  Pt  Pt15  1  0.001010  0.331329  0.669813  1
  Pt  Pt16  1  0.330808  0.670706  0.001514  1
  Pt  Pt17  1  0.331329  0.001010  0.669813  1
  Pt  Pt18  1  0.660047  0.329765  0.330189  1
  Pt  Pt19  1  0.669305  0.669305  0.338611  1
  Pt  Pt20  1  0.668803  0.338485  0.669813  1
  Pt  Pt21  1  0.338485  0.668803  0.669813  1
  Pt  Pt22  1  0.000896  0.000896  0.001791  1
