# generated using pymatgen
data_Sr6Li16Cd7
_symmetry_space_group_name_H-M   'P 1'
_cell_length_a   10.15462900
_cell_length_b   10.15462948
_cell_length_c   10.15462900
_cell_angle_alpha   120.00000169
_cell_angle_beta   90.00000000
_cell_angle_gamma   120.00000169
_symmetry_Int_Tables_number   1
_chemical_formula_structural   Sr6Li16Cd7
_chemical_formula_sum   'Sr6 Li16 Cd7'
_cell_volume   740.41836753
_cell_formula_units_Z   1
loop_
 _symmetry_equiv_pos_site_id
 _symmetry_equiv_pos_as_xyz
  1  'x, y, z'
loop_
 _atom_site_type_symbol
 _atom_site_label
 _atom_site_symmetry_multiplicity
 _atom_site_fract_x
 _atom_site_fract_y
 _atom_site_fract_z
 _atom_site_occupancy
  Sr  Sr0  1  0.789337  0.000000  0.210662  1
  Sr  Sr1  1  0.210663  0.421327  0.210663  1
  Sr  Sr2  1  0.210663  0.000000  0.210663  1
  Sr  Sr3  1  0.789337  0.000000  0.789337  1
  Sr  Sr4  1  0.210662  0.000000  0.789337  1
  Sr  Sr5  1  0.789337  0.578674  0.789337  1
  Li  Li6  1  0.379344  0.758687  0.138031  1
  Li  Li7  1  0.823327  0.646653  0.176674  1
  Li  Li8  1  0.530020  0.353348  0.176674  1
  Li  Li9  1  0.823327  0.353348  0.176674  1
  Li  Li10  1  0.138031  0.758687  0.379344  1
  Li  Li11  1  0.620656  0.758687  0.379344  1
  Li  Li12  1  0.620656  0.241312  0.379344  1
  Li  Li13  1  0.823327  0.646653  0.469980  1
  Li  Li14  1  0.176674  0.353348  0.530020  1
  Li  Li15  1  0.379344  0.758687  0.620656  1
  Li  Li16  1  0.379344  0.241312  0.620656  1
  Li  Li17  1  0.861969  0.241312  0.620656  1
  Li  Li18  1  0.176674  0.646653  0.823327  1
  Li  Li19  1  0.469980  0.646653  0.823327  1
  Li  Li20  1  0.176674  0.353348  0.823327  1
  Li  Li21  1  0.620656  0.241312  0.861969  1
  Cd  Cd22  1  0.500000  0.000000  0.000000  1
  Cd  Cd23  1  0.000000  0.500000  0.000000  1
  Cd  Cd24  1  0.500000  0.500000  0.000000  1
  Cd  Cd25  1  0.500000  0.000000  0.500000  1
  Cd  Cd26  1  0.000000  0.000000  0.500000  1
  Cd  Cd27  1  0.000000  0.500000  0.500000  1
  Cd  Cd28  1  0.500000  0.500000  0.500000  1
