# generated using pymatgen
data_Ho7Er13(GaBi2)4
_symmetry_space_group_name_H-M   'P 1'
_cell_length_a   8.03801701
_cell_length_b   9.24312800
_cell_length_c   12.02787802
_cell_angle_alpha   90.00000000
_cell_angle_beta   90.00579027
_cell_angle_gamma   90.00000000
_symmetry_Int_Tables_number   1
_chemical_formula_structural   Ho7Er13(GaBi2)4
_chemical_formula_sum   'Ho7 Er13 Ga4 Bi8'
_cell_volume   893.62827328
_cell_formula_units_Z   1
loop_
 _symmetry_equiv_pos_site_id
 _symmetry_equiv_pos_as_xyz
  1  'x, y, z'
loop_
 _atom_site_type_symbol
 _atom_site_label
 _atom_site_symmetry_multiplicity
 _atom_site_fract_x
 _atom_site_fract_y
 _atom_site_fract_z
 _atom_site_occupancy
  Ho  Ho0  1  0.667972  0.750000  0.715678  1
  Ho  Ho1  1  0.332019  0.250000  0.284317  1
  Ho  Ho2  1  0.168053  0.250000  0.784297  1
  Ho  Ho3  1  0.831933  0.750000  0.215714  1
  Ho  Ho4  1  0.143277  0.750000  0.794992  1
  Ho  Ho5  1  0.856788  0.250000  0.205032  1
  Ho  Ho6  1  0.643227  0.250000  0.704988  1
  Er  Er7  1  0.356853  0.750000  0.295052  1
  Er  Er8  1  0.540126  0.750000  0.002656  1
  Er  Er9  1  0.459770  0.250000  0.997435  1
  Er  Er10  1  0.040211  0.250000  0.497458  1
  Er  Er11  1  0.959819  0.750000  0.502558  1
  Er  Er12  1  0.819263  0.446559  0.936058  1
  Er  Er13  1  0.180790  0.553559  0.063993  1
  Er  Er14  1  0.319303  0.553489  0.563841  1
  Er  Er15  1  0.180790  0.946441  0.063993  1
  Er  Er16  1  0.680686  0.446513  0.436053  1
  Er  Er17  1  0.819263  0.053441  0.936058  1
  Er  Er18  1  0.680686  0.053487  0.436053  1
  Er  Er19  1  0.319303  0.946511  0.563841  1
  Ga  Ga20  1  0.908744  0.750000  0.975838  1
  Ga  Ga21  1  0.091232  0.250000  0.024207  1
  Ga  Ga22  1  0.408753  0.250000  0.524208  1
  Ga  Ga23  1  0.590985  0.750000  0.475583  1
  Bi  Bi24  1  0.935279  0.008711  0.673946  1
  Bi  Bi25  1  0.064875  0.991167  0.326023  1
  Bi  Bi26  1  0.435327  0.991272  0.826043  1
  Bi  Bi27  1  0.064875  0.508833  0.326023  1
  Bi  Bi28  1  0.564596  0.008598  0.174036  1
  Bi  Bi29  1  0.935279  0.491289  0.673946  1
  Bi  Bi30  1  0.564596  0.491402  0.174036  1
  Bi  Bi31  1  0.435327  0.508728  0.826043  1
