# generated using pymatgen
data_CeY2(BO3)3
_symmetry_space_group_name_H-M   'P 1'
_cell_length_a   6.67756303
_cell_length_b   6.67756242
_cell_length_c   9.00819810
_cell_angle_alpha   90.00722111
_cell_angle_beta   90.00721943
_cell_angle_gamma   119.77509539
_symmetry_Int_Tables_number   1
_chemical_formula_structural   CeY2(BO3)3
_chemical_formula_sum   'Ce2 Y4 B6 O18'
_cell_volume   348.64567428
_cell_formula_units_Z   2
loop_
 _symmetry_equiv_pos_site_id
 _symmetry_equiv_pos_as_xyz
  1  'x, y, z'
loop_
 _atom_site_type_symbol
 _atom_site_label
 _atom_site_symmetry_multiplicity
 _atom_site_fract_x
 _atom_site_fract_y
 _atom_site_fract_z
 _atom_site_occupancy
  Ce  Ce0  1  0.328764  0.671236  0.500000  1
  Ce  Ce1  1  0.998741  0.001259  0.500000  1
  Y  Y2  1  0.328177  0.671823  0.000000  1
  Y  Y3  1  0.000354  0.999646  0.000000  1
  Y  Y4  1  0.669261  0.330739  0.500000  1
  Y  Y5  1  0.672157  0.327843  0.000000  1
  B  B6  1  0.337918  0.099970  0.754539  1
  B  B7  1  0.094524  0.334752  0.755850  1
  B  B8  1  0.573540  0.571078  0.755884  1
  B  B9  1  0.428922  0.426460  0.244116  1
  B  B10  1  0.665248  0.905476  0.244150  1
  B  B11  1  0.900030  0.662082  0.245461  1
  O  O12  1  0.453062  0.666626  0.242168  1
  O  O13  1  0.665509  0.448059  0.244270  1
  O  O14  1  0.876708  0.876932  0.243276  1
  O  O15  1  0.123068  0.123292  0.756724  1
  O  O16  1  0.551941  0.334491  0.755730  1
  O  O17  1  0.333374  0.546938  0.757832  1
  O  O18  1  0.015392  0.665652  0.107640  1
  O  O19  1  0.003055  0.658017  0.387859  1
  O  O20  1  0.666313  0.015301  0.104972  1
  O  O21  1  0.666134  0.019443  0.383698  1
  O  O22  1  0.316471  0.315760  0.105225  1
  O  O23  1  0.326077  0.320567  0.387517  1
  O  O24  1  0.679433  0.673923  0.612483  1
  O  O25  1  0.684240  0.683529  0.894775  1
  O  O26  1  0.980557  0.333866  0.616302  1
  O  O27  1  0.984699  0.333687  0.895028  1
  O  O28  1  0.341983  0.996945  0.612141  1
  O  O29  1  0.334348  0.984608  0.892360  1
