# generated using pymatgen
data_YEr3Ga20(Tc2Os)2
_symmetry_space_group_name_H-M   'P 1'
_cell_length_a   9.04240939
_cell_length_b   9.04238139
_cell_length_c   6.32146100
_cell_angle_alpha   90.00000000
_cell_angle_beta   90.00000000
_cell_angle_gamma   90.08332934
_symmetry_Int_Tables_number   1
_chemical_formula_structural   YEr3Ga20(Tc2Os)2
_chemical_formula_sum   'Y1 Er3 Ga20 Tc4 Os2'
_cell_volume   516.87317093
_cell_formula_units_Z   1
loop_
 _symmetry_equiv_pos_site_id
 _symmetry_equiv_pos_as_xyz
  1  'x, y, z'
loop_
 _atom_site_type_symbol
 _atom_site_label
 _atom_site_symmetry_multiplicity
 _atom_site_fract_x
 _atom_site_fract_y
 _atom_site_fract_z
 _atom_site_occupancy
  Y  Y0  1  0.683338  0.183339  0.000000  1
  Er  Er1  1  0.316981  0.816980  0.000000  1
  Er  Er2  1  0.816681  0.683332  0.000000  1
  Er  Er3  1  0.183321  0.316700  0.000000  1
  Ga  Ga4  1  0.940788  0.204793  0.291739  1
  Ga  Ga5  1  0.704832  0.440783  0.291826  1
  Ga  Ga6  1  0.499725  0.999708  0.287954  1
  Ga  Ga7  1  0.559440  0.706221  0.709030  1
  Ga  Ga8  1  0.294051  0.560241  0.708908  1
  Ga  Ga9  1  0.794995  0.939888  0.291382  1
  Ga  Ga10  1  0.940788  0.204793  0.708261  1
  Ga  Ga11  1  0.294051  0.560241  0.291092  1
  Ga  Ga12  1  0.060237  0.794033  0.291090  1
  Ga  Ga13  1  0.704832  0.440783  0.708174  1
  Ga  Ga14  1  0.439907  0.294982  0.708636  1
  Ga  Ga15  1  0.060237  0.794033  0.708910  1
  Ga  Ga16  1  0.206252  0.059447  0.709056  1
  Ga  Ga17  1  0.794995  0.939888  0.708618  1
  Ga  Ga18  1  0.206252  0.059447  0.290944  1
  Ga  Ga19  1  0.999390  0.499517  0.714019  1
  Ga  Ga20  1  0.999390  0.499517  0.285981  1
  Ga  Ga21  1  0.559440  0.706221  0.290970  1
  Ga  Ga22  1  0.439907  0.294982  0.291364  1
  Ga  Ga23  1  0.499725  0.999708  0.712046  1
  Tc  Tc24  1  0.679622  0.179614  0.500000  1
  Tc  Tc25  1  0.820563  0.679386  0.500000  1
  Tc  Tc26  1  0.179375  0.320565  0.500000  1
  Tc  Tc27  1  0.320527  0.820521  0.500000  1
  Os  Os28  1  0.001174  0.999181  0.000000  1
  Os  Os29  1  0.499182  0.501155  0.000000  1
