# generated using pymatgen
data_Gd8Fe(Si4Ag)3
_symmetry_space_group_name_H-M   'P 1'
_cell_length_a   8.19078900
_cell_length_b   8.19078858
_cell_length_c   8.18865700
_cell_angle_alpha   90.00000000
_cell_angle_beta   90.00000000
_cell_angle_gamma   120.00001381
_symmetry_Int_Tables_number   1
_chemical_formula_structural   Gd8Fe(Si4Ag)3
_chemical_formula_sum   'Gd8 Fe1 Si12 Ag3'
_cell_volume   475.76742777
_cell_formula_units_Z   1
loop_
 _symmetry_equiv_pos_site_id
 _symmetry_equiv_pos_as_xyz
  1  'x, y, z'
loop_
 _atom_site_type_symbol
 _atom_site_label
 _atom_site_symmetry_multiplicity
 _atom_site_fract_x
 _atom_site_fract_y
 _atom_site_fract_z
 _atom_site_occupancy
  Gd  Gd0  1  0.495393  0.990784  0.241561  1
  Gd  Gd1  1  0.493300  0.986599  0.758756  1
  Gd  Gd2  1  0.009216  0.504607  0.241561  1
  Gd  Gd3  1  0.013401  0.506700  0.758756  1
  Gd  Gd4  1  0.495393  0.504607  0.241561  1
  Gd  Gd5  1  0.493300  0.506700  0.758756  1
  Gd  Gd6  1  0.000000  0.000000  0.249316  1
  Gd  Gd7  1  0.000000  0.000000  0.750252  1
  Fe  Fe8  1  0.333333  0.666667  0.001591  1
  Si  Si9  1  0.173208  0.346416  0.001601  1
  Si  Si10  1  0.839936  0.679873  0.998949  1
  Si  Si11  1  0.653584  0.826792  0.001601  1
  Si  Si12  1  0.836874  0.673748  0.497509  1
  Si  Si13  1  0.320127  0.160064  0.998949  1
  Si  Si14  1  0.162515  0.325030  0.501814  1
  Si  Si15  1  0.173208  0.826792  0.001601  1
  Si  Si16  1  0.326252  0.163126  0.497509  1
  Si  Si17  1  0.839936  0.160064  0.998949  1
  Si  Si18  1  0.674970  0.837485  0.501814  1
  Si  Si19  1  0.836874  0.163126  0.497509  1
  Si  Si20  1  0.162515  0.837485  0.501814  1
  Ag  Ag21  1  0.666667  0.333333  0.996857  1
  Ag  Ag22  1  0.666667  0.333333  0.504313  1
  Ag  Ag23  1  0.333333  0.666667  0.497102  1
