# generated using pymatgen
data_Li(NdC2)2
_symmetry_space_group_name_H-M   'P 1'
_cell_length_a   6.99747888
_cell_length_b   6.99747888
_cell_length_c   6.99747928
_cell_angle_alpha   134.93612280
_cell_angle_beta   110.77672742
_cell_angle_gamma   86.50018520
_symmetry_Int_Tables_number   1
_chemical_formula_structural   Li(NdC2)2
_chemical_formula_sum   'Li2 Nd4 C8'
_cell_volume   217.27867540
_cell_formula_units_Z   2
loop_
 _symmetry_equiv_pos_site_id
 _symmetry_equiv_pos_as_xyz
  1  'x, y, z'
loop_
 _atom_site_type_symbol
 _atom_site_label
 _atom_site_symmetry_multiplicity
 _atom_site_fract_x
 _atom_site_fract_y
 _atom_site_fract_z
 _atom_site_occupancy
  Li  Li0  1  0.000000  0.250000  0.250000  1
  Li  Li1  1  0.000000  0.750000  0.750000  1
  Nd  Nd2  1  0.195626  0.358986  0.836639  1
  Nd  Nd3  1  0.804374  0.641014  0.163361  1
  Nd  Nd4  1  0.522345  0.858986  0.663361  1
  Nd  Nd5  1  0.477655  0.141014  0.336639  1
  C  C6  1  0.775417  0.127938  0.647480  1
  C  C7  1  0.224583  0.872062  0.352520  1
  C  C8  1  0.480457  0.627938  0.852520  1
  C  C9  1  0.519543  0.372062  0.147480  1
  C  C10  1  0.899054  0.092065  0.806988  1
  C  C11  1  0.100946  0.907935  0.193012  1
  C  C12  1  0.285077  0.592065  0.693012  1
  C  C13  1  0.714923  0.407935  0.306988  1
