# generated using pymatgen
data_Er4Tm4Ga3Fe
_symmetry_space_group_name_H-M   'P 1'
_cell_length_a   9.84243800
_cell_length_b   9.84243634
_cell_length_c   6.90913800
_cell_angle_alpha   90.00000000
_cell_angle_beta   90.00000000
_cell_angle_gamma   119.99999887
_symmetry_Int_Tables_number   1
_chemical_formula_structural   Er4Tm4Ga3Fe
_chemical_formula_sum   'Er8 Tm8 Ga6 Fe2'
_cell_volume   579.64194613
_cell_formula_units_Z   2
loop_
 _symmetry_equiv_pos_site_id
 _symmetry_equiv_pos_as_xyz
  1  'x, y, z'
loop_
 _atom_site_type_symbol
 _atom_site_label
 _atom_site_symmetry_multiplicity
 _atom_site_fract_x
 _atom_site_fract_y
 _atom_site_fract_z
 _atom_site_occupancy
  Er  Er0  1  0.536791  0.073581  0.792161  1
  Er  Er1  1  0.926419  0.463209  0.792161  1
  Er  Er2  1  0.536791  0.463209  0.792161  1
  Er  Er3  1  0.463209  0.926419  0.292161  1
  Er  Er4  1  0.073581  0.536791  0.292161  1
  Er  Er5  1  0.463209  0.536791  0.292161  1
  Er  Er6  1  0.000000  0.000000  0.767783  1
  Er  Er7  1  0.000000  0.000000  0.267783  1
  Tm  Tm8  1  0.826505  0.653009  0.488012  1
  Tm  Tm9  1  0.346991  0.173495  0.488012  1
  Tm  Tm10  1  0.826505  0.173495  0.488012  1
  Tm  Tm11  1  0.173495  0.346991  0.988012  1
  Tm  Tm12  1  0.653009  0.826505  0.988012  1
  Tm  Tm13  1  0.173495  0.826505  0.988012  1
  Tm  Tm14  1  0.666667  0.333333  0.171590  1
  Tm  Tm15  1  0.333333  0.666667  0.671590  1
  Ga  Ga16  1  0.835969  0.671939  0.043254  1
  Ga  Ga17  1  0.328061  0.164031  0.043254  1
  Ga  Ga18  1  0.835969  0.164031  0.043254  1
  Ga  Ga19  1  0.164031  0.328061  0.543254  1
  Ga  Ga20  1  0.671939  0.835969  0.543254  1
  Ga  Ga21  1  0.164031  0.835969  0.543254  1
  Fe  Fe22  1  0.666667  0.333333  0.553382  1
  Fe  Fe23  1  0.333333  0.666667  0.053382  1
