# generated using pymatgen
data_Y7Er5Th4(CdIr)4
_symmetry_space_group_name_H-M   'P 1'
_cell_length_a   9.73740086
_cell_length_b   9.73740091
_cell_length_c   9.74793400
_cell_angle_alpha   59.96421071
_cell_angle_beta   59.96421054
_cell_angle_gamma   60.03486350
_symmetry_Int_Tables_number   1
_chemical_formula_structural   Y7Er5Th4(CdIr)4
_chemical_formula_sum   'Y7 Er5 Th4 Cd4 Ir4'
_cell_volume   653.37529604
_cell_formula_units_Z   1
loop_
 _symmetry_equiv_pos_site_id
 _symmetry_equiv_pos_as_xyz
  1  'x, y, z'
loop_
 _atom_site_type_symbol
 _atom_site_label
 _atom_site_symmetry_multiplicity
 _atom_site_fract_x
 _atom_site_fract_y
 _atom_site_fract_z
 _atom_site_occupancy
  Y  Y0  1  0.813336  0.813336  0.186664  1
  Y  Y1  1  0.937160  0.563331  0.564245  1
  Y  Y2  1  0.563331  0.937160  0.935265  1
  Y  Y3  1  0.563331  0.937160  0.564245  1
  Y  Y4  1  0.937160  0.563331  0.935265  1
  Y  Y5  1  0.563790  0.563790  0.936210  1
  Y  Y6  1  0.936358  0.936358  0.563642  1
  Er  Er7  1  0.812944  0.187265  0.186932  1
  Er  Er8  1  0.187265  0.812944  0.812859  1
  Er  Er9  1  0.187265  0.812944  0.186932  1
  Er  Er10  1  0.812944  0.187265  0.812859  1
  Er  Er11  1  0.187367  0.187367  0.812633  1
  Th  Th12  1  0.350093  0.350093  0.349278  1
  Th  Th13  1  0.350093  0.350093  0.950536  1
  Th  Th14  1  0.350057  0.949908  0.350018  1
  Th  Th15  1  0.949908  0.350057  0.350018  1
  Cd  Cd16  1  0.582313  0.582313  0.583165  1
  Cd  Cd17  1  0.582313  0.582313  0.252210  1
  Cd  Cd18  1  0.582214  0.251700  0.583043  1
  Cd  Cd19  1  0.251700  0.582214  0.583043  1
  Ir  Ir20  1  0.142338  0.142338  0.143404  1
  Ir  Ir21  1  0.142338  0.142338  0.571918  1
  Ir  Ir22  1  0.144142  0.570238  0.142809  1
  Ir  Ir23  1  0.570238  0.144142  0.142809  1
