# generated using pymatgen
data_Lu5Mg(Rh2Pb)6
_symmetry_space_group_name_H-M   'P 1'
_cell_length_a   4.55083000
_cell_length_b   7.12245200
_cell_length_c   13.50553900
_cell_angle_alpha   89.99883959
_cell_angle_beta   89.99794491
_cell_angle_gamma   89.99934283
_symmetry_Int_Tables_number   1
_chemical_formula_structural   Lu5Mg(Rh2Pb)6
_chemical_formula_sum   'Lu5 Mg1 Rh12 Pb6'
_cell_volume   437.75595696
_cell_formula_units_Z   1
loop_
 _symmetry_equiv_pos_site_id
 _symmetry_equiv_pos_as_xyz
  1  'x, y, z'
loop_
 _atom_site_type_symbol
 _atom_site_label
 _atom_site_symmetry_multiplicity
 _atom_site_fract_x
 _atom_site_fract_y
 _atom_site_fract_z
 _atom_site_occupancy
  Lu  Lu0  1  0.999986  0.499993  0.997574  1
  Lu  Lu1  1  0.499820  0.999996  0.165352  1
  Lu  Lu2  1  0.999840  0.500012  0.333306  1
  Lu  Lu3  1  0.499989  0.000003  0.501421  1
  Lu  Lu4  1  0.000173  0.500009  0.669128  1
  Mg  Mg5  1  0.500246  0.000006  0.833279  1
  Rh  Rh6  1  0.499986  0.243705  0.996875  1
  Rh  Rh7  1  0.499985  0.756290  0.996881  1
  Rh  Rh8  1  0.999869  0.249766  0.166147  1
  Rh  Rh9  1  0.999877  0.750230  0.166149  1
  Rh  Rh10  1  0.499871  0.249834  0.333402  1
  Rh  Rh11  1  0.499890  0.750170  0.333404  1
  Rh  Rh12  1  0.000004  0.249655  0.500555  1
  Rh  Rh13  1  0.000003  0.750343  0.500558  1
  Rh  Rh14  1  0.500133  0.243970  0.669710  1
  Rh  Rh15  1  0.500119  0.756014  0.669712  1
  Rh  Rh16  1  0.000135  0.245530  0.833295  1
  Rh  Rh17  1  0.000126  0.754478  0.833295  1
  Pb  Pb18  1  0.999922  0.999984  0.995394  1
  Pb  Pb19  1  0.499874  0.500018  0.163545  1
  Pb  Pb20  1  0.999888  0.999999  0.333410  1
  Pb  Pb21  1  0.500036  0.500003  0.503041  1
  Pb  Pb22  1  0.000131  0.999987  0.671175  1
  Pb  Pb23  1  0.500092  0.500005  0.833393  1
