# generated using pymatgen
data_Lu12Os3Pd
_symmetry_space_group_name_H-M   'P 1'
_cell_length_a   7.22825164
_cell_length_b   8.89133200
_cell_length_c   6.25020213
_cell_angle_alpha   90.00000000
_cell_angle_beta   90.23662275
_cell_angle_gamma   90.00000000
_symmetry_Int_Tables_number   1
_chemical_formula_structural   Lu12Os3Pd
_chemical_formula_sum   'Lu12 Os3 Pd1'
_cell_volume   401.68947191
_cell_formula_units_Z   1
loop_
 _symmetry_equiv_pos_site_id
 _symmetry_equiv_pos_as_xyz
  1  'x, y, z'
loop_
 _atom_site_type_symbol
 _atom_site_label
 _atom_site_symmetry_multiplicity
 _atom_site_fract_x
 _atom_site_fract_y
 _atom_site_fract_z
 _atom_site_occupancy
  Lu  Lu0  1  0.669498  0.056510  0.337603  1
  Lu  Lu1  1  0.185114  0.443386  0.171734  1
  Lu  Lu2  1  0.322531  0.561177  0.671731  1
  Lu  Lu3  1  0.822042  0.933083  0.823826  1
  Lu  Lu4  1  0.322531  0.938823  0.671731  1
  Lu  Lu5  1  0.822042  0.566917  0.823826  1
  Lu  Lu6  1  0.669498  0.443490  0.337603  1
  Lu  Lu7  1  0.185114  0.056614  0.171734  1
  Lu  Lu8  1  0.532836  0.250000  0.876866  1
  Lu  Lu9  1  0.036720  0.250000  0.618178  1
  Lu  Lu10  1  0.465152  0.750000  0.117915  1
  Lu  Lu11  1  0.963302  0.750000  0.372968  1
  Os  Os12  1  0.384403  0.250000  0.464517  1
  Os  Os13  1  0.114731  0.750000  0.963910  1
  Os  Os14  1  0.613820  0.750000  0.531169  1
  Pd  Pd15  1  0.890664  0.250000  0.044688  1
