# generated using pymatgen
data_Np2Al16FePt8
_symmetry_space_group_name_H-M   'P 1'
_cell_length_a   11.10234356
_cell_length_b   11.10234409
_cell_length_c   11.10234400
_cell_angle_alpha   158.47255904
_cell_angle_beta   116.01310306
_cell_angle_gamma   68.35722602
_symmetry_Int_Tables_number   1
_chemical_formula_structural   Np2Al16FePt8
_chemical_formula_sum   'Np2 Al16 Fe1 Pt8'
_cell_volume   448.09945490
_cell_formula_units_Z   1
loop_
 _symmetry_equiv_pos_site_id
 _symmetry_equiv_pos_as_xyz
  1  'x, y, z'
loop_
 _atom_site_type_symbol
 _atom_site_label
 _atom_site_symmetry_multiplicity
 _atom_site_fract_x
 _atom_site_fract_y
 _atom_site_fract_z
 _atom_site_occupancy
  Np  Np0  1  0.230383  0.229944  0.000439  1
  Np  Np1  1  0.770494  0.770056  0.000439  1
  Al  Al2  1  0.275876  0.391622  0.884254  1
  Al  Al3  1  0.090019  0.923863  0.166157  1
  Al  Al4  1  0.507364  0.201580  0.305786  1
  Al  Al5  1  0.242294  0.076137  0.166157  1
  Al  Al6  1  0.908128  0.415495  0.492634  1
  Al  Al7  1  0.724894  0.598840  0.126055  1
  Al  Al8  1  0.899877  0.207253  0.692624  1
  Al  Al9  1  0.485373  0.792747  0.692624  1
  Al  Al10  1  0.390209  0.000000  0.390209  1
  Al  Al11  1  0.625028  0.000000  0.625028  1
  Al  Al12  1  0.492631  0.608378  0.884254  1
  Al  Al13  1  0.104206  0.798420  0.305786  1
  Al  Al14  1  0.899010  0.081220  0.817791  1
  Al  Al15  1  0.736570  0.918780  0.817791  1
  Al  Al16  1  0.527215  0.401160  0.126055  1
  Al  Al17  1  0.077139  0.584505  0.492634  1
  Fe  Fe18  1  0.772771  0.500000  0.272771  1
  Pt  Pt19  1  0.024914  0.342634  0.682279  1
  Pt  Pt20  1  0.630311  0.126465  0.503846  1
  Pt  Pt21  1  0.256993  0.500000  0.756993  1
  Pt  Pt22  1  0.377380  0.873535  0.503846  1
  Pt  Pt23  1  0.985275  0.000000  0.985275  1
  Pt  Pt24  1  0.650247  0.337247  0.313000  1
  Pt  Pt25  1  0.339647  0.657366  0.682279  1
  Pt  Pt26  1  0.975750  0.662753  0.313000  1
