# generated using pymatgen
data_Ho3TmTc3PtF28
_symmetry_space_group_name_H-M   'P 1'
_cell_length_a   5.55210421
_cell_length_b   8.85016248
_cell_length_c   11.96177975
_cell_angle_alpha   62.65003898
_cell_angle_beta   89.99665375
_cell_angle_gamma   89.98279260
_symmetry_Int_Tables_number   1
_chemical_formula_structural   Ho3TmTc3PtF28
_chemical_formula_sum   'Ho3 Tm1 Tc3 Pt1 F28'
_cell_volume   522.06393781
_cell_formula_units_Z   1
loop_
 _symmetry_equiv_pos_site_id
 _symmetry_equiv_pos_as_xyz
  1  'x, y, z'
loop_
 _atom_site_type_symbol
 _atom_site_label
 _atom_site_symmetry_multiplicity
 _atom_site_fract_x
 _atom_site_fract_y
 _atom_site_fract_z
 _atom_site_occupancy
  Ho  Ho0  1  0.259542  0.184273  0.735423  1
  Ho  Ho1  1  0.240037  0.185340  0.236496  1
  Ho  Ho2  1  0.741251  0.812950  0.265267  1
  Tm  Tm3  1  0.759313  0.813705  0.764758  1
  Tc  Tc4  1  0.758010  0.273690  0.956688  1
  Tc  Tc5  1  0.257990  0.726866  0.544252  1
  Tc  Tc6  1  0.241993  0.726704  0.042598  1
  Pt  Pt7  1  0.740920  0.271553  0.457378  1
  F  F8  1  0.445481  0.706977  0.916392  1
  F  F9  1  0.936975  0.297391  0.584460  1
  F  F10  1  0.555600  0.293464  0.083093  1
  F  F11  1  0.057181  0.706679  0.417597  1
  F  F12  1  0.440287  0.277355  0.543436  1
  F  F13  1  0.944062  0.724322  0.952750  1
  F  F14  1  0.554605  0.723051  0.454962  1
  F  F15  1  0.055271  0.276318  0.046240  1
  F  F16  1  0.774718  0.522960  0.858856  1
  F  F17  1  0.273744  0.477903  0.641082  1
  F  F18  1  0.225033  0.478141  0.141046  1
  F  F19  1  0.724825  0.520948  0.358116  1
  F  F20  1  0.756022  0.025849  0.052915  1
  F  F21  1  0.255915  0.974640  0.447347  1
  F  F22  1  0.244592  0.974712  0.946576  1
  F  F23  1  0.745253  0.022106  0.551449  1
  F  F24  1  0.971677  0.729101  0.640242  1
  F  F25  1  0.472637  0.271552  0.860620  1
  F  F26  1  0.033098  0.275027  0.363368  1
  F  F27  1  0.527071  0.728208  0.138848  1
  F  F28  1  0.046949  0.746826  0.172917  1
  F  F29  1  0.551387  0.254101  0.324390  1
  F  F30  1  0.954829  0.253015  0.827075  1
  F  F31  1  0.456758  0.747597  0.673640  1
  F  F32  1  0.418182  0.970610  0.232364  1
  F  F33  1  0.917646  0.029254  0.268110  1
  F  F34  1  0.582976  0.027181  0.766959  1
  F  F35  1  0.078172  0.969634  0.732287  1
