# generated using pymatgen
data_Er8Tl3Ir
_symmetry_space_group_name_H-M   'P 1'
_cell_length_a   10.27408500
_cell_length_b   10.27408559
_cell_length_c   7.17905100
_cell_angle_alpha   90.00000000
_cell_angle_beta   90.00000000
_cell_angle_gamma   120.00000133
_symmetry_Int_Tables_number   1
_chemical_formula_structural   Er8Tl3Ir
_chemical_formula_sum   'Er16 Tl6 Ir2'
_cell_volume   656.27218549
_cell_formula_units_Z   2
loop_
 _symmetry_equiv_pos_site_id
 _symmetry_equiv_pos_as_xyz
  1  'x, y, z'
loop_
 _atom_site_type_symbol
 _atom_site_label
 _atom_site_symmetry_multiplicity
 _atom_site_fract_x
 _atom_site_fract_y
 _atom_site_fract_z
 _atom_site_occupancy
  Er  Er0  1  0.000000  0.000000  0.266495  1
  Er  Er1  1  0.000000  0.000000  0.766495  1
  Er  Er2  1  0.175536  0.824464  0.989778  1
  Er  Er3  1  0.824464  0.175536  0.489778  1
  Er  Er4  1  0.175536  0.351072  0.989778  1
  Er  Er5  1  0.648928  0.824464  0.989778  1
  Er  Er6  1  0.351072  0.175536  0.489778  1
  Er  Er7  1  0.824464  0.648928  0.489778  1
  Er  Er8  1  0.333333  0.666667  0.674139  1
  Er  Er9  1  0.666667  0.333333  0.174139  1
  Er  Er10  1  0.463046  0.536954  0.290060  1
  Er  Er11  1  0.536954  0.463046  0.790060  1
  Er  Er12  1  0.463046  0.926094  0.290060  1
  Er  Er13  1  0.073906  0.536954  0.290060  1
  Er  Er14  1  0.926094  0.463046  0.790060  1
  Er  Er15  1  0.536954  0.073906  0.790060  1
  Tl  Tl16  1  0.164467  0.835533  0.544637  1
  Tl  Tl17  1  0.835533  0.164467  0.044637  1
  Tl  Tl18  1  0.164467  0.328935  0.544637  1
  Tl  Tl19  1  0.671065  0.835533  0.544637  1
  Tl  Tl20  1  0.328935  0.164467  0.044637  1
  Tl  Tl21  1  0.835533  0.671065  0.044637  1
  Ir  Ir22  1  0.333333  0.666667  0.059002  1
  Ir  Ir23  1  0.666667  0.333333  0.559002  1
