# generated using pymatgen
data_Sm2UNi3Sb4
_symmetry_space_group_name_H-M   'P 1'
_cell_length_a   8.22833186
_cell_length_b   8.22833112
_cell_length_c   8.22833170
_cell_angle_alpha   109.38795972
_cell_angle_beta   109.38795876
_cell_angle_gamma   109.63786805
_symmetry_Int_Tables_number   1
_chemical_formula_structural   Sm2UNi3Sb4
_chemical_formula_sum   'Sm4 U2 Ni6 Sb8'
_cell_volume   428.85524321
_cell_formula_units_Z   2
loop_
 _symmetry_equiv_pos_site_id
 _symmetry_equiv_pos_as_xyz
  1  'x, y, z'
loop_
 _atom_site_type_symbol
 _atom_site_label
 _atom_site_symmetry_multiplicity
 _atom_site_fract_x
 _atom_site_fract_y
 _atom_site_fract_z
 _atom_site_occupancy
  Sm  Sm0  1  0.872819  0.250000  0.122819  1
  Sm  Sm1  1  0.627181  0.750000  0.377181  1
  Sm  Sm2  1  0.250000  0.127181  0.877181  1
  Sm  Sm3  1  0.750000  0.372819  0.622819  1
  U  U4  1  0.125000  0.875000  0.250000  1
  U  U5  1  0.375000  0.625000  0.750000  1
  Ni  Ni6  1  0.370757  0.250000  0.620757  1
  Ni  Ni7  1  0.129243  0.750000  0.879243  1
  Ni  Ni8  1  0.250000  0.629243  0.379243  1
  Ni  Ni9  1  0.750000  0.870757  0.120757  1
  Ni  Ni10  1  0.625000  0.375000  0.250000  1
  Ni  Ni11  1  0.875000  0.125000  0.750000  1
  Sb  Sb12  1  0.658327  0.501359  0.999589  1
  Sb  Sb13  1  0.498230  0.998641  0.656968  1
  Sb  Sb14  1  0.001770  0.658738  0.500411  1
  Sb  Sb15  1  0.841673  0.841262  0.843032  1
  Sb  Sb16  1  0.498641  0.998230  0.156968  1
  Sb  Sb17  1  0.158738  0.501770  0.000411  1
  Sb  Sb18  1  0.001359  0.158327  0.499589  1
  Sb  Sb19  1  0.341262  0.341673  0.343032  1
