# generated using pymatgen
data_Ce3Th(ZnCu2)8
_symmetry_space_group_name_H-M   'P 1'
_cell_length_a   5.09174700
_cell_length_b   8.14925498
_cell_length_c   10.35557885
_cell_angle_alpha   89.90157401
_cell_angle_beta   90.00000000
_cell_angle_gamma   90.00000000
_symmetry_Int_Tables_number   1
_chemical_formula_structural   Ce3Th(ZnCu2)8
_chemical_formula_sum   'Ce3 Th1 Zn8 Cu16'
_cell_volume   429.69318118
_cell_formula_units_Z   1
loop_
 _symmetry_equiv_pos_site_id
 _symmetry_equiv_pos_as_xyz
  1  'x, y, z'
loop_
 _atom_site_type_symbol
 _atom_site_label
 _atom_site_symmetry_multiplicity
 _atom_site_fract_x
 _atom_site_fract_y
 _atom_site_fract_z
 _atom_site_occupancy
  Ce  Ce0  1  0.250000  0.259254  0.560361  1
  Ce  Ce1  1  0.750000  0.740459  0.439578  1
  Ce  Ce2  1  0.250000  0.760141  0.939145  1
  Th  Th3  1  0.750000  0.240883  0.060631  1
  Zn  Zn4  1  0.750000  0.356200  0.362792  1
  Zn  Zn5  1  0.250000  0.644186  0.638095  1
  Zn  Zn6  1  0.750000  0.854155  0.138556  1
  Zn  Zn7  1  0.250000  0.144136  0.861322  1
  Zn  Zn8  1  0.750000  0.683083  0.748065  1
  Zn  Zn9  1  0.250000  0.317368  0.252896  1
  Zn  Zn10  1  0.750000  0.182747  0.750843  1
  Zn  Zn11  1  0.250000  0.816835  0.248547  1
  Cu  Cu12  1  0.506568  0.563599  0.191254  1
  Cu  Cu13  1  0.006190  0.436344  0.809025  1
  Cu  Cu14  1  0.993020  0.063272  0.308964  1
  Cu  Cu15  1  0.493179  0.936451  0.690694  1
  Cu  Cu16  1  0.750000  0.933963  0.903092  1
  Cu  Cu17  1  0.250000  0.064424  0.096873  1
  Cu  Cu18  1  0.750000  0.435612  0.596420  1
  Cu  Cu19  1  0.250000  0.565811  0.403618  1
  Cu  Cu20  1  0.750000  0.594819  0.985542  1
  Cu  Cu21  1  0.250000  0.408210  0.014117  1
  Cu  Cu22  1  0.750000  0.092541  0.514126  1
  Cu  Cu23  1  0.250000  0.905840  0.485507  1
  Cu  Cu24  1  0.506980  0.063272  0.308964  1
  Cu  Cu25  1  0.006821  0.936451  0.690694  1
  Cu  Cu26  1  0.993432  0.563599  0.191254  1
  Cu  Cu27  1  0.493810  0.436344  0.809025  1
