# generated using pymatgen
data_Li6ErPu2N6
_symmetry_space_group_name_H-M   'P 1'
_cell_length_a   5.97899400
_cell_length_b   5.97899613
_cell_length_c   5.44595700
_cell_angle_alpha   90.00000000
_cell_angle_beta   90.00000000
_cell_angle_gamma   120.00001034
_symmetry_Int_Tables_number   1
_chemical_formula_structural   Li6ErPu2N6
_chemical_formula_sum   'Li6 Er1 Pu2 N6'
_cell_volume   168.60140308
_cell_formula_units_Z   1
loop_
 _symmetry_equiv_pos_site_id
 _symmetry_equiv_pos_as_xyz
  1  'x, y, z'
loop_
 _atom_site_type_symbol
 _atom_site_label
 _atom_site_symmetry_multiplicity
 _atom_site_fract_x
 _atom_site_fract_y
 _atom_site_fract_z
 _atom_site_occupancy
  Li  Li0  1  0.989619  0.661510  0.608554  1
  Li  Li1  1  0.338490  0.328110  0.608554  1
  Li  Li2  1  0.671890  0.010381  0.608554  1
  Li  Li3  1  0.010381  0.338490  0.391446  1
  Li  Li4  1  0.661510  0.671890  0.391446  1
  Li  Li5  1  0.328110  0.989619  0.391446  1
  Er  Er6  1  0.000000  0.000000  0.000000  1
  Pu  Pu7  1  0.333333  0.666667  0.995969  1
  Pu  Pu8  1  0.666667  0.333333  0.004031  1
  N  N9  1  0.000371  0.655002  0.224085  1
  N  N10  1  0.344998  0.345369  0.224085  1
  N  N11  1  0.654631  0.999629  0.224085  1
  N  N12  1  0.999629  0.344998  0.775915  1
  N  N13  1  0.655002  0.654631  0.775915  1
  N  N14  1  0.345369  0.000371  0.775915  1
