# generated using pymatgen
data_Ho2Er3Si10P2Ir19
_symmetry_space_group_name_H-M   'P 1'
_cell_length_a   12.82507903
_cell_length_b   12.82517158
_cell_length_c   3.95046600
_cell_angle_alpha   90.00000000
_cell_angle_beta   90.00000000
_cell_angle_gamma   120.15013051
_symmetry_Int_Tables_number   1
_chemical_formula_structural   Ho2Er3Si10P2Ir19
_chemical_formula_sum   'Ho2 Er3 Si10 P2 Ir19'
_cell_volume   561.87951302
_cell_formula_units_Z   1
loop_
 _symmetry_equiv_pos_site_id
 _symmetry_equiv_pos_as_xyz
  1  'x, y, z'
loop_
 _atom_site_type_symbol
 _atom_site_label
 _atom_site_symmetry_multiplicity
 _atom_site_fract_x
 _atom_site_fract_y
 _atom_site_fract_z
 _atom_site_occupancy
  Ho  Ho0  1  0.812966  0.812970  0.500000  1
  Ho  Ho1  1  0.186007  0.001155  0.500000  1
  Er  Er2  1  0.666553  0.333642  0.000000  1
  Er  Er3  1  0.333611  0.666519  0.000000  1
  Er  Er4  1  0.001170  0.186013  0.500000  1
  Si  Si5  1  0.686072  0.167620  0.500000  1
  Si  Si6  1  0.831994  0.518117  0.500000  1
  Si  Si7  1  0.481278  0.312953  0.500000  1
  Si  Si8  1  0.167621  0.686073  0.500000  1
  Si  Si9  1  0.518132  0.832003  0.500000  1
  Si  Si10  1  0.312957  0.481295  0.500000  1
  Si  Si11  1  0.633474  0.633478  0.000000  1
  Si  Si12  1  0.366911  0.000181  0.000000  1
  Si  Si13  1  0.000181  0.366821  0.000000  1
  Si  Si14  1  0.178577  0.178662  0.000000  1
  P  P15  1  0.820909  0.000926  0.000000  1
  P  P16  1  0.000867  0.820858  0.000000  1
  Ir  Ir17  1  0.806705  0.179896  0.000000  1
  Ir  Ir18  1  0.820566  0.627160  0.000000  1
  Ir  Ir19  1  0.375541  0.193910  0.000000  1
  Ir  Ir20  1  0.179888  0.806560  0.000000  1
  Ir  Ir21  1  0.627156  0.820572  0.000000  1
  Ir  Ir22  1  0.193761  0.375420  0.000000  1
  Ir  Ir23  1  0.448103  0.448098  0.000000  1
  Ir  Ir24  1  0.552252  0.999067  0.000000  1
  Ir  Ir25  1  0.999070  0.552246  0.000000  1
  Ir  Ir26  1  0.281726  0.281778  0.500000  1
  Ir  Ir27  1  0.721009  0.000251  0.500000  1
  Ir  Ir28  1  0.000199  0.720923  0.500000  1
  Ir  Ir29  1  0.872031  0.359370  0.500000  1
  Ir  Ir30  1  0.640595  0.512808  0.500000  1
  Ir  Ir31  1  0.487312  0.126521  0.500000  1
  Ir  Ir32  1  0.359393  0.872031  0.500000  1
  Ir  Ir33  1  0.512814  0.640602  0.500000  1
  Ir  Ir34  1  0.126529  0.487302  0.500000  1
  Ir  Ir35  1  0.996074  0.996200  0.000000  1
