# generated using pymatgen
data_Rb4Hf3Te16
_symmetry_space_group_name_H-M   'P 1'
_cell_length_a   11.35630711
_cell_length_b   11.35630619
_cell_length_c   15.66375400
_cell_angle_alpha   96.78093780
_cell_angle_beta   96.78093725
_cell_angle_gamma   115.30853071
_symmetry_Int_Tables_number   1
_chemical_formula_structural   Rb4Hf3Te16
_chemical_formula_sum   'Rb8 Hf6 Te32'
_cell_volume   1781.17129930
_cell_formula_units_Z   2
loop_
 _symmetry_equiv_pos_site_id
 _symmetry_equiv_pos_as_xyz
  1  'x, y, z'
loop_
 _atom_site_type_symbol
 _atom_site_label
 _atom_site_symmetry_multiplicity
 _atom_site_fract_x
 _atom_site_fract_y
 _atom_site_fract_z
 _atom_site_occupancy
  Rb  Rb0  1  0.749055  0.450791  0.432834  1
  Rb  Rb1  1  0.549209  0.250945  0.067166  1
  Rb  Rb2  1  0.250945  0.549209  0.567166  1
  Rb  Rb3  1  0.450791  0.749055  0.932834  1
  Rb  Rb4  1  0.248324  0.972373  0.375379  1
  Rb  Rb5  1  0.027627  0.751676  0.124621  1
  Rb  Rb6  1  0.751676  0.027627  0.624621  1
  Rb  Rb7  1  0.972373  0.248324  0.875379  1
  Hf  Hf8  1  0.208115  0.432673  0.228975  1
  Hf  Hf9  1  0.567327  0.791885  0.271025  1
  Hf  Hf10  1  0.791885  0.567327  0.771025  1
  Hf  Hf11  1  0.432673  0.208115  0.728975  1
  Hf  Hf12  1  0.891302  0.108698  0.250000  1
  Hf  Hf13  1  0.108698  0.891302  0.750000  1
  Te  Te14  1  0.150758  0.247929  0.367606  1
  Te  Te15  1  0.752071  0.849242  0.132394  1
  Te  Te16  1  0.849242  0.752071  0.632394  1
  Te  Te17  1  0.247929  0.150758  0.867606  1
  Te  Te18  1  0.904868  0.198261  0.438642  1
  Te  Te19  1  0.801739  0.095132  0.061358  1
  Te  Te20  1  0.095132  0.801739  0.561358  1
  Te  Te21  1  0.198261  0.904868  0.938642  1
  Te  Te22  1  0.843119  0.916739  0.371306  1
  Te  Te23  1  0.083261  0.156881  0.128694  1
  Te  Te24  1  0.156881  0.083261  0.628694  1
  Te  Te25  1  0.916739  0.843119  0.871306  1
  Te  Te26  1  0.732920  0.648036  0.244395  1
  Te  Te27  1  0.351964  0.267080  0.255605  1
  Te  Te28  1  0.267080  0.351964  0.755605  1
  Te  Te29  1  0.648036  0.732920  0.744395  1
  Te  Te30  1  0.922214  0.373468  0.215609  1
  Te  Te31  1  0.626532  0.077785  0.284391  1
  Te  Te32  1  0.077785  0.626532  0.784391  1
  Te  Te33  1  0.373468  0.922214  0.715609  1
  Te  Te34  1  0.119958  0.592696  0.337035  1
  Te  Te35  1  0.407304  0.880042  0.162965  1
  Te  Te36  1  0.880042  0.407304  0.662965  1
  Te  Te37  1  0.592696  0.119958  0.837035  1
  Te  Te38  1  0.450138  0.575642  0.371031  1
  Te  Te39  1  0.424358  0.549862  0.128969  1
  Te  Te40  1  0.549862  0.424358  0.628969  1
  Te  Te41  1  0.575642  0.450138  0.871031  1
  Te  Te42  1  0.472716  0.828178  0.435723  1
  Te  Te43  1  0.171822  0.527284  0.064277  1
  Te  Te44  1  0.527284  0.171822  0.564277  1
  Te  Te45  1  0.828178  0.472716  0.935723  1
