# generated using pymatgen
data_Pr5Er3(P3Rh4)4
_symmetry_space_group_name_H-M   'P 1'
_cell_length_a   13.09513300
_cell_length_b   13.09513339
_cell_length_c   3.94346500
_cell_angle_alpha   90.00000000
_cell_angle_beta   90.00000000
_cell_angle_gamma   120.00000155
_symmetry_Int_Tables_number   1
_chemical_formula_structural   Pr5Er3(P3Rh4)4
_chemical_formula_sum   'Pr5 Er3 P12 Rh16'
_cell_volume   585.63693042
_cell_formula_units_Z   1
loop_
 _symmetry_equiv_pos_site_id
 _symmetry_equiv_pos_as_xyz
  1  'x, y, z'
loop_
 _atom_site_type_symbol
 _atom_site_label
 _atom_site_symmetry_multiplicity
 _atom_site_fract_x
 _atom_site_fract_y
 _atom_site_fract_z
 _atom_site_occupancy
  Pr  Pr0  1  0.186734  0.186734  0.500000  1
  Pr  Pr1  1  0.813266  0.000000  0.500000  1
  Pr  Pr2  1  0.000000  0.813266  0.500000  1
  Pr  Pr3  1  0.333333  0.666667  0.000000  1
  Pr  Pr4  1  0.666667  0.333333  0.000000  1
  Er  Er5  1  0.556671  0.556671  0.000000  1
  Er  Er6  1  0.443329  0.000000  0.000000  1
  Er  Er7  1  0.000000  0.443329  0.000000  1
  P  P8  1  0.820785  0.820785  0.000000  1
  P  P9  1  0.179215  0.000000  0.000000  1
  P  P10  1  0.000000  0.179215  0.000000  1
  P  P11  1  0.170946  0.480371  0.500000  1
  P  P12  1  0.519629  0.690576  0.500000  1
  P  P13  1  0.309424  0.829054  0.500000  1
  P  P14  1  0.690576  0.519629  0.500000  1
  P  P15  1  0.829054  0.309424  0.500000  1
  P  P16  1  0.480371  0.170946  0.500000  1
  P  P17  1  0.353361  0.353361  0.000000  1
  P  P18  1  0.646639  0.000000  0.000000  1
  P  P19  1  0.000000  0.646639  0.000000  1
  Rh  Rh20  1  0.722156  0.722156  0.500000  1
  Rh  Rh21  1  0.277844  0.000000  0.500000  1
  Rh  Rh22  1  0.000000  0.277844  0.500000  1
  Rh  Rh23  1  0.178275  0.374214  0.000000  1
  Rh  Rh24  1  0.625786  0.804060  0.000000  1
  Rh  Rh25  1  0.195940  0.821725  0.000000  1
  Rh  Rh26  1  0.804060  0.625786  0.000000  1
  Rh  Rh27  1  0.821725  0.195940  0.000000  1
  Rh  Rh28  1  0.374214  0.178275  0.000000  1
  Rh  Rh29  1  0.355163  0.482957  0.500000  1
  Rh  Rh30  1  0.517043  0.872207  0.500000  1
  Rh  Rh31  1  0.127793  0.644837  0.500000  1
  Rh  Rh32  1  0.872207  0.517043  0.500000  1
  Rh  Rh33  1  0.644837  0.127793  0.500000  1
  Rh  Rh34  1  0.482957  0.355163  0.500000  1
  Rh  Rh35  1  0.000000  0.000000  0.000000  1
