# generated using pymatgen
data_Dy2HoZn(Ga3Co4)2
_symmetry_space_group_name_H-M   'P 1'
_cell_length_a   3.86860900
_cell_length_b   9.04610438
_cell_length_c   9.04254686
_cell_angle_alpha   120.85961650
_cell_angle_beta   90.00000000
_cell_angle_gamma   90.00000000
_symmetry_Int_Tables_number   1
_chemical_formula_structural   Dy2HoZn(Ga3Co4)2
_chemical_formula_sum   'Dy2 Ho1 Zn1 Ga6 Co8'
_cell_volume   271.65042700
_cell_formula_units_Z   1
loop_
 _symmetry_equiv_pos_site_id
 _symmetry_equiv_pos_as_xyz
  1  'x, y, z'
loop_
 _atom_site_type_symbol
 _atom_site_label
 _atom_site_symmetry_multiplicity
 _atom_site_fract_x
 _atom_site_fract_y
 _atom_site_fract_z
 _atom_site_occupancy
  Dy  Dy0  1  0.500000  0.330257  0.669837  1
  Dy  Dy1  1  0.500000  0.669843  0.330257  1
  Ho  Ho2  1  0.000000  0.999841  0.999865  1
  Zn  Zn3  1  0.000000  0.500043  0.500015  1
  Ga  Ga4  1  0.500000  0.320452  0.999452  1
  Ga  Ga5  1  0.500000  0.712566  0.712475  1
  Ga  Ga6  1  0.500000  0.999239  0.320378  1
  Ga  Ga7  1  0.500000  0.679642  0.000672  1
  Ga  Ga8  1  0.500000  0.287539  0.287471  1
  Ga  Ga9  1  0.500000  0.000514  0.679523  1
  Co  Co10  1  0.000000  0.500004  0.000014  1
  Co  Co11  1  0.000000  0.999971  0.500006  1
  Co  Co12  1  0.000000  0.180151  0.362064  1
  Co  Co13  1  0.000000  0.181514  0.818437  1
  Co  Co14  1  0.000000  0.638044  0.819810  1
  Co  Co15  1  0.000000  0.819760  0.637982  1
  Co  Co16  1  0.000000  0.362013  0.180224  1
  Co  Co17  1  0.000000  0.818508  0.181519  1
