# generated using pymatgen
data_Tb4Dy12Cd4IrPt3
_symmetry_space_group_name_H-M   'P 1'
_cell_length_a   9.69122872
_cell_length_b   9.65963066
_cell_length_c   9.65963028
_cell_angle_alpha   60.11119892
_cell_angle_beta   60.14410917
_cell_angle_gamma   60.14410083
_symmetry_Int_Tables_number   1
_chemical_formula_structural   Tb4Dy12Cd4IrPt3
_chemical_formula_sum   'Tb4 Dy12 Cd4 Ir1 Pt3'
_cell_volume   641.34635727
_cell_formula_units_Z   1
loop_
 _symmetry_equiv_pos_site_id
 _symmetry_equiv_pos_as_xyz
  1  'x, y, z'
loop_
 _atom_site_type_symbol
 _atom_site_label
 _atom_site_symmetry_multiplicity
 _atom_site_fract_x
 _atom_site_fract_y
 _atom_site_fract_z
 _atom_site_occupancy
  Tb  Tb0  1  0.567609  0.935031  0.564390  1
  Tb  Tb1  1  0.936477  0.562910  0.935209  1
  Tb  Tb2  1  0.567609  0.564390  0.935031  1
  Tb  Tb3  1  0.936477  0.935209  0.562910  1
  Dy  Dy4  1  0.354129  0.346404  0.346404  1
  Dy  Dy5  1  0.353898  0.353605  0.945398  1
  Dy  Dy6  1  0.353898  0.945398  0.353605  1
  Dy  Dy7  1  0.938583  0.353909  0.353909  1
  Dy  Dy8  1  0.807968  0.189106  0.189106  1
  Dy  Dy9  1  0.188897  0.810873  0.810873  1
  Dy  Dy10  1  0.192093  0.809998  0.190118  1
  Dy  Dy11  1  0.808042  0.188231  0.813583  1
  Dy  Dy12  1  0.192093  0.190118  0.809998  1
  Dy  Dy13  1  0.808042  0.813583  0.188231  1
  Dy  Dy14  1  0.940482  0.560932  0.560932  1
  Dy  Dy15  1  0.561472  0.940782  0.940782  1
  Cd  Cd16  1  0.582162  0.580408  0.580408  1
  Cd  Cd17  1  0.579579  0.582652  0.255081  1
  Cd  Cd18  1  0.579579  0.255081  0.582652  1
  Cd  Cd19  1  0.256247  0.580304  0.580304  1
  Ir  Ir20  1  0.571948  0.140280  0.140280  1
  Pt  Pt21  1  0.142967  0.144557  0.144557  1
  Pt  Pt22  1  0.139874  0.145049  0.571190  1
  Pt  Pt23  1  0.139874  0.571190  0.145049  1
