# generated using pymatgen
data_Ca3Si2IrRh
_symmetry_space_group_name_H-M   'P 1'
_cell_length_a   5.76031900
_cell_length_b   7.80718100
_cell_length_c   13.40707700
_cell_angle_alpha   90.00000000
_cell_angle_beta   90.00000000
_cell_angle_gamma   90.00000000
_symmetry_Int_Tables_number   1
_chemical_formula_structural   Ca3Si2IrRh
_chemical_formula_sum   'Ca12 Si8 Ir4 Rh4'
_cell_volume   602.94109668
_cell_formula_units_Z   4
loop_
 _symmetry_equiv_pos_site_id
 _symmetry_equiv_pos_as_xyz
  1  'x, y, z'
loop_
 _atom_site_type_symbol
 _atom_site_label
 _atom_site_symmetry_multiplicity
 _atom_site_fract_x
 _atom_site_fract_y
 _atom_site_fract_z
 _atom_site_occupancy
  Ca  Ca0  1  0.135877  0.610467  0.100643  1
  Ca  Ca1  1  0.135877  0.889533  0.899357  1
  Ca  Ca2  1  0.864123  0.110467  0.399357  1
  Ca  Ca3  1  0.864123  0.389533  0.600643  1
  Ca  Ca4  1  0.868014  0.388129  0.899139  1
  Ca  Ca5  1  0.868014  0.111871  0.100861  1
  Ca  Ca6  1  0.131986  0.888129  0.600861  1
  Ca  Ca7  1  0.131986  0.611871  0.399139  1
  Ca  Ca8  1  0.364873  0.273982  0.249582  1
  Ca  Ca9  1  0.364873  0.226018  0.750418  1
  Ca  Ca10  1  0.635127  0.773982  0.250418  1
  Ca  Ca11  1  0.635127  0.726018  0.749582  1
  Si  Si12  1  0.835908  0.426905  0.248922  1
  Si  Si13  1  0.835908  0.073095  0.751078  1
  Si  Si14  1  0.164092  0.926905  0.251078  1
  Si  Si15  1  0.164092  0.573095  0.748922  1
  Si  Si16  1  0.422962  0.250000  0.000000  1
  Si  Si17  1  0.577038  0.750000  0.500000  1
  Si  Si18  1  0.586453  0.750000  0.000000  1
  Si  Si19  1  0.413547  0.250000  0.500000  1
  Ir  Ir20  1  0.637186  0.477430  0.090107  1
  Ir  Ir21  1  0.637186  0.022570  0.909893  1
  Ir  Ir22  1  0.362814  0.977430  0.409893  1
  Ir  Ir23  1  0.362814  0.522570  0.590107  1
  Rh  Rh24  1  0.364776  0.524922  0.908844  1
  Rh  Rh25  1  0.364776  0.975078  0.091156  1
  Rh  Rh26  1  0.635224  0.024922  0.591156  1
  Rh  Rh27  1  0.635224  0.475078  0.408844  1
