# generated using pymatgen
data_Pr4Sm5LuSn8
_symmetry_space_group_name_H-M   'P 1'
_cell_length_a   8.18591100
_cell_length_b   8.39200200
_cell_length_c   15.88953600
_cell_angle_alpha   90.00000000
_cell_angle_beta   90.00000000
_cell_angle_gamma   90.00000000
_symmetry_Int_Tables_number   1
_chemical_formula_structural   Pr4Sm5LuSn8
_chemical_formula_sum   'Pr8 Sm10 Lu2 Sn16'
_cell_volume   1091.55044875
_cell_formula_units_Z   2
loop_
 _symmetry_equiv_pos_site_id
 _symmetry_equiv_pos_as_xyz
  1  'x, y, z'
loop_
 _atom_site_type_symbol
 _atom_site_label
 _atom_site_symmetry_multiplicity
 _atom_site_fract_x
 _atom_site_fract_y
 _atom_site_fract_z
 _atom_site_occupancy
  Pr  Pr0  1  0.508088  0.321932  0.903331  1
  Pr  Pr1  1  0.008088  0.178068  0.596669  1
  Pr  Pr2  1  0.492457  0.677745  0.402749  1
  Pr  Pr3  1  0.992457  0.822255  0.097251  1
  Pr  Pr4  1  0.492457  0.677745  0.097251  1
  Pr  Pr5  1  0.992457  0.822255  0.402749  1
  Pr  Pr6  1  0.508088  0.321932  0.596669  1
  Pr  Pr7  1  0.008088  0.178068  0.903331  1
  Sm  Sm8  1  0.349095  0.835748  0.876740  1
  Sm  Sm9  1  0.849095  0.664252  0.623260  1
  Sm  Sm10  1  0.651165  0.164327  0.375804  1
  Sm  Sm11  1  0.151165  0.335673  0.124196  1
  Sm  Sm12  1  0.651165  0.164327  0.124196  1
  Sm  Sm13  1  0.151165  0.335673  0.375804  1
  Sm  Sm14  1  0.349095  0.835748  0.623260  1
  Sm  Sm15  1  0.849095  0.664252  0.876740  1
  Sm  Sm16  1  0.182212  0.500396  0.750000  1
  Sm  Sm17  1  0.682212  0.999604  0.750000  1
  Lu  Lu18  1  0.816420  0.499467  0.250000  1
  Lu  Lu19  1  0.316420  0.000533  0.250000  1
  Sn  Sn20  1  0.312355  0.039279  0.043209  1
  Sn  Sn21  1  0.812355  0.460721  0.456791  1
  Sn  Sn22  1  0.687395  0.959897  0.540999  1
  Sn  Sn23  1  0.187395  0.540103  0.959001  1
  Sn  Sn24  1  0.687395  0.959897  0.959001  1
  Sn  Sn25  1  0.187395  0.540103  0.540999  1
  Sn  Sn26  1  0.312355  0.039279  0.456791  1
  Sn  Sn27  1  0.812355  0.460721  0.043209  1
  Sn  Sn28  1  0.547517  0.620582  0.750000  1
  Sn  Sn29  1  0.047517  0.879418  0.750000  1
  Sn  Sn30  1  0.454943  0.379916  0.250000  1
  Sn  Sn31  1  0.954943  0.120084  0.250000  1
  Sn  Sn32  1  0.313280  0.144746  0.750000  1
  Sn  Sn33  1  0.813280  0.355254  0.750000  1
  Sn  Sn34  1  0.684520  0.852292  0.250000  1
  Sn  Sn35  1  0.184520  0.647708  0.250000  1
