# generated using pymatgen
data_Y10ZnIn8Au3
_symmetry_space_group_name_H-M   'P 1'
_cell_length_a   3.67063500
_cell_length_b   8.21956000
_cell_length_c   18.44743000
_cell_angle_alpha   89.99990938
_cell_angle_beta   90.00000000
_cell_angle_gamma   90.00000000
_symmetry_Int_Tables_number   1
_chemical_formula_structural   Y10ZnIn8Au3
_chemical_formula_sum   'Y10 Zn1 In8 Au3'
_cell_volume   556.57749577
_cell_formula_units_Z   1
loop_
 _symmetry_equiv_pos_site_id
 _symmetry_equiv_pos_as_xyz
  1  'x, y, z'
loop_
 _atom_site_type_symbol
 _atom_site_label
 _atom_site_symmetry_multiplicity
 _atom_site_fract_x
 _atom_site_fract_y
 _atom_site_fract_z
 _atom_site_occupancy
  Y  Y0  1  0.500000  0.234369  0.783788  1
  Y  Y1  1  0.500000  0.763481  0.215759  1
  Y  Y2  1  0.500000  0.262671  0.283446  1
  Y  Y3  1  0.500000  0.736099  0.716448  1
  Y  Y4  1  0.500000  0.122935  0.579825  1
  Y  Y5  1  0.500000  0.878578  0.421625  1
  Y  Y6  1  0.500000  0.379513  0.078245  1
  Y  Y7  1  0.500000  0.621935  0.920170  1
  Y  Y8  1  0.500000  0.001424  0.999080  1
  Y  Y9  1  0.500000  0.499381  0.501176  1
  Zn  Zn10  1  0.000000  0.524091  0.802701  1
  In  In11  1  0.000000  0.080114  0.146956  1
  In  In12  1  0.000000  0.917970  0.852068  1
  In  In13  1  0.000000  0.421983  0.649735  1
  In  In14  1  0.000000  0.579909  0.352906  1
  In  In15  1  0.000000  0.209262  0.433433  1
  In  In16  1  0.000000  0.791563  0.567624  1
  In  In17  1  0.000000  0.294204  0.931406  1
  In  In18  1  0.000000  0.709996  0.066438  1
  Au  Au19  1  0.000000  0.026770  0.697192  1
  Au  Au20  1  0.000000  0.971460  0.303624  1
  Au  Au21  1  0.000000  0.472291  0.196359  1
