# generated using pymatgen
data_Dy2Er6Ti12Si15As
_symmetry_space_group_name_H-M   'P 1'
_cell_length_a   7.03559554
_cell_length_b   7.02861925
_cell_length_c   12.92036439
_cell_angle_alpha   89.96770972
_cell_angle_beta   89.80625737
_cell_angle_gamma   89.92465200
_symmetry_Int_Tables_number   1
_chemical_formula_structural   Dy2Er6Ti12Si15As
_chemical_formula_sum   'Dy2 Er6 Ti12 Si15 As1'
_cell_volume   638.91446159
_cell_formula_units_Z   1
loop_
 _symmetry_equiv_pos_site_id
 _symmetry_equiv_pos_as_xyz
  1  'x, y, z'
loop_
 _atom_site_type_symbol
 _atom_site_label
 _atom_site_symmetry_multiplicity
 _atom_site_fract_x
 _atom_site_fract_y
 _atom_site_fract_z
 _atom_site_occupancy
  Dy  Dy0  1  0.340976  0.001968  0.465950  1
  Dy  Dy1  1  0.497218  0.842063  0.717644  1
  Er  Er2  1  0.501799  0.158868  0.216480  1
  Er  Er3  1  0.840363  0.497276  0.283135  1
  Er  Er4  1  0.158790  0.501030  0.783322  1
  Er  Er5  1  0.661146  0.995504  0.967845  1
  Er  Er6  1  0.998741  0.343669  0.531770  1
  Er  Er7  1  0.998899  0.659061  0.033551  1
  Ti  Ti8  1  0.326508  0.326985  0.999919  1
  Ti  Ti9  1  0.172621  0.827035  0.249751  1
  Ti  Ti10  1  0.824452  0.173867  0.750294  1
  Ti  Ti11  1  0.672528  0.672413  0.499941  1
  Ti  Ti12  1  0.154128  0.009358  0.875269  1
  Ti  Ti13  1  0.492302  0.651038  0.125371  1
  Ti  Ti14  1  0.508874  0.347684  0.626964  1
  Ti  Ti15  1  0.654872  0.495188  0.875545  1
  Ti  Ti16  1  0.347213  0.507373  0.373993  1
  Ti  Ti17  1  0.847046  0.992737  0.375195  1
  Ti  Ti18  1  0.007571  0.151187  0.124405  1
  Ti  Ti19  1  0.989756  0.844262  0.623331  1
  Si  Si20  1  0.368583  0.703533  0.933277  1
  Si  Si21  1  0.629993  0.297762  0.433961  1
  Si  Si22  1  0.703922  0.368983  0.066949  1
  Si  Si23  1  0.296252  0.629803  0.566483  1
  Si  Si24  1  0.796589  0.868731  0.183803  1
  Si  Si25  1  0.130335  0.203508  0.316236  1
  Si  Si26  1  0.870891  0.797430  0.816177  1
  Si  Si27  1  0.291741  0.953142  0.064393  1
  Si  Si28  1  0.546929  0.790419  0.314112  1
  Si  Si29  1  0.462368  0.211620  0.819794  1
  Si  Si30  1  0.791511  0.546157  0.685472  1
  Si  Si31  1  0.208332  0.453009  0.185466  1
  Si  Si32  1  0.708860  0.046744  0.564154  1
  Si  Si33  1  0.954249  0.291355  0.935597  1
  Si  Si34  1  0.045863  0.708827  0.434754  1
  As  As35  1  0.197776  0.130409  0.679699  1
