# generated using pymatgen
data_Ac4Ga5Br2
_symmetry_space_group_name_H-M   'P 1'
_cell_length_a   12.09213884
_cell_length_b   12.09213883
_cell_length_c   4.45234200
_cell_angle_alpha   90.00000000
_cell_angle_beta   90.00000000
_cell_angle_gamma   93.12292298
_symmetry_Int_Tables_number   1
_chemical_formula_structural   Ac4Ga5Br2
_chemical_formula_sum   'Ac8 Ga10 Br4'
_cell_volume   650.05385799
_cell_formula_units_Z   2
loop_
 _symmetry_equiv_pos_site_id
 _symmetry_equiv_pos_as_xyz
  1  'x, y, z'
loop_
 _atom_site_type_symbol
 _atom_site_label
 _atom_site_symmetry_multiplicity
 _atom_site_fract_x
 _atom_site_fract_y
 _atom_site_fract_z
 _atom_site_occupancy
  Ac  Ac0  1  0.673587  0.040179  0.500000  1
  Ac  Ac1  1  0.326413  0.959821  0.500000  1
  Ac  Ac2  1  0.040179  0.673587  0.500000  1
  Ac  Ac3  1  0.959821  0.326413  0.500000  1
  Ac  Ac4  1  0.728565  0.728565  0.000000  1
  Ac  Ac5  1  0.271435  0.271435  0.000000  1
  Ac  Ac6  1  0.369786  0.630214  0.000000  1
  Ac  Ac7  1  0.630214  0.369786  0.000000  1
  Ga  Ga8  1  0.579392  0.579392  0.500000  1
  Ga  Ga9  1  0.420608  0.420608  0.500000  1
  Ga  Ga10  1  0.536533  0.899959  0.000000  1
  Ga  Ga11  1  0.463467  0.100041  0.000000  1
  Ga  Ga12  1  0.899959  0.536533  0.000000  1
  Ga  Ga13  1  0.100041  0.463467  0.000000  1
  Ga  Ga14  1  0.513662  0.782351  0.500000  1
  Ga  Ga15  1  0.486338  0.217649  0.500000  1
  Ga  Ga16  1  0.217649  0.486338  0.500000  1
  Ga  Ga17  1  0.782351  0.513662  0.500000  1
  Br  Br18  1  0.123925  0.123925  0.500000  1
  Br  Br19  1  0.876075  0.876075  0.500000  1
  Br  Br20  1  0.824261  0.175739  0.000000  1
  Br  Br21  1  0.175739  0.824261  0.000000  1
