# generated using pymatgen
data_Hf(TiH2)2
_symmetry_space_group_name_H-M   'P 1'
_cell_length_a   5.71966012
_cell_length_b   5.71966025
_cell_length_c   5.71966000
_cell_angle_alpha   60.00000142
_cell_angle_beta   60.00000070
_cell_angle_gamma   59.99999785
_symmetry_Int_Tables_number   1
_chemical_formula_structural   Hf(TiH2)2
_chemical_formula_sum   'Hf2 Ti4 H8'
_cell_volume   132.31091406
_cell_formula_units_Z   2
loop_
 _symmetry_equiv_pos_site_id
 _symmetry_equiv_pos_as_xyz
  1  'x, y, z'
loop_
 _atom_site_type_symbol
 _atom_site_label
 _atom_site_symmetry_multiplicity
 _atom_site_fract_x
 _atom_site_fract_y
 _atom_site_fract_z
 _atom_site_occupancy
  Hf  Hf0  1  0.750000  0.750000  0.750000  1
  Hf  Hf1  1  0.500000  0.500000  0.500000  1
  Ti  Ti2  1  0.125000  0.125000  0.625000  1
  Ti  Ti3  1  0.125000  0.625000  0.125000  1
  Ti  Ti4  1  0.625000  0.125000  0.125000  1
  Ti  Ti5  1  0.125000  0.125000  0.125000  1
  H  H6  1  0.357095  0.357095  0.928716  1
  H  H7  1  0.357095  0.928716  0.357095  1
  H  H8  1  0.928716  0.357095  0.357095  1
  H  H9  1  0.357095  0.357095  0.357095  1
  H  H10  1  0.892905  0.892905  0.321284  1
  H  H11  1  0.892905  0.321284  0.892905  1
  H  H12  1  0.321284  0.892905  0.892905  1
  H  H13  1  0.892905  0.892905  0.892905  1
