# generated using pymatgen
data_La7Yb5(TmGe2)8
_symmetry_space_group_name_H-M   'P 1'
_cell_length_a   7.53253599
_cell_length_b   7.91297126
_cell_length_c   15.07325600
_cell_angle_alpha   90.15163579
_cell_angle_beta   90.20237735
_cell_angle_gamma   89.97822744
_symmetry_Int_Tables_number   1
_chemical_formula_structural   La7Yb5(TmGe2)8
_chemical_formula_sum   'La7 Yb5 Tm8 Ge16'
_cell_volume   898.42870364
_cell_formula_units_Z   1
loop_
 _symmetry_equiv_pos_site_id
 _symmetry_equiv_pos_as_xyz
  1  'x, y, z'
loop_
 _atom_site_type_symbol
 _atom_site_label
 _atom_site_symmetry_multiplicity
 _atom_site_fract_x
 _atom_site_fract_y
 _atom_site_fract_z
 _atom_site_occupancy
  La  La0  1  0.980387  0.821135  0.404964  1
  La  La1  1  0.480253  0.680955  0.098957  1
  La  La2  1  0.518982  0.320661  0.598087  1
  La  La3  1  0.020891  0.180933  0.901991  1
  La  La4  1  0.019155  0.179314  0.598288  1
  La  La5  1  0.521583  0.321842  0.903203  1
  La  La6  1  0.478798  0.679418  0.401489  1
  Yb  Yb7  1  0.981245  0.817474  0.096707  1
  Yb  Yb8  1  0.343293  0.009637  0.749686  1
  Yb  Yb9  1  0.842072  0.491222  0.749856  1
  Yb  Yb10  1  0.153981  0.511642  0.248499  1
  Yb  Yb11  1  0.660060  0.987546  0.248081  1
  Tm  Tm12  1  0.320354  0.173187  0.122436  1
  Tm  Tm13  1  0.823024  0.322022  0.377133  1
  Tm  Tm14  1  0.178151  0.677393  0.878738  1
  Tm  Tm15  1  0.678271  0.824030  0.622126  1
  Tm  Tm16  1  0.321790  0.175673  0.376229  1
  Tm  Tm17  1  0.821740  0.324436  0.122271  1
  Tm  Tm18  1  0.177174  0.676863  0.622624  1
  Tm  Tm19  1  0.679538  0.824438  0.877808  1
  Ge  Ge20  1  0.840065  0.534753  0.537002  1
  Ge  Ge21  1  0.346693  0.967092  0.961377  1
  Ge  Ge22  1  0.657717  0.035791  0.462289  1
  Ge  Ge23  1  0.158890  0.464928  0.038420  1
  Ge  Ge24  1  0.158602  0.463895  0.462326  1
  Ge  Ge25  1  0.659474  0.033020  0.038925  1
  Ge  Ge26  1  0.339557  0.964505  0.537002  1
  Ge  Ge27  1  0.845051  0.536455  0.962121  1
  Ge  Ge28  1  0.973655  0.877040  0.751640  1
  Ge  Ge29  1  0.472740  0.624561  0.750604  1
  Ge  Ge30  1  0.525230  0.379107  0.249930  1
  Ge  Ge31  1  0.025941  0.122989  0.249303  1
  Ge  Ge32  1  0.225215  0.384260  0.750885  1
  Ge  Ge33  1  0.725546  0.116337  0.750026  1
  Ge  Ge34  1  0.272007  0.882306  0.248980  1
  Ge  Ge35  1  0.772871  0.613143  0.250000  1
