# generated using pymatgen
data_YPa4Ga15
_symmetry_space_group_name_H-M   'P 1'
_cell_length_a   12.50613837
_cell_length_b   12.50613819
_cell_length_c   12.50613700
_cell_angle_alpha   28.48077157
_cell_angle_beta   28.48077507
_cell_angle_gamma   28.48077166
_symmetry_Int_Tables_number   1
_chemical_formula_structural   YPa4Ga15
_chemical_formula_sum   'Y1 Pa4 Ga15'
_cell_volume   393.12477581
_cell_formula_units_Z   1
loop_
 _symmetry_equiv_pos_site_id
 _symmetry_equiv_pos_as_xyz
  1  'x, y, z'
loop_
 _atom_site_type_symbol
 _atom_site_label
 _atom_site_symmetry_multiplicity
 _atom_site_fract_x
 _atom_site_fract_y
 _atom_site_fract_z
 _atom_site_occupancy
  Y  Y0  1  0.599554  0.599554  0.599554  1
  Pa  Pa1  1  0.130810  0.130810  0.130810  1
  Pa  Pa2  1  0.870105  0.870105  0.870105  1
  Pa  Pa3  1  0.400382  0.400382  0.400382  1
  Pa  Pa4  1  0.998985  0.998985  0.998985  1
  Ga  Ga5  1  0.432290  0.882626  0.882626  1
  Ga  Ga6  1  0.882626  0.882626  0.432290  1
  Ga  Ga7  1  0.882626  0.432290  0.882626  1
  Ga  Ga8  1  0.118528  0.563629  0.118528  1
  Ga  Ga9  1  0.118528  0.118528  0.563629  1
  Ga  Ga10  1  0.563629  0.118528  0.118528  1
  Ga  Ga11  1  0.129806  0.636407  0.636407  1
  Ga  Ga12  1  0.636407  0.636407  0.129806  1
  Ga  Ga13  1  0.636407  0.129806  0.636407  1
  Ga  Ga14  1  0.364456  0.872076  0.364456  1
  Ga  Ga15  1  0.364456  0.364456  0.872076  1
  Ga  Ga16  1  0.872076  0.364456  0.364456  1
  Ga  Ga17  1  0.499815  0.499815  0.998700  1
  Ga  Ga18  1  0.499815  0.998700  0.499815  1
  Ga  Ga19  1  0.998700  0.499815  0.499815  1
