# generated using pymatgen
data_Ho4HfIrRh2
_symmetry_space_group_name_H-M   'P 1'
_cell_length_a   10.82180500
_cell_length_b   10.82180500
_cell_length_c   6.20371300
_cell_angle_alpha   90.00000000
_cell_angle_beta   90.00000000
_cell_angle_gamma   90.00000000
_symmetry_Int_Tables_number   1
_chemical_formula_structural   Ho4HfIrRh2
_chemical_formula_sum   'Ho16 Hf4 Ir4 Rh8'
_cell_volume   726.52590830
_cell_formula_units_Z   4
loop_
 _symmetry_equiv_pos_site_id
 _symmetry_equiv_pos_as_xyz
  1  'x, y, z'
loop_
 _atom_site_type_symbol
 _atom_site_label
 _atom_site_symmetry_multiplicity
 _atom_site_fract_x
 _atom_site_fract_y
 _atom_site_fract_z
 _atom_site_occupancy
  Ho  Ho0  1  0.289155  0.087580  0.374517  1
  Ho  Ho1  1  0.289155  0.912420  0.874517  1
  Ho  Ho2  1  0.710845  0.087580  0.874517  1
  Ho  Ho3  1  0.710845  0.912420  0.374517  1
  Ho  Ho4  1  0.584802  0.787936  0.876070  1
  Ho  Ho5  1  0.584802  0.212064  0.376070  1
  Ho  Ho6  1  0.415198  0.787936  0.376070  1
  Ho  Ho7  1  0.415198  0.212064  0.876070  1
  Ho  Ho8  1  0.212064  0.415198  0.623930  1
  Ho  Ho9  1  0.212064  0.584802  0.123930  1
  Ho  Ho10  1  0.787936  0.415198  0.123930  1
  Ho  Ho11  1  0.787936  0.584802  0.623930  1
  Ho  Ho12  1  0.912420  0.710845  0.125483  1
  Ho  Ho13  1  0.912420  0.289155  0.625483  1
  Ho  Ho14  1  0.087580  0.710845  0.625483  1
  Ho  Ho15  1  0.087580  0.289155  0.125483  1
  Hf  Hf16  1  0.000000  0.000000  0.500000  1
  Hf  Hf17  1  0.000000  0.000000  0.000000  1
  Hf  Hf18  1  0.500000  0.500000  0.000000  1
  Hf  Hf19  1  0.500000  0.500000  0.500000  1
  Ir  Ir20  1  0.644498  0.355502  0.750000  1
  Ir  Ir21  1  0.644498  0.644498  0.250000  1
  Ir  Ir22  1  0.355502  0.355502  0.250000  1
  Ir  Ir23  1  0.355502  0.644498  0.750000  1
  Rh  Rh24  1  0.856917  0.143083  0.250000  1
  Rh  Rh25  1  0.856917  0.856917  0.750000  1
  Rh  Rh26  1  0.143083  0.143083  0.750000  1
  Rh  Rh27  1  0.143083  0.856917  0.250000  1
  Rh  Rh28  1  0.500000  0.000000  0.120110  1
  Rh  Rh29  1  0.500000  0.000000  0.620110  1
  Rh  Rh30  1  0.000000  0.500000  0.879890  1
  Rh  Rh31  1  0.000000  0.500000  0.379890  1
