# generated using pymatgen
data_Zr8Co7Si14Pd
_symmetry_space_group_name_H-M   'P 1'
_cell_length_a   9.54914453
_cell_length_b   9.56396583
_cell_length_c   9.54294050
_cell_angle_alpha   94.21729497
_cell_angle_beta   94.13455382
_cell_angle_gamma   148.71217702
_symmetry_Int_Tables_number   1
_chemical_formula_structural   Zr8Co7Si14Pd
_chemical_formula_sum   'Zr8 Co7 Si14 Pd1'
_cell_volume   435.80495590
_cell_formula_units_Z   1
loop_
 _symmetry_equiv_pos_site_id
 _symmetry_equiv_pos_as_xyz
  1  'x, y, z'
loop_
 _atom_site_type_symbol
 _atom_site_label
 _atom_site_symmetry_multiplicity
 _atom_site_fract_x
 _atom_site_fract_y
 _atom_site_fract_z
 _atom_site_occupancy
  Zr  Zr0  1  0.137813  0.137813  0.275626  1
  Zr  Zr1  1  0.862822  0.862822  0.725644  1
  Zr  Zr2  1  0.861229  0.135103  0.001277  1
  Zr  Zr3  1  0.140048  0.866173  0.001277  1
  Zr  Zr4  1  0.498094  0.303437  0.804243  1
  Zr  Zr5  1  0.500491  0.695542  0.197221  1
  Zr  Zr6  1  0.696730  0.501679  0.197221  1
  Zr  Zr7  1  0.306150  0.500806  0.804243  1
  Co  Co8  1  0.105646  0.605646  0.211291  1
  Co  Co9  1  0.105034  0.897443  0.501441  1
  Co  Co10  1  0.396408  0.604000  0.501441  1
  Co  Co11  1  0.599477  0.398494  0.496298  1
  Co  Co12  1  0.896821  0.097805  0.496298  1
  Co  Co13  1  0.896593  0.396593  0.793188  1
  Co  Co14  1  0.601125  0.101125  0.202249  1
  Si  Si15  1  0.522061  0.118394  0.583749  1
  Si  Si16  1  0.501439  0.909192  0.409299  1
  Si  Si17  1  0.907860  0.500108  0.409299  1
  Si  Si18  1  0.061688  0.465355  0.583749  1
  Si  Si19  1  0.749052  0.748912  0.000654  1
  Si  Si20  1  0.251602  0.251741  0.000654  1
  Si  Si21  1  0.289464  0.289464  0.578927  1
  Si  Si22  1  0.710591  0.710591  0.421183  1
  Si  Si23  1  0.730724  0.312143  0.006612  1
  Si  Si24  1  0.275889  0.694471  0.006612  1
  Si  Si25  1  0.998036  0.299442  0.301351  1
  Si  Si26  1  0.981231  0.687211  0.696522  1
  Si  Si27  1  0.715291  0.009310  0.696522  1
  Si  Si28  1  0.303315  0.001908  0.301351  1
  Pd  Pd29  1  0.397277  0.897277  0.794557  1
