# generated using pymatgen
data_Tm8Lu2(InSb)3
_symmetry_space_group_name_H-M   'P 1'
_cell_length_a   6.41657000
_cell_length_b   8.83895580
_cell_length_c   8.83895600
_cell_angle_alpha   59.99656753
_cell_angle_beta   90.00027813
_cell_angle_gamma   89.99972757
_symmetry_Int_Tables_number   1
_chemical_formula_structural   Tm8Lu2(InSb)3
_chemical_formula_sum   'Tm8 Lu2 In3 Sb3'
_cell_volume   434.13068164
_cell_formula_units_Z   1
loop_
 _symmetry_equiv_pos_site_id
 _symmetry_equiv_pos_as_xyz
  1  'x, y, z'
loop_
 _atom_site_type_symbol
 _atom_site_label
 _atom_site_symmetry_multiplicity
 _atom_site_fract_x
 _atom_site_fract_y
 _atom_site_fract_z
 _atom_site_occupancy
  Tm  Tm0  1  0.997296  0.666627  0.666666  1
  Tm  Tm1  1  0.997296  0.333334  0.333373  1
  Tm  Tm2  1  0.749829  0.237729  0.762271  1
  Tm  Tm3  1  0.749877  0.762288  0.000034  1
  Tm  Tm4  1  0.749877  0.999966  0.237712  1
  Tm  Tm5  1  0.250259  0.761631  0.238369  1
  Tm  Tm6  1  0.250225  0.238412  0.999966  1
  Tm  Tm7  1  0.250225  0.000034  0.761588  1
  Lu  Lu8  1  0.502843  0.333320  0.333295  1
  Lu  Lu9  1  0.502843  0.666705  0.666680  1
  In  In10  1  0.749206  0.606080  0.393920  1
  In  In11  1  0.749433  0.393925  0.000010  1
  In  In12  1  0.749433  0.999990  0.606075  1
  Sb  Sb13  1  0.250500  0.395990  0.604010  1
  Sb  Sb14  1  0.250429  0.604023  0.000052  1
  Sb  Sb15  1  0.250429  0.999948  0.395977  1
