# generated using pymatgen
data_In12IrRu3
_symmetry_space_group_name_H-M   'P 1'
_cell_length_a   7.10168904
_cell_length_b   7.10168904
_cell_length_c   7.33904800
_cell_angle_alpha   90.00000000
_cell_angle_beta   90.00000000
_cell_angle_gamma   90.01153711
_symmetry_Int_Tables_number   1
_chemical_formula_structural   In12IrRu3
_chemical_formula_sum   'In12 Ir1 Ru3'
_cell_volume   370.13744512
_cell_formula_units_Z   1
loop_
 _symmetry_equiv_pos_site_id
 _symmetry_equiv_pos_as_xyz
  1  'x, y, z'
loop_
 _atom_site_type_symbol
 _atom_site_label
 _atom_site_symmetry_multiplicity
 _atom_site_fract_x
 _atom_site_fract_y
 _atom_site_fract_z
 _atom_site_occupancy
  In  In0  1  0.501804  0.998039  0.000000  1
  In  In1  1  0.998039  0.501804  0.000000  1
  In  In2  1  0.656610  0.346642  0.239746  1
  In  In3  1  0.346642  0.656610  0.239746  1
  In  In4  1  0.153843  0.153843  0.263752  1
  In  In5  1  0.844538  0.844538  0.261614  1
  In  In6  1  0.500005  0.001735  0.500000  1
  In  In7  1  0.001735  0.500005  0.500000  1
  In  In8  1  0.153843  0.153843  0.736248  1
  In  In9  1  0.844538  0.844538  0.738386  1
  In  In10  1  0.656610  0.346642  0.760253  1
  In  In11  1  0.346642  0.656610  0.760253  1
  Ir  Ir12  1  0.342602  0.342602  0.000000  1
  Ru  Ru13  1  0.653005  0.653005  0.000000  1
  Ru  Ru14  1  0.844590  0.154953  0.500000  1
  Ru  Ru15  1  0.154953  0.844590  0.500000  1
