# generated using pymatgen
data_Ho2Er2FeTc7
_symmetry_space_group_name_H-M   'P 1'
_cell_length_a   5.39030509
_cell_length_b   5.39030520
_cell_length_c   8.79330902
_cell_angle_alpha   90.00633637
_cell_angle_beta   89.99366542
_cell_angle_gamma   121.60954400
_symmetry_Int_Tables_number   1
_chemical_formula_structural   Ho2Er2FeTc7
_chemical_formula_sum   'Ho2 Er2 Fe1 Tc7'
_cell_volume   217.58798108
_cell_formula_units_Z   1
loop_
 _symmetry_equiv_pos_site_id
 _symmetry_equiv_pos_as_xyz
  1  'x, y, z'
loop_
 _atom_site_type_symbol
 _atom_site_label
 _atom_site_symmetry_multiplicity
 _atom_site_fract_x
 _atom_site_fract_y
 _atom_site_fract_z
 _atom_site_occupancy
  Ho  Ho0  1  0.334670  0.665330  0.436861  1
  Ho  Ho1  1  0.666315  0.333685  0.561672  1
  Er  Er2  1  0.666289  0.333711  0.938354  1
  Er  Er3  1  0.334707  0.665293  0.063085  1
  Fe  Fe4  1  0.828135  0.171865  0.249872  1
  Tc  Tc5  1  0.002597  0.997403  0.492197  1
  Tc  Tc6  1  0.002604  0.997396  0.007807  1
  Tc  Tc7  1  0.823587  0.657389  0.249800  1
  Tc  Tc8  1  0.342611  0.176413  0.249800  1
  Tc  Tc9  1  0.169410  0.830590  0.750181  1
  Tc  Tc10  1  0.170035  0.340959  0.750186  1
  Tc  Tc11  1  0.659041  0.829965  0.750186  1
