# generated using pymatgen
data_Pa3Ni3SnSb3
_symmetry_space_group_name_H-M   'P 1'
_cell_length_a   8.15414769
_cell_length_b   8.16137272
_cell_length_c   8.15838214
_cell_angle_alpha   109.51674971
_cell_angle_beta   109.48088892
_cell_angle_gamma   109.41294511
_symmetry_Int_Tables_number   1
_chemical_formula_structural   Pa3Ni3SnSb3
_chemical_formula_sum   'Pa6 Ni6 Sn2 Sb6'
_cell_volume   417.96523476
_cell_formula_units_Z   2
loop_
 _symmetry_equiv_pos_site_id
 _symmetry_equiv_pos_as_xyz
  1  'x, y, z'
loop_
 _atom_site_type_symbol
 _atom_site_label
 _atom_site_symmetry_multiplicity
 _atom_site_fract_x
 _atom_site_fract_y
 _atom_site_fract_z
 _atom_site_occupancy
  Pa  Pa0  1  0.624535  0.374279  0.249496  1
  Pa  Pa1  1  0.374863  0.248901  0.623948  1
  Pa  Pa2  1  0.125389  0.751636  0.876122  1
  Pa  Pa3  1  0.749267  0.875514  0.123878  1
  Pa  Pa4  1  0.250915  0.624954  0.376052  1
  Pa  Pa5  1  0.875039  0.124783  0.750504  1
  Ni  Ni6  1  0.875064  0.250324  0.125175  1
  Ni  Ni7  1  0.374238  0.624568  0.750581  1
  Ni  Ni8  1  0.625795  0.750358  0.375011  1
  Ni  Ni9  1  0.750784  0.375346  0.624989  1
  Ni  Ni10  1  0.249889  0.125150  0.874825  1
  Ni  Ni11  1  0.123657  0.873987  0.249419  1
  Sn  Sn12  1  0.500378  0.000265  0.831504  1
  Sn  Sn13  1  0.168874  0.168761  0.168496  1
  Sb  Sb14  1  0.832549  0.499081  0.000022  1
  Sb  Sb15  1  0.000798  0.833310  0.500850  1
  Sb  Sb16  1  0.332527  0.499059  0.999978  1
  Sb  Sb17  1  0.999948  0.332460  0.499150  1
  Sb  Sb18  1  0.499012  0.999897  0.332530  1
  Sb  Sb19  1  0.666481  0.667366  0.667470  1
