# generated using pymatgen
data_LiLu8Re(B12Ir)2
_symmetry_space_group_name_H-M   'P 1'
_cell_length_a   3.60530600
_cell_length_b   9.04289097
_cell_length_c   11.38867455
_cell_angle_alpha   90.34455464
_cell_angle_beta   90.00000000
_cell_angle_gamma   90.00000000
_symmetry_Int_Tables_number   1
_chemical_formula_structural   LiLu8Re(B12Ir)2
_chemical_formula_sum   'Li1 Lu8 Re1 B24 Ir2'
_cell_volume   371.29128511
_cell_formula_units_Z   1
loop_
 _symmetry_equiv_pos_site_id
 _symmetry_equiv_pos_as_xyz
  1  'x, y, z'
loop_
 _atom_site_type_symbol
 _atom_site_label
 _atom_site_symmetry_multiplicity
 _atom_site_fract_x
 _atom_site_fract_y
 _atom_site_fract_z
 _atom_site_occupancy
  Li  Li0  1  0.000000  0.636644  0.323274  1
  Lu  Lu1  1  0.000000  0.326597  0.413186  1
  Lu  Lu2  1  0.000000  0.680358  0.586159  1
  Lu  Lu3  1  0.000000  0.821535  0.082826  1
  Lu  Lu4  1  0.000000  0.175538  0.912898  1
  Lu  Lu5  1  0.000000  0.940101  0.370617  1
  Lu  Lu6  1  0.000000  0.054134  0.626497  1
  Lu  Lu7  1  0.000000  0.445095  0.130633  1
  Lu  Lu8  1  0.000000  0.557583  0.874558  1
  Re  Re9  1  0.000000  0.862165  0.821160  1
  B  B10  1  0.500000  0.553695  0.434857  1
  B  B11  1  0.500000  0.448222  0.564292  1
  B  B12  1  0.500000  0.054066  0.065938  1
  B  B13  1  0.500000  0.947390  0.933726  1
  B  B14  1  0.500000  0.748923  0.419895  1
  B  B15  1  0.500000  0.251362  0.578035  1
  B  B16  1  0.500000  0.251178  0.080156  1
  B  B17  1  0.500000  0.750849  0.920236  1
  B  B18  1  0.500000  0.792313  0.262628  1
  B  B19  1  0.500000  0.206833  0.735161  1
  B  B20  1  0.500000  0.295009  0.237294  1
  B  B21  1  0.500000  0.706653  0.764830  1
  B  B22  1  0.500000  0.632850  0.183024  1
  B  B23  1  0.500000  0.367928  0.817545  1
  B  B24  1  0.500000  0.131658  0.315922  1
  B  B25  1  0.500000  0.868594  0.683925  1
  B  B26  1  0.500000  0.979202  0.212146  1
  B  B27  1  0.500000  0.018586  0.786533  1
  B  B28  1  0.500000  0.481214  0.289004  1
  B  B29  1  0.500000  0.518248  0.713064  1
  B  B30  1  0.500000  0.605615  0.031249  1
  B  B31  1  0.500000  0.394956  0.972776  1
  B  B32  1  0.500000  0.104228  0.469904  1
  B  B33  1  0.500000  0.893485  0.527033  1
  Ir  Ir34  1  0.000000  0.359854  0.681741  1
  Ir  Ir35  1  0.000000  0.137339  0.177276  1
