# generated using pymatgen
data_Tb4Lu(SiHg)2
_symmetry_space_group_name_H-M   'P 1'
_cell_length_a   8.81361482
_cell_length_b   8.81361434
_cell_length_c   7.54236600
_cell_angle_alpha   90.00000000
_cell_angle_beta   90.00000000
_cell_angle_gamma   129.50455970
_symmetry_Int_Tables_number   1
_chemical_formula_structural   Tb4Lu(SiHg)2
_chemical_formula_sum   'Tb8 Lu2 Si4 Hg4'
_cell_volume   452.05707965
_cell_formula_units_Z   2
loop_
 _symmetry_equiv_pos_site_id
 _symmetry_equiv_pos_as_xyz
  1  'x, y, z'
loop_
 _atom_site_type_symbol
 _atom_site_label
 _atom_site_symmetry_multiplicity
 _atom_site_fract_x
 _atom_site_fract_y
 _atom_site_fract_z
 _atom_site_occupancy
  Tb  Tb0  1  0.055322  0.310223  0.323763  1
  Tb  Tb1  1  0.944678  0.689777  0.676237  1
  Tb  Tb2  1  0.444678  0.189777  0.823763  1
  Tb  Tb3  1  0.810223  0.555322  0.176237  1
  Tb  Tb4  1  0.555322  0.810223  0.176237  1
  Tb  Tb5  1  0.189777  0.444678  0.823763  1
  Tb  Tb6  1  0.689777  0.944678  0.676237  1
  Tb  Tb7  1  0.310223  0.055322  0.323763  1
  Lu  Lu8  1  0.000000  0.000000  0.000000  1
  Lu  Lu9  1  0.500000  0.500000  0.500000  1
  Si  Si10  1  0.381244  0.381244  0.122015  1
  Si  Si11  1  0.618756  0.618756  0.877985  1
  Si  Si12  1  0.118756  0.118756  0.622015  1
  Si  Si13  1  0.881244  0.881244  0.377985  1
  Hg  Hg14  1  0.782287  0.217713  0.000000  1
  Hg  Hg15  1  0.217713  0.782287  0.000000  1
  Hg  Hg16  1  0.717713  0.282287  0.500000  1
  Hg  Hg17  1  0.282287  0.717713  0.500000  1
