# generated using pymatgen
data_Yb2BRh2
_symmetry_space_group_name_H-M   'P 1'
_cell_length_a   5.57728550
_cell_length_b   5.57728553
_cell_length_c   5.57728585
_cell_angle_alpha   145.87287639
_cell_angle_beta   114.85145965
_cell_angle_gamma   75.63713131
_symmetry_Int_Tables_number   1
_chemical_formula_structural   Yb2BRh2
_chemical_formula_sum   'Yb2 B1 Rh2'
_cell_volume   86.60416329
_cell_formula_units_Z   1
loop_
 _symmetry_equiv_pos_site_id
 _symmetry_equiv_pos_as_xyz
  1  'x, y, z'
loop_
 _atom_site_type_symbol
 _atom_site_label
 _atom_site_symmetry_multiplicity
 _atom_site_fract_x
 _atom_site_fract_y
 _atom_site_fract_z
 _atom_site_occupancy
  Yb  Yb0  1  0.705106  0.205105  0.500001  1
  Yb  Yb1  1  0.294895  0.794895  0.500000  1
  B  B2  1  0.000000  0.000000  0.000000  1
  Rh  Rh3  1  0.771673  0.500000  0.271673  1
  Rh  Rh4  1  0.228328  0.500000  0.728328  1
