# generated using pymatgen
data_Ba20Hg3Bi13
_symmetry_space_group_name_H-M   'P 1'
_cell_length_a   9.24864422
_cell_length_b   9.64568422
_cell_length_c   17.89547800
_cell_angle_alpha   90.00000000
_cell_angle_beta   90.00000000
_cell_angle_gamma   89.87015588
_symmetry_Int_Tables_number   1
_chemical_formula_structural   Ba20Hg3Bi13
_chemical_formula_sum   'Ba20 Hg3 Bi13'
_cell_volume   1596.44257298
_cell_formula_units_Z   1
loop_
 _symmetry_equiv_pos_site_id
 _symmetry_equiv_pos_as_xyz
  1  'x, y, z'
loop_
 _atom_site_type_symbol
 _atom_site_label
 _atom_site_symmetry_multiplicity
 _atom_site_fract_x
 _atom_site_fract_y
 _atom_site_fract_z
 _atom_site_occupancy
  Ba  Ba0  1  0.474766  0.694853  0.592960  1
  Ba  Ba1  1  0.982155  0.794977  0.914610  1
  Ba  Ba2  1  0.028870  0.195785  0.406844  1
  Ba  Ba3  1  0.529888  0.331122  0.107323  1
  Ba  Ba4  1  0.474766  0.694853  0.907040  1
  Ba  Ba5  1  0.982155  0.794977  0.585390  1
  Ba  Ba6  1  0.028870  0.195785  0.093156  1
  Ba  Ba7  1  0.529888  0.331122  0.392677  1
  Ba  Ba8  1  0.379455  0.857253  0.385803  1
  Ba  Ba9  1  0.854788  0.634999  0.119000  1
  Ba  Ba10  1  0.128810  0.356649  0.614001  1
  Ba  Ba11  1  0.626046  0.140348  0.890664  1
  Ba  Ba12  1  0.626046  0.140348  0.609336  1
  Ba  Ba13  1  0.128810  0.356649  0.885999  1
  Ba  Ba14  1  0.854788  0.634999  0.381000  1
  Ba  Ba15  1  0.379455  0.857253  0.114197  1
  Ba  Ba16  1  0.289724  0.987451  0.750000  1
  Ba  Ba17  1  0.789120  0.513725  0.750000  1
  Ba  Ba18  1  0.207359  0.496571  0.250000  1
  Ba  Ba19  1  0.704663  0.996740  0.250000  1
  Hg  Hg20  1  0.429809  0.358334  0.750000  1
  Hg  Hg21  1  0.921471  0.134274  0.750000  1
  Hg  Hg22  1  0.078898  0.878755  0.250000  1
  Bi  Bi23  1  0.735297  0.961506  0.049636  1
  Bi  Bi24  1  0.214633  0.547128  0.453601  1
  Bi  Bi25  1  0.767384  0.458465  0.948972  1
  Bi  Bi26  1  0.268916  0.037148  0.553218  1
  Bi  Bi27  1  0.268916  0.037148  0.946782  1
  Bi  Bi28  1  0.767384  0.458465  0.551028  1
  Bi  Bi29  1  0.214633  0.547128  0.046399  1
  Bi  Bi30  1  0.735297  0.961506  0.450364  1
  Bi  Bi31  1  0.554055  0.639005  0.250000  1
  Bi  Bi32  1  0.190079  0.627799  0.750000  1
  Bi  Bi33  1  0.689190  0.872800  0.750000  1
  Bi  Bi34  1  0.320496  0.134983  0.250000  1
  Bi  Bi35  1  0.843124  0.339095  0.250000  1
