# generated using pymatgen
data_Sr4ReBrN4Cl
_symmetry_space_group_name_H-M   'P 1'
_cell_length_a   5.93692900
_cell_length_b   8.10113967
_cell_length_c   10.66841376
_cell_angle_alpha   80.75703955
_cell_angle_beta   90.00000000
_cell_angle_gamma   90.00000000
_symmetry_Int_Tables_number   1
_chemical_formula_structural   Sr4ReBrN4Cl
_chemical_formula_sum   'Sr8 Re2 Br2 N8 Cl2'
_cell_volume   506.44474181
_cell_formula_units_Z   2
loop_
 _symmetry_equiv_pos_site_id
 _symmetry_equiv_pos_as_xyz
  1  'x, y, z'
loop_
 _atom_site_type_symbol
 _atom_site_label
 _atom_site_symmetry_multiplicity
 _atom_site_fract_x
 _atom_site_fract_y
 _atom_site_fract_z
 _atom_site_occupancy
  Sr  Sr0  1  0.750000  0.288564  0.301221  1
  Sr  Sr1  1  0.750000  0.002097  0.623758  1
  Sr  Sr2  1  0.750000  0.445025  0.618647  1
  Sr  Sr3  1  0.750000  0.821863  0.093551  1
  Sr  Sr4  1  0.250000  0.997903  0.376242  1
  Sr  Sr5  1  0.250000  0.554975  0.381353  1
  Sr  Sr6  1  0.250000  0.178137  0.906449  1
  Sr  Sr7  1  0.250000  0.711436  0.698779  1
  Re  Re8  1  0.750000  0.773531  0.394374  1
  Re  Re9  1  0.250000  0.226469  0.605626  1
  Br  Br10  1  0.250000  0.329144  0.161544  1
  Br  Br11  1  0.750000  0.670856  0.838456  1
  N  N12  1  0.250000  0.023916  0.714519  1
  N  N13  1  0.000374  0.246947  0.497566  1
  N  N14  1  0.500374  0.753053  0.502434  1
  N  N15  1  0.999626  0.753053  0.502434  1
  N  N16  1  0.750000  0.605840  0.293642  1
  N  N17  1  0.750000  0.976084  0.285481  1
  N  N18  1  0.499626  0.246947  0.497566  1
  N  N19  1  0.250000  0.394160  0.706358  1
  Cl  Cl20  1  0.250000  0.850289  0.104091  1
  Cl  Cl21  1  0.750000  0.149711  0.895909  1
