# generated using pymatgen
data_Gd3GaCuNi6
_symmetry_space_group_name_H-M   'P 1'
_cell_length_a   7.74735401
_cell_length_b   7.65574809
_cell_length_c   7.74735481
_cell_angle_alpha   109.45085862
_cell_angle_beta   109.99136822
_cell_angle_gamma   109.45085654
_symmetry_Int_Tables_number   1
_chemical_formula_structural   Gd3GaCuNi6
_chemical_formula_sum   'Gd6 Ga2 Cu2 Ni12'
_cell_volume   351.61426010
_cell_formula_units_Z   2
loop_
 _symmetry_equiv_pos_site_id
 _symmetry_equiv_pos_as_xyz
  1  'x, y, z'
loop_
 _atom_site_type_symbol
 _atom_site_label
 _atom_site_symmetry_multiplicity
 _atom_site_fract_x
 _atom_site_fract_y
 _atom_site_fract_z
 _atom_site_occupancy
  Gd  Gd0  1  0.708600  0.705167  0.996567  1
  Gd  Gd1  1  0.292386  0.000000  0.292386  1
  Gd  Gd2  1  0.003433  0.294833  0.291400  1
  Gd  Gd3  1  0.291400  0.294833  0.003433  1
  Gd  Gd4  1  0.707614  0.000000  0.707614  1
  Gd  Gd5  1  0.996567  0.705167  0.708600  1
  Ga  Ga6  1  0.000000  0.000000  0.500000  1
  Ga  Ga7  1  0.500000  0.000000  0.000000  1
  Cu  Cu8  1  0.000000  0.500000  0.000000  1
  Cu  Cu9  1  0.500000  0.500000  0.500000  1
  Ni  Ni10  1  0.340733  0.337031  0.675540  1
  Ni  Ni11  1  0.660887  0.000000  0.339113  1
  Ni  Ni12  1  0.003702  0.662969  0.338510  1
  Ni  Ni13  1  0.661490  0.337031  0.996298  1
  Ni  Ni14  1  0.340929  0.681857  0.340929  1
  Ni  Ni15  1  0.996298  0.337031  0.661490  1
  Ni  Ni16  1  0.338510  0.662969  0.003702  1
  Ni  Ni17  1  0.339113  0.000000  0.660887  1
  Ni  Ni18  1  0.675540  0.337031  0.340733  1
  Ni  Ni19  1  0.659267  0.662969  0.324460  1
  Ni  Ni20  1  0.659071  0.318143  0.659071  1
  Ni  Ni21  1  0.324460  0.662969  0.659267  1
