# generated using pymatgen
data_CsKAs2Pd
_symmetry_space_group_name_H-M   'P 1'
_cell_length_a   7.80382549
_cell_length_b   7.80382572
_cell_length_c   6.37091500
_cell_angle_alpha   90.00000000
_cell_angle_beta   90.00000000
_cell_angle_gamma   125.28719601
_symmetry_Int_Tables_number   1
_chemical_formula_structural   CsKAs2Pd
_chemical_formula_sum   'Cs2 K2 As4 Pd2'
_cell_volume   316.70068603
_cell_formula_units_Z   2
loop_
 _symmetry_equiv_pos_site_id
 _symmetry_equiv_pos_as_xyz
  1  'x, y, z'
loop_
 _atom_site_type_symbol
 _atom_site_label
 _atom_site_symmetry_multiplicity
 _atom_site_fract_x
 _atom_site_fract_y
 _atom_site_fract_z
 _atom_site_occupancy
  Cs  Cs0  1  0.401738  0.598262  0.250000  1
  Cs  Cs1  1  0.598262  0.401738  0.750000  1
  K  K2  1  0.794206  0.205794  0.250000  1
  K  K3  1  0.205794  0.794206  0.750000  1
  As  As4  1  0.058277  0.282008  0.750000  1
  As  As5  1  0.941723  0.717992  0.250000  1
  As  As6  1  0.282008  0.058277  0.250000  1
  As  As7  1  0.717992  0.941723  0.750000  1
  Pd  Pd8  1  0.000000  0.000000  0.000000  1
  Pd  Pd9  1  0.000000  0.000000  0.500000  1
