# generated using pymatgen
data_Ho16Tl4In2CoIr
_symmetry_space_group_name_H-M   'P 1'
_cell_length_a   10.33131600
_cell_length_b   10.34134699
_cell_length_c   7.06537301
_cell_angle_alpha   89.99053268
_cell_angle_beta   89.99930750
_cell_angle_gamma   119.96729088
_symmetry_Int_Tables_number   1
_chemical_formula_structural   Ho16Tl4In2CoIr
_chemical_formula_sum   'Ho16 Tl4 In2 Co1 Ir1'
_cell_volume   653.94545076
_cell_formula_units_Z   1
loop_
 _symmetry_equiv_pos_site_id
 _symmetry_equiv_pos_as_xyz
  1  'x, y, z'
loop_
 _atom_site_type_symbol
 _atom_site_label
 _atom_site_symmetry_multiplicity
 _atom_site_fract_x
 _atom_site_fract_y
 _atom_site_fract_z
 _atom_site_occupancy
  Ho  Ho0  1  0.533668  0.067331  0.504665  1
  Ho  Ho1  1  0.931855  0.466825  0.506033  1
  Ho  Ho2  1  0.534980  0.466834  0.506036  1
  Ho  Ho3  1  0.462650  0.925303  0.007276  1
  Ho  Ho4  1  0.075205  0.537453  0.006842  1
  Ho  Ho5  1  0.462250  0.537449  0.006847  1
  Ho  Ho6  1  0.178034  0.356057  0.711101  1
  Ho  Ho7  1  0.643857  0.822241  0.712877  1
  Ho  Ho8  1  0.178393  0.822241  0.712858  1
  Ho  Ho9  1  0.823238  0.646481  0.209089  1
  Ho  Ho10  1  0.352913  0.177018  0.209628  1
  Ho  Ho11  1  0.824099  0.177006  0.209616  1
  Ho  Ho12  1  0.666461  0.332924  0.887883  1
  Ho  Ho13  1  0.333627  0.667259  0.398434  1
  Ho  Ho14  1  0.999103  0.998220  0.491604  1
  Ho  Ho15  1  0.999246  0.998487  0.991140  1
  Tl  Tl16  1  0.837328  0.674638  0.754045  1
  Tl  Tl17  1  0.325281  0.162682  0.753925  1
  Tl  Tl18  1  0.837411  0.162685  0.753923  1
  Tl  Tl19  1  0.163673  0.327350  0.256916  1
  In  In20  1  0.673484  0.836864  0.253501  1
  In  In21  1  0.163361  0.836894  0.253469  1
  Co  Co22  1  0.333261  0.666512  0.780048  1
  Ir  Ir23  1  0.666625  0.333248  0.280284  1
