# generated using pymatgen
data_Pa2Se3
_symmetry_space_group_name_H-M   'P 1'
_cell_length_a   3.98546100
_cell_length_b   10.97087100
_cell_length_c   11.13130000
_cell_angle_alpha   90.00000000
_cell_angle_beta   90.00000000
_cell_angle_gamma   90.00000000
_symmetry_Int_Tables_number   1
_chemical_formula_structural   Pa2Se3
_chemical_formula_sum   'Pa8 Se12'
_cell_volume   486.70472195
_cell_formula_units_Z   4
loop_
 _symmetry_equiv_pos_site_id
 _symmetry_equiv_pos_as_xyz
  1  'x, y, z'
loop_
 _atom_site_type_symbol
 _atom_site_label
 _atom_site_symmetry_multiplicity
 _atom_site_fract_x
 _atom_site_fract_y
 _atom_site_fract_z
 _atom_site_occupancy
  Pa  Pa0  1  0.250000  0.183880  0.484548  1
  Pa  Pa1  1  0.750000  0.816120  0.515452  1
  Pa  Pa2  1  0.750000  0.683880  0.015452  1
  Pa  Pa3  1  0.250000  0.316120  0.984548  1
  Pa  Pa4  1  0.250000  0.993384  0.804850  1
  Pa  Pa5  1  0.750000  0.006616  0.195150  1
  Pa  Pa6  1  0.750000  0.493384  0.695150  1
  Pa  Pa7  1  0.250000  0.506616  0.304850  1
  Se  Se8  1  0.250000  0.294235  0.724935  1
  Se  Se9  1  0.750000  0.705765  0.275065  1
  Se  Se10  1  0.750000  0.794235  0.775065  1
  Se  Se11  1  0.250000  0.205765  0.224935  1
  Se  Se12  1  0.250000  0.626408  0.550239  1
  Se  Se13  1  0.750000  0.373592  0.449761  1
  Se  Se14  1  0.750000  0.126408  0.949761  1
  Se  Se15  1  0.250000  0.873592  0.050239  1
  Se  Se16  1  0.250000  0.558194  0.876008  1
  Se  Se17  1  0.750000  0.441806  0.123992  1
  Se  Se18  1  0.750000  0.058194  0.623992  1
  Se  Se19  1  0.250000  0.941806  0.376008  1
