# generated using pymatgen
data_Eu2NpO6
_symmetry_space_group_name_H-M   'P 1'
_cell_length_a   6.56292169
_cell_length_b   6.56292265
_cell_length_c   6.76684200
_cell_angle_alpha   80.82904131
_cell_angle_beta   80.82903996
_cell_angle_gamma   120.29428362
_symmetry_Int_Tables_number   1
_chemical_formula_structural   Eu2NpO6
_chemical_formula_sum   'Eu4 Np2 O12'
_cell_volume   238.41201335
_cell_formula_units_Z   2
loop_
 _symmetry_equiv_pos_site_id
 _symmetry_equiv_pos_as_xyz
  1  'x, y, z'
loop_
 _atom_site_type_symbol
 _atom_site_label
 _atom_site_symmetry_multiplicity
 _atom_site_fract_x
 _atom_site_fract_y
 _atom_site_fract_z
 _atom_site_occupancy
  Eu  Eu0  1  0.914790  0.085210  0.750000  1
  Eu  Eu1  1  0.250716  0.749284  0.750000  1
  Eu  Eu2  1  0.085210  0.914790  0.250000  1
  Eu  Eu3  1  0.749284  0.250716  0.250000  1
  Np  Np4  1  0.582833  0.417167  0.750000  1
  Np  Np5  1  0.417167  0.582833  0.250000  1
  O  O6  1  0.922246  0.758051  0.626247  1
  O  O7  1  0.626304  0.158065  0.622900  1
  O  O8  1  0.682936  0.540555  0.373162  1
  O  O9  1  0.459445  0.317064  0.126838  1
  O  O10  1  0.317064  0.459445  0.626838  1
  O  O11  1  0.158065  0.626304  0.122900  1
  O  O12  1  0.373696  0.841935  0.377100  1
  O  O13  1  0.241949  0.077754  0.873753  1
  O  O14  1  0.077754  0.241949  0.373753  1
  O  O15  1  0.758051  0.922246  0.126247  1
  O  O16  1  0.841935  0.373696  0.877100  1
  O  O17  1  0.540555  0.682936  0.873162  1
