# generated using pymatgen
data_LiMgSiPd5
_symmetry_space_group_name_H-M   'P 1'
_cell_length_a   4.09920700
_cell_length_b   5.41505234
_cell_length_c   10.46884532
_cell_angle_alpha   91.40565576
_cell_angle_beta   90.00000000
_cell_angle_gamma   90.00000000
_symmetry_Int_Tables_number   1
_chemical_formula_structural   LiMgSiPd5
_chemical_formula_sum   'Li2 Mg2 Si2 Pd10'
_cell_volume   232.31143133
_cell_formula_units_Z   2
loop_
 _symmetry_equiv_pos_site_id
 _symmetry_equiv_pos_as_xyz
  1  'x, y, z'
loop_
 _atom_site_type_symbol
 _atom_site_label
 _atom_site_symmetry_multiplicity
 _atom_site_fract_x
 _atom_site_fract_y
 _atom_site_fract_z
 _atom_site_occupancy
  Li  Li0  1  0.500000  0.158829  0.139817  1
  Li  Li1  1  0.500000  0.841171  0.860183  1
  Mg  Mg2  1  0.500000  0.344385  0.646726  1
  Mg  Mg3  1  0.500000  0.655615  0.353274  1
  Si  Si4  1  0.000000  0.000000  0.500000  1
  Si  Si5  1  0.000000  0.500000  0.000000  1
  Pd  Pd6  1  0.500000  0.172656  0.396624  1
  Pd  Pd7  1  0.500000  0.827344  0.603376  1
  Pd  Pd8  1  0.500000  0.317736  0.900721  1
  Pd  Pd9  1  0.500000  0.682264  0.099279  1
  Pd  Pd10  1  0.000000  0.404352  0.225488  1
  Pd  Pd11  1  0.000000  0.595648  0.774512  1
  Pd  Pd12  1  0.000000  0.087525  0.733336  1
  Pd  Pd13  1  0.000000  0.912475  0.266664  1
  Pd  Pd14  1  0.000000  0.000000  0.000000  1
  Pd  Pd15  1  0.000000  0.500000  0.500000  1
