# generated using pymatgen
data_Li26Si7Bi
_symmetry_space_group_name_H-M   'P 1'
_cell_length_a   7.98112580
_cell_length_b   15.18647396
_cell_length_c   4.47789500
_cell_angle_alpha   90.00000000
_cell_angle_beta   90.00000000
_cell_angle_gamma   89.85686552
_symmetry_Int_Tables_number   1
_chemical_formula_structural   Li26Si7Bi
_chemical_formula_sum   'Li26 Si7 Bi1'
_cell_volume   542.74228256
_cell_formula_units_Z   1
loop_
 _symmetry_equiv_pos_site_id
 _symmetry_equiv_pos_as_xyz
  1  'x, y, z'
loop_
 _atom_site_type_symbol
 _atom_site_label
 _atom_site_symmetry_multiplicity
 _atom_site_fract_x
 _atom_site_fract_y
 _atom_site_fract_z
 _atom_site_occupancy
  Li  Li0  1  0.478528  0.984766  0.000000  1
  Li  Li1  1  0.122760  0.022218  0.000000  1
  Li  Li2  1  0.787405  0.150714  0.000000  1
  Li  Li3  1  0.088459  0.198607  0.000000  1
  Li  Li4  1  0.600354  0.318938  0.000000  1
  Li  Li5  1  0.265159  0.361781  0.000000  1
  Li  Li6  1  0.653057  0.482092  0.000000  1
  Li  Li7  1  0.998792  0.503061  0.000000  1
  Li  Li8  1  0.353341  0.531172  0.000000  1
  Li  Li9  1  0.729644  0.654994  0.000000  1
  Li  Li10  1  0.406225  0.695900  0.000000  1
  Li  Li11  1  0.909289  0.803708  0.000000  1
  Li  Li12  1  0.226932  0.846021  0.000000  1
  Li  Li13  1  0.832542  0.971022  0.000000  1
  Li  Li14  1  0.254105  0.083056  0.500000  1
  Li  Li15  1  0.609128  0.090877  0.500000  1
  Li  Li16  1  0.903378  0.248476  0.500000  1
  Li  Li17  1  0.405143  0.265686  0.500000  1
  Li  Li18  1  0.092267  0.397815  0.500000  1
  Li  Li19  1  0.759598  0.409831  0.500000  1
  Li  Li20  1  0.241140  0.595137  0.500000  1
  Li  Li21  1  0.906231  0.609051  0.500000  1
  Li  Li22  1  0.599267  0.741792  0.500000  1
  Li  Li23  1  0.094668  0.753182  0.500000  1
  Li  Li24  1  0.407708  0.882109  0.500000  1
  Li  Li25  1  0.744930  0.898281  0.500000  1
  Si  Si26  1  0.919218  0.343001  0.000000  1
  Si  Si27  1  0.086755  0.660573  0.000000  1
  Si  Si28  1  0.590556  0.835200  0.000000  1
  Si  Si29  1  0.928641  0.067688  0.500000  1
  Si  Si30  1  0.426389  0.434272  0.500000  1
  Si  Si31  1  0.575651  0.571197  0.500000  1
  Si  Si32  1  0.079133  0.928752  0.500000  1
  Bi  Bi33  1  0.423614  0.159030  0.000000  1
