# generated using pymatgen
data_Rb6SmErF12
_symmetry_space_group_name_H-M   'P 1'
_cell_length_a   6.90983341
_cell_length_b   6.65938271
_cell_length_c   11.55532395
_cell_angle_alpha   55.35880038
_cell_angle_beta   90.04588790
_cell_angle_gamma   89.97766606
_symmetry_Int_Tables_number   1
_chemical_formula_structural   Rb6SmErF12
_chemical_formula_sum   'Rb6 Sm1 Er1 F12'
_cell_volume   437.46115971
_cell_formula_units_Z   1
loop_
 _symmetry_equiv_pos_site_id
 _symmetry_equiv_pos_as_xyz
  1  'x, y, z'
loop_
 _atom_site_type_symbol
 _atom_site_label
 _atom_site_symmetry_multiplicity
 _atom_site_fract_x
 _atom_site_fract_y
 _atom_site_fract_z
 _atom_site_occupancy
  Rb  Rb0  1  0.500000  0.500000  0.000000  1
  Rb  Rb1  1  0.000000  0.500000  0.500000  1
  Rb  Rb2  1  0.050460  0.729574  0.756119  1
  Rb  Rb3  1  0.949540  0.270426  0.243881  1
  Rb  Rb4  1  0.551601  0.265501  0.748734  1
  Rb  Rb5  1  0.448399  0.734499  0.251266  1
  Sm  Sm6  1  0.500000  0.000000  0.500000  1
  Er  Er7  1  0.000000  0.000000  0.000000  1
  F  F8  1  0.769979  0.766708  0.568473  1
  F  F9  1  0.230021  0.233292  0.431527  1
  F  F10  1  0.260780  0.225687  0.934418  1
  F  F11  1  0.739220  0.774313  0.065582  1
  F  F12  1  0.444867  0.888475  0.721837  1
  F  F13  1  0.555133  0.111525  0.278163  1
  F  F14  1  0.947073  0.107268  0.786074  1
  F  F15  1  0.052927  0.892732  0.213926  1
  F  F16  1  0.327072  0.672988  0.549517  1
  F  F17  1  0.672928  0.327012  0.450483  1
  F  F18  1  0.831064  0.314471  0.952859  1
  F  F19  1  0.168936  0.685529  0.047141  1
