# generated using pymatgen
data_LiGd6(TcC4)3
_symmetry_space_group_name_H-M   'P 1'
_cell_length_a   8.42874200
_cell_length_b   8.42874050
_cell_length_c   5.09177700
_cell_angle_alpha   90.00000000
_cell_angle_beta   90.00000000
_cell_angle_gamma   119.99999174
_symmetry_Int_Tables_number   1
_chemical_formula_structural   LiGd6(TcC4)3
_chemical_formula_sum   'Li1 Gd6 Tc3 C12'
_cell_volume   313.27481801
_cell_formula_units_Z   1
loop_
 _symmetry_equiv_pos_site_id
 _symmetry_equiv_pos_as_xyz
  1  'x, y, z'
loop_
 _atom_site_type_symbol
 _atom_site_label
 _atom_site_symmetry_multiplicity
 _atom_site_fract_x
 _atom_site_fract_y
 _atom_site_fract_z
 _atom_site_occupancy
  Li  Li0  1  0.000000  0.000000  0.500000  1
  Gd  Gd1  1  0.624712  0.693349  0.745047  1
  Gd  Gd2  1  0.931362  0.624712  0.254953  1
  Gd  Gd3  1  0.693349  0.068638  0.254953  1
  Gd  Gd4  1  0.306651  0.931362  0.745047  1
  Gd  Gd5  1  0.068638  0.375288  0.745047  1
  Gd  Gd6  1  0.375288  0.306651  0.254953  1
  Tc  Tc7  1  0.000000  0.000000  0.000000  1
  Tc  Tc8  1  0.666667  0.333333  0.746486  1
  Tc  Tc9  1  0.333333  0.666667  0.253514  1
  C  C10  1  0.965892  0.768762  0.765285  1
  C  C11  1  0.197131  0.965892  0.234715  1
  C  C12  1  0.768762  0.802869  0.234715  1
  C  C13  1  0.231238  0.197131  0.765285  1
  C  C14  1  0.802869  0.034108  0.765285  1
  C  C15  1  0.034108  0.231238  0.234715  1
  C  C16  1  0.865764  0.584908  0.757845  1
  C  C17  1  0.280855  0.865764  0.242155  1
  C  C18  1  0.584908  0.719145  0.242155  1
  C  C19  1  0.415092  0.280855  0.757845  1
  C  C20  1  0.134236  0.415092  0.242155  1
  C  C21  1  0.719145  0.134236  0.757845  1
