# generated using pymatgen
data_PrNd5TaMoO14
_symmetry_space_group_name_H-M   'P 1'
_cell_length_a   6.66924554
_cell_length_b   6.66924572
_cell_length_c   7.75277022
_cell_angle_alpha   89.81231206
_cell_angle_beta   90.18769739
_cell_angle_gamma   109.54331824
_symmetry_Int_Tables_number   1
_chemical_formula_structural   PrNd5TaMoO14
_chemical_formula_sum   'Pr1 Nd5 Ta1 Mo1 O14'
_cell_volume   324.96529612
_cell_formula_units_Z   1
loop_
 _symmetry_equiv_pos_site_id
 _symmetry_equiv_pos_as_xyz
  1  'x, y, z'
loop_
 _atom_site_type_symbol
 _atom_site_label
 _atom_site_symmetry_multiplicity
 _atom_site_fract_x
 _atom_site_fract_y
 _atom_site_fract_z
 _atom_site_occupancy
  Pr  Pr0  1  0.500000  0.500000  0.000000  1
  Nd  Nd1  1  0.500000  0.500000  0.500000  1
  Nd  Nd2  1  0.999397  0.535787  0.249347  1
  Nd  Nd3  1  0.000603  0.464213  0.750653  1
  Nd  Nd4  1  0.535787  0.999397  0.750653  1
  Nd  Nd5  1  0.464213  0.000603  0.249347  1
  Ta  Ta6  1  0.000000  0.000000  0.000000  1
  Mo  Mo7  1  0.000000  0.000000  0.500000  1
  O  O8  1  0.939511  0.060489  0.751247  1
  O  O9  1  0.060489  0.939511  0.248753  1
  O  O10  1  0.364721  0.635279  0.251373  1
  O  O11  1  0.635279  0.364721  0.748627  1
  O  O12  1  0.369764  0.630236  0.748488  1
  O  O13  1  0.630236  0.369764  0.251512  1
  O  O14  1  0.313666  0.068723  0.970249  1
  O  O15  1  0.686616  0.928784  0.472283  1
  O  O16  1  0.313384  0.071216  0.527717  1
  O  O17  1  0.686334  0.931277  0.029751  1
  O  O18  1  0.071216  0.313384  0.472283  1
  O  O19  1  0.931277  0.686334  0.970249  1
  O  O20  1  0.928784  0.686616  0.527717  1
  O  O21  1  0.068723  0.313666  0.029751  1
