# generated using pymatgen
data_Sc5Nb2Co8Si14W
_symmetry_space_group_name_H-M   'P 1'
_cell_length_a   9.34014619
_cell_length_b   9.34014542
_cell_length_c   9.38431720
_cell_angle_alpha   94.21016343
_cell_angle_beta   94.03634289
_cell_angle_gamma   148.81674283
_symmetry_Int_Tables_number   1
_chemical_formula_structural   Sc5Nb2Co8Si14W
_chemical_formula_sum   'Sc5 Nb2 Co8 Si14 W1'
_cell_volume   408.43998166
_cell_formula_units_Z   1
loop_
 _symmetry_equiv_pos_site_id
 _symmetry_equiv_pos_as_xyz
  1  'x, y, z'
loop_
 _atom_site_type_symbol
 _atom_site_label
 _atom_site_symmetry_multiplicity
 _atom_site_fract_x
 _atom_site_fract_y
 _atom_site_fract_z
 _atom_site_occupancy
  Sc  Sc0  1  0.693849  0.499203  0.193052  1
  Sc  Sc1  1  0.499210  0.695383  0.194592  1
  Sc  Sc2  1  0.501959  0.302482  0.804441  1
  Sc  Sc3  1  0.137555  0.140064  0.277617  1
  Sc  Sc4  1  0.860621  0.862893  0.723514  1
  Nb  Nb5  1  0.132409  0.863763  0.996171  1
  Nb  Nb6  1  0.863757  0.133768  0.997526  1
  Co  Co7  1  0.398540  0.895124  0.795772  1
  Co  Co8  1  0.103610  0.601876  0.202845  1
  Co  Co9  1  0.900012  0.105504  0.502970  1
  Co  Co10  1  0.601779  0.397886  0.502241  1
  Co  Co11  1  0.600968  0.099233  0.202845  1
  Co  Co12  1  0.900649  0.397233  0.795772  1
  Co  Co13  1  0.104356  0.900463  0.502241  1
  Co  Co14  1  0.397466  0.602959  0.502970  1
  Si  Si15  1  0.291556  0.295553  0.587108  1
  Si  Si16  1  0.709721  0.709752  0.419472  1
  Si  Si17  1  0.289213  0.708075  0.997288  1
  Si  Si18  1  0.712304  0.288134  0.000439  1
  Si  Si19  1  0.095117  0.500227  0.595344  1
  Si  Si20  1  0.907293  0.499963  0.407256  1
  Si  Si21  1  0.500001  0.907807  0.407809  1
  Si  Si22  1  0.500390  0.091067  0.591456  1
  Si  Si23  1  0.243608  0.249745  0.995053  1
  Si  Si24  1  0.745308  0.751446  0.995053  1
  Si  Si25  1  0.298186  0.998476  0.296664  1
  Si  Si26  1  0.703017  0.001383  0.704400  1
  Si  Si27  1  0.001212  0.699901  0.701113  1
  Si  Si28  1  0.997741  0.300364  0.298105  1
  W  W29  1  0.308595  0.500273  0.808868  1
