# generated using pymatgen
data_Be8Fe4Mo11WC2
_symmetry_space_group_name_H-M   'P 1'
_cell_length_a   7.55047454
_cell_length_b   7.55047476
_cell_length_c   7.55082000
_cell_angle_alpha   59.99848743
_cell_angle_beta   59.99848647
_cell_angle_gamma   60.00835275
_symmetry_Int_Tables_number   1
_chemical_formula_structural   Be8Fe4Mo11WC2
_chemical_formula_sum   'Be8 Fe4 Mo11 W1 C2'
_cell_volume   304.40031746
_cell_formula_units_Z   1
loop_
 _symmetry_equiv_pos_site_id
 _symmetry_equiv_pos_as_xyz
  1  'x, y, z'
loop_
 _atom_site_type_symbol
 _atom_site_label
 _atom_site_symmetry_multiplicity
 _atom_site_fract_x
 _atom_site_fract_y
 _atom_site_fract_z
 _atom_site_occupancy
  Be  Be0  1  0.921095  0.236768  0.921069  1
  Be  Be1  1  0.328875  0.013217  0.328954  1
  Be  Be2  1  0.328901  0.328901  0.328947  1
  Be  Be3  1  0.013217  0.328875  0.328954  1
  Be  Be4  1  0.921098  0.921098  0.236764  1
  Be  Be5  1  0.236768  0.921095  0.921069  1
  Be  Be6  1  0.328901  0.328901  0.013251  1
  Be  Be7  1  0.921098  0.921098  0.921042  1
  Fe  Fe8  1  0.125009  0.125009  0.624965  1
  Fe  Fe9  1  0.124980  0.624959  0.125031  1
  Fe  Fe10  1  0.125009  0.125009  0.125016  1
  Fe  Fe11  1  0.624959  0.124980  0.125031  1
  Mo  Mo12  1  0.298432  0.701522  0.701506  1
  Mo  Mo13  1  0.298466  0.298466  0.701534  1
  Mo  Mo14  1  0.548459  0.951557  0.548439  1
  Mo  Mo15  1  0.951557  0.548459  0.548439  1
  Mo  Mo16  1  0.548459  0.951557  0.951545  1
  Mo  Mo17  1  0.701522  0.298432  0.298541  1
  Mo  Mo18  1  0.951557  0.548459  0.951545  1
  Mo  Mo19  1  0.298432  0.701522  0.298541  1
  Mo  Mo20  1  0.548541  0.548541  0.951459  1
  Mo  Mo21  1  0.701522  0.298432  0.701506  1
  Mo  Mo22  1  0.701543  0.701543  0.298457  1
  W  W23  1  0.951591  0.951591  0.548409  1
  C  C24  1  0.750018  0.750018  0.749982  1
  C  C25  1  0.499993  0.499993  0.500007  1
