# generated using pymatgen
data_Ti6Al5Ru12W
_symmetry_space_group_name_H-M   'P 1'
_cell_length_a   4.32464200
_cell_length_b   6.13884100
_cell_length_c   12.94659700
_cell_angle_alpha   90.00000000
_cell_angle_beta   89.99767462
_cell_angle_gamma   90.00000000
_symmetry_Int_Tables_number   1
_chemical_formula_structural   Ti6Al5Ru12W
_chemical_formula_sum   'Ti6 Al5 Ru12 W1'
_cell_volume   343.71000661
_cell_formula_units_Z   1
loop_
 _symmetry_equiv_pos_site_id
 _symmetry_equiv_pos_as_xyz
  1  'x, y, z'
loop_
 _atom_site_type_symbol
 _atom_site_label
 _atom_site_symmetry_multiplicity
 _atom_site_fract_x
 _atom_site_fract_y
 _atom_site_fract_z
 _atom_site_occupancy
  Ti  Ti0  1  0.000000  0.499999  0.000000  1
  Ti  Ti1  1  0.499875  0.000000  0.175266  1
  Ti  Ti2  1  0.999845  0.499999  0.336419  1
  Ti  Ti3  1  0.500000  0.000000  0.500000  1
  Ti  Ti4  1  0.000156  0.499999  0.663581  1
  Ti  Ti5  1  0.500126  0.000000  0.824734  1
  Al  Al6  1  0.499866  0.499999  0.167758  1
  Al  Al7  1  0.999830  0.000000  0.334706  1
  Al  Al8  1  0.500000  0.499999  0.500000  1
  Al  Al9  1  0.000171  0.000000  0.665294  1
  Al  Al10  1  0.500134  0.499999  0.832242  1
  Ru  Ru11  1  0.500000  0.248077  0.000000  1
  Ru  Ru12  1  0.500000  0.751922  0.000000  1
  Ru  Ru13  1  0.999879  0.248546  0.163483  1
  Ru  Ru14  1  0.999879  0.751454  0.163483  1
  Ru  Ru15  1  0.499836  0.251591  0.332690  1
  Ru  Ru16  1  0.499836  0.748410  0.332690  1
  Ru  Ru17  1  0.000000  0.250084  0.500000  1
  Ru  Ru18  1  0.000000  0.749916  0.500000  1
  Ru  Ru19  1  0.500162  0.251591  0.667310  1
  Ru  Ru20  1  0.500162  0.748410  0.667310  1
  Ru  Ru21  1  0.000122  0.248546  0.836517  1
  Ru  Ru22  1  0.000122  0.751454  0.836517  1
  W  W23  1  0.000000  0.000000  0.000000  1
