# generated using pymatgen
data_La8Y5Er7Pb16
_symmetry_space_group_name_H-M   'P 1'
_cell_length_a   8.28642529
_cell_length_b   8.34180517
_cell_length_c   15.81143800
_cell_angle_alpha   90.00127754
_cell_angle_beta   90.05106987
_cell_angle_gamma   89.89074830
_symmetry_Int_Tables_number   1
_chemical_formula_structural   La8Y5Er7Pb16
_chemical_formula_sum   'La8 Y5 Er7 Pb16'
_cell_volume   1092.94339202
_cell_formula_units_Z   1
loop_
 _symmetry_equiv_pos_site_id
 _symmetry_equiv_pos_as_xyz
  1  'x, y, z'
loop_
 _atom_site_type_symbol
 _atom_site_label
 _atom_site_symmetry_multiplicity
 _atom_site_fract_x
 _atom_site_fract_y
 _atom_site_fract_z
 _atom_site_occupancy
  La  La0  1  0.483417  0.677199  0.595909  1
  La  La1  1  0.983502  0.822548  0.904661  1
  La  La2  1  0.516504  0.322700  0.095191  1
  La  La3  1  0.016905  0.177586  0.404397  1
  La  La4  1  0.517422  0.323205  0.404321  1
  La  La5  1  0.016972  0.177114  0.095428  1
  La  La6  1  0.482622  0.676838  0.904454  1
  La  La7  1  0.982889  0.823234  0.595798  1
  Y  Y8  1  0.641500  0.158342  0.623372  1
  Y  Y9  1  0.141827  0.341731  0.876728  1
  Y  Y10  1  0.358164  0.841517  0.123351  1
  Y  Y11  1  0.858435  0.658566  0.376534  1
  Y  Y12  1  0.358059  0.841574  0.376718  1
  Er  Er13  1  0.857276  0.658025  0.123410  1
  Er  Er14  1  0.642471  0.158206  0.876281  1
  Er  Er15  1  0.142156  0.341863  0.624061  1
  Er  Er16  1  0.807957  0.495161  0.750077  1
  Er  Er17  1  0.307947  0.005047  0.749917  1
  Er  Er18  1  0.191723  0.504515  0.249975  1
  Er  Er19  1  0.692326  0.995376  0.249653  1
  Pb  Pb20  1  0.697461  0.957965  0.455855  1
  Pb  Pb21  1  0.195194  0.543108  0.044213  1
  Pb  Pb22  1  0.304741  0.042629  0.955798  1
  Pb  Pb23  1  0.804405  0.457089  0.544229  1
  Pb  Pb24  1  0.301584  0.043657  0.544175  1
  Pb  Pb25  1  0.801996  0.456509  0.956503  1
  Pb  Pb26  1  0.697517  0.956695  0.043269  1
  Pb  Pb27  1  0.197428  0.542045  0.456911  1
  Pb  Pb28  1  0.446999  0.371746  0.750327  1
  Pb  Pb29  1  0.946753  0.128344  0.749921  1
  Pb  Pb30  1  0.553708  0.627452  0.249661  1
  Pb  Pb31  1  0.052714  0.871539  0.249134  1
  Pb  Pb32  1  0.671207  0.850555  0.750547  1
  Pb  Pb33  1  0.171388  0.649638  0.749821  1
  Pb  Pb34  1  0.328710  0.150100  0.249949  1
  Pb  Pb35  1  0.828119  0.350583  0.249450  1
