# generated using pymatgen
data_Zr7Fe3Co5Si14Mo
_symmetry_space_group_name_H-M   'P 1'
_cell_length_a   9.46352145
_cell_length_b   9.46388322
_cell_length_c   9.46577084
_cell_angle_alpha   94.17042760
_cell_angle_beta   94.16633092
_cell_angle_gamma   148.77093954
_symmetry_Int_Tables_number   1
_chemical_formula_structural   Zr7Fe3Co5Si14Mo
_chemical_formula_sum   'Zr7 Fe3 Co5 Si14 Mo1'
_cell_volume   423.20520100
_cell_formula_units_Z   1
loop_
 _symmetry_equiv_pos_site_id
 _symmetry_equiv_pos_as_xyz
  1  'x, y, z'
loop_
 _atom_site_type_symbol
 _atom_site_label
 _atom_site_symmetry_multiplicity
 _atom_site_fract_x
 _atom_site_fract_y
 _atom_site_fract_z
 _atom_site_occupancy
  Zr  Zr0  1  0.864319  0.864369  0.727630  1
  Zr  Zr1  1  0.861871  0.137942  0.999589  1
  Zr  Zr2  1  0.138144  0.861319  0.999393  1
  Zr  Zr3  1  0.501966  0.305894  0.803206  1
  Zr  Zr4  1  0.504429  0.697314  0.198854  1
  Zr  Zr5  1  0.694800  0.501608  0.199503  1
  Zr  Zr6  1  0.302198  0.498007  0.803997  1
  Fe  Fe7  1  0.399633  0.897955  0.799524  1
  Fe  Fe8  1  0.102310  0.600976  0.202829  1
  Fe  Fe9  1  0.100699  0.898622  0.497731  1
  Co  Co10  1  0.398002  0.599872  0.498121  1
  Co  Co11  1  0.601366  0.393907  0.498489  1
  Co  Co12  1  0.896215  0.104271  0.497759  1
  Co  Co13  1  0.894489  0.395894  0.792628  1
  Co  Co14  1  0.604706  0.105937  0.209039  1
  Si  Si15  1  0.485353  0.076263  0.592571  1
  Si  Si16  1  0.491335  0.901360  0.406772  1
  Si  Si17  1  0.923672  0.514238  0.408225  1
  Si  Si18  1  0.097947  0.507429  0.593926  1
  Si  Si19  1  0.757652  0.757196  0.006588  1
  Si  Si20  1  0.249253  0.249213  0.006206  1
  Si  Si21  1  0.283299  0.283327  0.568241  1
  Si  Si22  1  0.713381  0.713178  0.424005  1
  Si  Si23  1  0.711463  0.290757  0.000938  1
  Si  Si24  1  0.289473  0.710046  0.001116  1
  Si  Si25  1  0.006464  0.303753  0.302162  1
  Si  Si26  1  0.005237  0.701277  0.694771  1
  Si  Si27  1  0.692595  0.996859  0.695372  1
  Si  Si28  1  0.294457  0.997760  0.302000  1
  Mo  Mo29  1  0.133275  0.133455  0.268817  1
