# generated using pymatgen
data_La9PrSn6
_symmetry_space_group_name_H-M   'P 1'
_cell_length_a   9.61056768
_cell_length_b   9.61056780
_cell_length_c   9.61056768
_cell_angle_alpha   96.09697756
_cell_angle_beta   96.09697935
_cell_angle_gamma   141.95962185
_symmetry_Int_Tables_number   1
_chemical_formula_structural   La9PrSn6
_chemical_formula_sum   'La9 Pr1 Sn6'
_cell_volume   517.12784038
_cell_formula_units_Z   1
loop_
 _symmetry_equiv_pos_site_id
 _symmetry_equiv_pos_as_xyz
  1  'x, y, z'
loop_
 _atom_site_type_symbol
 _atom_site_label
 _atom_site_symmetry_multiplicity
 _atom_site_fract_x
 _atom_site_fract_y
 _atom_site_fract_z
 _atom_site_occupancy
  La  La0  1  0.250000  0.750000  0.500000  1
  La  La1  1  0.911072  0.218521  0.132699  1
  La  La2  1  0.221626  0.088928  0.307449  1
  La  La3  1  0.781479  0.914178  0.692551  1
  La  La4  1  0.085822  0.778374  0.867301  1
  La  La5  1  0.718521  0.411072  0.132699  1
  La  La6  1  0.278374  0.585822  0.867301  1
  La  La7  1  0.588928  0.721626  0.307449  1
  La  La8  1  0.414178  0.281479  0.692551  1
  Pr  Pr9  1  0.750000  0.250000  0.500000  1
  Sn  Sn10  1  0.750000  0.750000  0.000000  1
  Sn  Sn11  1  0.250000  0.250000  0.000000  1
  Sn  Sn12  1  0.833398  0.651287  0.500000  1
  Sn  Sn13  1  0.666602  0.166602  0.817889  1
  Sn  Sn14  1  0.348713  0.848713  0.182111  1
  Sn  Sn15  1  0.151287  0.333398  0.500000  1
