# generated using pymatgen
data_NaSmDy5FeCl12
_symmetry_space_group_name_H-M   'P 1'
_cell_length_a   8.87624296
_cell_length_b   8.82435304
_cell_length_c   8.84462619
_cell_angle_alpha   106.60198197
_cell_angle_beta   106.75071662
_cell_angle_gamma   107.07888051
_symmetry_Int_Tables_number   1
_chemical_formula_structural   NaSmDy5FeCl12
_chemical_formula_sum   'Na1 Sm1 Dy5 Fe1 Cl12'
_cell_volume   579.89678911
_cell_formula_units_Z   1
loop_
 _symmetry_equiv_pos_site_id
 _symmetry_equiv_pos_as_xyz
  1  'x, y, z'
loop_
 _atom_site_type_symbol
 _atom_site_label
 _atom_site_symmetry_multiplicity
 _atom_site_fract_x
 _atom_site_fract_y
 _atom_site_fract_z
 _atom_site_occupancy
  Na  Na0  1  0.499380  0.499797  0.500059  1
  Sm  Sm1  1  0.320653  0.112056  0.027814  1
  Dy  Dy2  1  0.029966  0.318440  0.110402  1
  Dy  Dy3  1  0.109294  0.027126  0.316712  1
  Dy  Dy4  1  0.888740  0.972337  0.682118  1
  Dy  Dy5  1  0.972182  0.682183  0.889844  1
  Dy  Dy6  1  0.683649  0.889029  0.972554  1
  Fe  Fe7  1  0.002642  0.000503  0.999088  1
  Cl  Cl8  1  0.689342  0.214789  0.073553  1
  Cl  Cl9  1  0.363156  0.454112  0.152991  1
  Cl  Cl10  1  0.071183  0.682849  0.212779  1
  Cl  Cl11  1  0.785510  0.927295  0.316021  1
  Cl  Cl12  1  0.444764  0.149314  0.371575  1
  Cl  Cl13  1  0.147841  0.362951  0.444073  1
  Cl  Cl14  1  0.850852  0.636691  0.555610  1
  Cl  Cl15  1  0.554795  0.851338  0.637404  1
  Cl  Cl16  1  0.207937  0.070281  0.674558  1
  Cl  Cl17  1  0.927387  0.316817  0.786680  1
  Cl  Cl18  1  0.635931  0.554496  0.851504  1
  Cl  Cl19  1  0.314796  0.777597  0.924665  1
