# generated using pymatgen
data_La6HoMoO12
_symmetry_space_group_name_H-M   'P 1'
_cell_length_a   6.96447547
_cell_length_b   6.96447551
_cell_length_c   6.96447500
_cell_angle_alpha   93.28108606
_cell_angle_beta   93.28109432
_cell_angle_gamma   93.28110976
_symmetry_Int_Tables_number   1
_chemical_formula_structural   La6HoMoO12
_chemical_formula_sum   'La6 Ho1 Mo1 O12'
_cell_volume   336.07670603
_cell_formula_units_Z   1
loop_
 _symmetry_equiv_pos_site_id
 _symmetry_equiv_pos_as_xyz
  1  'x, y, z'
loop_
 _atom_site_type_symbol
 _atom_site_label
 _atom_site_symmetry_multiplicity
 _atom_site_fract_x
 _atom_site_fract_y
 _atom_site_fract_z
 _atom_site_occupancy
  La  La0  1  0.563599  0.073236  0.258790  1
  La  La1  1  0.073236  0.258790  0.563599  1
  La  La2  1  0.741210  0.436401  0.926764  1
  La  La3  1  0.258790  0.563599  0.073236  1
  La  La4  1  0.926764  0.741210  0.436401  1
  La  La5  1  0.436401  0.926764  0.741210  1
  Ho  Ho6  1  0.000000  0.000000  0.000000  1
  Mo  Mo7  1  0.500000  0.500000  0.500000  1
  O  O8  1  0.691851  0.085144  0.936139  1
  O  O9  1  0.914856  0.063861  0.308149  1
  O  O10  1  0.411677  0.200338  0.540196  1
  O  O11  1  0.063861  0.308149  0.914856  1
  O  O12  1  0.540196  0.411677  0.200338  1
  O  O13  1  0.799662  0.459804  0.588323  1
  O  O14  1  0.200338  0.540196  0.411677  1
  O  O15  1  0.459804  0.588323  0.799662  1
  O  O16  1  0.936139  0.691851  0.085144  1
  O  O17  1  0.588323  0.799662  0.459804  1
  O  O18  1  0.085144  0.936139  0.691851  1
  O  O19  1  0.308149  0.914856  0.063861  1
