# generated using pymatgen
data_Th6Zn15Ag8P
_symmetry_space_group_name_H-M   'P 1'
_cell_length_a   9.37659074
_cell_length_b   9.37658963
_cell_length_c   9.37659000
_cell_angle_alpha   59.99999868
_cell_angle_beta   60.00000262
_cell_angle_gamma   59.99999577
_symmetry_Int_Tables_number   1
_chemical_formula_structural   Th6Zn15Ag8P
_chemical_formula_sum   'Th6 Zn15 Ag8 P1'
_cell_volume   582.93454055
_cell_formula_units_Z   1
loop_
 _symmetry_equiv_pos_site_id
 _symmetry_equiv_pos_as_xyz
  1  'x, y, z'
loop_
 _atom_site_type_symbol
 _atom_site_label
 _atom_site_symmetry_multiplicity
 _atom_site_fract_x
 _atom_site_fract_y
 _atom_site_fract_z
 _atom_site_occupancy
  Th  Th0  1  0.711374  0.288626  0.288626  1
  Th  Th1  1  0.288626  0.711374  0.711374  1
  Th  Th2  1  0.288626  0.711374  0.288626  1
  Th  Th3  1  0.711374  0.288626  0.711374  1
  Th  Th4  1  0.288626  0.288626  0.711374  1
  Th  Th5  1  0.711374  0.711374  0.288626  1
  Zn  Zn6  1  0.500000  0.000000  0.000000  1
  Zn  Zn7  1  0.000000  0.500000  0.500000  1
  Zn  Zn8  1  0.000000  0.500000  0.000000  1
  Zn  Zn9  1  0.500000  0.000000  0.500000  1
  Zn  Zn10  1  0.000000  0.000000  0.500000  1
  Zn  Zn11  1  0.500000  0.500000  0.000000  1
  Zn  Zn12  1  0.328772  0.328772  0.328772  1
  Zn  Zn13  1  0.671228  0.671228  0.671228  1
  Zn  Zn14  1  0.328772  0.328772  0.013686  1
  Zn  Zn15  1  0.328772  0.013686  0.328772  1
  Zn  Zn16  1  0.671228  0.671228  0.986314  1
  Zn  Zn17  1  0.671228  0.986314  0.671228  1
  Zn  Zn18  1  0.013686  0.328772  0.328772  1
  Zn  Zn19  1  0.986314  0.671228  0.671228  1
  Zn  Zn20  1  0.000000  0.000000  0.000000  1
  Ag  Ag21  1  0.122132  0.122132  0.122132  1
  Ag  Ag22  1  0.877868  0.877868  0.877868  1
  Ag  Ag23  1  0.122132  0.122132  0.633604  1
  Ag  Ag24  1  0.122132  0.633604  0.122132  1
  Ag  Ag25  1  0.877868  0.877868  0.366396  1
  Ag  Ag26  1  0.877868  0.366396  0.877868  1
  Ag  Ag27  1  0.633604  0.122132  0.122132  1
  Ag  Ag28  1  0.366396  0.877868  0.877868  1
  P  P29  1  0.500000  0.500000  0.500000  1
