# generated using pymatgen
data_Y5Hf3Co14(NiP6)2
_symmetry_space_group_name_H-M   'P 1'
_cell_length_a   12.26513603
_cell_length_b   12.22970430
_cell_length_c   3.73884300
_cell_angle_alpha   90.00000000
_cell_angle_beta   90.00000000
_cell_angle_gamma   120.08825653
_symmetry_Int_Tables_number   1
_chemical_formula_structural   Y5Hf3Co14(NiP6)2
_chemical_formula_sum   'Y5 Hf3 Co14 Ni2 P12'
_cell_volume   485.25415992
_cell_formula_units_Z   1
loop_
 _symmetry_equiv_pos_site_id
 _symmetry_equiv_pos_as_xyz
  1  'x, y, z'
loop_
 _atom_site_type_symbol
 _atom_site_label
 _atom_site_symmetry_multiplicity
 _atom_site_fract_x
 _atom_site_fract_y
 _atom_site_fract_z
 _atom_site_occupancy
  Y  Y0  1  0.182550  0.182879  0.500000  1
  Y  Y1  1  0.815333  0.999560  0.500000  1
  Y  Y2  1  0.000096  0.816271  0.500000  1
  Y  Y3  1  0.333491  0.666549  0.000000  1
  Y  Y4  1  0.667477  0.333309  0.000000  1
  Hf  Hf5  1  0.559570  0.559692  0.000000  1
  Hf  Hf6  1  0.440147  0.999353  0.000000  1
  Hf  Hf7  1  0.999646  0.440151  0.000000  1
  Co  Co8  1  0.720291  0.720734  0.500000  1
  Co  Co9  1  0.280120  0.000130  0.500000  1
  Co  Co10  1  0.999469  0.279522  0.500000  1
  Co  Co11  1  0.177281  0.373964  0.000000  1
  Co  Co12  1  0.626713  0.804831  0.000000  1
  Co  Co13  1  0.195021  0.821783  0.000000  1
  Co  Co14  1  0.805969  0.627037  0.000000  1
  Co  Co15  1  0.821108  0.194760  0.000000  1
  Co  Co16  1  0.374564  0.180535  0.000000  1
  Co  Co17  1  0.355443  0.479124  0.500000  1
  Co  Co18  1  0.518536  0.874447  0.500000  1
  Co  Co19  1  0.124724  0.643111  0.500000  1
  Co  Co20  1  0.875939  0.519135  0.500000  1
  Co  Co21  1  0.643221  0.124521  0.500000  1
  Ni  Ni22  1  0.482713  0.356952  0.500000  1
  Ni  Ni23  1  0.000676  0.000300  0.000000  1
  P  P24  1  0.822014  0.822319  0.000000  1
  P  P25  1  0.178498  0.000090  0.000000  1
  P  P26  1  0.999453  0.177989  0.000000  1
  P  P27  1  0.170776  0.478710  0.500000  1
  P  P28  1  0.521334  0.692343  0.500000  1
  P  P29  1  0.307095  0.827994  0.500000  1
  P  P30  1  0.697180  0.525023  0.500000  1
  P  P31  1  0.828617  0.306863  0.500000  1
  P  P32  1  0.478455  0.168940  0.500000  1
  P  P33  1  0.349157  0.353769  0.000000  1
  P  P34  1  0.646787  0.999762  0.000000  1
  P  P35  1  0.000534  0.647545  0.000000  1
