# generated using pymatgen
data_Tb4GeAs5Ir7
_symmetry_space_group_name_H-M   'P 1'
_cell_length_a   7.31384492
_cell_length_b   7.31384481
_cell_length_c   7.31384577
_cell_angle_alpha   109.16703156
_cell_angle_beta   109.62352515
_cell_angle_gamma   109.62352890
_symmetry_Int_Tables_number   1
_chemical_formula_structural   Tb4GeAs5Ir7
_chemical_formula_sum   'Tb4 Ge1 As5 Ir7'
_cell_volume   301.16620816
_cell_formula_units_Z   1
loop_
 _symmetry_equiv_pos_site_id
 _symmetry_equiv_pos_as_xyz
  1  'x, y, z'
loop_
 _atom_site_type_symbol
 _atom_site_label
 _atom_site_symmetry_multiplicity
 _atom_site_fract_x
 _atom_site_fract_y
 _atom_site_fract_z
 _atom_site_occupancy
  Tb  Tb0  1  0.000000  0.000742  0.498889  1
  Tb  Tb1  1  0.000000  0.498889  0.000742  1
  Tb  Tb2  1  0.501854  0.000742  0.000742  1
  Tb  Tb3  1  0.498146  0.498889  0.498889  1
  Ge  Ge4  1  0.000000  0.682045  0.682045  1
  As  As5  1  0.681842  0.680577  0.998735  1
  As  As6  1  0.318158  0.998735  0.316893  1
  As  As7  1  0.000000  0.323917  0.323917  1
  As  As8  1  0.318158  0.316893  0.998735  1
  As  As9  1  0.681842  0.998735  0.680577  1
  Ir  Ir10  1  0.749270  0.251715  0.502445  1
  Ir  Ir11  1  0.749270  0.502445  0.251715  1
  Ir  Ir12  1  0.500000  0.250793  0.750793  1
  Ir  Ir13  1  0.250730  0.502445  0.753174  1
  Ir  Ir14  1  0.250730  0.753174  0.502445  1
  Ir  Ir15  1  0.500000  0.750793  0.250793  1
  Ir  Ir16  1  0.000000  0.988470  0.988470  1
