# generated using pymatgen
data_Ho5(RhPb2)2
_symmetry_space_group_name_H-M   'P 1'
_cell_length_a   8.06731800
_cell_length_b   18.27247900
_cell_length_c   3.74029700
_cell_angle_alpha   90.00000000
_cell_angle_beta   90.00000000
_cell_angle_gamma   90.00000000
_symmetry_Int_Tables_number   1
_chemical_formula_structural   Ho5(RhPb2)2
_chemical_formula_sum   'Ho10 Rh4 Pb8'
_cell_volume   551.35680203
_cell_formula_units_Z   2
loop_
 _symmetry_equiv_pos_site_id
 _symmetry_equiv_pos_as_xyz
  1  'x, y, z'
loop_
 _atom_site_type_symbol
 _atom_site_label
 _atom_site_symmetry_multiplicity
 _atom_site_fract_x
 _atom_site_fract_y
 _atom_site_fract_z
 _atom_site_occupancy
  Ho  Ho0  1  0.500000  0.500000  0.000000  1
  Ho  Ho1  1  0.000000  0.000000  0.000000  1
  Ho  Ho2  1  0.755263  0.280022  0.000000  1
  Ho  Ho3  1  0.244737  0.719978  0.000000  1
  Ho  Ho4  1  0.744737  0.780022  0.000000  1
  Ho  Ho5  1  0.255263  0.219978  0.000000  1
  Ho  Ho6  1  0.621697  0.089357  0.000000  1
  Ho  Ho7  1  0.378303  0.910643  0.000000  1
  Ho  Ho8  1  0.878303  0.589357  0.000000  1
  Ho  Ho9  1  0.121697  0.410643  0.000000  1
  Rh  Rh10  1  0.535278  0.194678  0.500000  1
  Rh  Rh11  1  0.464722  0.805322  0.500000  1
  Rh  Rh12  1  0.964722  0.694678  0.500000  1
  Rh  Rh13  1  0.035278  0.305322  0.500000  1
  Pb  Pb14  1  0.699603  0.935581  0.500000  1
  Pb  Pb15  1  0.300397  0.064419  0.500000  1
  Pb  Pb16  1  0.800397  0.435581  0.500000  1
  Pb  Pb17  1  0.199603  0.564419  0.500000  1
  Pb  Pb18  1  0.571442  0.650617  0.500000  1
  Pb  Pb19  1  0.428558  0.349383  0.500000  1
  Pb  Pb20  1  0.928558  0.150617  0.500000  1
  Pb  Pb21  1  0.071442  0.849383  0.500000  1
