# generated using pymatgen
data_Hf9Sc(Sn3S)2
_symmetry_space_group_name_H-M   'P 1'
_cell_length_a   8.49512600
_cell_length_b   8.50769476
_cell_length_c   5.94902200
_cell_angle_alpha   90.00000000
_cell_angle_beta   90.00000000
_cell_angle_gamma   120.04896175
_symmetry_Int_Tables_number   1
_chemical_formula_structural   Hf9Sc(Sn3S)2
_chemical_formula_sum   'Hf9 Sc1 Sn6 S2'
_cell_volume   372.17179008
_cell_formula_units_Z   1
loop_
 _symmetry_equiv_pos_site_id
 _symmetry_equiv_pos_as_xyz
  1  'x, y, z'
loop_
 _atom_site_type_symbol
 _atom_site_label
 _atom_site_symmetry_multiplicity
 _atom_site_fract_x
 _atom_site_fract_y
 _atom_site_fract_z
 _atom_site_occupancy
  Hf  Hf0  1  0.666002  0.332397  0.999857  1
  Hf  Hf1  1  0.333998  0.666397  0.999857  1
  Hf  Hf2  1  0.333998  0.666397  0.500143  1
  Hf  Hf3  1  0.666002  0.332397  0.500143  1
  Hf  Hf4  1  0.746482  0.746212  0.750000  1
  Hf  Hf5  1  0.253518  0.999729  0.750000  1
  Hf  Hf6  1  0.000000  0.253605  0.750000  1
  Hf  Hf7  1  0.252999  0.253130  0.250000  1
  Hf  Hf8  1  0.747001  0.000131  0.250000  1
  Sc  Sc9  1  0.000000  0.746478  0.250000  1
  Sn  Sn10  1  0.398205  0.398457  0.750000  1
  Sn  Sn11  1  0.601795  0.000253  0.750000  1
  Sn  Sn12  1  0.000000  0.602243  0.750000  1
  Sn  Sn13  1  0.602272  0.601109  0.250000  1
  Sn  Sn14  1  0.397728  0.998837  0.250000  1
  Sn  Sn15  1  0.000000  0.399000  0.250000  1
  S  S16  1  0.000000  0.001613  0.998797  1
  S  S17  1  0.000000  0.001613  0.501203  1
