# generated using pymatgen
data_Ho3MnVC6
_symmetry_space_group_name_H-M   'P 1'
_cell_length_a   8.14836500
_cell_length_b   8.14836517
_cell_length_c   4.93585100
_cell_angle_alpha   90.00000000
_cell_angle_beta   90.00000000
_cell_angle_gamma   120.00000336
_symmetry_Int_Tables_number   1
_chemical_formula_structural   Ho3MnVC6
_chemical_formula_sum   'Ho6 Mn2 V2 C12'
_cell_volume   283.81387061
_cell_formula_units_Z   2
loop_
 _symmetry_equiv_pos_site_id
 _symmetry_equiv_pos_as_xyz
  1  'x, y, z'
loop_
 _atom_site_type_symbol
 _atom_site_label
 _atom_site_symmetry_multiplicity
 _atom_site_fract_x
 _atom_site_fract_y
 _atom_site_fract_z
 _atom_site_occupancy
  Ho  Ho0  1  0.623449  0.682264  0.750000  1
  Ho  Ho1  1  0.941184  0.623449  0.250000  1
  Ho  Ho2  1  0.682264  0.058816  0.250000  1
  Ho  Ho3  1  0.317736  0.941184  0.750000  1
  Ho  Ho4  1  0.058816  0.376551  0.750000  1
  Ho  Ho5  1  0.376551  0.317736  0.250000  1
  Mn  Mn6  1  0.666667  0.333333  0.750000  1
  Mn  Mn7  1  0.333333  0.666667  0.250000  1
  V  V8  1  0.000000  0.000000  0.500000  1
  V  V9  1  0.000000  0.000000  0.000000  1
  C  C10  1  0.963483  0.767140  0.750000  1
  C  C11  1  0.196344  0.963483  0.250000  1
  C  C12  1  0.767140  0.803656  0.250000  1
  C  C13  1  0.232860  0.196344  0.750000  1
  C  C14  1  0.803656  0.036517  0.750000  1
  C  C15  1  0.036517  0.232860  0.250000  1
  C  C16  1  0.865041  0.572797  0.750000  1
  C  C17  1  0.292244  0.865041  0.250000  1
  C  C18  1  0.572797  0.707756  0.250000  1
  C  C19  1  0.427203  0.292244  0.750000  1
  C  C20  1  0.134959  0.427203  0.250000  1
  C  C21  1  0.707756  0.134959  0.750000  1
