# generated using pymatgen
data_Th3Cu3NiGe4
_symmetry_space_group_name_H-M   'P 1'
_cell_length_a   4.18484970
_cell_length_b   4.11777116
_cell_length_c   12.61554792
_cell_angle_alpha   80.60719120
_cell_angle_beta   80.45275859
_cell_angle_gamma   90.00001001
_symmetry_Int_Tables_number   1
_chemical_formula_structural   Th3Cu3NiGe4
_chemical_formula_sum   'Th3 Cu3 Ni1 Ge4'
_cell_volume   211.42704096
_cell_formula_units_Z   1
loop_
 _symmetry_equiv_pos_site_id
 _symmetry_equiv_pos_as_xyz
  1  'x, y, z'
loop_
 _atom_site_type_symbol
 _atom_site_label
 _atom_site_symmetry_multiplicity
 _atom_site_fract_x
 _atom_site_fract_y
 _atom_site_fract_z
 _atom_site_occupancy
  Th  Th0  1  0.353418  0.853418  0.293166  1
  Th  Th1  1  0.648102  0.148102  0.703794  1
  Th  Th2  1  0.997455  0.997455  0.005090  1
  Cu  Cu3  1  0.250617  0.250617  0.498766  1
  Cu  Cu4  1  0.750425  0.750425  0.499149  1
  Cu  Cu5  1  0.096567  0.596567  0.806868  1
  Ni  Ni6  1  0.903292  0.403292  0.193415  1
  Ge  Ge7  1  0.194679  0.694679  0.610642  1
  Ge  Ge8  1  0.807041  0.307041  0.385918  1
  Ge  Ge9  1  0.447736  0.447736  0.104528  1
  Ge  Ge10  1  0.550668  0.550668  0.898663  1
