# generated using pymatgen
data_Sr10YbHo9Sn16
_symmetry_space_group_name_H-M   'P 1'
_cell_length_a   8.08288717
_cell_length_b   8.63581489
_cell_length_c   16.34658300
_cell_angle_alpha   90.00000000
_cell_angle_beta   90.00000000
_cell_angle_gamma   89.84516361
_symmetry_Int_Tables_number   1
_chemical_formula_structural   Sr10YbHo9Sn16
_chemical_formula_sum   'Sr10 Yb1 Ho9 Sn16'
_cell_volume   1141.02520834
_cell_formula_units_Z   1
loop_
 _symmetry_equiv_pos_site_id
 _symmetry_equiv_pos_as_xyz
  1  'x, y, z'
loop_
 _atom_site_type_symbol
 _atom_site_label
 _atom_site_symmetry_multiplicity
 _atom_site_fract_x
 _atom_site_fract_y
 _atom_site_fract_z
 _atom_site_occupancy
  Sr  Sr0  1  0.504341  0.682493  0.593380  1
  Sr  Sr1  1  0.003666  0.818264  0.908694  1
  Sr  Sr2  1  0.495456  0.314748  0.092028  1
  Sr  Sr3  1  0.994669  0.182400  0.408224  1
  Sr  Sr4  1  0.495456  0.314748  0.407972  1
  Sr  Sr5  1  0.994669  0.182400  0.091776  1
  Sr  Sr6  1  0.504341  0.682493  0.906620  1
  Sr  Sr7  1  0.003666  0.818264  0.591306  1
  Sr  Sr8  1  0.335194  0.989836  0.750000  1
  Sr  Sr9  1  0.164807  0.488151  0.250000  1
  Yb  Yb10  1  0.663306  0.006763  0.250000  1
  Ho  Ho11  1  0.675242  0.165783  0.622401  1
  Ho  Ho12  1  0.173986  0.334533  0.876574  1
  Ho  Ho13  1  0.327153  0.833047  0.122723  1
  Ho  Ho14  1  0.825711  0.667055  0.378043  1
  Ho  Ho15  1  0.327153  0.833047  0.377277  1
  Ho  Ho16  1  0.825711  0.667055  0.121957  1
  Ho  Ho17  1  0.675242  0.165783  0.877599  1
  Ho  Ho18  1  0.173986  0.334533  0.623426  1
  Ho  Ho19  1  0.837776  0.507372  0.750000  1
  Sn  Sn20  1  0.664182  0.958784  0.458615  1
  Sn  Sn21  1  0.164062  0.541699  0.038539  1
  Sn  Sn22  1  0.336423  0.042372  0.960667  1
  Sn  Sn23  1  0.835697  0.461393  0.544457  1
  Sn  Sn24  1  0.336423  0.042372  0.539333  1
  Sn  Sn25  1  0.835697  0.461393  0.955543  1
  Sn  Sn26  1  0.664182  0.958784  0.041385  1
  Sn  Sn27  1  0.164062  0.541699  0.461461  1
  Sn  Sn28  1  0.478041  0.377285  0.750000  1
  Sn  Sn29  1  0.964376  0.143858  0.750000  1
  Sn  Sn30  1  0.534992  0.636478  0.250000  1
  Sn  Sn31  1  0.025268  0.870836  0.250000  1
  Sn  Sn32  1  0.729260  0.870410  0.750000  1
  Sn  Sn33  1  0.207713  0.615061  0.750000  1
  Sn  Sn34  1  0.284461  0.110492  0.250000  1
  Sn  Sn35  1  0.773637  0.378317  0.250000  1
