# generated using pymatgen
data_Ce3TmAs6Ru7
_symmetry_space_group_name_H-M   'P 1'
_cell_length_a   7.26025811
_cell_length_b   7.29316905
_cell_length_c   7.29317028
_cell_angle_alpha   109.56246316
_cell_angle_beta   109.37983044
_cell_angle_gamma   109.37982586
_symmetry_Int_Tables_number   1
_chemical_formula_structural   Ce3TmAs6Ru7
_chemical_formula_sum   'Ce3 Tm1 As6 Ru7'
_cell_volume   297.61264403
_cell_formula_units_Z   1
loop_
 _symmetry_equiv_pos_site_id
 _symmetry_equiv_pos_as_xyz
  1  'x, y, z'
loop_
 _atom_site_type_symbol
 _atom_site_label
 _atom_site_symmetry_multiplicity
 _atom_site_fract_x
 _atom_site_fract_y
 _atom_site_fract_z
 _atom_site_occupancy
  Ce  Ce0  1  0.000000  0.000000  0.500000  1
  Ce  Ce1  1  0.000000  0.500000  0.000000  1
  Ce  Ce2  1  0.500000  0.500000  0.500000  1
  Tm  Tm3  1  0.500000  0.000000  0.000000  1
  As  As4  1  0.319937  0.000000  0.315652  1
  As  As5  1  0.995716  0.315652  0.315652  1
  As  As6  1  0.004284  0.684348  0.684348  1
  As  As7  1  0.319937  0.315652  0.000000  1
  As  As8  1  0.680063  0.684348  0.000000  1
  As  As9  1  0.680063  0.000000  0.684348  1
  Ru  Ru10  1  0.749650  0.499299  0.249650  1
  Ru  Ru11  1  0.500000  0.750350  0.249650  1
  Ru  Ru12  1  0.500000  0.249650  0.750350  1
  Ru  Ru13  1  0.749650  0.249650  0.499299  1
  Ru  Ru14  1  0.250350  0.750350  0.500701  1
  Ru  Ru15  1  0.250350  0.500701  0.750350  1
  Ru  Ru16  1  0.000000  0.000000  0.000000  1
