# generated using pymatgen
data_HoTm3Hf4F28
_symmetry_space_group_name_H-M   'P 1'
_cell_length_a   5.63671567
_cell_length_b   8.96033630
_cell_length_c   12.07953366
_cell_angle_alpha   62.46522689
_cell_angle_beta   90.01477015
_cell_angle_gamma   89.98534153
_symmetry_Int_Tables_number   1
_chemical_formula_structural   HoTm3Hf4F28
_chemical_formula_sum   'Ho1 Tm3 Hf4 F28'
_cell_volume   540.99364933
_cell_formula_units_Z   1
loop_
 _symmetry_equiv_pos_site_id
 _symmetry_equiv_pos_as_xyz
  1  'x, y, z'
loop_
 _atom_site_type_symbol
 _atom_site_label
 _atom_site_symmetry_multiplicity
 _atom_site_fract_x
 _atom_site_fract_y
 _atom_site_fract_z
 _atom_site_occupancy
  Ho  Ho0  1  0.743585  0.816367  0.265203  1
  Tm  Tm1  1  0.756374  0.816589  0.765281  1
  Tm  Tm2  1  0.256415  0.183770  0.734882  1
  Tm  Tm3  1  0.242972  0.184676  0.234791  1
  Hf  Hf4  1  0.757199  0.275003  0.955490  1
  Hf  Hf5  1  0.256962  0.725966  0.545144  1
  Hf  Hf6  1  0.243531  0.725800  0.042701  1
  Hf  Hf7  1  0.742931  0.272738  0.456675  1
  F  F8  1  0.459246  0.709323  0.917309  1
  F  F9  1  0.960137  0.289580  0.581541  1
  F  F10  1  0.540465  0.290152  0.081212  1
  F  F11  1  0.042725  0.709512  0.419110  1
  F  F12  1  0.446301  0.273601  0.550606  1
  F  F13  1  0.945049  0.725817  0.949749  1
  F  F14  1  0.554633  0.725383  0.452300  1
  F  F15  1  0.054071  0.274432  0.049754  1
  F  F16  1  0.776207  0.526315  0.859573  1
  F  F17  1  0.275181  0.474288  0.640507  1
  F  F18  1  0.223631  0.474239  0.139481  1
  F  F19  1  0.722291  0.523966  0.360826  1
  F  F20  1  0.759260  0.024296  0.057410  1
  F  F21  1  0.258575  0.976550  0.441512  1
  F  F22  1  0.241041  0.976593  0.940785  1
  F  F23  1  0.740546  0.022240  0.559151  1
  F  F24  1  0.981149  0.733655  0.647421  1
  F  F25  1  0.482350  0.266691  0.852657  1
  F  F26  1  0.018750  0.267014  0.353511  1
  F  F27  1  0.520857  0.732184  0.144433  1
  F  F28  1  0.039593  0.746703  0.172569  1
  F  F29  1  0.535195  0.251913  0.327550  1
  F  F30  1  0.965525  0.253300  0.827000  1
  F  F31  1  0.464201  0.747496  0.673816  1
  F  F32  1  0.421846  0.973677  0.232960  1
  F  F33  1  0.925273  0.030073  0.266802  1
  F  F34  1  0.572984  0.026535  0.766677  1
  F  F35  1  0.072952  0.973562  0.733610  1
