# generated using pymatgen
data_YbEr9In8(PdPt)2
_symmetry_space_group_name_H-M   'P 1'
_cell_length_a   3.57639900
_cell_length_b   8.15752772
_cell_length_c   18.25337753
_cell_angle_alpha   90.19062479
_cell_angle_beta   90.00000000
_cell_angle_gamma   90.00000000
_symmetry_Int_Tables_number   1
_chemical_formula_structural   YbEr9In8(PdPt)2
_chemical_formula_sum   'Yb1 Er9 In8 Pd2 Pt2'
_cell_volume   532.53156577
_cell_formula_units_Z   1
loop_
 _symmetry_equiv_pos_site_id
 _symmetry_equiv_pos_as_xyz
  1  'x, y, z'
loop_
 _atom_site_type_symbol
 _atom_site_label
 _atom_site_symmetry_multiplicity
 _atom_site_fract_x
 _atom_site_fract_y
 _atom_site_fract_z
 _atom_site_occupancy
  Yb  Yb0  1  0.000000  0.500000  0.500000  1
  Er  Er1  1  0.000000  0.120208  0.415583  1
  Er  Er2  1  0.000000  0.879792  0.584417  1
  Er  Er3  1  0.000000  0.381201  0.915446  1
  Er  Er4  1  0.000000  0.618799  0.084554  1
  Er  Er5  1  0.000000  0.246399  0.219439  1
  Er  Er6  1  0.000000  0.753601  0.780561  1
  Er  Er7  1  0.000000  0.262058  0.721298  1
  Er  Er8  1  0.000000  0.737942  0.278702  1
  Er  Er9  1  0.000000  0.000000  0.000000  1
  In  In10  1  0.500000  0.422265  0.350596  1
  In  In11  1  0.500000  0.577735  0.649404  1
  In  In12  1  0.500000  0.074530  0.850126  1
  In  In13  1  0.500000  0.925470  0.149874  1
  In  In14  1  0.500000  0.291829  0.066277  1
  In  In15  1  0.500000  0.708171  0.933723  1
  In  In16  1  0.500000  0.205118  0.568364  1
  In  In17  1  0.500000  0.794882  0.431636  1
  Pd  Pd18  1  0.500000  0.023387  0.303370  1
  Pd  Pd19  1  0.500000  0.976613  0.696630  1
  Pt  Pt20  1  0.500000  0.474969  0.804258  1
  Pt  Pt21  1  0.500000  0.525031  0.195742  1
