# generated using pymatgen
data_Ce2ErIn3FeRu
_symmetry_space_group_name_H-M   'P 1'
_cell_length_a   8.33626115
_cell_length_b   8.33626154
_cell_length_c   4.86085352
_cell_angle_alpha   84.24402250
_cell_angle_beta   84.24402301
_cell_angle_gamma   33.80434977
_symmetry_Int_Tables_number   1
_chemical_formula_structural   Ce2ErIn3FeRu
_chemical_formula_sum   'Ce2 Er1 In3 Fe1 Ru1'
_cell_volume   186.90073935
_cell_formula_units_Z   1
loop_
 _symmetry_equiv_pos_site_id
 _symmetry_equiv_pos_as_xyz
  1  'x, y, z'
loop_
 _atom_site_type_symbol
 _atom_site_label
 _atom_site_symmetry_multiplicity
 _atom_site_fract_x
 _atom_site_fract_y
 _atom_site_fract_z
 _atom_site_occupancy
  Ce  Ce0  1  0.826501  0.826501  0.551733  1
  Ce  Ce1  1  0.169635  0.169635  0.429767  1
  Er  Er2  1  0.999266  0.999266  0.994374  1
  In  In3  1  0.369452  0.369452  0.032588  1
  In  In4  1  0.499603  0.499603  0.495871  1
  In  In5  1  0.632535  0.632535  0.967039  1
  Fe  Fe6  1  0.796060  0.796060  0.142235  1
  Ru  Ru7  1  0.206947  0.206947  0.886392  1
