# generated using pymatgen
data_Dy3Sn3IrRhAu
_symmetry_space_group_name_H-M   'P 1'
_cell_length_a   7.68414000
_cell_length_b   7.68413998
_cell_length_c   3.86374800
_cell_angle_alpha   90.00000000
_cell_angle_beta   90.00000000
_cell_angle_gamma   119.99999148
_symmetry_Int_Tables_number   1
_chemical_formula_structural   Dy3Sn3IrRhAu
_chemical_formula_sum   'Dy3 Sn3 Ir1 Rh1 Au1'
_cell_volume   197.57409384
_cell_formula_units_Z   1
loop_
 _symmetry_equiv_pos_site_id
 _symmetry_equiv_pos_as_xyz
  1  'x, y, z'
loop_
 _atom_site_type_symbol
 _atom_site_label
 _atom_site_symmetry_multiplicity
 _atom_site_fract_x
 _atom_site_fract_y
 _atom_site_fract_z
 _atom_site_occupancy
  Dy  Dy0  1  0.394026  0.411748  0.500000  1
  Dy  Dy1  1  0.588252  0.982279  0.500000  1
  Dy  Dy2  1  0.017721  0.605974  0.500000  1
  Sn  Sn3  1  0.741080  0.743732  0.000000  1
  Sn  Sn4  1  0.256268  0.997348  0.000000  1
  Sn  Sn5  1  0.002652  0.258920  0.000000  1
  Ir  Ir6  1  0.333333  0.666667  0.000000  1
  Rh  Rh7  1  0.000000  0.000000  0.500000  1
  Au  Au8  1  0.666667  0.333333  0.000000  1
