# generated using pymatgen
data_La2UGa2SnIr3
_symmetry_space_group_name_H-M   'P 1'
_cell_length_a   7.38537711
_cell_length_b   7.49490872
_cell_length_c   4.02979900
_cell_angle_alpha   90.00000000
_cell_angle_beta   90.00000000
_cell_angle_gamma   120.49184406
_symmetry_Int_Tables_number   1
_chemical_formula_structural   La2UGa2SnIr3
_chemical_formula_sum   'La2 U1 Ga2 Sn1 Ir3'
_cell_volume   192.21142855
_cell_formula_units_Z   1
loop_
 _symmetry_equiv_pos_site_id
 _symmetry_equiv_pos_as_xyz
  1  'x, y, z'
loop_
 _atom_site_type_symbol
 _atom_site_label
 _atom_site_symmetry_multiplicity
 _atom_site_fract_x
 _atom_site_fract_y
 _atom_site_fract_z
 _atom_site_occupancy
  La  La0  1  0.423012  0.419800  0.500000  1
  La  La1  1  0.576988  0.996789  0.500000  1
  U  U2  1  0.000000  0.592351  0.500000  1
  Ga  Ga3  1  0.756245  0.753736  0.000000  1
  Ga  Ga4  1  0.243755  0.997490  0.000000  1
  Sn  Sn5  1  0.000000  0.233012  0.000000  1
  Ir  Ir6  1  0.713110  0.377475  0.000000  1
  Ir  Ir7  1  0.286890  0.664366  0.000000  1
  Ir  Ir8  1  0.000000  0.964982  0.500000  1
