# generated using pymatgen
data_La2Pr10MnFeI17
_symmetry_space_group_name_H-M   'P 1'
_cell_length_a   10.14577798
_cell_length_b   12.08397257
_cell_length_c   12.12851964
_cell_angle_alpha   92.62855924
_cell_angle_beta   105.48930128
_cell_angle_gamma   114.48985789
_symmetry_Int_Tables_number   1
_chemical_formula_structural   La2Pr10MnFeI17
_chemical_formula_sum   'La2 Pr10 Mn1 Fe1 I17'
_cell_volume   1283.09913690
_cell_formula_units_Z   1
loop_
 _symmetry_equiv_pos_site_id
 _symmetry_equiv_pos_as_xyz
  1  'x, y, z'
loop_
 _atom_site_type_symbol
 _atom_site_label
 _atom_site_symmetry_multiplicity
 _atom_site_fract_x
 _atom_site_fract_y
 _atom_site_fract_z
 _atom_site_occupancy
  La  La0  1  0.055922  0.506052  0.321005  1
  La  La1  1  0.000350  0.802235  0.602716  1
  Pr  Pr2  1  0.647911  0.239464  0.282680  1
  Pr  Pr3  1  0.012175  0.189832  0.417497  1
  Pr  Pr4  1  0.215812  0.673784  0.977980  1
  Pr  Pr5  1  0.262243  0.993149  0.893843  1
  Pr  Pr6  1  0.359437  0.760073  0.714103  1
  Pr  Pr7  1  0.938036  0.483756  0.675212  1
  Pr  Pr8  1  0.747831  0.021620  0.113319  1
  Pr  Pr9  1  0.149200  0.285663  0.152148  1
  Pr  Pr10  1  0.776269  0.328883  0.011530  1
  Pr  Pr11  1  0.842717  0.711888  0.849092  1
  Mn  Mn12  1  0.094399  0.743764  0.769925  1
  Fe  Fe13  1  0.898418  0.263984  0.215381  1
  I  I14  1  0.782688  0.525509  0.418997  1
  I  I15  1  0.640803  0.419024  0.757552  1
  I  I16  1  0.845810  0.895587  0.329000  1
  I  I17  1  0.326594  0.211765  0.370856  1
  I  I18  1  0.159861  0.106779  0.678272  1
  I  I19  1  0.586222  0.052785  0.844396  1
  I  I20  1  0.755866  0.181407  0.537822  1
  I  I21  1  0.545005  0.709489  0.954903  1
  I  I22  1  0.356409  0.579976  0.234970  1
  I  I23  1  0.214985  0.469259  0.586264  1
  I  I24  1  0.055804  0.370285  0.896523  1
  I  I25  1  0.452668  0.294291  0.046905  1
  I  I26  1  0.999181  0.999743  0.999558  1
  I  I27  1  0.246428  0.813801  0.462688  1
  I  I28  1  0.411546  0.944669  0.153016  1
  I  I29  1  0.673064  0.787371  0.631850  1
  I  I30  1  0.946343  0.634107  0.100001  1
