# generated using pymatgen
data_Dy2Y2Bi3Sb
_symmetry_space_group_name_H-M   'P 1'
_cell_length_a   7.70516532
_cell_length_b   7.70516447
_cell_length_c   7.70516525
_cell_angle_alpha   131.70090841
_cell_angle_beta   131.70146126
_cell_angle_gamma   70.70138168
_symmetry_Int_Tables_number   1
_chemical_formula_structural   Dy2Y2Bi3Sb
_chemical_formula_sum   'Dy2 Y2 Bi3 Sb1'
_cell_volume   249.80029442
_cell_formula_units_Z   1
loop_
 _symmetry_equiv_pos_site_id
 _symmetry_equiv_pos_as_xyz
  1  'x, y, z'
loop_
 _atom_site_type_symbol
 _atom_site_label
 _atom_site_symmetry_multiplicity
 _atom_site_fract_x
 _atom_site_fract_y
 _atom_site_fract_z
 _atom_site_occupancy
  Dy  Dy0  1  0.753306  0.753306  0.000000  1
  Dy  Dy1  1  0.000001  0.500001  0.500000  1
  Y  Y2  1  0.246714  0.246714  0.000000  1
  Y  Y3  1  0.500001  0.000001  0.500000  1
  Bi  Bi4  1  0.500096  0.500096  0.000000  1
  Bi  Bi5  1  0.750104  0.250104  0.500000  1
  Bi  Bi6  1  0.249896  0.749896  0.500000  1
  Sb  Sb7  1  0.999883  0.999883  0.000000  1
