# generated using pymatgen
data_GdAl3CdNi
_symmetry_space_group_name_H-M   'P 1'
_cell_length_a   8.19486500
_cell_length_b   8.19486444
_cell_length_c   6.64035200
_cell_angle_alpha   90.00000000
_cell_angle_beta   90.00000000
_cell_angle_gamma   150.95074646
_symmetry_Int_Tables_number   1
_chemical_formula_structural   GdAl3CdNi
_chemical_formula_sum   'Gd2 Al6 Cd2 Ni2'
_cell_volume   216.53033165
_cell_formula_units_Z   2
loop_
 _symmetry_equiv_pos_site_id
 _symmetry_equiv_pos_as_xyz
  1  'x, y, z'
loop_
 _atom_site_type_symbol
 _atom_site_label
 _atom_site_symmetry_multiplicity
 _atom_site_fract_x
 _atom_site_fract_y
 _atom_site_fract_z
 _atom_site_occupancy
  Gd  Gd0  1  0.624567  0.375433  0.250000  1
  Gd  Gd1  1  0.375433  0.624567  0.750000  1
  Al  Al2  1  0.191033  0.808967  0.946907  1
  Al  Al3  1  0.808967  0.191033  0.053093  1
  Al  Al4  1  0.808967  0.191033  0.446907  1
  Al  Al5  1  0.191033  0.808967  0.553093  1
  Al  Al6  1  0.579231  0.420769  0.750000  1
  Al  Al7  1  0.420769  0.579231  0.250000  1
  Cd  Cd8  1  0.000000  0.000000  0.500000  1
  Cd  Cd9  1  0.000000  0.000000  0.000000  1
  Ni  Ni10  1  0.725277  0.274723  0.750000  1
  Ni  Ni11  1  0.274723  0.725277  0.250000  1
