# generated using pymatgen
data_Yb2MgOsO6
_symmetry_space_group_name_H-M   'P 1'
_cell_length_a   5.47921722
_cell_length_b   5.47921746
_cell_length_c   5.47921691
_cell_angle_alpha   121.33742478
_cell_angle_beta   121.33743068
_cell_angle_gamma   87.69869568
_symmetry_Int_Tables_number   1
_chemical_formula_structural   Yb2MgOsO6
_chemical_formula_sum   'Yb2 Mg1 Os1 O6'
_cell_volume   113.86516903
_cell_formula_units_Z   1
loop_
 _symmetry_equiv_pos_site_id
 _symmetry_equiv_pos_as_xyz
  1  'x, y, z'
loop_
 _atom_site_type_symbol
 _atom_site_label
 _atom_site_symmetry_multiplicity
 _atom_site_fract_x
 _atom_site_fract_y
 _atom_site_fract_z
 _atom_site_occupancy
  Yb  Yb0  1  0.750000  0.250000  0.500000  1
  Yb  Yb1  1  0.250000  0.750000  0.500000  1
  Mg  Mg2  1  0.500000  0.500000  0.000000  1
  Os  Os3  1  0.000000  0.000000  0.000000  1
  O  O4  1  0.828718  0.685555  0.514273  1
  O  O5  1  0.171282  0.314445  0.485727  1
  O  O6  1  0.685555  0.171282  0.856835  1
  O  O7  1  0.314445  0.828718  0.143165  1
  O  O8  1  0.245592  0.245592  0.000000  1
  O  O9  1  0.754408  0.754408  0.000000  1
