# generated using pymatgen
data_Ta17Ti7P8
_symmetry_space_group_name_H-M   'P 1'
_cell_length_a   10.13999100
_cell_length_b   10.12990020
_cell_length_c   5.03618958
_cell_angle_alpha   90.05526884
_cell_angle_beta   90.00000000
_cell_angle_gamma   90.00000000
_symmetry_Int_Tables_number   1
_chemical_formula_structural   Ta17Ti7P8
_chemical_formula_sum   'Ta17 Ti7 P8'
_cell_volume   517.30253170
_cell_formula_units_Z   1
loop_
 _symmetry_equiv_pos_site_id
 _symmetry_equiv_pos_as_xyz
  1  'x, y, z'
loop_
 _atom_site_type_symbol
 _atom_site_label
 _atom_site_symmetry_multiplicity
 _atom_site_fract_x
 _atom_site_fract_y
 _atom_site_fract_z
 _atom_site_occupancy
  Ta  Ta0  1  0.905596  0.593447  0.499602  1
  Ta  Ta1  1  0.905596  0.406553  0.000398  1
  Ta  Ta2  1  0.593949  0.094383  0.500393  1
  Ta  Ta3  1  0.800597  0.301212  0.499518  1
  Ta  Ta4  1  0.094070  0.406448  0.499534  1
  Ta  Ta5  1  0.094070  0.593552  0.000466  1
  Ta  Ta6  1  0.198284  0.300582  0.998411  1
  Ta  Ta7  1  0.302240  0.799694  0.001257  1
  Ta  Ta8  1  0.302240  0.200306  0.498743  1
  Ta  Ta9  1  0.698973  0.198726  0.000095  1
  Ta  Ta10  1  0.593949  0.905617  0.999607  1
  Ta  Ta11  1  0.698973  0.801274  0.499905  1
  Ta  Ta12  1  0.198284  0.699418  0.501589  1
  Ta  Ta13  1  0.407242  0.095047  0.002728  1
  Ta  Ta14  1  0.407242  0.904953  0.497272  1
  Ta  Ta15  1  0.800597  0.698788  0.000482  1
  Ta  Ta16  1  0.145584  0.000000  0.750000  1
  Ti  Ti17  1  0.500280  0.644944  0.250627  1
  Ti  Ti18  1  0.853526  0.000000  0.750000  1
  Ti  Ti19  1  0.645211  0.500000  0.750000  1
  Ti  Ti20  1  0.000619  0.855170  0.250008  1
  Ti  Ti21  1  0.354708  0.500000  0.750000  1
  Ti  Ti22  1  0.000619  0.144830  0.249992  1
  Ti  Ti23  1  0.500280  0.355056  0.249373  1
  P  P24  1  0.997793  0.795627  0.749663  1
  P  P25  1  0.500228  0.297483  0.750332  1
  P  P26  1  0.204321  0.000000  0.250000  1
  P  P27  1  0.796908  0.000000  0.250000  1
  P  P28  1  0.997793  0.204373  0.750337  1
  P  P29  1  0.702711  0.500000  0.250000  1
  P  P30  1  0.297293  0.500000  0.250000  1
  P  P31  1  0.500228  0.702517  0.749668  1
