# generated using pymatgen
data_ErSc(IrO4)2
_symmetry_space_group_name_H-M   'P 1'
_cell_length_a   5.25298991
_cell_length_b   7.29143620
_cell_length_c   7.50047910
_cell_angle_alpha   80.59948687
_cell_angle_beta   86.72043333
_cell_angle_gamma   90.61658889
_symmetry_Int_Tables_number   1
_chemical_formula_structural   ErSc(IrO4)2
_chemical_formula_sum   'Er2 Sc2 Ir4 O16'
_cell_volume   282.90103235
_cell_formula_units_Z   2
loop_
 _symmetry_equiv_pos_site_id
 _symmetry_equiv_pos_as_xyz
  1  'x, y, z'
loop_
 _atom_site_type_symbol
 _atom_site_label
 _atom_site_symmetry_multiplicity
 _atom_site_fract_x
 _atom_site_fract_y
 _atom_site_fract_z
 _atom_site_occupancy
  Er  Er0  1  0.752305  0.878787  0.375364  1
  Er  Er1  1  0.247695  0.121213  0.624636  1
  Sc  Sc2  1  0.711935  0.373471  0.331130  1
  Sc  Sc3  1  0.288065  0.626529  0.668870  1
  Ir  Ir4  1  0.780158  0.800025  0.840473  1
  Ir  Ir5  1  0.219842  0.199975  0.159527  1
  Ir  Ir6  1  0.250864  0.698386  0.168491  1
  Ir  Ir7  1  0.749136  0.301614  0.831509  1
  O  O8  1  0.896074  0.309519  0.064564  1
  O  O9  1  0.103926  0.690481  0.935436  1
  O  O10  1  0.376089  0.443808  0.176859  1
  O  O11  1  0.623911  0.556192  0.823141  1
  O  O12  1  0.097056  0.943436  0.172063  1
  O  O13  1  0.902944  0.056564  0.827937  1
  O  O14  1  0.580836  0.810138  0.063159  1
  O  O15  1  0.419164  0.189862  0.936841  1
  O  O16  1  0.003580  0.818378  0.607444  1
  O  O17  1  0.996420  0.181622  0.392556  1
  O  O18  1  0.419881  0.678899  0.403311  1
  O  O19  1  0.580119  0.321101  0.596689  1
  O  O20  1  0.487723  0.115363  0.328548  1
  O  O21  1  0.512277  0.884637  0.671452  1
  O  O22  1  0.926359  0.611109  0.296159  1
  O  O23  1  0.073641  0.388891  0.703841  1
