# generated using pymatgen
data_Ti4Al3Ga5
_symmetry_space_group_name_H-M   'P 1'
_cell_length_a   3.95594297
_cell_length_b   3.96045483
_cell_length_c   12.46433902
_cell_angle_alpha   99.14139912
_cell_angle_beta   99.13088041
_cell_angle_gamma   90.00001238
_symmetry_Int_Tables_number   1
_chemical_formula_structural   Ti4Al3Ga5
_chemical_formula_sum   'Ti4 Al3 Ga5'
_cell_volume   190.29592625
_cell_formula_units_Z   1
loop_
 _symmetry_equiv_pos_site_id
 _symmetry_equiv_pos_as_xyz
  1  'x, y, z'
loop_
 _atom_site_type_symbol
 _atom_site_label
 _atom_site_symmetry_multiplicity
 _atom_site_fract_x
 _atom_site_fract_y
 _atom_site_fract_z
 _atom_site_occupancy
  Ti  Ti0  1  0.077914  0.077914  0.155829  1
  Ti  Ti1  1  0.174067  0.674067  0.348133  1
  Ti  Ti2  1  0.326317  0.826317  0.652634  1
  Ti  Ti3  1  0.921701  0.921701  0.843400  1
  Al  Al4  1  0.000530  0.500529  0.001057  1
  Al  Al5  1  0.500257  0.000257  0.000515  1
  Al  Al6  1  0.586400  0.586400  0.172799  1
  Ga  Ga7  1  0.660464  0.160464  0.320927  1
  Ga  Ga8  1  0.749673  0.749673  0.499343  1
  Ga  Ga9  1  0.250292  0.250292  0.500584  1
  Ga  Ga10  1  0.838459  0.338458  0.676918  1
  Ga  Ga11  1  0.413931  0.413931  0.827861  1
