# generated using pymatgen
data_Li6ScTa5Pt12
_symmetry_space_group_name_H-M   'P 1'
_cell_length_a   4.05485900
_cell_length_b   7.46600500
_cell_length_c   12.08306300
_cell_angle_alpha   89.99995327
_cell_angle_beta   89.99997241
_cell_angle_gamma   90.00006663
_symmetry_Int_Tables_number   1
_chemical_formula_structural   Li6ScTa5Pt12
_chemical_formula_sum   'Li6 Sc1 Ta5 Pt12'
_cell_volume   365.79778666
_cell_formula_units_Z   1
loop_
 _symmetry_equiv_pos_site_id
 _symmetry_equiv_pos_as_xyz
  1  'x, y, z'
loop_
 _atom_site_type_symbol
 _atom_site_label
 _atom_site_symmetry_multiplicity
 _atom_site_fract_x
 _atom_site_fract_y
 _atom_site_fract_z
 _atom_site_occupancy
  Li  Li0  1  0.000000  0.500004  0.999561  1
  Li  Li1  1  0.500002  0.000000  0.168675  1
  Li  Li2  1  0.999994  0.500002  0.333315  1
  Li  Li3  1  0.499999  0.999996  0.497960  1
  Li  Li4  1  0.000009  0.500004  0.667125  1
  Li  Li5  1  0.499990  0.999997  0.833376  1
  Sc  Sc6  1  0.500008  0.499996  0.833344  1
  Ta  Ta7  1  0.999998  0.000000  0.003847  1
  Ta  Ta8  1  0.499997  0.500000  0.165759  1
  Ta  Ta9  1  0.999998  0.000000  0.333359  1
  Ta  Ta10  1  0.500001  0.500000  0.500928  1
  Ta  Ta11  1  0.000001  0.000000  0.662787  1
  Pt  Pt12  1  0.499999  0.243053  0.003256  1
  Pt  Pt13  1  0.500000  0.756948  0.003256  1
  Pt  Pt14  1  0.999999  0.251801  0.168621  1
  Pt  Pt15  1  0.999999  0.748200  0.168621  1
  Pt  Pt16  1  0.499995  0.250153  0.333372  1
  Pt  Pt17  1  0.499995  0.749847  0.333371  1
  Pt  Pt18  1  0.000001  0.251794  0.498068  1
  Pt  Pt19  1  0.000001  0.748205  0.498069  1
  Pt  Pt20  1  0.500006  0.243015  0.663377  1
  Pt  Pt21  1  0.500006  0.756985  0.663378  1
  Pt  Pt22  1  0.999999  0.234380  0.833286  1
  Pt  Pt23  1  0.999999  0.765620  0.833287  1
