# generated using pymatgen
data_LiTb2TmPt2
_symmetry_space_group_name_H-M   'P 1'
_cell_length_a   4.12396500
_cell_length_b   7.36169400
_cell_length_c   8.89869500
_cell_angle_alpha   90.00000000
_cell_angle_beta   90.00000000
_cell_angle_gamma   90.00000000
_symmetry_Int_Tables_number   1
_chemical_formula_structural   LiTb2TmPt2
_chemical_formula_sum   'Li2 Tb4 Tm2 Pt4'
_cell_volume   270.15875975
_cell_formula_units_Z   2
loop_
 _symmetry_equiv_pos_site_id
 _symmetry_equiv_pos_as_xyz
  1  'x, y, z'
loop_
 _atom_site_type_symbol
 _atom_site_label
 _atom_site_symmetry_multiplicity
 _atom_site_fract_x
 _atom_site_fract_y
 _atom_site_fract_z
 _atom_site_occupancy
  Li  Li0  1  0.250000  0.136467  0.067772  1
  Li  Li1  1  0.750000  0.363533  0.567772  1
  Tb  Tb2  1  0.250000  0.499962  0.822425  1
  Tb  Tb3  1  0.250000  0.054963  0.667349  1
  Tb  Tb4  1  0.750000  0.000038  0.322425  1
  Tb  Tb5  1  0.750000  0.445037  0.167349  1
  Tm  Tm6  1  0.250000  0.644647  0.442304  1
  Tm  Tm7  1  0.750000  0.855353  0.942304  1
  Pt  Pt8  1  0.250000  0.727280  0.121858  1
  Pt  Pt9  1  0.250000  0.266851  0.378292  1
  Pt  Pt10  1  0.750000  0.772720  0.621858  1
  Pt  Pt11  1  0.750000  0.233149  0.878292  1
