# generated using pymatgen
data_Dy4FeSi4Rh
_symmetry_space_group_name_H-M   'P 1'
_cell_length_a   5.66898744
_cell_length_b   5.66898670
_cell_length_c   10.06878377
_cell_angle_alpha   63.13636318
_cell_angle_beta   63.13636710
_cell_angle_gamma   43.25650257
_symmetry_Int_Tables_number   1
_chemical_formula_structural   Dy4FeSi4Rh
_chemical_formula_sum   'Dy4 Fe1 Si4 Rh1'
_cell_volume   193.78156254
_cell_formula_units_Z   1
loop_
 _symmetry_equiv_pos_site_id
 _symmetry_equiv_pos_as_xyz
  1  'x, y, z'
loop_
 _atom_site_type_symbol
 _atom_site_label
 _atom_site_symmetry_multiplicity
 _atom_site_fract_x
 _atom_site_fract_y
 _atom_site_fract_z
 _atom_site_occupancy
  Dy  Dy0  1  0.002780  0.002780  0.324586  1
  Dy  Dy1  1  0.999088  0.999088  0.673133  1
  Dy  Dy2  1  0.813147  0.813147  0.108147  1
  Dy  Dy3  1  0.186272  0.186272  0.889933  1
  Fe  Fe4  1  0.273395  0.273395  0.377726  1
  Si  Si5  1  0.652956  0.652956  0.430347  1
  Si  Si6  1  0.358273  0.358273  0.558647  1
  Si  Si7  1  0.500028  0.500028  0.128048  1
  Si  Si8  1  0.487734  0.487734  0.881313  1
  Rh  Rh9  1  0.726328  0.726328  0.628120  1
