# generated using pymatgen
data_TbEr(SnPt2)2
_symmetry_space_group_name_H-M   'P 1'
_cell_length_a   4.55335500
_cell_length_b   4.55335430
_cell_length_c   9.12649100
_cell_angle_alpha   90.00000000
_cell_angle_beta   90.00000000
_cell_angle_gamma   120.00001238
_symmetry_Int_Tables_number   1
_chemical_formula_structural   TbEr(SnPt2)2
_chemical_formula_sum   'Tb1 Er1 Sn2 Pt4'
_cell_volume   163.86921093
_cell_formula_units_Z   1
loop_
 _symmetry_equiv_pos_site_id
 _symmetry_equiv_pos_as_xyz
  1  'x, y, z'
loop_
 _atom_site_type_symbol
 _atom_site_label
 _atom_site_symmetry_multiplicity
 _atom_site_fract_x
 _atom_site_fract_y
 _atom_site_fract_z
 _atom_site_occupancy
  Tb  Tb0  1  0.666667  0.333333  0.750000  1
  Er  Er1  1  0.333333  0.666667  0.250000  1
  Sn  Sn2  1  0.000000  0.000000  0.498931  1
  Sn  Sn3  1  0.000000  0.000000  0.001069  1
  Pt  Pt4  1  0.666667  0.333333  0.091847  1
  Pt  Pt5  1  0.333333  0.666667  0.910457  1
  Pt  Pt6  1  0.333333  0.666667  0.589543  1
  Pt  Pt7  1  0.666667  0.333333  0.408153  1
