# generated using pymatgen
data_HgBi4PbO12
_symmetry_space_group_name_H-M   'P 1'
_cell_length_a   5.12366289
_cell_length_b   5.12366289
_cell_length_c   10.48978000
_cell_angle_alpha   90.00000000
_cell_angle_beta   90.00000000
_cell_angle_gamma   90.28537978
_symmetry_Int_Tables_number   1
_chemical_formula_structural   HgBi4PbO12
_chemical_formula_sum   'Hg1 Bi4 Pb1 O12'
_cell_volume   275.37346420
_cell_formula_units_Z   1
loop_
 _symmetry_equiv_pos_site_id
 _symmetry_equiv_pos_as_xyz
  1  'x, y, z'
loop_
 _atom_site_type_symbol
 _atom_site_label
 _atom_site_symmetry_multiplicity
 _atom_site_fract_x
 _atom_site_fract_y
 _atom_site_fract_z
 _atom_site_occupancy
  Hg  Hg0  1  0.500000  0.500000  0.500000  1
  Bi  Bi1  1  0.000000  0.000000  0.334529  1
  Bi  Bi2  1  0.000000  0.000000  0.665471  1
  Bi  Bi3  1  0.500000  0.500000  0.168356  1
  Bi  Bi4  1  0.500000  0.500000  0.831644  1
  Pb  Pb5  1  0.000000  0.000000  0.000000  1
  O  O6  1  0.192398  0.807602  0.833957  1
  O  O7  1  0.192398  0.807602  0.166043  1
  O  O8  1  0.187070  0.812930  0.500000  1
  O  O9  1  0.310932  0.310932  0.000000  1
  O  O10  1  0.299851  0.299851  0.321735  1
  O  O11  1  0.299851  0.299851  0.678265  1
  O  O12  1  0.700149  0.700149  0.321735  1
  O  O13  1  0.700149  0.700149  0.678265  1
  O  O14  1  0.689068  0.689068  0.000000  1
  O  O15  1  0.812930  0.187070  0.500000  1
  O  O16  1  0.807602  0.192398  0.166043  1
  O  O17  1  0.807602  0.192398  0.833957  1
