# generated using pymatgen
data_Tb2LuIn3NiHg2
_symmetry_space_group_name_H-M   'P 1'
_cell_length_a   7.73280081
_cell_length_b   7.80503374
_cell_length_c   4.00647700
_cell_angle_alpha   90.00000000
_cell_angle_beta   90.00000000
_cell_angle_gamma   120.30947933
_symmetry_Int_Tables_number   1
_chemical_formula_structural   Tb2LuIn3NiHg2
_chemical_formula_sum   'Tb2 Lu1 In3 Ni1 Hg2'
_cell_volume   208.75749331
_cell_formula_units_Z   1
loop_
 _symmetry_equiv_pos_site_id
 _symmetry_equiv_pos_as_xyz
  1  'x, y, z'
loop_
 _atom_site_type_symbol
 _atom_site_label
 _atom_site_symmetry_multiplicity
 _atom_site_fract_x
 _atom_site_fract_y
 _atom_site_fract_z
 _atom_site_occupancy
  Tb  Tb0  1  0.606486  0.999660  0.500000  1
  Tb  Tb1  1  0.393514  0.393174  0.500000  1
  Lu  Lu2  1  0.000000  0.615528  0.500000  1
  In  In3  1  0.758535  0.758427  0.000000  1
  In  In4  1  0.000000  0.237169  0.000000  1
  In  In5  1  0.241465  0.999892  0.000000  1
  Ni  Ni6  1  0.000000  0.994386  0.500000  1
  Hg  Hg7  1  0.674011  0.337888  0.000000  1
  Hg  Hg8  1  0.325989  0.663878  0.000000  1
