# generated using pymatgen
data_Nd2Th4(Ir5Rh)3
_symmetry_space_group_name_H-M   'P 1'
_cell_length_a   5.37192600
_cell_length_b   5.37197251
_cell_length_c   17.77080500
_cell_angle_alpha   90.00025646
_cell_angle_beta   89.99983085
_cell_angle_gamma   120.00015269
_symmetry_Int_Tables_number   1
_chemical_formula_structural   Nd2Th4(Ir5Rh)3
_chemical_formula_sum   'Nd2 Th4 Ir15 Rh3'
_cell_volume   444.12054853
_cell_formula_units_Z   1
loop_
 _symmetry_equiv_pos_site_id
 _symmetry_equiv_pos_as_xyz
  1  'x, y, z'
loop_
 _atom_site_type_symbol
 _atom_site_label
 _atom_site_symmetry_multiplicity
 _atom_site_fract_x
 _atom_site_fract_y
 _atom_site_fract_z
 _atom_site_occupancy
  Nd  Nd0  1  0.666669  0.333334  0.459124  1
  Nd  Nd1  1  0.333333  0.666666  0.958820  1
  Th  Th2  1  0.333336  0.666667  0.541402  1
  Th  Th3  1  0.666666  0.333330  0.040816  1
  Th  Th4  1  0.333333  0.666672  0.751955  1
  Th  Th5  1  0.666667  0.333332  0.251759  1
  Ir  Ir6  1  0.167387  0.334764  0.126914  1
  Ir  Ir7  1  0.832674  0.665353  0.626560  1
  Ir  Ir8  1  0.665234  0.832616  0.126915  1
  Ir  Ir9  1  0.167384  0.832613  0.126912  1
  Ir  Ir10  1  0.832676  0.167329  0.626559  1
  Ir  Ir11  1  0.334648  0.167323  0.626560  1
  Ir  Ir12  1  0.832711  0.665424  0.873141  1
  Ir  Ir13  1  0.832709  0.167293  0.873142  1
  Ir  Ir14  1  0.334577  0.167288  0.873140  1
  Ir  Ir15  1  0.665456  0.832727  0.372693  1
  Ir  Ir16  1  0.167276  0.832727  0.372696  1
  Ir  Ir17  1  0.167276  0.334545  0.372695  1
  Ir  Ir18  1  0.000007  0.999999  0.249924  1
  Ir  Ir19  1  0.999999  0.999998  0.999302  1
  Ir  Ir20  1  0.000000  0.000000  0.499230  1
  Rh  Rh21  1  0.999992  0.000003  0.749963  1
  Rh  Rh22  1  0.333326  0.666662  0.249805  1
  Rh  Rh23  1  0.666667  0.333337  0.749973  1
