# generated using pymatgen
data_Y3Th(SiPd14)2
_symmetry_space_group_name_H-M   'P 1'
_cell_length_a   8.93771300
_cell_length_b   8.93771300
_cell_length_c   7.11940600
_cell_angle_alpha   90.00000000
_cell_angle_beta   90.00000000
_cell_angle_gamma   90.00000000
_symmetry_Int_Tables_number   1
_chemical_formula_structural   Y3Th(SiPd14)2
_chemical_formula_sum   'Y3 Th1 Si2 Pd28'
_cell_volume   568.71747100
_cell_formula_units_Z   1
loop_
 _symmetry_equiv_pos_site_id
 _symmetry_equiv_pos_as_xyz
  1  'x, y, z'
loop_
 _atom_site_type_symbol
 _atom_site_label
 _atom_site_symmetry_multiplicity
 _atom_site_fract_x
 _atom_site_fract_y
 _atom_site_fract_z
 _atom_site_occupancy
  Y  Y0  1  0.500000  0.000000  0.934688  1
  Y  Y1  1  0.000000  0.500000  0.065312  1
  Y  Y2  1  0.500000  0.500000  0.500000  1
  Th  Th3  1  0.000000  0.000000  0.500000  1
  Si  Si4  1  0.500000  0.000000  0.449192  1
  Si  Si5  1  0.000000  0.500000  0.550808  1
  Pd  Pd6  1  0.335175  0.834348  0.615840  1
  Pd  Pd7  1  0.335175  0.165652  0.615840  1
  Pd  Pd8  1  0.664825  0.834348  0.615840  1
  Pd  Pd9  1  0.664825  0.165652  0.615840  1
  Pd  Pd10  1  0.165652  0.664825  0.384160  1
  Pd  Pd11  1  0.165652  0.335175  0.384160  1
  Pd  Pd12  1  0.834348  0.664825  0.384160  1
  Pd  Pd13  1  0.834348  0.335175  0.384160  1
  Pd  Pd14  1  0.500000  0.770285  0.256466  1
  Pd  Pd15  1  0.500000  0.229715  0.256466  1
  Pd  Pd16  1  0.270494  0.000000  0.256534  1
  Pd  Pd17  1  0.729506  0.000000  0.256534  1
  Pd  Pd18  1  0.000000  0.729506  0.743466  1
  Pd  Pd19  1  0.000000  0.270494  0.743466  1
  Pd  Pd20  1  0.229715  0.500000  0.743534  1
  Pd  Pd21  1  0.770285  0.500000  0.743534  1
  Pd  Pd22  1  0.500000  0.348903  0.853646  1
  Pd  Pd23  1  0.500000  0.651097  0.853646  1
  Pd  Pd24  1  0.848733  0.000000  0.852661  1
  Pd  Pd25  1  0.151267  0.000000  0.852661  1
  Pd  Pd26  1  0.000000  0.151267  0.147339  1
  Pd  Pd27  1  0.000000  0.848733  0.147339  1
  Pd  Pd28  1  0.651097  0.500000  0.146354  1
  Pd  Pd29  1  0.348903  0.500000  0.146354  1
  Pd  Pd30  1  0.250302  0.749698  0.000000  1
  Pd  Pd31  1  0.250302  0.250302  0.000000  1
  Pd  Pd32  1  0.749698  0.749698  0.000000  1
  Pd  Pd33  1  0.749698  0.250302  0.000000  1
