# generated using pymatgen
data_Tb6TmLu3In8
_symmetry_space_group_name_H-M   'P 1'
_cell_length_a   9.26180700
_cell_length_b   9.26180712
_cell_length_c   6.64567900
_cell_angle_alpha   90.00000000
_cell_angle_beta   90.00000000
_cell_angle_gamma   120.00000313
_symmetry_Int_Tables_number   1
_chemical_formula_structural   Tb6TmLu3In8
_chemical_formula_sum   'Tb6 Tm1 Lu3 In8'
_cell_volume   493.69807914
_cell_formula_units_Z   1
loop_
 _symmetry_equiv_pos_site_id
 _symmetry_equiv_pos_as_xyz
  1  'x, y, z'
loop_
 _atom_site_type_symbol
 _atom_site_label
 _atom_site_symmetry_multiplicity
 _atom_site_fract_x
 _atom_site_fract_y
 _atom_site_fract_z
 _atom_site_occupancy
  Tb  Tb0  1  0.290203  0.000047  0.750039  1
  Tb  Tb1  1  0.709844  0.000047  0.249961  1
  Tb  Tb2  1  0.999953  0.290156  0.750039  1
  Tb  Tb3  1  0.999953  0.709797  0.249961  1
  Tb  Tb4  1  0.709844  0.709797  0.750039  1
  Tb  Tb5  1  0.290203  0.290156  0.249961  1
  Tm  Tm6  1  0.333333  0.666667  0.500000  1
  Lu  Lu7  1  0.666667  0.333333  0.500000  1
  Lu  Lu8  1  0.666667  0.333333  0.000000  1
  Lu  Lu9  1  0.333333  0.666667  0.000000  1
  In  In10  1  0.000000  0.000000  0.500000  1
  In  In11  1  0.000000  0.000000  0.000000  1
  In  In12  1  0.627062  0.000072  0.750032  1
  In  In13  1  0.373011  0.000072  0.249968  1
  In  In14  1  0.999928  0.626989  0.750032  1
  In  In15  1  0.999928  0.372938  0.249968  1
  In  In16  1  0.373011  0.372938  0.750032  1
  In  In17  1  0.627062  0.626989  0.249968  1
