# generated using pymatgen
data_Zn2FeP6BrN12
_symmetry_space_group_name_H-M   'P 1'
_cell_length_a   7.20017328
_cell_length_b   7.22067972
_cell_length_c   7.20017205
_cell_angle_alpha   109.43389016
_cell_angle_beta   109.46173761
_cell_angle_gamma   109.43385576
_symmetry_Int_Tables_number   1
_chemical_formula_structural   Zn2FeP6BrN12
_chemical_formula_sum   'Zn2 Fe1 P6 Br1 N12'
_cell_volume   288.46448163
_cell_formula_units_Z   1
loop_
 _symmetry_equiv_pos_site_id
 _symmetry_equiv_pos_as_xyz
  1  'x, y, z'
loop_
 _atom_site_type_symbol
 _atom_site_label
 _atom_site_symmetry_multiplicity
 _atom_site_fract_x
 _atom_site_fract_y
 _atom_site_fract_z
 _atom_site_occupancy
  Zn  Zn0  1  0.000085  0.997997  0.370463  1
  Zn  Zn1  1  0.370463  0.997997  0.000085  1
  Fe  Fe2  1  0.003874  0.374712  0.003874  1
  P  P3  1  0.497506  0.254017  0.749236  1
  P  P4  1  0.255795  0.748890  0.498938  1
  P  P5  1  0.744310  0.497025  0.252700  1
  P  P6  1  0.749236  0.254017  0.497506  1
  P  P7  1  0.498938  0.748890  0.255795  1
  P  P8  1  0.252700  0.497025  0.744310  1
  Br  Br9  1  0.013354  0.024148  0.013354  1
  N  N10  1  0.432454  0.703522  0.432454  1
  N  N11  1  0.719366  0.440115  0.440735  1
  N  N12  1  0.440735  0.440115  0.719366  1
  N  N13  1  0.729681  0.283290  0.729681  1
  N  N14  1  0.997658  0.558201  0.270254  1
  N  N15  1  0.270254  0.558201  0.997658  1
  N  N16  1  0.277717  0.998558  0.554303  1
  N  N17  1  0.998798  0.270828  0.558146  1
  N  N18  1  0.721123  0.721532  0.273501  1
  N  N19  1  0.554303  0.998558  0.277717  1
  N  N20  1  0.273501  0.721532  0.721123  1
  N  N21  1  0.558146  0.270828  0.998798  1
