# generated using pymatgen
data_Tb2Nd3Y3(CdRu)2
_symmetry_space_group_name_H-M   'P 1'
_cell_length_a   9.80078826
_cell_length_b   9.76413348
_cell_length_c   9.76402272
_cell_angle_alpha   59.74236659
_cell_angle_beta   59.87672206
_cell_angle_gamma   59.87572607
_symmetry_Int_Tables_number   1
_chemical_formula_structural   Tb2Nd3Y3(CdRu)2
_chemical_formula_sum   'Tb4 Nd6 Y6 Cd4 Ru4'
_cell_volume   658.17877624
_cell_formula_units_Z   2
loop_
 _symmetry_equiv_pos_site_id
 _symmetry_equiv_pos_as_xyz
  1  'x, y, z'
loop_
 _atom_site_type_symbol
 _atom_site_label
 _atom_site_symmetry_multiplicity
 _atom_site_fract_x
 _atom_site_fract_y
 _atom_site_fract_z
 _atom_site_occupancy
  Tb  Tb0  1  0.345839  0.344548  0.963772  1
  Tb  Tb1  1  0.345835  0.963774  0.344544  1
  Tb  Tb2  1  0.962391  0.345425  0.345419  1
  Tb  Tb3  1  0.346760  0.345422  0.345421  1
  Nd  Nd4  1  0.558815  0.559165  0.941112  1
  Nd  Nd5  1  0.940922  0.559156  0.941119  1
  Nd  Nd6  1  0.558376  0.941622  0.941624  1
  Nd  Nd7  1  0.940919  0.941122  0.559158  1
  Nd  Nd8  1  0.558810  0.941114  0.559164  1
  Nd  Nd9  1  0.940477  0.559528  0.559528  1
  Y  Y10  1  0.187094  0.188044  0.812248  1
  Y  Y11  1  0.812609  0.188044  0.812253  1
  Y  Y12  1  0.187400  0.812598  0.812593  1
  Y  Y13  1  0.812603  0.812248  0.188048  1
  Y  Y14  1  0.187094  0.812252  0.188039  1
  Y  Y15  1  0.812284  0.187710  0.187720  1
  Cd  Cd16  1  0.579093  0.578878  0.262934  1
  Cd  Cd17  1  0.579093  0.262936  0.578876  1
  Cd  Cd18  1  0.263278  0.578822  0.578824  1
  Cd  Cd19  1  0.579072  0.578823  0.578830  1
  Ru  Ru20  1  0.140505  0.139792  0.579198  1
  Ru  Ru21  1  0.140500  0.579201  0.139795  1
  Ru  Ru22  1  0.579600  0.139886  0.139895  1
  Ru  Ru23  1  0.140630  0.139894  0.139885  1
