# generated using pymatgen
data_ErPu7(ReB6)4
_symmetry_space_group_name_H-M   'P 1'
_cell_length_a   3.64926800
_cell_length_b   9.25221284
_cell_length_c   11.42259494
_cell_angle_alpha   90.48362601
_cell_angle_beta   90.00000000
_cell_angle_gamma   90.00000000
_symmetry_Int_Tables_number   1
_chemical_formula_structural   ErPu7(ReB6)4
_chemical_formula_sum   'Er1 Pu7 Re4 B24'
_cell_volume   385.65652048
_cell_formula_units_Z   1
loop_
 _symmetry_equiv_pos_site_id
 _symmetry_equiv_pos_as_xyz
  1  'x, y, z'
loop_
 _atom_site_type_symbol
 _atom_site_label
 _atom_site_symmetry_multiplicity
 _atom_site_fract_x
 _atom_site_fract_y
 _atom_site_fract_z
 _atom_site_occupancy
  Er  Er0  1  0.000000  0.551405  0.877951  1
  Pu  Pu1  1  0.000000  0.334767  0.409345  1
  Pu  Pu2  1  0.000000  0.664816  0.591632  1
  Pu  Pu3  1  0.000000  0.829470  0.089736  1
  Pu  Pu4  1  0.000000  0.170752  0.909203  1
  Pu  Pu5  1  0.000000  0.957834  0.401729  1
  Pu  Pu6  1  0.000000  0.042474  0.599130  1
  Pu  Pu7  1  0.000000  0.448254  0.122599  1
  Re  Re8  1  0.000000  0.647412  0.321922  1
  Re  Re9  1  0.000000  0.351369  0.676384  1
  Re  Re10  1  0.000000  0.140605  0.182993  1
  Re  Re11  1  0.000000  0.861481  0.816495  1
  B  B12  1  0.500000  0.552912  0.432864  1
  B  B13  1  0.500000  0.447602  0.567782  1
  B  B14  1  0.500000  0.052033  0.068242  1
  B  B15  1  0.500000  0.947084  0.931546  1
  B  B16  1  0.500000  0.745149  0.423274  1
  B  B17  1  0.500000  0.254969  0.576890  1
  B  B18  1  0.500000  0.245708  0.078681  1
  B  B19  1  0.500000  0.753925  0.920927  1
  B  B20  1  0.500000  0.801829  0.272533  1
  B  B21  1  0.500000  0.198617  0.727741  1
  B  B22  1  0.500000  0.298456  0.230117  1
  B  B23  1  0.500000  0.700691  0.769803  1
  B  B24  1  0.500000  0.640826  0.187623  1
  B  B25  1  0.500000  0.359625  0.812213  1
  B  B26  1  0.500000  0.140229  0.313262  1
  B  B27  1  0.500000  0.859091  0.686775  1
  B  B28  1  0.500000  0.984836  0.219100  1
  B  B29  1  0.500000  0.015017  0.780539  1
  B  B30  1  0.500000  0.488200  0.285039  1
  B  B31  1  0.500000  0.512478  0.715631  1
  B  B32  1  0.500000  0.627122  0.034987  1
  B  B33  1  0.500000  0.373043  0.965080  1
  B  B34  1  0.500000  0.138454  0.461605  1
  B  B35  1  0.500000  0.861464  0.538624  1
