# generated using pymatgen
data_Dy18Tm2Ir7Au5
_symmetry_space_group_name_H-M   'P 1'
_cell_length_a   11.18164447
_cell_length_b   11.18164480
_cell_length_c   6.30543336
_cell_angle_alpha   89.96368743
_cell_angle_beta   89.96368475
_cell_angle_gamma   89.62943586
_symmetry_Int_Tables_number   1
_chemical_formula_structural   Dy18Tm2Ir7Au5
_chemical_formula_sum   'Dy18 Tm2 Ir7 Au5'
_cell_volume   788.34633929
_cell_formula_units_Z   1
loop_
 _symmetry_equiv_pos_site_id
 _symmetry_equiv_pos_as_xyz
  1  'x, y, z'
loop_
 _atom_site_type_symbol
 _atom_site_label
 _atom_site_symmetry_multiplicity
 _atom_site_fract_x
 _atom_site_fract_y
 _atom_site_fract_z
 _atom_site_occupancy
  Dy  Dy0  1  0.299693  0.091098  0.364685  1
  Dy  Dy1  1  0.301234  0.907171  0.863132  1
  Dy  Dy2  1  0.698377  0.081106  0.859956  1
  Dy  Dy3  1  0.698537  0.905792  0.361575  1
  Dy  Dy4  1  0.581100  0.783781  0.876567  1
  Dy  Dy5  1  0.576146  0.207482  0.364325  1
  Dy  Dy6  1  0.417769  0.787503  0.376869  1
  Dy  Dy7  1  0.411041  0.208938  0.878457  1
  Dy  Dy8  1  0.216219  0.418900  0.623433  1
  Dy  Dy9  1  0.212497  0.582231  0.123131  1
  Dy  Dy10  1  0.792518  0.423854  0.135675  1
  Dy  Dy11  1  0.791062  0.588959  0.621543  1
  Dy  Dy12  1  0.908902  0.700307  0.135315  1
  Dy  Dy13  1  0.918894  0.301623  0.640044  1
  Dy  Dy14  1  0.092829  0.698766  0.636868  1
  Dy  Dy15  1  0.094208  0.301463  0.138425  1
  Dy  Dy16  1  0.998823  0.000613  0.499225  1
  Dy  Dy17  1  0.999387  0.001177  0.000775  1
  Tm  Tm18  1  0.495651  0.502387  0.001475  1
  Tm  Tm19  1  0.497613  0.504349  0.498525  1
  Ir  Ir20  1  0.651671  0.649983  0.250225  1
  Ir  Ir21  1  0.350017  0.348329  0.249775  1
  Ir  Ir22  1  0.346883  0.653117  0.750000  1
  Ir  Ir23  1  0.499547  0.999253  0.112256  1
  Ir  Ir24  1  0.499277  0.000528  0.613067  1
  Ir  Ir25  1  0.999472  0.500723  0.886933  1
  Ir  Ir26  1  0.000747  0.500453  0.387744  1
  Au  Au27  1  0.841570  0.158430  0.250000  1
  Au  Au28  1  0.843718  0.845610  0.750758  1
  Au  Au29  1  0.154390  0.156282  0.749242  1
  Au  Au30  1  0.156080  0.843920  0.250000  1
  Au  Au31  1  0.654128  0.345872  0.750000  1
