# generated using pymatgen
data_Sm8SiGeBr12
_symmetry_space_group_name_H-M   'P 1'
_cell_length_a   4.15909900
_cell_length_b   13.51983008
_cell_length_c   14.33316608
_cell_angle_alpha   90.01224456
_cell_angle_beta   90.00000000
_cell_angle_gamma   90.00000000
_symmetry_Int_Tables_number   1
_chemical_formula_structural   Sm8SiGeBr12
_chemical_formula_sum   'Sm8 Si1 Ge1 Br12'
_cell_volume   805.95837880
_cell_formula_units_Z   1
loop_
 _symmetry_equiv_pos_site_id
 _symmetry_equiv_pos_as_xyz
  1  'x, y, z'
loop_
 _atom_site_type_symbol
 _atom_site_label
 _atom_site_symmetry_multiplicity
 _atom_site_fract_x
 _atom_site_fract_y
 _atom_site_fract_z
 _atom_site_occupancy
  Sm  Sm0  1  0.500000  0.119378  0.339392  1
  Sm  Sm1  1  0.500000  0.880622  0.660608  1
  Sm  Sm2  1  0.500000  0.618466  0.159372  1
  Sm  Sm3  1  0.500000  0.381534  0.840628  1
  Sm  Sm4  1  0.000000  0.119851  0.579503  1
  Sm  Sm5  1  0.000000  0.880149  0.420497  1
  Sm  Sm6  1  0.000000  0.618675  0.921287  1
  Sm  Sm7  1  0.000000  0.381325  0.078713  1
  Si  Si8  1  0.500000  0.500000  0.000000  1
  Ge  Ge9  1  0.500000  0.000000  0.500000  1
  Br  Br10  1  0.500000  0.243753  0.162525  1
  Br  Br11  1  0.500000  0.756247  0.837475  1
  Br  Br12  1  0.500000  0.743916  0.337654  1
  Br  Br13  1  0.500000  0.256084  0.662346  1
  Br  Br14  1  0.000000  0.255145  0.411569  1
  Br  Br15  1  0.000000  0.744855  0.588431  1
  Br  Br16  1  0.000000  0.755135  0.088551  1
  Br  Br17  1  0.000000  0.244865  0.911449  1
  Br  Br18  1  0.000000  0.001333  0.243485  1
  Br  Br19  1  0.000000  0.998667  0.756515  1
  Br  Br20  1  0.000000  0.501449  0.256545  1
  Br  Br21  1  0.000000  0.498551  0.743455  1
