# generated using pymatgen
data_Dy2ErCd3IrAu2
_symmetry_space_group_name_H-M   'P 1'
_cell_length_a   7.86301084
_cell_length_b   7.85956403
_cell_length_c   3.78682100
_cell_angle_alpha   90.00000000
_cell_angle_beta   90.00000000
_cell_angle_gamma   119.83314506
_symmetry_Int_Tables_number   1
_chemical_formula_structural   Dy2ErCd3IrAu2
_chemical_formula_sum   'Dy2 Er1 Cd3 Ir1 Au2'
_cell_volume   203.01142694
_cell_formula_units_Z   1
loop_
 _symmetry_equiv_pos_site_id
 _symmetry_equiv_pos_as_xyz
  1  'x, y, z'
loop_
 _atom_site_type_symbol
 _atom_site_label
 _atom_site_symmetry_multiplicity
 _atom_site_fract_x
 _atom_site_fract_y
 _atom_site_fract_z
 _atom_site_occupancy
  Dy  Dy0  1  0.581822  0.971668  0.000000  1
  Dy  Dy1  1  0.028909  0.610324  0.000000  1
  Er  Er2  1  0.388935  0.418828  0.000000  1
  Cd  Cd3  1  0.270155  0.003824  0.500000  1
  Cd  Cd4  1  0.997536  0.266956  0.500000  1
  Cd  Cd5  1  0.732787  0.729402  0.500000  1
  Ir  Ir6  1  0.333694  0.664646  0.500000  1
  Au  Au7  1  0.665294  0.333606  0.500000  1
  Au  Au8  1  0.000868  0.000746  0.000000  1
