# generated using pymatgen
data_Ti10As7
_symmetry_space_group_name_H-M   'P 1'
_cell_length_a   7.67059800
_cell_length_b   7.67059873
_cell_length_c   5.29523400
_cell_angle_alpha   90.00000000
_cell_angle_beta   90.00000000
_cell_angle_gamma   120.00000546
_symmetry_Int_Tables_number   1
_chemical_formula_structural   Ti10As7
_chemical_formula_sum   'Ti10 As7'
_cell_volume   269.82007068
_cell_formula_units_Z   1
loop_
 _symmetry_equiv_pos_site_id
 _symmetry_equiv_pos_as_xyz
  1  'x, y, z'
loop_
 _atom_site_type_symbol
 _atom_site_label
 _atom_site_symmetry_multiplicity
 _atom_site_fract_x
 _atom_site_fract_y
 _atom_site_fract_z
 _atom_site_occupancy
  Ti  Ti0  1  0.666667  0.333333  0.500000  1
  Ti  Ti1  1  0.333333  0.666667  0.500000  1
  Ti  Ti2  1  0.333333  0.666667  0.000000  1
  Ti  Ti3  1  0.666667  0.333333  0.000000  1
  Ti  Ti4  1  0.735281  0.735281  0.231773  1
  Ti  Ti5  1  0.264719  0.000000  0.231773  1
  Ti  Ti6  1  0.000000  0.264719  0.231773  1
  Ti  Ti7  1  0.264719  0.264719  0.768227  1
  Ti  Ti8  1  0.735281  0.000000  0.768227  1
  Ti  Ti9  1  0.000000  0.735281  0.768227  1
  As  As10  1  0.390084  0.390084  0.247906  1
  As  As11  1  0.609916  0.000000  0.247906  1
  As  As12  1  0.000000  0.609916  0.247906  1
  As  As13  1  0.609916  0.609916  0.752094  1
  As  As14  1  0.390084  0.000000  0.752094  1
  As  As15  1  0.000000  0.390084  0.752094  1
  As  As16  1  0.000000  0.000000  0.500000  1
