# generated using pymatgen
data_Nd8Re3OsC8
_symmetry_space_group_name_H-M   'P 1'
_cell_length_a   5.36856200
_cell_length_b   6.70294251
_cell_length_c   10.19413984
_cell_angle_alpha   90.09925368
_cell_angle_beta   90.00000000
_cell_angle_gamma   90.00000000
_symmetry_Int_Tables_number   1
_chemical_formula_structural   Nd8Re3OsC8
_chemical_formula_sum   'Nd8 Re3 Os1 C8'
_cell_volume   366.83722740
_cell_formula_units_Z   1
loop_
 _symmetry_equiv_pos_site_id
 _symmetry_equiv_pos_as_xyz
  1  'x, y, z'
loop_
 _atom_site_type_symbol
 _atom_site_label
 _atom_site_symmetry_multiplicity
 _atom_site_fract_x
 _atom_site_fract_y
 _atom_site_fract_z
 _atom_site_occupancy
  Nd  Nd0  1  0.250000  0.474355  0.785804  1
  Nd  Nd1  1  0.750000  0.026964  0.286896  1
  Nd  Nd2  1  0.250000  0.974451  0.714021  1
  Nd  Nd3  1  0.750000  0.525264  0.212233  1
  Nd  Nd4  1  0.250000  0.813619  0.049964  1
  Nd  Nd5  1  0.750000  0.688239  0.550645  1
  Nd  Nd6  1  0.250000  0.312130  0.449320  1
  Nd  Nd7  1  0.750000  0.188636  0.949081  1
  Re  Re8  1  0.750000  0.229703  0.641444  1
  Re  Re9  1  0.250000  0.769719  0.357061  1
  Re  Re10  1  0.750000  0.729998  0.858538  1
  Os  Os11  1  0.250000  0.269432  0.142695  1
  C  C12  1  0.250000  0.686070  0.537235  1
  C  C13  1  0.750000  0.813950  0.039492  1
  C  C14  1  0.250000  0.185700  0.963811  1
  C  C15  1  0.750000  0.313890  0.461065  1
  C  C16  1  0.250000  0.034013  0.257940  1
  C  C17  1  0.750000  0.465683  0.758196  1
  C  C18  1  0.250000  0.532646  0.242576  1
  C  C19  1  0.750000  0.965536  0.741982  1
