# generated using pymatgen
data_BaSe4O13
_symmetry_space_group_name_H-M   'P 1'
_cell_length_a   8.02918648
_cell_length_b   8.02918668
_cell_length_c   10.31269727
_cell_angle_alpha   84.92669699
_cell_angle_beta   84.92669733
_cell_angle_gamma   103.36491062
_symmetry_Int_Tables_number   1
_chemical_formula_structural   BaSe4O13
_chemical_formula_sum   'Ba2 Se8 O26'
_cell_volume   640.21923267
_cell_formula_units_Z   2
loop_
 _symmetry_equiv_pos_site_id
 _symmetry_equiv_pos_as_xyz
  1  'x, y, z'
loop_
 _atom_site_type_symbol
 _atom_site_label
 _atom_site_symmetry_multiplicity
 _atom_site_fract_x
 _atom_site_fract_y
 _atom_site_fract_z
 _atom_site_occupancy
  Ba  Ba0  1  0.806531  0.193469  0.250000  1
  Ba  Ba1  1  0.193469  0.806531  0.750000  1
  Se  Se2  1  0.224499  0.574565  0.388005  1
  Se  Se3  1  0.425435  0.775501  0.111995  1
  Se  Se4  1  0.775501  0.425435  0.611995  1
  Se  Se5  1  0.574565  0.224499  0.888005  1
  Se  Se6  1  0.289178  0.187466  0.422750  1
  Se  Se7  1  0.812534  0.710822  0.077250  1
  Se  Se8  1  0.710822  0.812534  0.577250  1
  Se  Se9  1  0.187466  0.289178  0.922750  1
  O  O10  1  0.039905  0.505005  0.333575  1
  O  O11  1  0.494995  0.960095  0.166425  1
  O  O12  1  0.960095  0.494995  0.666425  1
  O  O13  1  0.505005  0.039905  0.833575  1
  O  O14  1  0.253869  0.745987  0.464256  1
  O  O15  1  0.254013  0.746131  0.035744  1
  O  O16  1  0.746131  0.254013  0.535744  1
  O  O17  1  0.745987  0.253869  0.964256  1
  O  O18  1  0.392910  0.607090  0.250000  1
  O  O19  1  0.607090  0.392910  0.750000  1
  O  O20  1  0.294015  0.417704  0.479964  1
  O  O21  1  0.582296  0.705985  0.020036  1
  O  O22  1  0.705985  0.582296  0.520036  1
  O  O23  1  0.417704  0.294015  0.979964  1
  O  O24  1  0.464682  0.230093  0.320724  1
  O  O25  1  0.769907  0.535318  0.179276  1
  O  O26  1  0.535318  0.769907  0.679276  1
  O  O27  1  0.230093  0.464682  0.820724  1
  O  O28  1  0.299191  0.096473  0.569060  1
  O  O29  1  0.903527  0.700809  0.930940  1
  O  O30  1  0.700809  0.903527  0.430940  1
  O  O31  1  0.096473  0.299191  0.069060  1
  O  O32  1  0.106370  0.135618  0.360690  1
  O  O33  1  0.864382  0.893630  0.139310  1
  O  O34  1  0.893630  0.864382  0.639310  1
  O  O35  1  0.135618  0.106370  0.860690  1
