# generated using pymatgen
data_Ca4Tm2TaRuO12
_symmetry_space_group_name_H-M   'P 1'
_cell_length_a   5.79807126
_cell_length_b   5.58938328
_cell_length_c   9.81405928
_cell_angle_alpha   55.00482115
_cell_angle_beta   90.32068108
_cell_angle_gamma   89.97350734
_symmetry_Int_Tables_number   1
_chemical_formula_structural   Ca4Tm2TaRuO12
_chemical_formula_sum   'Ca4 Tm2 Ta1 Ru1 O12'
_cell_volume   260.54038830
_cell_formula_units_Z   1
loop_
 _symmetry_equiv_pos_site_id
 _symmetry_equiv_pos_as_xyz
  1  'x, y, z'
loop_
 _atom_site_type_symbol
 _atom_site_label
 _atom_site_symmetry_multiplicity
 _atom_site_fract_x
 _atom_site_fract_y
 _atom_site_fract_z
 _atom_site_occupancy
  Ca  Ca0  1  0.443943  0.239602  0.747735  1
  Ca  Ca1  1  0.556057  0.760398  0.252265  1
  Ca  Ca2  1  0.947533  0.771041  0.745060  1
  Ca  Ca3  1  0.052467  0.228959  0.254940  1
  Tm  Tm4  1  0.000000  0.000000  0.000000  1
  Tm  Tm5  1  0.500000  0.000000  0.500000  1
  Ta  Ta6  1  0.500000  0.500000  0.000000  1
  Ru  Ru7  1  0.000000  0.500000  0.500000  1
  O  O8  1  0.042168  0.372511  0.734391  1
  O  O9  1  0.957832  0.627489  0.265609  1
  O  O10  1  0.542217  0.628991  0.763265  1
  O  O11  1  0.457783  0.371009  0.236735  1
  O  O12  1  0.686775  0.844887  0.945782  1
  O  O13  1  0.313225  0.155113  0.054218  1
  O  O14  1  0.188334  0.160127  0.552927  1
  O  O15  1  0.811666  0.839873  0.447073  1
  O  O16  1  0.211256  0.743096  0.938613  1
  O  O17  1  0.788744  0.256904  0.061387  1
  O  O18  1  0.715446  0.258840  0.558720  1
  O  O19  1  0.284554  0.741160  0.441280  1
