# generated using pymatgen
data_Tb2Dy2FeTc7
_symmetry_space_group_name_H-M   'P 1'
_cell_length_a   5.41860259
_cell_length_b   5.32982212
_cell_length_c   8.79091319
_cell_angle_alpha   90.01480545
_cell_angle_beta   89.97656472
_cell_angle_gamma   119.43933626
_symmetry_Int_Tables_number   1
_chemical_formula_structural   Tb2Dy2FeTc7
_chemical_formula_sum   'Tb2 Dy2 Fe1 Tc7'
_cell_volume   221.10093509
_cell_formula_units_Z   1
loop_
 _symmetry_equiv_pos_site_id
 _symmetry_equiv_pos_as_xyz
  1  'x, y, z'
loop_
 _atom_site_type_symbol
 _atom_site_label
 _atom_site_symmetry_multiplicity
 _atom_site_fract_x
 _atom_site_fract_y
 _atom_site_fract_z
 _atom_site_occupancy
  Tb  Tb0  1  0.669126  0.334584  0.937124  1
  Tb  Tb1  1  0.333912  0.667010  0.061568  1
  Dy  Dy2  1  0.333931  0.666997  0.438402  1
  Dy  Dy3  1  0.669266  0.334650  0.562932  1
  Fe  Fe4  1  0.655238  0.827725  0.749093  1
  Tc  Tc5  1  0.006448  0.003217  0.506607  1
  Tc  Tc6  1  0.006096  0.003057  0.993462  1
  Tc  Tc7  1  0.828327  0.167941  0.250634  1
  Tc  Tc8  1  0.828249  0.660192  0.250673  1
  Tc  Tc9  1  0.341935  0.170978  0.250739  1
  Tc  Tc10  1  0.163791  0.824692  0.749405  1
  Tc  Tc11  1  0.163683  0.338957  0.749362  1
