# generated using pymatgen
data_Dy2Y5Ho13Pb16
_symmetry_space_group_name_H-M   'P 1'
_cell_length_a   8.20140239
_cell_length_b   8.27516714
_cell_length_c   15.62573003
_cell_angle_alpha   90.00658525
_cell_angle_beta   90.02059758
_cell_angle_gamma   89.98571341
_symmetry_Int_Tables_number   1
_chemical_formula_structural   Dy2Y5Ho13Pb16
_chemical_formula_sum   'Dy2 Y5 Ho13 Pb16'
_cell_volume   1060.48655660
_cell_formula_units_Z   1
loop_
 _symmetry_equiv_pos_site_id
 _symmetry_equiv_pos_as_xyz
  1  'x, y, z'
loop_
 _atom_site_type_symbol
 _atom_site_label
 _atom_site_symmetry_multiplicity
 _atom_site_fract_x
 _atom_site_fract_y
 _atom_site_fract_z
 _atom_site_occupancy
  Dy  Dy0  1  0.536228  0.323385  0.600066  1
  Dy  Dy1  1  0.036277  0.176656  0.899899  1
  Y  Y2  1  0.036298  0.176639  0.600078  1
  Y  Y3  1  0.463707  0.676598  0.399930  1
  Y  Y4  1  0.963667  0.823432  0.100095  1
  Y  Y5  1  0.463688  0.676582  0.100072  1
  Y  Y6  1  0.963717  0.823361  0.399922  1
  Ho  Ho7  1  0.376517  0.841263  0.879082  1
  Ho  Ho8  1  0.876473  0.658791  0.620968  1
  Ho  Ho9  1  0.623449  0.158854  0.379087  1
  Ho  Ho10  1  0.123378  0.341102  0.120884  1
  Ho  Ho11  1  0.623375  0.158899  0.120822  1
  Ho  Ho12  1  0.123471  0.341174  0.379033  1
  Ho  Ho13  1  0.376518  0.841220  0.620983  1
  Ho  Ho14  1  0.876456  0.658712  0.879066  1
  Ho  Ho15  1  0.536398  0.323441  0.899847  1
  Ho  Ho16  1  0.208442  0.504374  0.750123  1
  Ho  Ho17  1  0.708253  0.995653  0.750091  1
  Ho  Ho18  1  0.791729  0.495502  0.249951  1
  Ho  Ho19  1  0.291717  0.004499  0.249935  1
  Pb  Pb20  1  0.281503  0.033234  0.042729  1
  Pb  Pb21  1  0.781532  0.466762  0.457261  1
  Pb  Pb22  1  0.718359  0.966901  0.542856  1
  Pb  Pb23  1  0.218773  0.532784  0.957099  1
  Pb  Pb24  1  0.718423  0.967158  0.957125  1
  Pb  Pb25  1  0.218549  0.533097  0.542847  1
  Pb  Pb26  1  0.281634  0.033231  0.457219  1
  Pb  Pb27  1  0.781382  0.466610  0.042596  1
  Pb  Pb28  1  0.571417  0.626341  0.750010  1
  Pb  Pb29  1  0.071462  0.873466  0.750061  1
  Pb  Pb30  1  0.428536  0.373456  0.249992  1
  Pb  Pb31  1  0.928537  0.126572  0.250005  1
  Pb  Pb32  1  0.347302  0.153489  0.750164  1
  Pb  Pb33  1  0.846899  0.346773  0.750084  1
  Pb  Pb34  1  0.652971  0.846845  0.250004  1
  Pb  Pb35  1  0.152956  0.653145  0.250011  1
