# generated using pymatgen
data_KTb5Tm5(C2I9)2
_symmetry_space_group_name_H-M   'P 1'
_cell_length_a   11.38984104
_cell_length_b   11.41627450
_cell_length_c   11.47586151
_cell_angle_alpha   113.43490882
_cell_angle_beta   86.87319001
_cell_angle_gamma   119.81851879
_symmetry_Int_Tables_number   1
_chemical_formula_structural   KTb5Tm5(C2I9)2
_chemical_formula_sum   'K1 Tb5 Tm5 C4 I18'
_cell_volume   1168.46700541
_cell_formula_units_Z   1
loop_
 _symmetry_equiv_pos_site_id
 _symmetry_equiv_pos_as_xyz
  1  'x, y, z'
loop_
 _atom_site_type_symbol
 _atom_site_label
 _atom_site_symmetry_multiplicity
 _atom_site_fract_x
 _atom_site_fract_y
 _atom_site_fract_z
 _atom_site_occupancy
  K  K0  1  0.500217  0.999550  0.499850  1
  Tb  Tb1  1  0.105497  0.945193  0.000959  1
  Tb  Tb2  1  0.035156  0.962439  0.674785  1
  Tb  Tb3  1  0.322990  0.275629  0.288999  1
  Tb  Tb4  1  0.721733  0.645033  0.983907  1
  Tb  Tb5  1  0.894967  0.055723  0.999795  1
  Tm  Tm6  1  0.680439  0.726037  0.713803  1
  Tm  Tm7  1  0.275128  0.351415  0.017463  1
  Tm  Tm8  1  0.093788  0.387465  0.289950  1
  Tm  Tm9  1  0.965753  0.038746  0.321776  1
  Tm  Tm10  1  0.906607  0.612349  0.710054  1
  C  C11  1  0.152217  0.221466  0.121600  1
  C  C12  1  0.846411  0.777577  0.877378  1
  C  C13  1  0.922492  0.854333  0.800987  1
  C  C14  1  0.075910  0.144697  0.197824  1
  I  I15  1  0.447907  0.530675  0.830558  1
  I  I16  1  0.386284  0.038446  0.158492  1
  I  I17  1  0.773904  0.856900  0.501835  1
  I  I18  1  0.840592  0.314078  0.156393  1
  I  I19  1  0.548925  0.469744  0.166494  1
  I  I20  1  0.220437  0.142110  0.497050  1
  I  I21  1  0.319240  0.100408  0.831517  1
  I  I22  1  0.684135  0.905434  0.173775  1
  I  I23  1  0.975268  0.758177  0.172293  1
  I  I24  1  0.935072  0.296450  0.497664  1
  I  I25  1  0.028785  0.248468  0.833369  1
  I  I26  1  0.065588  0.697979  0.500534  1
  I  I27  1  0.263213  0.621870  0.186754  1
  I  I28  1  0.738440  0.373658  0.808493  1
  I  I29  1  0.645017  0.439191  0.503703  1
  I  I30  1  0.158969  0.685658  0.843397  1
  I  I31  1  0.614599  0.956607  0.839277  1
  I  I32  1  0.354317  0.566498  0.499271  1
