# generated using pymatgen
data_Ce2MnAl4Tc
_symmetry_space_group_name_H-M   'P 1'
_cell_length_a   5.14138400
_cell_length_b   5.14138454
_cell_length_c   7.35931000
_cell_angle_alpha   90.00000000
_cell_angle_beta   90.00000000
_cell_angle_gamma   129.93779005
_symmetry_Int_Tables_number   1
_chemical_formula_structural   Ce2MnAl4Tc
_chemical_formula_sum   'Ce2 Mn1 Al4 Tc1'
_cell_volume   149.15795776
_cell_formula_units_Z   1
loop_
 _symmetry_equiv_pos_site_id
 _symmetry_equiv_pos_as_xyz
  1  'x, y, z'
loop_
 _atom_site_type_symbol
 _atom_site_label
 _atom_site_symmetry_multiplicity
 _atom_site_fract_x
 _atom_site_fract_y
 _atom_site_fract_z
 _atom_site_occupancy
  Ce  Ce0  1  0.545665  0.454335  0.250000  1
  Ce  Ce1  1  0.442050  0.557950  0.750000  1
  Mn  Mn2  1  0.319274  0.680726  0.250000  1
  Al  Al3  1  0.847147  0.152853  0.056616  1
  Al  Al4  1  0.154011  0.845989  0.960241  1
  Al  Al5  1  0.154011  0.845989  0.539759  1
  Al  Al6  1  0.847147  0.152853  0.443384  1
  Tc  Tc7  1  0.690696  0.309304  0.750000  1
