# generated using pymatgen
data_TbTm3Hf4F28
_symmetry_space_group_name_H-M   'P 1'
_cell_length_a   5.61686154
_cell_length_b   8.95474741
_cell_length_c   12.08455038
_cell_angle_alpha   62.52847923
_cell_angle_beta   90.03188995
_cell_angle_gamma   89.99247919
_symmetry_Int_Tables_number   1
_chemical_formula_structural   TbTm3Hf4F28
_chemical_formula_sum   'Tb1 Tm3 Hf4 F28'
_cell_volume   539.28541584
_cell_formula_units_Z   1
loop_
 _symmetry_equiv_pos_site_id
 _symmetry_equiv_pos_as_xyz
  1  'x, y, z'
loop_
 _atom_site_type_symbol
 _atom_site_label
 _atom_site_symmetry_multiplicity
 _atom_site_fract_x
 _atom_site_fract_y
 _atom_site_fract_z
 _atom_site_occupancy
  Tb  Tb0  1  0.243822  0.816480  0.764344  1
  Tm  Tm1  1  0.255856  0.816800  0.264267  1
  Tm  Tm2  1  0.743115  0.186007  0.735675  1
  Tm  Tm3  1  0.755956  0.183956  0.235850  1
  Hf  Hf4  1  0.756470  0.725374  0.045425  1
  Hf  Hf5  1  0.243186  0.272107  0.957869  1
  Hf  Hf6  1  0.257256  0.276354  0.455689  1
  Hf  Hf7  1  0.743929  0.725319  0.540999  1
  F  F8  1  0.954251  0.709299  0.413449  1
  F  F9  1  0.046021  0.290442  0.583890  1
  F  F10  1  0.454611  0.289080  0.084898  1
  F  F11  1  0.549254  0.708962  0.916845  1
  F  F12  1  0.474236  0.732539  0.144619  1
  F  F13  1  0.525527  0.267964  0.857399  1
  F  F14  1  0.976459  0.267831  0.355720  1
  F  F15  1  0.027875  0.730581  0.639585  1
  F  F16  1  0.959907  0.747003  0.175169  1
  F  F17  1  0.039116  0.251801  0.827267  1
  F  F18  1  0.461976  0.253933  0.326221  1
  F  F19  1  0.546048  0.745318  0.672807  1
  F  F20  1  0.773659  0.473620  0.142181  1
  F  F21  1  0.222638  0.522819  0.859971  1
  F  F22  1  0.275535  0.527284  0.357946  1
  F  F23  1  0.724438  0.473932  0.640132  1
  F  F24  1  0.943658  0.274117  0.050533  1
  F  F25  1  0.056807  0.722959  0.954474  1
  F  F26  1  0.442082  0.724800  0.449678  1
  F  F27  1  0.556755  0.275812  0.549141  1
  F  F28  1  0.740290  0.976750  0.441079  1
  F  F29  1  0.260780  0.025080  0.555728  1
  F  F30  1  0.239636  0.021168  0.058759  1
  F  F31  1  0.759890  0.976309  0.942493  1
  F  F32  1  0.575375  0.972420  0.233338  1
  F  F33  1  0.422563  0.034160  0.767575  1
  F  F34  1  0.075337  0.027931  0.266837  1
  F  F35  1  0.915686  0.973690  0.732150  1
