# generated using pymatgen
data_La3Th(NiB10)2
_symmetry_space_group_name_H-M   'P 1'
_cell_length_a   4.21045900
_cell_length_b   5.67074668
_cell_length_c   11.27997702
_cell_angle_alpha   90.03097891
_cell_angle_beta   90.00000000
_cell_angle_gamma   90.00000000
_symmetry_Int_Tables_number   1
_chemical_formula_structural   La3Th(NiB10)2
_chemical_formula_sum   'La3 Th1 Ni2 B20'
_cell_volume   269.32572744
_cell_formula_units_Z   1
loop_
 _symmetry_equiv_pos_site_id
 _symmetry_equiv_pos_as_xyz
  1  'x, y, z'
loop_
 _atom_site_type_symbol
 _atom_site_label
 _atom_site_symmetry_multiplicity
 _atom_site_fract_x
 _atom_site_fract_y
 _atom_site_fract_z
 _atom_site_occupancy
  La  La0  1  0.500000  0.307852  0.863069  1
  La  La1  1  0.500000  0.691783  0.136338  1
  La  La2  1  0.500000  0.808291  0.637348  1
  Th  Th3  1  0.500000  0.191438  0.363709  1
  Ni  Ni4  1  0.000000  0.498140  0.498896  1
  Ni  Ni5  1  0.000000  0.999935  0.000554  1
  B  B6  1  0.000000  0.126537  0.540360  1
  B  B7  1  0.000000  0.875305  0.458032  1
  B  B8  1  0.000000  0.625651  0.958366  1
  B  B9  1  0.000000  0.374336  0.042303  1
  B  B10  1  0.000000  0.154740  0.696814  1
  B  B11  1  0.000000  0.845893  0.302395  1
  B  B12  1  0.299517  0.202935  0.115218  1
  B  B13  1  0.299424  0.797174  0.885838  1
  B  B14  1  0.699948  0.703300  0.385456  1
  B  B15  1  0.699866  0.296923  0.613560  1
  B  B16  1  0.700576  0.797174  0.885838  1
  B  B17  1  0.700483  0.202935  0.115218  1
  B  B18  1  0.300134  0.296923  0.613560  1
  B  B19  1  0.300052  0.703300  0.385456  1
  B  B20  1  0.000000  0.036535  0.188479  1
  B  B21  1  0.000000  0.963663  0.812276  1
  B  B22  1  0.000000  0.535507  0.312777  1
  B  B23  1  0.000000  0.463610  0.687369  1
  B  B24  1  0.000000  0.345324  0.198277  1
  B  B25  1  0.000000  0.654797  0.802494  1
