# generated using pymatgen
data_PrY2Co(P3Rh4)2
_symmetry_space_group_name_H-M   'P 1'
_cell_length_a   3.88596700
_cell_length_b   11.17236300
_cell_length_c   12.84560600
_cell_angle_alpha   90.00000000
_cell_angle_beta   90.00000000
_cell_angle_gamma   90.00000000
_symmetry_Int_Tables_number   1
_chemical_formula_structural   PrY2Co(P3Rh4)2
_chemical_formula_sum   'Pr2 Y4 Co2 P12 Rh16'
_cell_volume   557.69755858
_cell_formula_units_Z   2
loop_
 _symmetry_equiv_pos_site_id
 _symmetry_equiv_pos_as_xyz
  1  'x, y, z'
loop_
 _atom_site_type_symbol
 _atom_site_label
 _atom_site_symmetry_multiplicity
 _atom_site_fract_x
 _atom_site_fract_y
 _atom_site_fract_z
 _atom_site_occupancy
  Pr  Pr0  1  0.000000  0.500000  0.522311  1
  Pr  Pr1  1  0.500000  0.000000  0.477689  1
  Y  Y2  1  0.500000  0.815082  0.201305  1
  Y  Y3  1  0.500000  0.184918  0.201305  1
  Y  Y4  1  0.000000  0.684918  0.798695  1
  Y  Y5  1  0.000000  0.315082  0.798695  1
  Co  Co6  1  0.000000  0.500000  0.980442  1
  Co  Co7  1  0.500000  0.000000  0.019558  1
  P  P8  1  0.500000  0.500000  0.883134  1
  P  P9  1  0.000000  0.000000  0.116866  1
  P  P10  1  0.500000  0.500000  0.347112  1
  P  P11  1  0.000000  0.000000  0.652888  1
  P  P12  1  0.500000  0.313726  0.620942  1
  P  P13  1  0.500000  0.686274  0.620942  1
  P  P14  1  0.000000  0.186274  0.379058  1
  P  P15  1  0.000000  0.813726  0.379058  1
  P  P16  1  0.500000  0.853154  0.896831  1
  P  P17  1  0.500000  0.146846  0.896831  1
  P  P18  1  0.000000  0.646846  0.103169  1
  P  P19  1  0.000000  0.353154  0.103169  1
  Rh  Rh20  1  0.500000  0.500000  0.166562  1
  Rh  Rh21  1  0.000000  0.000000  0.833438  1
  Rh  Rh22  1  0.500000  0.500000  0.706980  1
  Rh  Rh23  1  0.000000  0.000000  0.293020  1
  Rh  Rh24  1  0.500000  0.336417  0.994116  1
  Rh  Rh25  1  0.500000  0.663583  0.994116  1
  Rh  Rh26  1  0.000000  0.163583  0.005884  1
  Rh  Rh27  1  0.000000  0.836417  0.005884  1
  Rh  Rh28  1  0.500000  0.292364  0.428607  1
  Rh  Rh29  1  0.500000  0.707636  0.428607  1
  Rh  Rh30  1  0.000000  0.207636  0.571393  1
  Rh  Rh31  1  0.000000  0.792364  0.571393  1
  Rh  Rh32  1  0.500000  0.873802  0.714049  1
  Rh  Rh33  1  0.500000  0.126198  0.714049  1
  Rh  Rh34  1  0.000000  0.626198  0.285951  1
  Rh  Rh35  1  0.000000  0.373802  0.285951  1
