# generated using pymatgen
data_Cu3Ni5Ge4(Mo3C)4
_symmetry_space_group_name_H-M   'P 1'
_cell_length_a   7.93680085
_cell_length_b   7.93792314
_cell_length_c   7.93680104
_cell_angle_alpha   59.99330732
_cell_angle_beta   59.99217262
_cell_angle_gamma   59.99330774
_symmetry_Int_Tables_number   1
_chemical_formula_structural   Cu3Ni5Ge4(Mo3C)4
_chemical_formula_sum   'Cu3 Ni5 Ge4 Mo12 C4'
_cell_volume   353.51938822
_cell_formula_units_Z   1
loop_
 _symmetry_equiv_pos_site_id
 _symmetry_equiv_pos_as_xyz
  1  'x, y, z'
loop_
 _atom_site_type_symbol
 _atom_site_label
 _atom_site_symmetry_multiplicity
 _atom_site_fract_x
 _atom_site_fract_y
 _atom_site_fract_z
 _atom_site_occupancy
  Cu  Cu0  1  0.919142  0.916711  0.247983  1
  Cu  Cu1  1  0.333243  0.332738  0.333243  1
  Cu  Cu2  1  0.247983  0.916711  0.919142  1
  Ni  Ni3  1  0.334534  0.999239  0.334534  1
  Ni  Ni4  1  0.997412  0.334683  0.335546  1
  Ni  Ni5  1  0.335546  0.334683  0.997412  1
  Ni  Ni6  1  0.917387  0.914678  0.917387  1
  Ni  Ni7  1  0.917955  0.249630  0.917955  1
  Ge  Ge8  1  0.126100  0.130931  0.126100  1
  Ge  Ge9  1  0.626136  0.124567  0.120348  1
  Ge  Ge10  1  0.120348  0.124567  0.626136  1
  Ge  Ge11  1  0.122988  0.621333  0.122988  1
  Mo  Mo12  1  0.691906  0.310626  0.309350  1
  Mo  Mo13  1  0.939983  0.940395  0.561364  1
  Mo  Mo14  1  0.687867  0.689104  0.310669  1
  Mo  Mo15  1  0.690811  0.309055  0.690811  1
  Mo  Mo16  1  0.312336  0.690141  0.312336  1
  Mo  Mo17  1  0.560115  0.939407  0.560115  1
  Mo  Mo18  1  0.561364  0.940395  0.939983  1
  Mo  Mo19  1  0.938040  0.559273  0.563073  1
  Mo  Mo20  1  0.938756  0.560770  0.938756  1
  Mo  Mo21  1  0.309350  0.310626  0.691906  1
  Mo  Mo22  1  0.563073  0.559273  0.938040  1
  Mo  Mo23  1  0.310669  0.689104  0.687867  1
  C  C24  1  0.624394  0.624878  0.624394  1
  C  C25  1  0.624945  0.625619  0.123114  1
  C  C26  1  0.123114  0.625619  0.624945  1
  C  C27  1  0.624505  0.125243  0.624505  1
