# generated using pymatgen
data_TaMn4P4Ru3
_symmetry_space_group_name_H-M   'P 1'
_cell_length_a   3.71410900
_cell_length_b   5.93497364
_cell_length_c   6.65377353
_cell_angle_alpha   89.58058158
_cell_angle_beta   90.00000000
_cell_angle_gamma   90.00000000
_symmetry_Int_Tables_number   1
_chemical_formula_structural   TaMn4P4Ru3
_chemical_formula_sum   'Ta1 Mn4 P4 Ru3'
_cell_volume   146.66612510
_cell_formula_units_Z   1
loop_
 _symmetry_equiv_pos_site_id
 _symmetry_equiv_pos_as_xyz
  1  'x, y, z'
loop_
 _atom_site_type_symbol
 _atom_site_label
 _atom_site_symmetry_multiplicity
 _atom_site_fract_x
 _atom_site_fract_y
 _atom_site_fract_z
 _atom_site_occupancy
  Ta  Ta0  1  0.750000  0.477661  0.674582  1
  Mn  Mn1  1  0.750000  0.351437  0.067545  1
  Mn  Mn2  1  0.250000  0.645274  0.934130  1
  Mn  Mn3  1  0.750000  0.860514  0.433313  1
  Mn  Mn4  1  0.250000  0.143885  0.558742  1
  P  P5  1  0.250000  0.778779  0.619337  1
  P  P6  1  0.750000  0.224913  0.373049  1
  P  P7  1  0.250000  0.262310  0.886256  1
  P  P8  1  0.750000  0.724450  0.119153  1
  Ru  Ru9  1  0.750000  0.978898  0.834494  1
  Ru  Ru10  1  0.250000  0.539832  0.334580  1
  Ru  Ru11  1  0.250000  0.012046  0.164821  1
