# generated using pymatgen
data_LiYb3YOsC8
_symmetry_space_group_name_H-M   'P 1'
_cell_length_a   6.84706109
_cell_length_b   6.78464892
_cell_length_c   6.79754583
_cell_angle_alpha   134.46237514
_cell_angle_beta   109.01632419
_cell_angle_gamma   88.78393339
_symmetry_Int_Tables_number   1
_chemical_formula_structural   LiYb3YOsC8
_chemical_formula_sum   'Li1 Yb3 Y1 Os1 C8'
_cell_volume   202.80057262
_cell_formula_units_Z   1
loop_
 _symmetry_equiv_pos_site_id
 _symmetry_equiv_pos_as_xyz
  1  'x, y, z'
loop_
 _atom_site_type_symbol
 _atom_site_label
 _atom_site_symmetry_multiplicity
 _atom_site_fract_x
 _atom_site_fract_y
 _atom_site_fract_z
 _atom_site_occupancy
  Li  Li0  1  0.003006  0.250188  0.242549  1
  Yb  Yb1  1  0.797028  0.641572  0.140521  1
  Yb  Yb2  1  0.508523  0.862238  0.665749  1
  Yb  Yb3  1  0.503072  0.160067  0.362135  1
  Y  Y4  1  0.201766  0.342213  0.840658  1
  Os  Os5  1  0.994868  0.739286  0.745121  1
  C  C6  1  0.800451  0.140141  0.679729  1
  C  C7  1  0.212396  0.884575  0.351092  1
  C  C8  1  0.458975  0.615593  0.828304  1
  C  C9  1  0.526533  0.375480  0.154542  1
  C  C10  1  0.897919  0.016225  0.748438  1
  C  C11  1  0.106816  0.855645  0.129292  1
  C  C12  1  0.268370  0.641384  0.747820  1
  C  C13  1  0.720277  0.475393  0.364049  1
