# generated using pymatgen
data_YErTh2(InPd2)2
_symmetry_space_group_name_H-M   'P 1'
_cell_length_a   7.90634703
_cell_length_b   7.81653776
_cell_length_c   3.76569400
_cell_angle_alpha   90.00000000
_cell_angle_beta   90.00000000
_cell_angle_gamma   90.25781241
_symmetry_Int_Tables_number   1
_chemical_formula_structural   YErTh2(InPd2)2
_chemical_formula_sum   'Y1 Er1 Th2 In2 Pd4'
_cell_volume   232.71851281
_cell_formula_units_Z   1
loop_
 _symmetry_equiv_pos_site_id
 _symmetry_equiv_pos_as_xyz
  1  'x, y, z'
loop_
 _atom_site_type_symbol
 _atom_site_label
 _atom_site_symmetry_multiplicity
 _atom_site_fract_x
 _atom_site_fract_y
 _atom_site_fract_z
 _atom_site_occupancy
  Y  Y0  1  0.172998  0.323448  0.500000  1
  Er  Er1  1  0.672931  0.176198  0.500000  1
  Th  Th2  1  0.326306  0.832242  0.500000  1
  Th  Th3  1  0.825753  0.667966  0.500000  1
  In  In4  1  0.996946  0.007986  0.000000  1
  In  In5  1  0.497733  0.491905  0.000000  1
  Pd  Pd6  1  0.374817  0.125271  0.000000  1
  Pd  Pd7  1  0.871075  0.373486  0.000000  1
  Pd  Pd8  1  0.130307  0.630105  0.000000  1
  Pd  Pd9  1  0.631133  0.871393  0.000000  1
