# generated using pymatgen
data_ErTm2AgO6
_symmetry_space_group_name_H-M   'P 1'
_cell_length_a   3.53591908
_cell_length_b   5.51992016
_cell_length_c   7.03579500
_cell_angle_alpha   89.51572372
_cell_angle_beta   102.48836619
_cell_angle_gamma   91.18486980
_symmetry_Int_Tables_number   1
_chemical_formula_structural   ErTm2AgO6
_chemical_formula_sum   'Er1 Tm2 Ag1 O6'
_cell_volume   134.04569215
_cell_formula_units_Z   1
loop_
 _symmetry_equiv_pos_site_id
 _symmetry_equiv_pos_as_xyz
  1  'x, y, z'
loop_
 _atom_site_type_symbol
 _atom_site_label
 _atom_site_symmetry_multiplicity
 _atom_site_fract_x
 _atom_site_fract_y
 _atom_site_fract_z
 _atom_site_occupancy
  Er  Er0  1  0.612798  0.531091  0.762776  1
  Tm  Tm1  1  0.386870  0.468504  0.237421  1
  Tm  Tm2  1  0.999489  0.999354  0.498947  1
  Ag  Ag3  1  0.999866  0.999997  0.000676  1
  O  O4  1  0.833334  0.676816  0.106619  1
  O  O5  1  0.168417  0.322370  0.895695  1
  O  O6  1  0.523362  0.254903  0.530482  1
  O  O7  1  0.475923  0.744463  0.467237  1
  O  O8  1  0.125982  0.800586  0.781875  1
  O  O9  1  0.873958  0.201917  0.218273  1
