# generated using pymatgen
data_La3TlBi2(SbO7)2
_symmetry_space_group_name_H-M   'P 1'
_cell_length_a   6.78096076
_cell_length_b   6.67512941
_cell_length_c   7.78450500
_cell_angle_alpha   90.00000000
_cell_angle_beta   90.00000000
_cell_angle_gamma   111.48869571
_symmetry_Int_Tables_number   1
_chemical_formula_structural   La3TlBi2(SbO7)2
_chemical_formula_sum   'La3 Tl1 Bi2 Sb2 O14'
_cell_volume   327.86387520
_cell_formula_units_Z   1
loop_
 _symmetry_equiv_pos_site_id
 _symmetry_equiv_pos_as_xyz
  1  'x, y, z'
loop_
 _atom_site_type_symbol
 _atom_site_label
 _atom_site_symmetry_multiplicity
 _atom_site_fract_x
 _atom_site_fract_y
 _atom_site_fract_z
 _atom_site_occupancy
  La  La0  1  0.005932  0.994655  0.502414  1
  La  La1  1  0.005932  0.994655  0.997586  1
  La  La2  1  0.491378  0.949686  0.750000  1
  Tl  Tl3  1  0.034239  0.503856  0.250000  1
  Bi  Bi4  1  0.517112  0.037280  0.250000  1
  Bi  Bi5  1  0.959138  0.483779  0.750000  1
  Sb  Sb6  1  0.495913  0.502267  0.497524  1
  Sb  Sb7  1  0.495913  0.502267  0.002476  1
  O  O8  1  0.424542  0.186308  0.531868  1
  O  O9  1  0.808313  0.569330  0.472069  1
  O  O10  1  0.424542  0.186308  0.968132  1
  O  O11  1  0.808313  0.569330  0.027931  1
  O  O12  1  0.571610  0.824863  0.463324  1
  O  O13  1  0.183411  0.448723  0.532289  1
  O  O14  1  0.571610  0.824863  0.036676  1
  O  O15  1  0.183411  0.448723  0.967711  1
  O  O16  1  0.161077  0.853208  0.250000  1
  O  O17  1  0.119150  0.841549  0.750000  1
  O  O18  1  0.864336  0.100328  0.750000  1
  O  O19  1  0.904023  0.156763  0.250000  1
  O  O20  1  0.413519  0.432184  0.250000  1
  O  O21  1  0.556587  0.589077  0.750000  1
