# generated using pymatgen
data_YNp2U(TaN2)4
_symmetry_space_group_name_H-M   'P 1'
_cell_length_a   3.24782500
_cell_length_b   5.67311309
_cell_length_c   10.96713532
_cell_angle_alpha   90.00357078
_cell_angle_beta   90.00000000
_cell_angle_gamma   90.00000000
_symmetry_Int_Tables_number   1
_chemical_formula_structural   YNp2U(TaN2)4
_chemical_formula_sum   'Y1 Np2 U1 Ta4 N8'
_cell_volume   202.07252262
_cell_formula_units_Z   1
loop_
 _symmetry_equiv_pos_site_id
 _symmetry_equiv_pos_as_xyz
  1  'x, y, z'
loop_
 _atom_site_type_symbol
 _atom_site_label
 _atom_site_symmetry_multiplicity
 _atom_site_fract_x
 _atom_site_fract_y
 _atom_site_fract_z
 _atom_site_occupancy
  Y  Y0  1  0.750000  0.919665  0.356675  1
  Np  Np1  1  0.250000  0.578293  0.860192  1
  Np  Np2  1  0.750000  0.419874  0.140136  1
  U  U3  1  0.250000  0.078053  0.638330  1
  Ta  Ta4  1  0.250000  0.921206  0.106111  1
  Ta  Ta5  1  0.750000  0.077789  0.895965  1
  Ta  Ta6  1  0.750000  0.577868  0.604497  1
  Ta  Ta7  1  0.250000  0.425055  0.396859  1
  N  N8  1  0.250000  0.660280  0.245516  1
  N  N9  1  0.750000  0.334871  0.753631  1
  N  N10  1  0.750000  0.841740  0.743837  1
  N  N11  1  0.250000  0.164685  0.254410  1
  N  N12  1  0.250000  0.757519  0.506803  1
  N  N13  1  0.750000  0.242441  0.496094  1
  N  N14  1  0.750000  0.747469  0.006564  1
  N  N15  1  0.250000  0.253190  0.994379  1
