# generated using pymatgen
data_Sr3BiBO3
_symmetry_space_group_name_H-M   'P 1'
_cell_length_a   5.40749700
_cell_length_b   5.40749745
_cell_length_c   14.03158500
_cell_angle_alpha   90.00000000
_cell_angle_beta   90.00000000
_cell_angle_gamma   120.00000338
_symmetry_Int_Tables_number   1
_chemical_formula_structural   Sr3BiBO3
_chemical_formula_sum   'Sr6 Bi2 B2 O6'
_cell_volume   355.32843128
_cell_formula_units_Z   2
loop_
 _symmetry_equiv_pos_site_id
 _symmetry_equiv_pos_as_xyz
  1  'x, y, z'
loop_
 _atom_site_type_symbol
 _atom_site_label
 _atom_site_symmetry_multiplicity
 _atom_site_fract_x
 _atom_site_fract_y
 _atom_site_fract_z
 _atom_site_occupancy
  Sr  Sr0  1  0.333333  0.666667  0.387292  1
  Sr  Sr1  1  0.000000  0.000000  0.250000  1
  Sr  Sr2  1  0.000000  0.000000  0.750000  1
  Sr  Sr3  1  0.666667  0.333333  0.887292  1
  Sr  Sr4  1  0.666667  0.333333  0.612708  1
  Sr  Sr5  1  0.333333  0.666667  0.112708  1
  Bi  Bi6  1  0.000000  0.000000  0.000000  1
  Bi  Bi7  1  0.000000  0.000000  0.500000  1
  B  B8  1  0.333333  0.666667  0.750000  1
  B  B9  1  0.666667  0.333333  0.250000  1
  O  O10  1  0.517467  0.482533  0.250000  1
  O  O11  1  0.965065  0.482533  0.250000  1
  O  O12  1  0.482533  0.965065  0.750000  1
  O  O13  1  0.517467  0.034935  0.250000  1
  O  O14  1  0.034935  0.517467  0.750000  1
  O  O15  1  0.482533  0.517467  0.750000  1
