# generated using pymatgen
data_Li2La3MgPb3
_symmetry_space_group_name_H-M   'P 1'
_cell_length_a   7.65184800
_cell_length_b   7.88600800
_cell_length_c   4.91448800
_cell_angle_alpha   90.00000000
_cell_angle_beta   90.00000000
_cell_angle_gamma   121.01756105
_symmetry_Int_Tables_number   1
_chemical_formula_structural   Li2La3MgPb3
_chemical_formula_sum   'Li2 La3 Mg1 Pb3'
_cell_volume   254.14841943
_cell_formula_units_Z   1
loop_
 _symmetry_equiv_pos_site_id
 _symmetry_equiv_pos_as_xyz
  1  'x, y, z'
loop_
 _atom_site_type_symbol
 _atom_site_label
 _atom_site_symmetry_multiplicity
 _atom_site_fract_x
 _atom_site_fract_y
 _atom_site_fract_z
 _atom_site_occupancy
  Li  Li0  1  0.767688  0.764168  0.500000  1
  Li  Li1  1  0.232312  0.996479  0.500000  1
  La  La2  1  0.000000  0.566441  0.000000  1
  La  La3  1  0.433425  0.439961  0.000000  1
  La  La4  1  0.566575  0.006535  0.000000  1
  Mg  Mg5  1  0.000000  0.231593  0.500000  1
  Pb  Pb6  1  0.658134  0.334589  0.500000  1
  Pb  Pb7  1  0.000000  0.983779  0.000000  1
  Pb  Pb8  1  0.341866  0.676456  0.500000  1
