# generated using pymatgen
data_Tb8Si12Ir3Pd
_symmetry_space_group_name_H-M   'P 1'
_cell_length_a   8.19259500
_cell_length_b   8.19259404
_cell_length_c   7.98214000
_cell_angle_alpha   90.00000000
_cell_angle_beta   90.00000000
_cell_angle_gamma   120.00000790
_symmetry_Int_Tables_number   1
_chemical_formula_structural   Tb8Si12Ir3Pd
_chemical_formula_sum   'Tb8 Si12 Ir3 Pd1'
_cell_volume   463.97316123
_cell_formula_units_Z   1
loop_
 _symmetry_equiv_pos_site_id
 _symmetry_equiv_pos_as_xyz
  1  'x, y, z'
loop_
 _atom_site_type_symbol
 _atom_site_label
 _atom_site_symmetry_multiplicity
 _atom_site_fract_x
 _atom_site_fract_y
 _atom_site_fract_z
 _atom_site_occupancy
  Tb  Tb0  1  0.511278  0.022554  0.247151  1
  Tb  Tb1  1  0.491924  0.983850  0.752000  1
  Tb  Tb2  1  0.977446  0.488722  0.247151  1
  Tb  Tb3  1  0.016150  0.508076  0.752000  1
  Tb  Tb4  1  0.511278  0.488722  0.247151  1
  Tb  Tb5  1  0.491924  0.508076  0.752000  1
  Tb  Tb6  1  0.000000  0.000000  0.252175  1
  Tb  Tb7  1  0.000000  0.000000  0.750516  1
  Si  Si8  1  0.166766  0.333533  0.003302  1
  Si  Si9  1  0.833712  0.667425  0.997785  1
  Si  Si10  1  0.666467  0.833234  0.003302  1
  Si  Si11  1  0.832658  0.665316  0.499648  1
  Si  Si12  1  0.332575  0.166288  0.997785  1
  Si  Si13  1  0.164748  0.329496  0.501863  1
  Si  Si14  1  0.166766  0.833234  0.003302  1
  Si  Si15  1  0.334684  0.167342  0.499648  1
  Si  Si16  1  0.833712  0.166288  0.997785  1
  Si  Si17  1  0.670504  0.835252  0.501863  1
  Si  Si18  1  0.832658  0.167342  0.499648  1
  Si  Si19  1  0.164748  0.835252  0.501863  1
  Ir  Ir20  1  0.333333  0.666667  0.026730  1
  Ir  Ir21  1  0.666667  0.333333  0.967077  1
  Ir  Ir22  1  0.666667  0.333333  0.537295  1
  Pd  Pd23  1  0.333333  0.666667  0.460958  1
