# generated using pymatgen
data_Y12GaCo4Ir
_symmetry_space_group_name_H-M   'P 1'
_cell_length_a   8.29087623
_cell_length_b   8.29087724
_cell_length_c   8.29087766
_cell_angle_alpha   106.83797381
_cell_angle_beta   110.45816406
_cell_angle_gamma   111.14997508
_symmetry_Int_Tables_number   1
_chemical_formula_structural   Y12GaCo4Ir
_chemical_formula_sum   'Y12 Ga1 Co4 Ir1'
_cell_volume   438.00428072
_cell_formula_units_Z   1
loop_
 _symmetry_equiv_pos_site_id
 _symmetry_equiv_pos_as_xyz
  1  'x, y, z'
loop_
 _atom_site_type_symbol
 _atom_site_label
 _atom_site_symmetry_multiplicity
 _atom_site_fract_x
 _atom_site_fract_y
 _atom_site_fract_z
 _atom_site_occupancy
  Y  Y0  1  0.694268  0.281387  0.975655  1
  Y  Y1  1  0.305732  0.718613  0.024345  1
  Y  Y2  1  0.694268  0.718613  0.412881  1
  Y  Y3  1  0.305732  0.281387  0.587119  1
  Y  Y4  1  0.802205  0.118671  0.316466  1
  Y  Y5  1  0.802205  0.485739  0.683534  1
  Y  Y6  1  0.197795  0.881329  0.683534  1
  Y  Y7  1  0.197795  0.514261  0.316466  1
  Y  Y8  1  0.602924  0.787317  0.815608  1
  Y  Y9  1  0.971709  0.787317  0.184392  1
  Y  Y10  1  0.028291  0.212683  0.815608  1
  Y  Y11  1  0.397076  0.212683  0.184392  1
  Ga  Ga12  1  0.500000  0.000000  0.500000  1
  Co  Co13  1  0.879736  0.500000  0.379736  1
  Co  Co14  1  0.120264  0.500000  0.620264  1
  Co  Co15  1  0.000000  0.111438  0.111438  1
  Co  Co16  1  0.000000  0.888562  0.888562  1
  Ir  Ir17  1  0.500000  0.500000  0.000000  1
