# generated using pymatgen
data_La2SmHo(MoO4)6
_symmetry_space_group_name_H-M   'P 1'
_cell_length_a   7.62806502
_cell_length_b   7.61887114
_cell_length_c   10.92015880
_cell_angle_alpha   89.62317450
_cell_angle_beta   90.09299013
_cell_angle_gamma   89.87774351
_symmetry_Int_Tables_number   1
_chemical_formula_structural   La2SmHo(MoO4)6
_chemical_formula_sum   'La2 Sm1 Ho1 Mo6 O24'
_cell_volume   634.63351687
_cell_formula_units_Z   1
loop_
 _symmetry_equiv_pos_site_id
 _symmetry_equiv_pos_as_xyz
  1  'x, y, z'
loop_
 _atom_site_type_symbol
 _atom_site_label
 _atom_site_symmetry_multiplicity
 _atom_site_fract_x
 _atom_site_fract_y
 _atom_site_fract_z
 _atom_site_occupancy
  La  La0  1  0.187696  0.687091  0.740206  1
  La  La1  1  0.685026  0.815202  0.258860  1
  Sm  Sm2  1  0.808533  0.307870  0.736426  1
  Ho  Ho3  1  0.306658  0.193571  0.265654  1
  Mo  Mo4  1  0.209550  0.706609  0.351652  1
  Mo  Mo5  1  0.793321  0.290038  0.356308  1
  Mo  Mo6  1  0.709058  0.792518  0.647633  1
  Mo  Mo7  1  0.292167  0.209971  0.637832  1
  Mo  Mo8  1  0.005308  0.011450  0.002655  1
  Mo  Mo9  1  0.497123  0.487764  0.002675  1
  O  O10  1  0.002880  0.219576  0.300531  1
  O  O11  1  0.000490  0.765211  0.292120  1
  O  O12  1  0.232089  0.001063  0.697626  1
  O  O13  1  0.501731  0.730843  0.708038  1
  O  O14  1  0.779716  0.999247  0.706083  1
  O  O15  1  0.499926  0.278757  0.696081  1
  O  O16  1  0.280687  0.497410  0.295767  1
  O  O17  1  0.735304  0.499911  0.296825  1
  O  O18  1  0.184995  0.060588  0.102825  1
  O  O19  1  0.813014  0.970281  0.092312  1
  O  O20  1  0.053834  0.820795  0.913323  1
  O  O21  1  0.309330  0.526938  0.907693  1
  O  O22  1  0.964003  0.192049  0.900802  1
  O  O23  1  0.680320  0.437508  0.906240  1
  O  O24  1  0.452420  0.309031  0.105462  1
  O  O25  1  0.542299  0.681501  0.089567  1
  O  O26  1  0.619931  0.136538  0.310826  1
  O  O27  1  0.363149  0.880966  0.306223  1
  O  O28  1  0.123022  0.366699  0.684497  1
  O  O29  1  0.866618  0.622197  0.693890  1
  O  O30  1  0.197578  0.695288  0.514470  1
  O  O31  1  0.803199  0.301173  0.519331  1
  O  O32  1  0.696005  0.805532  0.484994  1
  O  O33  1  0.303015  0.198812  0.474569  1
