# generated using pymatgen
data_NdBeCd2(PPd4)5
_symmetry_space_group_name_H-M   'P 1'
_cell_length_a   8.65544875
_cell_length_b   8.60930701
_cell_length_c   8.60930518
_cell_angle_alpha   60.36421100
_cell_angle_beta   59.82253079
_cell_angle_gamma   59.82254046
_symmetry_Int_Tables_number   1
_chemical_formula_structural   NdBeCd2(PPd4)5
_chemical_formula_sum   'Nd1 Be1 Cd2 P5 Pd20'
_cell_volume   453.64422094
_cell_formula_units_Z   1
loop_
 _symmetry_equiv_pos_site_id
 _symmetry_equiv_pos_as_xyz
  1  'x, y, z'
loop_
 _atom_site_type_symbol
 _atom_site_label
 _atom_site_symmetry_multiplicity
 _atom_site_fract_x
 _atom_site_fract_y
 _atom_site_fract_z
 _atom_site_occupancy
  Nd  Nd0  1  0.250143  0.249857  0.249857  1
  Be  Be1  1  0.732154  0.267846  0.267846  1
  Cd  Cd2  1  0.749970  0.750030  0.750030  1
  Cd  Cd3  1  0.995303  0.004697  0.004697  1
  P  P4  1  0.264396  0.735604  0.735604  1
  P  P5  1  0.267056  0.732914  0.266414  1
  P  P6  1  0.733615  0.266414  0.732914  1
  P  P7  1  0.267056  0.266414  0.732914  1
  P  P8  1  0.733615  0.732914  0.266414  1
  Pd  Pd9  1  0.390533  0.385592  0.385592  1
  Pd  Pd10  1  0.618443  0.618057  0.618057  1
  Pd  Pd11  1  0.387567  0.388622  0.836245  1
  Pd  Pd12  1  0.387567  0.836245  0.388622  1
  Pd  Pd13  1  0.619845  0.615350  0.144963  1
  Pd  Pd14  1  0.619845  0.144963  0.615350  1
  Pd  Pd15  1  0.838281  0.385592  0.385592  1
  Pd  Pd16  1  0.145446  0.618057  0.618057  1
  Pd  Pd17  1  0.342572  0.000340  0.000340  1
  Pd  Pd18  1  0.656748  0.000340  0.000340  1
  Pd  Pd19  1  0.999403  0.343605  0.657588  1
  Pd  Pd20  1  0.999403  0.657588  0.343605  1
  Pd  Pd21  1  0.999780  0.340059  0.002956  1
  Pd  Pd22  1  0.657207  0.002956  0.340059  1
  Pd  Pd23  1  0.000587  0.655519  0.000948  1
  Pd  Pd24  1  0.342946  0.000948  0.655519  1
  Pd  Pd25  1  0.999780  0.002956  0.340059  1
  Pd  Pd26  1  0.000587  0.000948  0.655519  1
  Pd  Pd27  1  0.657207  0.340059  0.002956  1
  Pd  Pd28  1  0.342946  0.655519  0.000948  1
