# generated using pymatgen
data_Dy2Ta2Bi2O11
_symmetry_space_group_name_H-M   'P 1'
_cell_length_a   6.59365849
_cell_length_b   7.68226680
_cell_length_c   9.70713723
_cell_angle_alpha   101.40533252
_cell_angle_beta   90.19108337
_cell_angle_gamma   90.08886852
_symmetry_Int_Tables_number   1
_chemical_formula_structural   Dy2Ta2Bi2O11
_chemical_formula_sum   'Dy4 Ta4 Bi4 O22'
_cell_volume   481.99392637
_cell_formula_units_Z   2
loop_
 _symmetry_equiv_pos_site_id
 _symmetry_equiv_pos_as_xyz
  1  'x, y, z'
loop_
 _atom_site_type_symbol
 _atom_site_label
 _atom_site_symmetry_multiplicity
 _atom_site_fract_x
 _atom_site_fract_y
 _atom_site_fract_z
 _atom_site_occupancy
  Dy  Dy0  1  0.746456  0.369230  0.482544  1
  Dy  Dy1  1  0.253544  0.630770  0.517456  1
  Dy  Dy2  1  0.760239  0.872004  0.492089  1
  Dy  Dy3  1  0.239761  0.127996  0.507911  1
  Ta  Ta4  1  0.912175  0.700761  0.804491  1
  Ta  Ta5  1  0.087825  0.299239  0.195509  1
  Ta  Ta6  1  0.914030  0.198854  0.805089  1
  Ta  Ta7  1  0.085970  0.801146  0.194911  1
  Bi  Bi8  1  0.432975  0.954948  0.814500  1
  Bi  Bi9  1  0.567025  0.045052  0.185500  1
  Bi  Bi10  1  0.388856  0.454938  0.826462  1
  Bi  Bi11  1  0.611144  0.545062  0.173538  1
  O  O12  1  0.215956  0.724428  0.755357  1
  O  O13  1  0.784044  0.275572  0.244643  1
  O  O14  1  0.629590  0.665878  0.844692  1
  O  O15  1  0.370410  0.334122  0.155308  1
  O  O16  1  0.630163  0.253877  0.842993  1
  O  O17  1  0.369837  0.746123  0.157007  1
  O  O18  1  0.890639  0.155703  0.586649  1
  O  O19  1  0.109361  0.844297  0.413351  1
  O  O20  1  0.215065  0.150203  0.750406  1
  O  O21  1  0.784935  0.849797  0.249594  1
  O  O22  1  0.893192  0.637559  0.590687  1
  O  O23  1  0.106808  0.362441  0.409313  1
  O  O24  1  0.026472  0.550209  0.196902  1
  O  O25  1  0.973528  0.449791  0.803098  1
  O  O26  1  0.998859  0.787912  0.001070  1
  O  O27  1  0.001141  0.212088  0.998930  1
  O  O28  1  0.570742  0.597483  0.394762  1
  O  O29  1  0.429258  0.402517  0.605238  1
  O  O30  1  0.167066  0.057207  0.226471  1
  O  O31  1  0.832934  0.942793  0.773529  1
  O  O32  1  0.543212  0.105283  0.404534  1
  O  O33  1  0.456788  0.894717  0.595466  1
