# generated using pymatgen
data_TaTi3Cu2(Si2Rh)2
_symmetry_space_group_name_H-M   'P 1'
_cell_length_a   3.73801800
_cell_length_b   6.28101596
_cell_length_c   7.31293214
_cell_angle_alpha   90.18175639
_cell_angle_beta   90.00000000
_cell_angle_gamma   90.00000000
_symmetry_Int_Tables_number   1
_chemical_formula_structural   TaTi3Cu2(Si2Rh)2
_chemical_formula_sum   'Ta1 Ti3 Cu2 Si4 Rh2'
_cell_volume   171.69618400
_cell_formula_units_Z   1
loop_
 _symmetry_equiv_pos_site_id
 _symmetry_equiv_pos_as_xyz
  1  'x, y, z'
loop_
 _atom_site_type_symbol
 _atom_site_label
 _atom_site_symmetry_multiplicity
 _atom_site_fract_x
 _atom_site_fract_y
 _atom_site_fract_z
 _atom_site_occupancy
  Ta  Ta0  1  0.250000  0.033237  0.821688  1
  Ti  Ti1  1  0.750000  0.472159  0.325938  1
  Ti  Ti2  1  0.750000  0.972387  0.173443  1
  Ti  Ti3  1  0.250000  0.535070  0.679737  1
  Cu  Cu4  1  0.750000  0.849970  0.559719  1
  Cu  Cu5  1  0.750000  0.351312  0.940032  1
  Si  Si6  1  0.250000  0.261334  0.127600  1
  Si  Si7  1  0.250000  0.759972  0.373217  1
  Si  Si8  1  0.750000  0.740142  0.873120  1
  Si  Si9  1  0.750000  0.245096  0.625962  1
  Rh  Rh10  1  0.250000  0.639831  0.058777  1
  Rh  Rh11  1  0.250000  0.139490  0.440768  1
