# generated using pymatgen
data_NdPaBiN2
_symmetry_space_group_name_H-M   'P 1'
_cell_length_a   7.45649360
_cell_length_b   7.45649274
_cell_length_c   7.45649270
_cell_angle_alpha   148.90567277
_cell_angle_beta   148.90565601
_cell_angle_gamma   44.55017710
_symmetry_Int_Tables_number   1
_chemical_formula_structural   NdPaBiN2
_chemical_formula_sum   'Nd1 Pa1 Bi1 N2'
_cell_volume   110.24358959
_cell_formula_units_Z   1
loop_
 _symmetry_equiv_pos_site_id
 _symmetry_equiv_pos_as_xyz
  1  'x, y, z'
loop_
 _atom_site_type_symbol
 _atom_site_label
 _atom_site_symmetry_multiplicity
 _atom_site_fract_x
 _atom_site_fract_y
 _atom_site_fract_z
 _atom_site_occupancy
  Nd  Nd0  1  0.337212  0.337212  0.000000  1
  Pa  Pa1  1  0.674737  0.674737  0.000000  1
  Bi  Bi2  1  0.005933  0.005933  0.000000  1
  N  N3  1  0.241059  0.741059  0.500000  1
  N  N4  1  0.741059  0.241059  0.500000  1
