# generated using pymatgen
data_ErZr3(Co5P3)4
_symmetry_space_group_name_H-M   'P 1'
_cell_length_a   3.61163000
_cell_length_b   10.16300323
_cell_length_c   11.65614253
_cell_angle_alpha   89.92424114
_cell_angle_beta   90.00000000
_cell_angle_gamma   90.00000000
_symmetry_Int_Tables_number   1
_chemical_formula_structural   ErZr3(Co5P3)4
_chemical_formula_sum   'Er1 Zr3 Co20 P12'
_cell_volume   427.83842356
_cell_formula_units_Z   1
loop_
 _symmetry_equiv_pos_site_id
 _symmetry_equiv_pos_as_xyz
  1  'x, y, z'
loop_
 _atom_site_type_symbol
 _atom_site_label
 _atom_site_symmetry_multiplicity
 _atom_site_fract_x
 _atom_site_fract_y
 _atom_site_fract_z
 _atom_site_occupancy
  Er  Er0  1  0.750000  0.082220  0.796431  1
  Zr  Zr1  1  0.250000  0.581458  0.702169  1
  Zr  Zr2  1  0.250000  0.918403  0.202014  1
  Zr  Zr3  1  0.750000  0.418538  0.297772  1
  Co  Co4  1  0.250000  0.718768  0.994593  1
  Co  Co5  1  0.250000  0.780330  0.492338  1
  Co  Co6  1  0.750000  0.281697  0.007536  1
  Co  Co7  1  0.750000  0.218837  0.507446  1
  Co  Co8  1  0.250000  0.409266  0.486344  1
  Co  Co9  1  0.250000  0.090710  0.989894  1
  Co  Co10  1  0.750000  0.590635  0.513307  1
  Co  Co11  1  0.750000  0.906957  0.014941  1
  Co  Co12  1  0.250000  0.224507  0.178866  1
  Co  Co13  1  0.250000  0.278753  0.677185  1
  Co  Co14  1  0.750000  0.775848  0.822341  1
  Co  Co15  1  0.750000  0.723300  0.322027  1
  Co  Co16  1  0.250000  0.880628  0.698542  1
  Co  Co17  1  0.250000  0.616099  0.201064  1
  Co  Co18  1  0.750000  0.116917  0.299014  1
  Co  Co19  1  0.750000  0.385538  0.800158  1
  Co  Co20  1  0.250000  0.469102  0.931077  1
  Co  Co21  1  0.250000  0.032527  0.428487  1
  Co  Co22  1  0.750000  0.532845  0.070246  1
  Co  Co23  1  0.750000  0.965170  0.566715  1
  P  P24  1  0.250000  0.419480  0.114464  1
  P  P25  1  0.250000  0.080720  0.611201  1
  P  P26  1  0.750000  0.581214  0.886276  1
  P  P27  1  0.750000  0.919337  0.384253  1
  P  P28  1  0.250000  0.269547  0.871315  1
  P  P29  1  0.250000  0.233429  0.370151  1
  P  P30  1  0.750000  0.732511  0.130973  1
  P  P31  1  0.750000  0.766459  0.630070  1
  P  P32  1  0.250000  0.599865  0.389944  1
  P  P33  1  0.250000  0.898245  0.890302  1
  P  P34  1  0.750000  0.399857  0.610566  1
  P  P35  1  0.750000  0.100282  0.109977  1
