# generated using pymatgen
data_Lu4Al18Co5Ni
_symmetry_space_group_name_H-M   'P 1'
_cell_length_a   7.35176974
_cell_length_b   7.35176900
_cell_length_c   9.34955500
_cell_angle_alpha   89.94220363
_cell_angle_beta   89.94220363
_cell_angle_gamma   119.87600785
_symmetry_Int_Tables_number   1
_chemical_formula_structural   Lu4Al18Co5Ni
_chemical_formula_sum   'Lu4 Al18 Co5 Ni1'
_cell_volume   438.17309343
_cell_formula_units_Z   1
loop_
 _symmetry_equiv_pos_site_id
 _symmetry_equiv_pos_as_xyz
  1  'x, y, z'
loop_
 _atom_site_type_symbol
 _atom_site_label
 _atom_site_symmetry_multiplicity
 _atom_site_fract_x
 _atom_site_fract_y
 _atom_site_fract_z
 _atom_site_occupancy
  Lu  Lu0  1  0.504337  0.830166  0.750646  1
  Lu  Lu1  1  0.495663  0.169834  0.249354  1
  Lu  Lu2  1  0.169834  0.495663  0.249354  1
  Lu  Lu3  1  0.830166  0.504337  0.750646  1
  Al  Al4  1  0.161819  0.946534  0.750725  1
  Al  Al5  1  0.838181  0.053466  0.249275  1
  Al  Al6  1  0.053466  0.838181  0.249275  1
  Al  Al7  1  0.946534  0.161819  0.750725  1
  Al  Al8  1  0.622694  0.622694  0.247136  1
  Al  Al9  1  0.377306  0.377306  0.752864  1
  Al  Al10  1  0.168599  0.168599  0.046904  1
  Al  Al11  1  0.834143  0.834143  0.548845  1
  Al  Al12  1  0.831401  0.831401  0.953096  1
  Al  Al13  1  0.165857  0.165857  0.451155  1
  Al  Al14  1  0.497428  0.834123  0.070022  1
  Al  Al15  1  0.501752  0.163037  0.571515  1
  Al  Al16  1  0.165877  0.502572  0.929978  1
  Al  Al17  1  0.836963  0.498248  0.428485  1
  Al  Al18  1  0.502572  0.165877  0.929978  1
  Al  Al19  1  0.498248  0.836963  0.428485  1
  Al  Al20  1  0.834123  0.497428  0.070022  1
  Al  Al21  1  0.163037  0.501752  0.571515  1
  Co  Co22  1  0.171296  0.828704  0.000000  1
  Co  Co23  1  0.500000  0.500000  0.000000  1
  Co  Co24  1  0.829057  0.170943  0.500000  1
  Co  Co25  1  0.828704  0.171296  0.000000  1
  Co  Co26  1  0.170943  0.829057  0.500000  1
  Ni  Ni27  1  0.500000  0.500000  0.500000  1
