# generated using pymatgen
data_La12Ir2RhAuBr12
_symmetry_space_group_name_H-M   'P 1'
_cell_length_a   10.73742531
_cell_length_b   10.72703186
_cell_length_c   10.52719800
_cell_angle_alpha   109.09307965
_cell_angle_beta   109.07750001
_cell_angle_gamma   109.88329995
_symmetry_Int_Tables_number   1
_chemical_formula_structural   La12Ir2RhAuBr12
_chemical_formula_sum   'La12 Ir2 Rh1 Au1 Br12'
_cell_volume   937.48203860
_cell_formula_units_Z   1
loop_
 _symmetry_equiv_pos_site_id
 _symmetry_equiv_pos_as_xyz
  1  'x, y, z'
loop_
 _atom_site_type_symbol
 _atom_site_label
 _atom_site_symmetry_multiplicity
 _atom_site_fract_x
 _atom_site_fract_y
 _atom_site_fract_z
 _atom_site_occupancy
  La  La0  1  0.257673  0.738274  0.232111  1
  La  La1  1  0.480601  0.738274  0.006163  1
  La  La2  1  0.235051  0.470102  0.485051  1
  La  La3  1  0.015595  0.031191  0.265595  1
  La  La4  1  0.234911  0.264355  0.749252  1
  La  La5  1  0.014802  0.484082  0.749051  1
  La  La6  1  0.479966  0.242354  0.474047  1
  La  La7  1  0.257594  0.020049  0.026049  1
  La  La8  1  0.762389  0.242354  0.268308  1
  La  La9  1  0.762455  0.020049  0.493999  1
  La  La10  1  0.469280  0.484082  0.235031  1
  La  La11  1  0.029446  0.264355  0.015104  1
  Ir  Ir12  1  0.001162  0.250833  0.501255  1
  Ir  Ir13  1  0.249670  0.250833  0.249577  1
  Rh  Rh14  1  0.249745  0.499490  0.999745  1
  Au  Au15  1  0.499662  0.999324  0.249662  1
  Br  Br16  1  0.250297  0.994422  0.504363  1
  Br  Br17  1  0.512317  0.506170  0.756290  1
  Br  Br18  1  0.250355  0.755771  0.746072  1
  Br  Br19  1  0.991127  0.745438  0.995584  1
  Br  Br20  1  0.993853  0.506170  0.249881  1
  Br  Br21  1  0.744125  0.994422  0.990060  1
  Br  Br22  1  0.754312  0.745438  0.249854  1
  Br  Br23  1  0.505416  0.755771  0.509698  1
  Br  Br24  1  0.505501  0.249824  0.995749  1
  Br  Br25  1  0.754498  0.508996  0.504498  1
  Br  Br26  1  0.744323  0.249824  0.754075  1
  Br  Br27  1  0.993875  0.987751  0.743875  1
