# generated using pymatgen
data_Y7CoSn23Ir3Ru2
_symmetry_space_group_name_H-M   'P 1'
_cell_length_a   9.86766800
_cell_length_b   9.85926450
_cell_length_c   10.07343221
_cell_angle_alpha   90.17395070
_cell_angle_beta   90.00000000
_cell_angle_gamma   120.02820610
_symmetry_Int_Tables_number   1
_chemical_formula_structural   Y7CoSn23Ir3Ru2
_chemical_formula_sum   'Y7 Co1 Sn23 Ir3 Ru2'
_cell_volume   848.47874953
_cell_formula_units_Z   1
loop_
 _symmetry_equiv_pos_site_id
 _symmetry_equiv_pos_as_xyz
  1  'x, y, z'
loop_
 _atom_site_type_symbol
 _atom_site_label
 _atom_site_symmetry_multiplicity
 _atom_site_fract_x
 _atom_site_fract_y
 _atom_site_fract_z
 _atom_site_occupancy
  Y  Y0  1  0.002750  0.005500  0.994040  1
  Y  Y1  1  0.040661  0.519711  0.307630  1
  Y  Y2  1  0.479211  0.958421  0.306477  1
  Y  Y3  1  0.479050  0.519711  0.307630  1
  Y  Y4  1  0.960798  0.480990  0.692995  1
  Y  Y5  1  0.519436  0.038873  0.693762  1
  Y  Y6  1  0.520193  0.480990  0.692995  1
  Co  Co7  1  0.830379  0.660758  0.198541  1
  Sn  Sn8  1  0.999819  0.999637  0.497528  1
  Sn  Sn9  1  0.110634  0.876105  0.276885  1
  Sn  Sn10  1  0.765470  0.876105  0.276885  1
  Sn  Sn11  1  0.118132  0.236265  0.284628  1
  Sn  Sn12  1  0.879800  0.114868  0.718898  1
  Sn  Sn13  1  0.235069  0.114868  0.718898  1
  Sn  Sn14  1  0.881780  0.763560  0.720054  1
  Sn  Sn15  1  0.349558  0.998361  0.999041  1
  Sn  Sn16  1  0.657400  0.652983  0.003665  1
  Sn  Sn17  1  0.999686  0.354320  0.000905  1
  Sn  Sn18  1  0.354634  0.354320  0.000905  1
  Sn  Sn19  1  0.995584  0.652983  0.003665  1
  Sn  Sn20  1  0.648802  0.998361  0.999041  1
  Sn  Sn21  1  0.781233  0.562465  0.450204  1
  Sn  Sn22  1  0.778729  0.220914  0.457150  1
  Sn  Sn23  1  0.442185  0.220914  0.457150  1
  Sn  Sn24  1  0.221721  0.443442  0.543922  1
  Sn  Sn25  1  0.220957  0.779673  0.544708  1
  Sn  Sn26  1  0.558716  0.779673  0.544708  1
  Sn  Sn27  1  0.669011  0.338021  0.178677  1
  Sn  Sn28  1  0.334109  0.668218  0.822327  1
  Sn  Sn29  1  0.666774  0.333547  0.881218  1
  Sn  Sn30  1  0.332703  0.665409  0.120744  1
  Ir  Ir31  1  0.167925  0.335849  0.801228  1
  Ir  Ir32  1  0.830390  0.167700  0.199416  1
  Ir  Ir33  1  0.337310  0.167700  0.199416  1
  Ru  Ru34  1  0.166314  0.829391  0.802031  1
  Ru  Ru35  1  0.663077  0.829391  0.802031  1
