# generated using pymatgen
data_ErMn3CrFeP3
_symmetry_space_group_name_H-M   'P 1'
_cell_length_a   3.60926800
_cell_length_b   10.54200200
_cell_length_c   12.19724400
_cell_angle_alpha   90.00000000
_cell_angle_beta   90.00000000
_cell_angle_gamma   90.00000000
_symmetry_Int_Tables_number   1
_chemical_formula_structural   ErMn3CrFeP3
_chemical_formula_sum   'Er4 Mn12 Cr4 Fe4 P12'
_cell_volume   464.09184499
_cell_formula_units_Z   4
loop_
 _symmetry_equiv_pos_site_id
 _symmetry_equiv_pos_as_xyz
  1  'x, y, z'
loop_
 _atom_site_type_symbol
 _atom_site_label
 _atom_site_symmetry_multiplicity
 _atom_site_fract_x
 _atom_site_fract_y
 _atom_site_fract_z
 _atom_site_occupancy
  Er  Er0  1  0.250000  0.583109  0.708101  1
  Er  Er1  1  0.250000  0.916891  0.208101  1
  Er  Er2  1  0.750000  0.416891  0.291899  1
  Er  Er3  1  0.750000  0.083109  0.791899  1
  Mn  Mn4  1  0.250000  0.408992  0.492776  1
  Mn  Mn5  1  0.250000  0.091009  0.992776  1
  Mn  Mn6  1  0.750000  0.591008  0.507224  1
  Mn  Mn7  1  0.750000  0.908992  0.007224  1
  Mn  Mn8  1  0.250000  0.218019  0.177203  1
  Mn  Mn9  1  0.250000  0.281981  0.677203  1
  Mn  Mn10  1  0.750000  0.781981  0.822797  1
  Mn  Mn11  1  0.750000  0.718019  0.322797  1
  Mn  Mn12  1  0.250000  0.877957  0.697578  1
  Mn  Mn13  1  0.250000  0.622043  0.197578  1
  Mn  Mn14  1  0.750000  0.122043  0.302422  1
  Mn  Mn15  1  0.750000  0.377957  0.802422  1
  Cr  Cr16  1  0.250000  0.705907  0.986122  1
  Cr  Cr17  1  0.250000  0.794093  0.486122  1
  Cr  Cr18  1  0.750000  0.294093  0.013878  1
  Cr  Cr19  1  0.750000  0.205907  0.513878  1
  Fe  Fe20  1  0.250000  0.463024  0.933334  1
  Fe  Fe21  1  0.250000  0.036976  0.433334  1
  Fe  Fe22  1  0.750000  0.536976  0.066666  1
  Fe  Fe23  1  0.750000  0.963024  0.566666  1
  P  P24  1  0.250000  0.421447  0.111312  1
  P  P25  1  0.250000  0.078553  0.611312  1
  P  P26  1  0.750000  0.578553  0.888688  1
  P  P27  1  0.750000  0.921447  0.388688  1
  P  P28  1  0.250000  0.263833  0.872823  1
  P  P29  1  0.250000  0.236167  0.372823  1
  P  P30  1  0.750000  0.736167  0.127177  1
  P  P31  1  0.750000  0.763833  0.627177  1
  P  P32  1  0.250000  0.595084  0.386423  1
  P  P33  1  0.250000  0.904916  0.886423  1
  P  P34  1  0.750000  0.404916  0.613577  1
  P  P35  1  0.750000  0.095084  0.113577  1
