# generated using pymatgen
data_Ce3Sm3Dy10(CdRu)4
_symmetry_space_group_name_H-M   'P 1'
_cell_length_a   9.69783003
_cell_length_b   9.69783057
_cell_length_c   9.63009934
_cell_angle_alpha   59.76706645
_cell_angle_beta   59.76706833
_cell_angle_gamma   59.99999456
_symmetry_Int_Tables_number   1
_chemical_formula_structural   Ce3Sm3Dy10(CdRu)4
_chemical_formula_sum   'Ce3 Sm3 Dy10 Cd4 Ru4'
_cell_volume   638.15599391
_cell_formula_units_Z   1
loop_
 _symmetry_equiv_pos_site_id
 _symmetry_equiv_pos_as_xyz
  1  'x, y, z'
loop_
 _atom_site_type_symbol
 _atom_site_label
 _atom_site_symmetry_multiplicity
 _atom_site_fract_x
 _atom_site_fract_y
 _atom_site_fract_z
 _atom_site_occupancy
  Ce  Ce0  1  0.345446  0.967548  0.341561  1
  Ce  Ce1  1  0.967548  0.345446  0.341561  1
  Ce  Ce2  1  0.345446  0.345446  0.341561  1
  Sm  Sm3  1  0.562626  0.562626  0.936925  1
  Sm  Sm4  1  0.937822  0.562626  0.936925  1
  Sm  Sm5  1  0.562626  0.937822  0.936925  1
  Dy  Dy6  1  0.938946  0.938946  0.559630  1
  Dy  Dy7  1  0.562479  0.938946  0.559630  1
  Dy  Dy8  1  0.938946  0.562479  0.559630  1
  Dy  Dy9  1  0.187392  0.187392  0.813315  1
  Dy  Dy10  1  0.811900  0.187392  0.813315  1
  Dy  Dy11  1  0.187391  0.811901  0.813315  1
  Dy  Dy12  1  0.811412  0.811413  0.190086  1
  Dy  Dy13  1  0.187090  0.811412  0.190085  1
  Dy  Dy14  1  0.811412  0.187091  0.190086  1
  Dy  Dy15  1  0.350322  0.350322  0.949035  1
  Cd  Cd16  1  0.579698  0.579698  0.260905  1
  Cd  Cd17  1  0.581210  0.258975  0.578604  1
  Cd  Cd18  1  0.258975  0.581210  0.578604  1
  Cd  Cd19  1  0.581210  0.581210  0.578604  1
  Ru  Ru20  1  0.144583  0.144583  0.566252  1
  Ru  Ru21  1  0.138689  0.568138  0.154483  1
  Ru  Ru22  1  0.568138  0.138689  0.154483  1
  Ru  Ru23  1  0.138689  0.138689  0.154483  1
