# generated using pymatgen
data_Li3Pr3ZnSi4
_symmetry_space_group_name_H-M   'P 1'
_cell_length_a   4.40179696
_cell_length_b   6.81992978
_cell_length_c   8.38430731
_cell_angle_alpha   114.19199844
_cell_angle_beta   105.21859364
_cell_angle_gamma   89.99999412
_symmetry_Int_Tables_number   1
_chemical_formula_structural   Li3Pr3ZnSi4
_chemical_formula_sum   'Li3 Pr3 Zn1 Si4'
_cell_volume   219.87958937
_cell_formula_units_Z   1
loop_
 _symmetry_equiv_pos_site_id
 _symmetry_equiv_pos_as_xyz
  1  'x, y, z'
loop_
 _atom_site_type_symbol
 _atom_site_label
 _atom_site_symmetry_multiplicity
 _atom_site_fract_x
 _atom_site_fract_y
 _atom_site_fract_z
 _atom_site_occupancy
  Li  Li0  1  0.329921  0.019673  0.659844  1
  Li  Li1  1  0.328943  0.641192  0.657887  1
  Li  Li2  1  0.669819  0.360276  0.339638  1
  Pr  Pr3  1  0.000187  0.000196  0.000373  1
  Pr  Pr4  1  0.131709  0.627525  0.263419  1
  Pr  Pr5  1  0.870259  0.367661  0.740517  1
  Zn  Zn6  1  0.670398  0.978640  0.340794  1
  Si  Si7  1  0.501783  0.679580  0.003565  1
  Si  Si8  1  0.499899  0.323278  0.999799  1
  Si  Si9  1  0.784982  0.791757  0.569963  1
  Si  Si10  1  0.212100  0.210222  0.424202  1
