# generated using pymatgen
data_Sr6PuUO12
_symmetry_space_group_name_H-M   'P 1'
_cell_length_a   7.01029158
_cell_length_b   7.01029141
_cell_length_c   7.01029200
_cell_angle_alpha   92.74324402
_cell_angle_beta   92.74325214
_cell_angle_gamma   92.74325001
_symmetry_Int_Tables_number   1
_chemical_formula_structural   Sr6PuUO12
_chemical_formula_sum   'Sr6 Pu1 U1 O12'
_cell_volume   343.29142724
_cell_formula_units_Z   1
loop_
 _symmetry_equiv_pos_site_id
 _symmetry_equiv_pos_as_xyz
  1  'x, y, z'
loop_
 _atom_site_type_symbol
 _atom_site_label
 _atom_site_symmetry_multiplicity
 _atom_site_fract_x
 _atom_site_fract_y
 _atom_site_fract_z
 _atom_site_occupancy
  Sr  Sr0  1  0.062489  0.256020  0.563511  1
  Sr  Sr1  1  0.436489  0.937511  0.743980  1
  Sr  Sr2  1  0.743980  0.436489  0.937511  1
  Sr  Sr3  1  0.256020  0.563511  0.062489  1
  Sr  Sr4  1  0.563511  0.062489  0.256020  1
  Sr  Sr5  1  0.937511  0.743980  0.436489  1
  Pu  Pu6  1  0.500000  0.500000  0.500000  1
  U  U7  1  0.000000  0.000000  0.000000  1
  O  O8  1  0.062534  0.284733  0.933629  1
  O  O9  1  0.066371  0.937466  0.715267  1
  O  O10  1  0.457450  0.581784  0.781489  1
  O  O11  1  0.715267  0.066371  0.937466  1
  O  O12  1  0.218511  0.542550  0.418216  1
  O  O13  1  0.418216  0.218511  0.542550  1
  O  O14  1  0.581784  0.781489  0.457450  1
  O  O15  1  0.781489  0.457450  0.581784  1
  O  O16  1  0.284733  0.933629  0.062534  1
  O  O17  1  0.542550  0.418216  0.218511  1
  O  O18  1  0.933629  0.062534  0.284733  1
  O  O19  1  0.937466  0.715267  0.066371  1
