# generated using pymatgen
data_Yb(Zn2Ru)2
_symmetry_space_group_name_H-M   'P 1'
_cell_length_a   6.64575900
_cell_length_b   6.64575900
_cell_length_c   5.01211300
_cell_angle_alpha   90.00000000
_cell_angle_beta   90.00000000
_cell_angle_gamma   90.00000000
_symmetry_Int_Tables_number   1
_chemical_formula_structural   Yb(Zn2Ru)2
_chemical_formula_sum   'Yb2 Zn8 Ru4'
_cell_volume   221.36554755
_cell_formula_units_Z   2
loop_
 _symmetry_equiv_pos_site_id
 _symmetry_equiv_pos_as_xyz
  1  'x, y, z'
loop_
 _atom_site_type_symbol
 _atom_site_label
 _atom_site_symmetry_multiplicity
 _atom_site_fract_x
 _atom_site_fract_y
 _atom_site_fract_z
 _atom_site_occupancy
  Yb  Yb0  1  0.000000  0.500000  0.748993  1
  Yb  Yb1  1  0.500000  0.000000  0.251007  1
  Zn  Zn2  1  0.192369  0.692369  0.250301  1
  Zn  Zn3  1  0.807631  0.692369  0.250301  1
  Zn  Zn4  1  0.807631  0.307631  0.250301  1
  Zn  Zn5  1  0.307631  0.192369  0.749699  1
  Zn  Zn6  1  0.192369  0.307631  0.250301  1
  Zn  Zn7  1  0.692369  0.192369  0.749699  1
  Zn  Zn8  1  0.692369  0.807631  0.749699  1
  Zn  Zn9  1  0.307631  0.807631  0.749699  1
  Ru  Ru10  1  0.000000  0.000000  0.000000  1
  Ru  Ru11  1  0.500000  0.500000  0.000000  1
  Ru  Ru12  1  0.500000  0.500000  0.500000  1
  Ru  Ru13  1  0.000000  0.000000  0.500000  1
