# generated using pymatgen
data_TbPrMo2O7
_symmetry_space_group_name_H-M   'P 1'
_cell_length_a   7.46871760
_cell_length_b   7.57056443
_cell_length_c   7.46871836
_cell_angle_alpha   59.54788668
_cell_angle_beta   59.22116046
_cell_angle_gamma   59.54788236
_symmetry_Int_Tables_number   1
_chemical_formula_structural   TbPrMo2O7
_chemical_formula_sum   'Tb2 Pr2 Mo4 O14'
_cell_volume   294.79279054
_cell_formula_units_Z   2
loop_
 _symmetry_equiv_pos_site_id
 _symmetry_equiv_pos_as_xyz
  1  'x, y, z'
loop_
 _atom_site_type_symbol
 _atom_site_label
 _atom_site_symmetry_multiplicity
 _atom_site_fract_x
 _atom_site_fract_y
 _atom_site_fract_z
 _atom_site_occupancy
  Tb  Tb0  1  0.625000  0.125000  0.125000  1
  Tb  Tb1  1  0.125000  0.125000  0.625000  1
  Pr  Pr2  1  0.125000  0.125000  0.125000  1
  Pr  Pr3  1  0.125000  0.625000  0.125000  1
  Mo  Mo4  1  0.625000  0.625000  0.625000  1
  Mo  Mo5  1  0.125000  0.625000  0.625000  1
  Mo  Mo6  1  0.625000  0.625000  0.125000  1
  Mo  Mo7  1  0.625000  0.125000  0.625000  1
  O  O8  1  0.995783  0.004217  0.995783  1
  O  O9  1  0.254217  0.245783  0.254217  1
  O  O10  1  0.289270  0.290011  0.702917  1
  O  O11  1  0.547083  0.532198  0.960730  1
  O  O12  1  0.714722  0.285278  0.714722  1
  O  O13  1  0.702917  0.290011  0.289270  1
  O  O14  1  0.289270  0.717802  0.702917  1
  O  O15  1  0.291396  0.708604  0.291396  1
  O  O16  1  0.702917  0.717802  0.289270  1
  O  O17  1  0.960730  0.532198  0.547083  1
  O  O18  1  0.547083  0.959989  0.960730  1
  O  O19  1  0.960730  0.959989  0.547083  1
  O  O20  1  0.958604  0.541396  0.958604  1
  O  O21  1  0.535278  0.964722  0.535278  1
