# generated using pymatgen
data_SrSmNiPt9
_symmetry_space_group_name_H-M   'P 1'
_cell_length_a   4.38369200
_cell_length_b   5.49690100
_cell_length_c   9.19782700
_cell_angle_alpha   90.00000000
_cell_angle_beta   90.00000000
_cell_angle_gamma   90.00000000
_symmetry_Int_Tables_number   1
_chemical_formula_structural   SrSmNiPt9
_chemical_formula_sum   'Sr1 Sm1 Ni1 Pt9'
_cell_volume   221.63747046
_cell_formula_units_Z   1
loop_
 _symmetry_equiv_pos_site_id
 _symmetry_equiv_pos_as_xyz
  1  'x, y, z'
loop_
 _atom_site_type_symbol
 _atom_site_label
 _atom_site_symmetry_multiplicity
 _atom_site_fract_x
 _atom_site_fract_y
 _atom_site_fract_z
 _atom_site_occupancy
  Sr  Sr0  1  0.000000  0.000000  0.500000  1
  Sm  Sm1  1  0.000000  0.500000  0.000000  1
  Ni  Ni2  1  0.500000  0.000000  0.000000  1
  Pt  Pt3  1  0.000000  0.500000  0.327283  1
  Pt  Pt4  1  0.000000  0.000000  0.845637  1
  Pt  Pt5  1  0.000000  0.000000  0.154363  1
  Pt  Pt6  1  0.000000  0.500000  0.672717  1
  Pt  Pt7  1  0.500000  0.500000  0.500000  1
  Pt  Pt8  1  0.500000  0.748523  0.237154  1
  Pt  Pt9  1  0.500000  0.251477  0.762846  1
  Pt  Pt10  1  0.500000  0.251477  0.237154  1
  Pt  Pt11  1  0.500000  0.748523  0.762846  1
