# generated using pymatgen
data_Tb8Ti3Si16Mo9
_symmetry_space_group_name_H-M   'P 1'
_cell_length_a   6.92970671
_cell_length_b   6.92970671
_cell_length_c   12.86124293
_cell_angle_alpha   89.96877979
_cell_angle_beta   90.03122021
_cell_angle_gamma   89.78283333
_symmetry_Int_Tables_number   1
_chemical_formula_structural   Tb8Ti3Si16Mo9
_chemical_formula_sum   'Tb8 Ti3 Si16 Mo9'
_cell_volume   617.60300528
_cell_formula_units_Z   1
loop_
 _symmetry_equiv_pos_site_id
 _symmetry_equiv_pos_as_xyz
  1  'x, y, z'
loop_
 _atom_site_type_symbol
 _atom_site_label
 _atom_site_symmetry_multiplicity
 _atom_site_fract_x
 _atom_site_fract_y
 _atom_site_fract_z
 _atom_site_occupancy
  Tb  Tb0  1  0.340088  0.002832  0.468477  1
  Tb  Tb1  1  0.495683  0.839468  0.719027  1
  Tb  Tb2  1  0.500511  0.160985  0.217248  1
  Tb  Tb3  1  0.839468  0.495683  0.280973  1
  Tb  Tb4  1  0.160985  0.500511  0.782752  1
  Tb  Tb5  1  0.659104  0.998328  0.968628  1
  Tb  Tb6  1  0.002832  0.340088  0.531523  1
  Tb  Tb7  1  0.998328  0.659104  0.031372  1
  Ti  Ti8  1  0.171763  0.830435  0.248476  1
  Ti  Ti9  1  0.830435  0.171763  0.751524  1
  Ti  Ti10  1  0.669700  0.669700  0.500000  1
  Si  Si11  1  0.199068  0.128799  0.684716  1
  Si  Si12  1  0.374229  0.695669  0.935392  1
  Si  Si13  1  0.628284  0.300330  0.434709  1
  Si  Si14  1  0.695669  0.374229  0.064608  1
  Si  Si15  1  0.300330  0.628284  0.565291  1
  Si  Si16  1  0.798099  0.872104  0.185172  1
  Si  Si17  1  0.128799  0.199068  0.315284  1
  Si  Si18  1  0.872104  0.798099  0.814828  1
  Si  Si19  1  0.286693  0.963283  0.061550  1
  Si  Si20  1  0.540982  0.789794  0.313703  1
  Si  Si21  1  0.457496  0.212062  0.814927  1
  Si  Si22  1  0.789794  0.540982  0.686297  1
  Si  Si23  1  0.212062  0.457496  0.185073  1
  Si  Si24  1  0.711617  0.041951  0.563827  1
  Si  Si25  1  0.963283  0.286693  0.938450  1
  Si  Si26  1  0.041951  0.711617  0.436173  1
  Mo  Mo27  1  0.331085  0.331085  0.000000  1
  Mo  Mo28  1  0.155859  0.002206  0.873213  1
  Mo  Mo29  1  0.494504  0.665910  0.125622  1
  Mo  Mo30  1  0.506710  0.340799  0.625100  1
  Mo  Mo31  1  0.665910  0.494504  0.874378  1
  Mo  Mo32  1  0.340799  0.506710  0.374900  1
  Mo  Mo33  1  0.840648  0.992923  0.374594  1
  Mo  Mo34  1  0.002206  0.155859  0.126787  1
  Mo  Mo35  1  0.992923  0.840648  0.625406  1
