# generated using pymatgen
data_Ca(PrPb)4
_symmetry_space_group_name_H-M   'P 1'
_cell_length_a   8.34879800
_cell_length_b   8.56913000
_cell_length_c   16.38997800
_cell_angle_alpha   90.00000000
_cell_angle_beta   90.00000000
_cell_angle_gamma   90.00000000
_symmetry_Int_Tables_number   1
_chemical_formula_structural   Ca(PrPb)4
_chemical_formula_sum   'Ca4 Pr16 Pb16'
_cell_volume   1172.57074738
_cell_formula_units_Z   4
loop_
 _symmetry_equiv_pos_site_id
 _symmetry_equiv_pos_as_xyz
  1  'x, y, z'
loop_
 _atom_site_type_symbol
 _atom_site_label
 _atom_site_symmetry_multiplicity
 _atom_site_fract_x
 _atom_site_fract_y
 _atom_site_fract_z
 _atom_site_occupancy
  Ca  Ca0  1  0.806482  0.498244  0.750000  1
  Ca  Ca1  1  0.306482  0.001756  0.750000  1
  Ca  Ca2  1  0.193518  0.501756  0.250000  1
  Ca  Ca3  1  0.693518  0.998244  0.250000  1
  Pr  Pr4  1  0.638592  0.161652  0.622256  1
  Pr  Pr5  1  0.138592  0.338348  0.877744  1
  Pr  Pr6  1  0.361408  0.838348  0.122256  1
  Pr  Pr7  1  0.861408  0.661652  0.377744  1
  Pr  Pr8  1  0.361408  0.838348  0.377744  1
  Pr  Pr9  1  0.861408  0.661652  0.122256  1
  Pr  Pr10  1  0.638592  0.161652  0.877744  1
  Pr  Pr11  1  0.138592  0.338348  0.622256  1
  Pr  Pr12  1  0.489171  0.685236  0.594723  1
  Pr  Pr13  1  0.989171  0.814764  0.905277  1
  Pr  Pr14  1  0.510829  0.314764  0.094723  1
  Pr  Pr15  1  0.010829  0.185236  0.405277  1
  Pr  Pr16  1  0.510829  0.314764  0.405277  1
  Pr  Pr17  1  0.010829  0.185236  0.094723  1
  Pr  Pr18  1  0.489171  0.685236  0.905277  1
  Pr  Pr19  1  0.989171  0.814764  0.594723  1
  Pb  Pb20  1  0.703174  0.959980  0.459928  1
  Pb  Pb21  1  0.203174  0.540020  0.040072  1
  Pb  Pb22  1  0.296826  0.040020  0.959928  1
  Pb  Pb23  1  0.796826  0.459980  0.540072  1
  Pb  Pb24  1  0.296826  0.040020  0.540072  1
  Pb  Pb25  1  0.796826  0.459980  0.959928  1
  Pb  Pb26  1  0.703174  0.959980  0.040072  1
  Pb  Pb27  1  0.203174  0.540020  0.459928  1
  Pb  Pb28  1  0.443183  0.389689  0.750000  1
  Pb  Pb29  1  0.943183  0.110311  0.750000  1
  Pb  Pb30  1  0.556817  0.610311  0.250000  1
  Pb  Pb31  1  0.056817  0.889689  0.250000  1
  Pb  Pb32  1  0.677113  0.851827  0.750000  1
  Pb  Pb33  1  0.177113  0.648173  0.750000  1
  Pb  Pb34  1  0.322887  0.148173  0.250000  1
  Pb  Pb35  1  0.822887  0.351827  0.250000  1
