# generated using pymatgen
data_Nd5(B3Ru)2
_symmetry_space_group_name_H-M   'P 1'
_cell_length_a   5.60594742
_cell_length_b   5.60594709
_cell_length_c   8.78328727
_cell_angle_alpha   71.38992092
_cell_angle_beta   71.38992229
_cell_angle_gamma   60.00000727
_symmetry_Int_Tables_number   1
_chemical_formula_structural   Nd5(B3Ru)2
_chemical_formula_sum   'Nd5 B6 Ru2'
_cell_volume   222.22646104
_cell_formula_units_Z   1
loop_
 _symmetry_equiv_pos_site_id
 _symmetry_equiv_pos_as_xyz
  1  'x, y, z'
loop_
 _atom_site_type_symbol
 _atom_site_label
 _atom_site_symmetry_multiplicity
 _atom_site_fract_x
 _atom_site_fract_y
 _atom_site_fract_z
 _atom_site_occupancy
  Nd  Nd0  1  0.000000  0.000000  0.000000  1
  Nd  Nd1  1  0.249441  0.249441  0.251675  1
  Nd  Nd2  1  0.750559  0.750559  0.748325  1
  Nd  Nd3  1  0.417133  0.417133  0.748600  1
  Nd  Nd4  1  0.582867  0.582867  0.251400  1
  B  B5  1  0.172274  0.827726  0.500000  1
  B  B6  1  0.827726  0.500000  0.500000  1
  B  B7  1  0.500000  0.172274  0.500000  1
  B  B8  1  0.172274  0.500000  0.500000  1
  B  B9  1  0.500000  0.827726  0.500000  1
  B  B10  1  0.827726  0.172274  0.500000  1
  Ru  Ru11  1  0.116354  0.116354  0.650937  1
  Ru  Ru12  1  0.883646  0.883646  0.349063  1
