# generated using pymatgen
data_Na4NpUTe6
_symmetry_space_group_name_H-M   'P 1'
_cell_length_a   7.80195149
_cell_length_b   7.80195088
_cell_length_c   7.91307714
_cell_angle_alpha   80.42650438
_cell_angle_beta   80.42649355
_cell_angle_gamma   119.72407916
_symmetry_Int_Tables_number   1
_chemical_formula_structural   Na4NpUTe6
_chemical_formula_sum   'Na4 Np1 U1 Te6'
_cell_volume   394.68062953
_cell_formula_units_Z   1
loop_
 _symmetry_equiv_pos_site_id
 _symmetry_equiv_pos_as_xyz
  1  'x, y, z'
loop_
 _atom_site_type_symbol
 _atom_site_label
 _atom_site_symmetry_multiplicity
 _atom_site_fract_x
 _atom_site_fract_y
 _atom_site_fract_z
 _atom_site_occupancy
  Na  Na0  1  0.340185  0.659815  0.500000  1
  Na  Na1  1  0.659588  0.340412  0.500000  1
  Na  Na2  1  0.999915  0.000085  0.500000  1
  Na  Na3  1  0.500238  0.499762  0.000000  1
  Np  Np4  1  0.166646  0.833354  0.000000  1
  U  U5  1  0.832699  0.167301  0.000000  1
  Te  Te6  1  0.771530  0.777739  0.232828  1
  Te  Te7  1  0.428331  0.070647  0.232838  1
  Te  Te8  1  0.065558  0.416305  0.231365  1
  Te  Te9  1  0.583695  0.934442  0.768635  1
  Te  Te10  1  0.929353  0.571669  0.767162  1
  Te  Te11  1  0.222261  0.228470  0.767172  1
