# generated using pymatgen
data_Y4Er4Re3B24Rh
_symmetry_space_group_name_H-M   'P 1'
_cell_length_a   3.66910000
_cell_length_b   9.14936036
_cell_length_c   11.53729013
_cell_angle_alpha   90.14846870
_cell_angle_beta   90.00000000
_cell_angle_gamma   90.00000000
_symmetry_Int_Tables_number   1
_chemical_formula_structural   Y4Er4Re3B24Rh
_chemical_formula_sum   'Y4 Er4 Re3 B24 Rh1'
_cell_volume   387.30458427
_cell_formula_units_Z   1
loop_
 _symmetry_equiv_pos_site_id
 _symmetry_equiv_pos_as_xyz
  1  'x, y, z'
loop_
 _atom_site_type_symbol
 _atom_site_label
 _atom_site_symmetry_multiplicity
 _atom_site_fract_x
 _atom_site_fract_y
 _atom_site_fract_z
 _atom_site_occupancy
  Y  Y0  1  0.000000  0.318157  0.415497  1
  Y  Y1  1  0.000000  0.678470  0.590981  1
  Y  Y2  1  0.000000  0.826642  0.081576  1
  Y  Y3  1  0.000000  0.177675  0.912756  1
  Er  Er4  1  0.000000  0.943432  0.370133  1
  Er  Er5  1  0.000000  0.055855  0.628948  1
  Er  Er6  1  0.000000  0.441347  0.128916  1
  Er  Er7  1  0.000000  0.556652  0.871576  1
  Re  Re8  1  0.000000  0.362163  0.678153  1
  Re  Re9  1  0.000000  0.138662  0.180420  1
  Re  Re10  1  0.000000  0.861310  0.820426  1
  B  B11  1  0.500000  0.554237  0.433454  1
  B  B12  1  0.500000  0.446443  0.566825  1
  B  B13  1  0.500000  0.053743  0.066866  1
  B  B14  1  0.500000  0.946891  0.932425  1
  B  B15  1  0.500000  0.749488  0.419964  1
  B  B16  1  0.500000  0.250072  0.581216  1
  B  B17  1  0.500000  0.249838  0.081570  1
  B  B18  1  0.500000  0.751191  0.918667  1
  B  B19  1  0.500000  0.791229  0.265256  1
  B  B20  1  0.500000  0.208203  0.733925  1
  B  B21  1  0.500000  0.292035  0.235072  1
  B  B22  1  0.500000  0.707922  0.766035  1
  B  B23  1  0.500000  0.631509  0.184064  1
  B  B24  1  0.500000  0.369753  0.814205  1
  B  B25  1  0.500000  0.130420  0.314997  1
  B  B26  1  0.500000  0.868835  0.685373  1
  B  B27  1  0.500000  0.982927  0.212297  1
  B  B28  1  0.500000  0.017366  0.786704  1
  B  B29  1  0.500000  0.483305  0.287662  1
  B  B30  1  0.500000  0.518107  0.712724  1
  B  B31  1  0.500000  0.603073  0.029186  1
  B  B32  1  0.500000  0.398255  0.972381  1
  B  B33  1  0.500000  0.100854  0.471320  1
  B  B34  1  0.500000  0.895800  0.527968  1
  Rh  Rh35  1  0.000000  0.638138  0.320461  1
