# generated using pymatgen
data_LiEr2Pa2Zn3Rh4
_symmetry_space_group_name_H-M   'P 1'
_cell_length_a   3.80197200
_cell_length_b   7.10746527
_cell_length_c   8.41099012
_cell_angle_alpha   92.22233455
_cell_angle_beta   90.00000000
_cell_angle_gamma   90.00000000
_symmetry_Int_Tables_number   1
_chemical_formula_structural   LiEr2Pa2Zn3Rh4
_chemical_formula_sum   'Li1 Er2 Pa2 Zn3 Rh4'
_cell_volume   227.11405797
_cell_formula_units_Z   1
loop_
 _symmetry_equiv_pos_site_id
 _symmetry_equiv_pos_as_xyz
  1  'x, y, z'
loop_
 _atom_site_type_symbol
 _atom_site_label
 _atom_site_symmetry_multiplicity
 _atom_site_fract_x
 _atom_site_fract_y
 _atom_site_fract_z
 _atom_site_occupancy
  Li  Li0  1  0.250000  0.623852  0.554330  1
  Er  Er1  1  0.750000  0.944409  0.686246  1
  Er  Er2  1  0.250000  0.058880  0.315242  1
  Pa  Pa3  1  0.250000  0.548862  0.193482  1
  Pa  Pa4  1  0.750000  0.451647  0.807269  1
  Zn  Zn5  1  0.750000  0.372792  0.443587  1
  Zn  Zn6  1  0.750000  0.885061  0.062449  1
  Zn  Zn7  1  0.250000  0.115124  0.936951  1
  Rh  Rh8  1  0.250000  0.717354  0.882346  1
  Rh  Rh9  1  0.750000  0.282388  0.119453  1
  Rh  Rh10  1  0.750000  0.748771  0.354485  1
  Rh  Rh11  1  0.250000  0.250861  0.644161  1
