# generated using pymatgen
data_HoSiTc2C
_symmetry_space_group_name_H-M   'P 1'
_cell_length_a   5.82877742
_cell_length_b   5.82877938
_cell_length_c   7.23849100
_cell_angle_alpha   90.00000000
_cell_angle_beta   90.00000000
_cell_angle_gamma   140.97340219
_symmetry_Int_Tables_number   1
_chemical_formula_structural   HoSiTc2C
_chemical_formula_sum   'Ho2 Si2 Tc4 C2'
_cell_volume   154.85448163
_cell_formula_units_Z   2
loop_
 _symmetry_equiv_pos_site_id
 _symmetry_equiv_pos_as_xyz
  1  'x, y, z'
loop_
 _atom_site_type_symbol
 _atom_site_label
 _atom_site_symmetry_multiplicity
 _atom_site_fract_x
 _atom_site_fract_y
 _atom_site_fract_z
 _atom_site_occupancy
  Ho  Ho0  1  0.544347  0.455653  0.250000  1
  Ho  Ho1  1  0.455653  0.544347  0.750000  1
  Si  Si2  1  0.268279  0.731721  0.250000  1
  Si  Si3  1  0.731721  0.268279  0.750000  1
  Tc  Tc4  1  0.828926  0.171074  0.060080  1
  Tc  Tc5  1  0.171074  0.828926  0.939920  1
  Tc  Tc6  1  0.171074  0.828926  0.560080  1
  Tc  Tc7  1  0.828926  0.171074  0.439920  1
  C  C8  1  0.000000  0.000000  0.000000  1
  C  C9  1  0.000000  0.000000  0.500000  1
