# generated using pymatgen
data_La4Ga4GeRh9
_symmetry_space_group_name_H-M   'P 1'
_cell_length_a   12.28655269
_cell_length_b   12.28655286
_cell_length_c   12.28655316
_cell_angle_alpha   26.69725256
_cell_angle_beta   26.69725015
_cell_angle_gamma   26.69725320
_symmetry_Int_Tables_number   1
_chemical_formula_structural   La4Ga4GeRh9
_chemical_formula_sum   'La4 Ga4 Ge1 Rh9'
_cell_volume   330.08663603
_cell_formula_units_Z   1
loop_
 _symmetry_equiv_pos_site_id
 _symmetry_equiv_pos_as_xyz
  1  'x, y, z'
loop_
 _atom_site_type_symbol
 _atom_site_label
 _atom_site_symmetry_multiplicity
 _atom_site_fract_x
 _atom_site_fract_y
 _atom_site_fract_z
 _atom_site_occupancy
  La  La0  1  0.949850  0.949850  0.949850  1
  La  La1  1  0.853413  0.853413  0.853413  1
  La  La2  1  0.146587  0.146587  0.146587  1
  La  La3  1  0.050150  0.050150  0.050150  1
  Ga  Ga4  1  0.278129  0.278129  0.278129  1
  Ga  Ga5  1  0.388250  0.388250  0.388250  1
  Ga  Ga6  1  0.721871  0.721871  0.721871  1
  Ga  Ga7  1  0.611750  0.611750  0.611750  1
  Ge  Ge8  1  0.500000  0.500000  0.500000  1
  Rh  Rh9  1  0.610817  0.610817  0.108574  1
  Rh  Rh10  1  0.891426  0.389183  0.389183  1
  Rh  Rh11  1  0.500000  0.000000  0.500000  1
  Rh  Rh12  1  0.389183  0.891426  0.389183  1
  Rh  Rh13  1  0.500000  0.500000  0.000000  1
  Rh  Rh14  1  0.108574  0.610817  0.610817  1
  Rh  Rh15  1  0.000000  0.500000  0.500000  1
  Rh  Rh16  1  0.389183  0.389183  0.891426  1
  Rh  Rh17  1  0.610817  0.108574  0.610817  1
