# generated using pymatgen
data_La8Yb3Y9Si16
_symmetry_space_group_name_H-M   'P 1'
_cell_length_a   7.54056702
_cell_length_b   7.92043302
_cell_length_c   15.08699600
_cell_angle_alpha   90.00000000
_cell_angle_beta   90.00000000
_cell_angle_gamma   89.99159589
_symmetry_Int_Tables_number   1
_chemical_formula_structural   La8Yb3Y9Si16
_chemical_formula_sum   'La8 Yb3 Y9 Si16'
_cell_volume   901.06412819
_cell_formula_units_Z   1
loop_
 _symmetry_equiv_pos_site_id
 _symmetry_equiv_pos_as_xyz
  1  'x, y, z'
loop_
 _atom_site_type_symbol
 _atom_site_label
 _atom_site_symmetry_multiplicity
 _atom_site_fract_x
 _atom_site_fract_y
 _atom_site_fract_z
 _atom_site_occupancy
  La  La0  1  0.022892  0.180891  0.400825  1
  La  La1  1  0.523265  0.319848  0.400531  1
  La  La2  1  0.479573  0.680801  0.900461  1
  La  La3  1  0.479573  0.680801  0.599539  1
  La  La4  1  0.977476  0.822266  0.598465  1
  La  La5  1  0.977476  0.822266  0.901535  1
  La  La6  1  0.523265  0.319848  0.099469  1
  La  La7  1  0.022892  0.180891  0.099175  1
  Yb  Yb8  1  0.656912  0.987598  0.750000  1
  Yb  Yb9  1  0.844204  0.488684  0.250000  1
  Yb  Yb10  1  0.343739  0.011222  0.250000  1
  Y  Y11  1  0.325486  0.179913  0.623586  1
  Y  Y12  1  0.675840  0.817951  0.377107  1
  Y  Y13  1  0.174793  0.681414  0.377495  1
  Y  Y14  1  0.822496  0.317368  0.876838  1
  Y  Y15  1  0.822496  0.317368  0.623162  1
  Y  Y16  1  0.325486  0.179913  0.876414  1
  Y  Y17  1  0.174793  0.681414  0.122505  1
  Y  Y18  1  0.675840  0.817951  0.122893  1
  Y  Y19  1  0.155693  0.510369  0.750000  1
  Si  Si20  1  0.265432  0.883129  0.750000  1
  Si  Si21  1  0.464526  0.609628  0.250000  1
  Si  Si22  1  0.035641  0.115693  0.750000  1
  Si  Si23  1  0.529453  0.393983  0.750000  1
  Si  Si24  1  0.146453  0.469451  0.539206  1
  Si  Si25  1  0.965070  0.889418  0.250000  1
  Si  Si26  1  0.732922  0.108721  0.250000  1
  Si  Si27  1  0.852236  0.531426  0.034826  1
  Si  Si28  1  0.351773  0.966924  0.034953  1
  Si  Si29  1  0.146453  0.469451  0.960794  1
  Si  Si30  1  0.646629  0.032861  0.534519  1
  Si  Si31  1  0.351773  0.966924  0.465047  1
  Si  Si32  1  0.852236  0.531426  0.465174  1
  Si  Si33  1  0.776157  0.608455  0.750000  1
  Si  Si34  1  0.232426  0.390875  0.250000  1
  Si  Si35  1  0.646629  0.032861  0.965481  1
