# generated using pymatgen
data_Ho11Sc(Si3Au)4
_symmetry_space_group_name_H-M   'P 1'
_cell_length_a   4.20095500
_cell_length_b   10.93503196
_cell_length_c   12.32241405
_cell_angle_alpha   89.98437157
_cell_angle_beta   90.00000000
_cell_angle_gamma   90.00000000
_symmetry_Int_Tables_number   1
_chemical_formula_structural   Ho11Sc(Si3Au)4
_chemical_formula_sum   'Ho11 Sc1 Si12 Au4'
_cell_volume   566.06182536
_cell_formula_units_Z   1
loop_
 _symmetry_equiv_pos_site_id
 _symmetry_equiv_pos_as_xyz
  1  'x, y, z'
loop_
 _atom_site_type_symbol
 _atom_site_label
 _atom_site_symmetry_multiplicity
 _atom_site_fract_x
 _atom_site_fract_y
 _atom_site_fract_z
 _atom_site_occupancy
  Ho  Ho0  1  0.250000  0.877139  0.019311  1
  Ho  Ho1  1  0.250000  0.623643  0.519934  1
  Ho  Ho2  1  0.750000  0.123752  0.976727  1
  Ho  Ho3  1  0.750000  0.374771  0.481811  1
  Ho  Ho4  1  0.250000  0.924075  0.601707  1
  Ho  Ho5  1  0.250000  0.576987  0.100808  1
  Ho  Ho6  1  0.750000  0.077573  0.402364  1
  Ho  Ho7  1  0.750000  0.422063  0.897080  1
  Ho  Ho8  1  0.250000  0.663487  0.802543  1
  Ho  Ho9  1  0.250000  0.837483  0.302809  1
  Ho  Ho10  1  0.750000  0.334917  0.197517  1
  Sc  Sc11  1  0.750000  0.163589  0.698585  1
  Si  Si12  1  0.250000  0.027639  0.822770  1
  Si  Si13  1  0.250000  0.473161  0.325714  1
  Si  Si14  1  0.750000  0.975352  0.174397  1
  Si  Si15  1  0.750000  0.526300  0.674374  1
  Si  Si16  1  0.250000  0.245591  0.843299  1
  Si  Si17  1  0.250000  0.252171  0.350458  1
  Si  Si18  1  0.750000  0.753818  0.152433  1
  Si  Si19  1  0.750000  0.746882  0.652198  1
  Si  Si20  1  0.250000  0.184226  0.543081  1
  Si  Si21  1  0.250000  0.314920  0.033631  1
  Si  Si22  1  0.750000  0.815431  0.464775  1
  Si  Si23  1  0.750000  0.684448  0.964509  1
  Au  Au24  1  0.250000  0.386970  0.681179  1
  Au  Au25  1  0.250000  0.111964  0.181716  1
  Au  Au26  1  0.750000  0.610977  0.318250  1
  Au  Au27  1  0.750000  0.890672  0.816019  1
