# generated using pymatgen
data_Ta8CoSi2P
_symmetry_space_group_name_H-M   'P 1'
_cell_length_a   4.98700300
_cell_length_b   6.19766400
_cell_length_c   6.19766400
_cell_angle_alpha   90.00000000
_cell_angle_beta   90.00000000
_cell_angle_gamma   90.00000000
_symmetry_Int_Tables_number   1
_chemical_formula_structural   Ta8CoSi2P
_chemical_formula_sum   'Ta8 Co1 Si2 P1'
_cell_volume   191.55596701
_cell_formula_units_Z   1
loop_
 _symmetry_equiv_pos_site_id
 _symmetry_equiv_pos_as_xyz
  1  'x, y, z'
loop_
 _atom_site_type_symbol
 _atom_site_label
 _atom_site_symmetry_multiplicity
 _atom_site_fract_x
 _atom_site_fract_y
 _atom_site_fract_z
 _atom_site_occupancy
  Ta  Ta0  1  0.498470  0.655709  0.166664  1
  Ta  Ta1  1  0.498470  0.344291  0.833336  1
  Ta  Ta2  1  0.498470  0.833336  0.655709  1
  Ta  Ta3  1  0.498470  0.166664  0.344291  1
  Ta  Ta4  1  0.001530  0.344291  0.166664  1
  Ta  Ta5  1  0.001530  0.655709  0.833336  1
  Ta  Ta6  1  0.001530  0.166664  0.655709  1
  Ta  Ta7  1  0.001530  0.833336  0.344291  1
  Co  Co8  1  0.250000  0.500000  0.500000  1
  Si  Si9  1  0.250000  0.000000  0.000000  1
  Si  Si10  1  0.750000  0.000000  0.000000  1
  P  P11  1  0.750000  0.500000  0.500000  1
