# generated using pymatgen
data_Ca11Nd(SiRh)8
_symmetry_space_group_name_H-M   'P 1'
_cell_length_a   5.80006514
_cell_length_b   7.69854294
_cell_length_c   13.39621200
_cell_angle_alpha   90.00000000
_cell_angle_beta   90.00000000
_cell_angle_gamma   89.98158514
_symmetry_Int_Tables_number   1
_chemical_formula_structural   Ca11Nd(SiRh)8
_chemical_formula_sum   'Ca11 Nd1 Si8 Rh8'
_cell_volume   598.16830467
_cell_formula_units_Z   1
loop_
 _symmetry_equiv_pos_site_id
 _symmetry_equiv_pos_as_xyz
  1  'x, y, z'
loop_
 _atom_site_type_symbol
 _atom_site_label
 _atom_site_symmetry_multiplicity
 _atom_site_fract_x
 _atom_site_fract_y
 _atom_site_fract_z
 _atom_site_occupancy
  Ca  Ca0  1  0.133125  0.608468  0.100753  1
  Ca  Ca1  1  0.135342  0.896379  0.900899  1
  Ca  Ca2  1  0.865841  0.107964  0.397731  1
  Ca  Ca3  1  0.870493  0.386486  0.599168  1
  Ca  Ca4  1  0.870493  0.386486  0.900832  1
  Ca  Ca5  1  0.865841  0.107964  0.102269  1
  Ca  Ca6  1  0.135342  0.896379  0.599101  1
  Ca  Ca7  1  0.133125  0.608468  0.399247  1
  Ca  Ca8  1  0.363433  0.268713  0.250000  1
  Ca  Ca9  1  0.364294  0.237043  0.750000  1
  Ca  Ca10  1  0.636479  0.768180  0.250000  1
  Nd  Nd11  1  0.634656  0.729437  0.750000  1
  Si  Si12  1  0.837331  0.418765  0.250000  1
  Si  Si13  1  0.838616  0.086115  0.750000  1
  Si  Si14  1  0.162509  0.917444  0.250000  1
  Si  Si15  1  0.148768  0.588309  0.750000  1
  Si  Si16  1  0.409945  0.248893  0.998847  1
  Si  Si17  1  0.588752  0.748938  0.499027  1
  Si  Si18  1  0.588752  0.748938  0.000973  1
  Si  Si19  1  0.409945  0.248893  0.501153  1
  Rh  Rh20  1  0.634590  0.472346  0.089505  1
  Rh  Rh21  1  0.637393  0.022732  0.909561  1
  Rh  Rh22  1  0.366961  0.973937  0.409144  1
  Rh  Rh23  1  0.364515  0.526857  0.590937  1
  Rh  Rh24  1  0.364515  0.526857  0.909063  1
  Rh  Rh25  1  0.366961  0.973937  0.090856  1
  Rh  Rh26  1  0.637393  0.022732  0.590439  1
  Rh  Rh27  1  0.634590  0.472346  0.410495  1
