# generated using pymatgen
data_Ta3Ti2Nb3O12
_symmetry_space_group_name_H-M   'P 1'
_cell_length_a   6.69034442
_cell_length_b   6.69043202
_cell_length_c   6.69030712
_cell_angle_alpha   73.13461197
_cell_angle_beta   73.13350213
_cell_angle_gamma   73.13314073
_symmetry_Int_Tables_number   1
_chemical_formula_structural   Ta3Ti2Nb3O12
_chemical_formula_sum   'Ta3 Ti2 Nb3 O12'
_cell_volume   267.23228352
_cell_formula_units_Z   1
loop_
 _symmetry_equiv_pos_site_id
 _symmetry_equiv_pos_as_xyz
  1  'x, y, z'
loop_
 _atom_site_type_symbol
 _atom_site_label
 _atom_site_symmetry_multiplicity
 _atom_site_fract_x
 _atom_site_fract_y
 _atom_site_fract_z
 _atom_site_occupancy
  Ta  Ta0  1  0.295874  0.881148  0.053880  1
  Ta  Ta1  1  0.053873  0.295875  0.881156  1
  Ta  Ta2  1  0.881155  0.053876  0.295875  1
  Ti  Ti3  1  0.726882  0.726875  0.726881  1
  Ti  Ti4  1  0.274020  0.274025  0.274019  1
  Nb  Nb5  1  0.703864  0.116796  0.944834  1
  Nb  Nb6  1  0.944838  0.703864  0.116796  1
  Nb  Nb7  1  0.116796  0.944834  0.703862  1
  O  O8  1  0.201909  0.964394  0.349158  1
  O  O9  1  0.349158  0.201908  0.964395  1
  O  O10  1  0.964396  0.349157  0.201908  1
  O  O11  1  0.799053  0.036091  0.643541  1
  O  O12  1  0.643543  0.799055  0.036090  1
  O  O13  1  0.036090  0.643545  0.799051  1
  O  O14  1  0.741152  0.430591  0.831270  1
  O  O15  1  0.831264  0.741154  0.430590  1
  O  O16  1  0.430593  0.831266  0.741149  1
  O  O17  1  0.265337  0.571551  0.168659  1
  O  O18  1  0.168654  0.265337  0.571549  1
  O  O19  1  0.571549  0.168658  0.265337  1
