# generated using pymatgen
data_CdCuOs3Pb3O14
_symmetry_space_group_name_H-M   'P 1'
_cell_length_a   7.47013999
_cell_length_b   7.42279600
_cell_length_c   7.41099054
_cell_angle_alpha   58.98664815
_cell_angle_beta   59.73563352
_cell_angle_gamma   59.78879308
_symmetry_Int_Tables_number   1
_chemical_formula_structural   CdCuOs3Pb3O14
_chemical_formula_sum   'Cd1 Cu1 Os3 Pb3 O14'
_cell_volume   287.25919717
_cell_formula_units_Z   1
loop_
 _symmetry_equiv_pos_site_id
 _symmetry_equiv_pos_as_xyz
  1  'x, y, z'
loop_
 _atom_site_type_symbol
 _atom_site_label
 _atom_site_symmetry_multiplicity
 _atom_site_fract_x
 _atom_site_fract_y
 _atom_site_fract_z
 _atom_site_occupancy
  Cd  Cd0  1  0.125000  0.125000  0.625000  1
  Cu  Cu1  1  0.625000  0.125000  0.625000  1
  Os  Os2  1  0.625000  0.625000  0.625000  1
  Os  Os3  1  0.125000  0.625000  0.625000  1
  Os  Os4  1  0.625000  0.625000  0.125000  1
  Pb  Pb5  1  0.125000  0.125000  0.125000  1
  Pb  Pb6  1  0.625000  0.125000  0.125000  1
  Pb  Pb7  1  0.125000  0.625000  0.125000  1
  O  O8  1  0.240508  0.240739  0.278246  1
  O  O9  1  0.009492  0.009261  0.971754  1
  O  O10  1  0.554669  0.927174  0.553970  1
  O  O11  1  0.305361  0.684998  0.301950  1
  O  O12  1  0.542309  0.565002  0.948050  1
  O  O13  1  0.941222  0.578208  0.539348  1
  O  O14  1  0.554865  0.932326  0.957944  1
  O  O15  1  0.964185  0.927174  0.553970  1
  O  O16  1  0.944639  0.565002  0.948050  1
  O  O17  1  0.695135  0.317674  0.292056  1
  O  O18  1  0.308778  0.671792  0.710652  1
  O  O19  1  0.695331  0.322826  0.696030  1
  O  O20  1  0.285815  0.322826  0.696030  1
  O  O21  1  0.707691  0.684998  0.301950  1
