# generated using pymatgen
data_YbSb2Pb5O11
_symmetry_space_group_name_H-M   'P 1'
_cell_length_a   7.42029561
_cell_length_b   7.42029560
_cell_length_c   11.36022800
_cell_angle_alpha   90.00000000
_cell_angle_beta   90.00000000
_cell_angle_gamma   103.27020018
_symmetry_Int_Tables_number   1
_chemical_formula_structural   YbSb2Pb5O11
_chemical_formula_sum   'Yb2 Sb4 Pb10 O22'
_cell_volume   608.80115337
_cell_formula_units_Z   2
loop_
 _symmetry_equiv_pos_site_id
 _symmetry_equiv_pos_as_xyz
  1  'x, y, z'
loop_
 _atom_site_type_symbol
 _atom_site_label
 _atom_site_symmetry_multiplicity
 _atom_site_fract_x
 _atom_site_fract_y
 _atom_site_fract_z
 _atom_site_occupancy
  Yb  Yb0  1  0.583345  0.416655  0.250000  1
  Yb  Yb1  1  0.416655  0.583345  0.750000  1
  Sb  Sb2  1  0.676278  0.676278  0.500000  1
  Sb  Sb3  1  0.676278  0.676278  0.000000  1
  Sb  Sb4  1  0.323722  0.323722  0.500000  1
  Sb  Sb5  1  0.323722  0.323722  0.000000  1
  Pb  Pb6  1  0.002310  0.997690  0.750000  1
  Pb  Pb7  1  0.778805  0.221195  0.476780  1
  Pb  Pb8  1  0.221195  0.778805  0.523220  1
  Pb  Pb9  1  0.056852  0.488912  0.250000  1
  Pb  Pb10  1  0.488912  0.056852  0.750000  1
  Pb  Pb11  1  0.221195  0.778805  0.976780  1
  Pb  Pb12  1  0.511088  0.943148  0.250000  1
  Pb  Pb13  1  0.997690  0.002310  0.250000  1
  Pb  Pb14  1  0.943148  0.511088  0.750000  1
  Pb  Pb15  1  0.778805  0.221195  0.023220  1
  O  O16  1  0.193301  0.473916  0.603567  1
  O  O17  1  0.473916  0.193301  0.396433  1
  O  O18  1  0.193301  0.473916  0.896433  1
  O  O19  1  0.260552  0.108192  0.890818  1
  O  O20  1  0.108192  0.260552  0.390818  1
  O  O21  1  0.891808  0.739448  0.609182  1
  O  O22  1  0.437272  0.562728  0.401843  1
  O  O23  1  0.739448  0.891808  0.390818  1
  O  O24  1  0.108192  0.260552  0.109182  1
  O  O25  1  0.739448  0.891808  0.109182  1
  O  O26  1  0.437272  0.562728  0.098157  1
  O  O27  1  0.205117  0.794883  0.750000  1
  O  O28  1  0.526084  0.806699  0.603567  1
  O  O29  1  0.562728  0.437272  0.901843  1
  O  O30  1  0.526084  0.806699  0.896433  1
  O  O31  1  0.794883  0.205117  0.250000  1
  O  O32  1  0.473916  0.193301  0.103567  1
  O  O33  1  0.891808  0.739448  0.890818  1
  O  O34  1  0.260552  0.108192  0.609182  1
  O  O35  1  0.562728  0.437272  0.598157  1
  O  O36  1  0.806699  0.526084  0.396433  1
  O  O37  1  0.806699  0.526084  0.103567  1
