# generated using pymatgen
data_Tm4Tc2NiRu5
_symmetry_space_group_name_H-M   'P 1'
_cell_length_a   5.28025142
_cell_length_b   5.28025125
_cell_length_c   8.89872000
_cell_angle_alpha   90.00000000
_cell_angle_beta   90.00000000
_cell_angle_gamma   122.74419851
_symmetry_Int_Tables_number   1
_chemical_formula_structural   Tm4Tc2NiRu5
_chemical_formula_sum   'Tm4 Tc2 Ni1 Ru5'
_cell_volume   208.68015758
_cell_formula_units_Z   1
loop_
 _symmetry_equiv_pos_site_id
 _symmetry_equiv_pos_as_xyz
  1  'x, y, z'
loop_
 _atom_site_type_symbol
 _atom_site_label
 _atom_site_symmetry_multiplicity
 _atom_site_fract_x
 _atom_site_fract_y
 _atom_site_fract_z
 _atom_site_occupancy
  Tm  Tm0  1  0.335277  0.664723  0.431444  1
  Tm  Tm1  1  0.663883  0.336117  0.561149  1
  Tm  Tm2  1  0.663883  0.336117  0.938851  1
  Tm  Tm3  1  0.335277  0.664723  0.068556  1
  Tc  Tc4  1  0.174092  0.339717  0.750000  1
  Tc  Tc5  1  0.660283  0.825908  0.750000  1
  Ni  Ni6  1  0.833469  0.166531  0.250000  1
  Ru  Ru7  1  0.995989  0.004011  0.496858  1
  Ru  Ru8  1  0.995989  0.004011  0.003142  1
  Ru  Ru9  1  0.827047  0.658200  0.250000  1
  Ru  Ru10  1  0.341800  0.172953  0.250000  1
  Ru  Ru11  1  0.173011  0.826989  0.750000  1
