# generated using pymatgen
data_Pr6HfCo17P12
_symmetry_space_group_name_H-M   'P 1'
_cell_length_a   3.77742800
_cell_length_b   10.73619000
_cell_length_c   12.51007700
_cell_angle_alpha   90.00000000
_cell_angle_beta   90.00000000
_cell_angle_gamma   90.00000000
_symmetry_Int_Tables_number   1
_chemical_formula_structural   Pr6HfCo17P12
_chemical_formula_sum   'Pr6 Hf1 Co17 P12'
_cell_volume   507.34848359
_cell_formula_units_Z   1
loop_
 _symmetry_equiv_pos_site_id
 _symmetry_equiv_pos_as_xyz
  1  'x, y, z'
loop_
 _atom_site_type_symbol
 _atom_site_label
 _atom_site_symmetry_multiplicity
 _atom_site_fract_x
 _atom_site_fract_y
 _atom_site_fract_z
 _atom_site_occupancy
  Pr  Pr0  1  0.000000  0.500000  0.527520  1
  Pr  Pr1  1  0.500000  0.000000  0.478940  1
  Pr  Pr2  1  0.500000  0.820856  0.207539  1
  Pr  Pr3  1  0.500000  0.179144  0.207539  1
  Pr  Pr4  1  0.000000  0.683156  0.795448  1
  Pr  Pr5  1  0.000000  0.316844  0.795448  1
  Hf  Hf6  1  0.500000  0.500000  0.150644  1
  Co  Co7  1  0.000000  0.000000  0.840426  1
  Co  Co8  1  0.500000  0.500000  0.704788  1
  Co  Co9  1  0.000000  0.000000  0.295139  1
  Co  Co10  1  0.000000  0.500000  0.985487  1
  Co  Co11  1  0.500000  0.000000  0.011866  1
  Co  Co12  1  0.500000  0.327785  0.991110  1
  Co  Co13  1  0.500000  0.672215  0.991110  1
  Co  Co14  1  0.000000  0.161988  0.001617  1
  Co  Co15  1  0.000000  0.838012  0.001617  1
  Co  Co16  1  0.500000  0.295745  0.432827  1
  Co  Co17  1  0.500000  0.704255  0.432827  1
  Co  Co18  1  0.000000  0.202626  0.570215  1
  Co  Co19  1  0.000000  0.797374  0.570215  1
  Co  Co20  1  0.500000  0.882678  0.709741  1
  Co  Co21  1  0.500000  0.117322  0.709741  1
  Co  Co22  1  0.000000  0.619613  0.295027  1
  Co  Co23  1  0.000000  0.380387  0.295027  1
  P  P24  1  0.500000  0.500000  0.885780  1
  P  P25  1  0.000000  0.000000  0.112054  1
  P  P26  1  0.500000  0.500000  0.354413  1
  P  P27  1  0.000000  0.000000  0.661103  1
  P  P28  1  0.500000  0.303708  0.615109  1
  P  P29  1  0.500000  0.696292  0.615109  1
  P  P30  1  0.000000  0.194383  0.388219  1
  P  P31  1  0.000000  0.805617  0.388219  1
  P  P32  1  0.500000  0.853351  0.891804  1
  P  P33  1  0.500000  0.146649  0.891804  1
  P  P34  1  0.000000  0.661959  0.097262  1
  P  P35  1  0.000000  0.338041  0.097262  1
