# generated using pymatgen
data_Gd3Tm(Al8Pt3)3
_symmetry_space_group_name_H-M   'P 1'
_cell_length_a   7.50810430
_cell_length_b   7.59365819
_cell_length_c   13.37271300
_cell_angle_alpha   84.76554036
_cell_angle_beta   79.55986633
_cell_angle_gamma   60.14200068
_symmetry_Int_Tables_number   1
_chemical_formula_structural   Gd3Tm(Al8Pt3)3
_chemical_formula_sum   'Gd3 Tm1 Al24 Pt9'
_cell_volume   650.28063591
_cell_formula_units_Z   1
loop_
 _symmetry_equiv_pos_site_id
 _symmetry_equiv_pos_as_xyz
  1  'x, y, z'
loop_
 _atom_site_type_symbol
 _atom_site_label
 _atom_site_symmetry_multiplicity
 _atom_site_fract_x
 _atom_site_fract_y
 _atom_site_fract_z
 _atom_site_occupancy
  Gd  Gd0  1  0.393760  0.169949  0.808151  1
  Gd  Gd1  1  0.606319  0.830115  0.192103  1
  Gd  Gd2  1  0.734223  0.497731  0.808283  1
  Tm  Tm3  1  0.264879  0.502707  0.192678  1
  Al  Al4  1  0.685455  0.833749  0.945124  1
  Al  Al5  1  0.314599  0.166864  0.055341  1
  Al  Al6  1  0.145579  0.832295  0.559398  1
  Al  Al7  1  0.854469  0.167188  0.440364  1
  Al  Al8  1  0.477677  0.166875  0.557594  1
  Al  Al9  1  0.521889  0.833427  0.442287  1
  Al  Al10  1  0.217066  0.165960  0.328908  1
  Al  Al11  1  0.783065  0.834145  0.670512  1
  Al  Al12  1  0.437642  0.506120  0.669654  1
  Al  Al13  1  0.562393  0.493518  0.329640  1
  Al  Al14  1  0.108843  0.160297  0.668588  1
  Al  Al15  1  0.891579  0.839448  0.330739  1
  Al  Al16  1  0.351681  0.501004  0.946525  1
  Al  Al17  1  0.647369  0.498941  0.054569  1
  Al  Al18  1  0.016438  0.166608  0.953311  1
  Al  Al19  1  0.984283  0.833283  0.046918  1
  Al  Al20  1  0.187819  0.499557  0.441541  1
  Al  Al21  1  0.812603  0.500358  0.558245  1
  Al  Al22  1  0.731108  0.166233  0.183169  1
  Al  Al23  1  0.267295  0.835390  0.816895  1
  Al  Al24  1  0.062088  0.631518  0.815661  1
  Al  Al25  1  0.939610  0.368396  0.184558  1
  Al  Al26  1  0.857451  0.039902  0.815971  1
  Al  Al27  1  0.142300  0.958690  0.183949  1
  Pt  Pt28  1  0.119396  0.493681  0.638149  1
  Pt  Pt29  1  0.881575  0.506498  0.361798  1
  Pt  Pt30  1  0.657853  0.170570  0.999250  1
  Pt  Pt31  1  0.342001  0.829230  0.000850  1
  Pt  Pt32  1  0.539884  0.166958  0.361396  1
  Pt  Pt33  1  0.458865  0.834102  0.638068  1
  Pt  Pt34  1  0.779041  0.172310  0.636703  1
  Pt  Pt35  1  0.221579  0.825977  0.362729  1
  Pt  Pt36  1  0.000319  0.500406  0.000381  1
