# generated using pymatgen
data_Nb6Re5Si6W
_symmetry_space_group_name_H-M   'P 1'
_cell_length_a   7.59980345
_cell_length_b   7.61155470
_cell_length_c   7.61155457
_cell_angle_alpha   126.96010928
_cell_angle_beta   125.58160187
_cell_angle_gamma   79.48434934
_symmetry_Int_Tables_number   1
_chemical_formula_structural   Nb6Re5Si6W
_chemical_formula_sum   'Nb6 Re5 Si6 W1'
_cell_volume   276.48440645
_cell_formula_units_Z   1
loop_
 _symmetry_equiv_pos_site_id
 _symmetry_equiv_pos_as_xyz
  1  'x, y, z'
loop_
 _atom_site_type_symbol
 _atom_site_label
 _atom_site_symmetry_multiplicity
 _atom_site_fract_x
 _atom_site_fract_y
 _atom_site_fract_z
 _atom_site_occupancy
  Nb  Nb0  1  0.555820  0.096282  0.039526  1
  Nb  Nb1  1  0.444180  0.483707  0.540463  1
  Nb  Nb2  1  0.958813  0.495907  0.034006  1
  Nb  Nb3  1  0.041187  0.075192  0.537094  1
  Nb  Nb4  1  0.752603  0.912608  0.658190  1
  Nb  Nb5  1  0.247397  0.905588  0.160006  1
  Re  Re6  1  0.000000  0.246081  0.246081  1
  Re  Re7  1  0.159890  0.749669  0.655825  1
  Re  Re8  1  0.840110  0.495935  0.589780  1
  Re  Re9  1  0.592522  0.750917  0.089214  1
  Re  Re10  1  0.407478  0.496691  0.158395  1
  Si  Si11  1  0.774965  0.534441  0.260699  1
  Si  Si12  1  0.225035  0.485734  0.759475  1
  Si  Si13  1  0.335148  0.821575  0.495040  1
  Si  Si14  1  0.664852  0.159892  0.486426  1
  Si  Si15  1  0.828050  0.824806  0.989176  1
  Si  Si16  1  0.171950  0.161126  0.996756  1
  W  W17  1  0.500000  0.246048  0.746048  1
