# generated using pymatgen
data_Nd6YPI12
_symmetry_space_group_name_H-M   'P 1'
_cell_length_a   9.94570646
_cell_length_b   9.94570562
_cell_length_c   9.94570664
_cell_angle_alpha   107.81717575
_cell_angle_beta   107.81716951
_cell_angle_gamma   107.81716194
_symmetry_Int_Tables_number   1
_chemical_formula_structural   Nd6YPI12
_chemical_formula_sum   'Nd6 Y1 P1 I12'
_cell_volume   800.35227234
_cell_formula_units_Z   1
loop_
 _symmetry_equiv_pos_site_id
 _symmetry_equiv_pos_as_xyz
  1  'x, y, z'
loop_
 _atom_site_type_symbol
 _atom_site_label
 _atom_site_symmetry_multiplicity
 _atom_site_fract_x
 _atom_site_fract_y
 _atom_site_fract_z
 _atom_site_occupancy
  Nd  Nd0  1  0.695619  0.971043  0.899966  1
  Nd  Nd1  1  0.971043  0.899966  0.695619  1
  Nd  Nd2  1  0.100034  0.304381  0.028957  1
  Nd  Nd3  1  0.304381  0.028957  0.100034  1
  Nd  Nd4  1  0.899966  0.695619  0.971043  1
  Nd  Nd5  1  0.028957  0.100034  0.304381  1
  Y  Y6  1  0.500000  0.500000  0.500000  1
  P  P7  1  0.000000  0.000000  0.000000  1
  I  I8  1  0.074083  0.229636  0.684376  1
  I  I9  1  0.389106  0.161652  0.468788  1
  I  I10  1  0.610894  0.838348  0.531212  1
  I  I11  1  0.229636  0.684376  0.074083  1
  I  I12  1  0.770364  0.315624  0.925917  1
  I  I13  1  0.684376  0.074083  0.229636  1
  I  I14  1  0.531212  0.610894  0.838348  1
  I  I15  1  0.838348  0.531212  0.610894  1
  I  I16  1  0.925917  0.770364  0.315624  1
  I  I17  1  0.315624  0.925917  0.770364  1
  I  I18  1  0.468788  0.389106  0.161652  1
  I  I19  1  0.161652  0.468788  0.389106  1
