# generated using pymatgen
data_SrBAsO5
_symmetry_space_group_name_H-M   'P 1'
_cell_length_a   7.20197600
_cell_length_b   7.20197722
_cell_length_c   6.97518100
_cell_angle_alpha   90.00000000
_cell_angle_beta   90.00000000
_cell_angle_gamma   120.00000360
_symmetry_Int_Tables_number   1
_chemical_formula_structural   SrBAsO5
_chemical_formula_sum   'Sr3 B3 As3 O15'
_cell_volume   313.32100470
_cell_formula_units_Z   3
loop_
 _symmetry_equiv_pos_site_id
 _symmetry_equiv_pos_as_xyz
  1  'x, y, z'
loop_
 _atom_site_type_symbol
 _atom_site_label
 _atom_site_symmetry_multiplicity
 _atom_site_fract_x
 _atom_site_fract_y
 _atom_site_fract_z
 _atom_site_occupancy
  Sr  Sr0  1  0.068132  0.332233  0.878885  1
  Sr  Sr1  1  0.264101  0.931868  0.545551  1
  Sr  Sr2  1  0.667767  0.735899  0.212218  1
  B  B3  1  0.773118  0.427404  0.566578  1
  B  B4  1  0.654286  0.226882  0.233245  1
  B  B5  1  0.572596  0.345714  0.899912  1
  As  As6  1  0.668659  0.741057  0.711135  1
  As  As7  1  0.072399  0.331341  0.377802  1
  As  As8  1  0.258943  0.927601  0.044468  1
  O  O9  1  0.658565  0.376448  0.092577  1
  O  O10  1  0.623552  0.282118  0.425910  1
  O  O11  1  0.717882  0.341435  0.759244  1
  O  O12  1  0.824538  0.926746  0.874576  1
  O  O13  1  0.102208  0.175462  0.541243  1
  O  O14  1  0.073254  0.897792  0.207910  1
  O  O15  1  0.483146  0.992824  0.191279  1
  O  O16  1  0.007176  0.490322  0.524612  1
  O  O17  1  0.509678  0.516854  0.857946  1
  O  O18  1  0.203951  0.729418  0.887536  1
  O  O19  1  0.270582  0.474534  0.220870  1
  O  O20  1  0.525466  0.796049  0.554203  1
  O  O21  1  0.344625  0.148332  0.887799  1
  O  O22  1  0.851668  0.196293  0.221132  1
  O  O23  1  0.803707  0.655375  0.554465  1
