# generated using pymatgen
data_Yb5InPd2
_symmetry_space_group_name_H-M   'P 1'
_cell_length_a   8.98152792
_cell_length_b   8.98152710
_cell_length_c   8.98152688
_cell_angle_alpha   127.65581615
_cell_angle_beta   127.65580499
_cell_angle_gamma   77.18326205
_symmetry_Int_Tables_number   1
_chemical_formula_structural   Yb5InPd2
_chemical_formula_sum   'Yb10 In2 Pd4'
_cell_volume   440.67076917
_cell_formula_units_Z   2
loop_
 _symmetry_equiv_pos_site_id
 _symmetry_equiv_pos_as_xyz
  1  'x, y, z'
loop_
 _atom_site_type_symbol
 _atom_site_label
 _atom_site_symmetry_multiplicity
 _atom_site_fract_x
 _atom_site_fract_y
 _atom_site_fract_z
 _atom_site_occupancy
  Yb  Yb0  1  0.500000  0.500000  0.000000  1
  Yb  Yb1  1  0.000000  0.000000  0.000000  1
  Yb  Yb2  1  0.532489  0.032489  0.832111  1
  Yb  Yb3  1  0.200378  0.700378  0.167889  1
  Yb  Yb4  1  0.032489  0.200378  0.500000  1
  Yb  Yb5  1  0.700378  0.532489  0.500000  1
  Yb  Yb6  1  0.467511  0.967511  0.167889  1
  Yb  Yb7  1  0.799622  0.299622  0.832111  1
  Yb  Yb8  1  0.967511  0.799622  0.500000  1
  Yb  Yb9  1  0.299622  0.467511  0.500000  1
  In  In10  1  0.250000  0.250000  0.000000  1
  In  In11  1  0.750000  0.750000  0.000000  1
  Pd  Pd12  1  0.129671  0.629671  0.759343  1
  Pd  Pd13  1  0.870329  0.370329  0.240657  1
  Pd  Pd14  1  0.629671  0.870329  0.500000  1
  Pd  Pd15  1  0.370329  0.129671  0.500000  1
