# generated using pymatgen
data_Dy4ErMoRhO12
_symmetry_space_group_name_H-M   'P 1'
_cell_length_a   6.83799254
_cell_length_b   6.83799164
_cell_length_c   7.45521831
_cell_angle_alpha   73.91031091
_cell_angle_beta   73.91031215
_cell_angle_gamma   49.92778679
_symmetry_Int_Tables_number   1
_chemical_formula_structural   Dy4ErMoRhO12
_chemical_formula_sum   'Dy4 Er1 Mo1 Rh1 O12'
_cell_volume   253.98413182
_cell_formula_units_Z   1
loop_
 _symmetry_equiv_pos_site_id
 _symmetry_equiv_pos_as_xyz
  1  'x, y, z'
loop_
 _atom_site_type_symbol
 _atom_site_label
 _atom_site_symmetry_multiplicity
 _atom_site_fract_x
 _atom_site_fract_y
 _atom_site_fract_z
 _atom_site_occupancy
  Dy  Dy0  1  0.317690  0.286959  0.358893  1
  Dy  Dy1  1  0.713041  0.682310  0.641107  1
  Dy  Dy2  1  0.319016  0.305769  0.827071  1
  Dy  Dy3  1  0.694231  0.680984  0.172929  1
  Er  Er4  1  0.008165  0.991835  0.500000  1
  Mo  Mo5  1  0.203021  0.796979  0.000000  1
  Rh  Rh6  1  0.754476  0.245524  0.000000  1
  O  O7  1  0.911841  0.436474  0.913414  1
  O  O8  1  0.413732  0.904401  0.915561  1
  O  O9  1  0.095599  0.586268  0.084439  1
  O  O10  1  0.563526  0.088159  0.086586  1
  O  O11  1  0.108757  0.594041  0.568038  1
  O  O12  1  0.603376  0.087501  0.575812  1
  O  O13  1  0.912499  0.396624  0.424188  1
  O  O14  1  0.405959  0.891243  0.431962  1
  O  O15  1  0.998054  0.998577  0.799704  1
  O  O16  1  0.001423  0.001946  0.200296  1
  O  O17  1  0.488253  0.512659  0.821176  1
  O  O18  1  0.487341  0.511747  0.178824  1
