# generated using pymatgen
data_Hf6Al16Ni2Pt3Rh2
_symmetry_space_group_name_H-M   'P 1'
_cell_length_a   8.67554070
_cell_length_b   8.63828524
_cell_length_c   8.64026349
_cell_angle_alpha   60.27791027
_cell_angle_beta   59.84974981
_cell_angle_gamma   59.97784750
_symmetry_Int_Tables_number   1
_chemical_formula_structural   Hf6Al16Ni2Pt3Rh2
_chemical_formula_sum   'Hf6 Al16 Ni2 Pt3 Rh2'
_cell_volume   458.21507755
_cell_formula_units_Z   1
loop_
 _symmetry_equiv_pos_site_id
 _symmetry_equiv_pos_as_xyz
  1  'x, y, z'
loop_
 _atom_site_type_symbol
 _atom_site_label
 _atom_site_symmetry_multiplicity
 _atom_site_fract_x
 _atom_site_fract_y
 _atom_site_fract_z
 _atom_site_occupancy
  Hf  Hf0  1  0.680233  0.319770  0.319874  1
  Hf  Hf1  1  0.319770  0.680233  0.680121  1
  Hf  Hf2  1  0.314724  0.685280  0.315058  1
  Hf  Hf3  1  0.312474  0.312474  0.687525  1
  Hf  Hf4  1  0.685280  0.314724  0.684936  1
  Hf  Hf5  1  0.687527  0.687527  0.312472  1
  Al  Al6  1  0.325431  0.339638  0.340650  1
  Al  Al7  1  0.339638  0.325431  0.994279  1
  Al  Al8  1  0.993454  0.336437  0.341955  1
  Al  Al9  1  0.336437  0.993454  0.328153  1
  Al  Al10  1  0.674569  0.660365  0.659349  1
  Al  Al11  1  0.660365  0.674569  0.005719  1
  Al  Al12  1  0.663568  0.006548  0.671840  1
  Al  Al13  1  0.006548  0.663568  0.658044  1
  Al  Al14  1  0.118718  0.116076  0.123679  1
  Al  Al15  1  0.116076  0.118718  0.641528  1
  Al  Al16  1  0.642245  0.116712  0.118234  1
  Al  Al17  1  0.116712  0.642245  0.122809  1
  Al  Al18  1  0.881279  0.883919  0.876314  1
  Al  Al19  1  0.883919  0.881279  0.358489  1
  Al  Al20  1  0.883294  0.357737  0.877196  1
  Al  Al21  1  0.357737  0.883294  0.881773  1
  Ni  Ni22  1  0.500006  0.999999  0.999991  1
  Ni  Ni23  1  0.999999  0.500006  0.500004  1
  Pt  Pt24  1  0.000002  0.499997  0.999998  1
  Pt  Pt25  1  0.499997  0.000002  0.500003  1
  Pt  Pt26  1  0.500002  0.500002  0.999998  1
  Rh  Rh27  1  0.999986  0.999986  0.000014  1
  Rh  Rh28  1  0.000008  0.000008  0.499992  1
