# generated using pymatgen
data_Dy5Er3(P3Ir4)4
_symmetry_space_group_name_H-M   'P 1'
_cell_length_a   12.96689700
_cell_length_b   12.96689793
_cell_length_c   4.00348100
_cell_angle_alpha   90.00000000
_cell_angle_beta   90.00000000
_cell_angle_gamma   120.00000017
_symmetry_Int_Tables_number   1
_chemical_formula_structural   Dy5Er3(P3Ir4)4
_chemical_formula_sum   'Dy5 Er3 P12 Ir16'
_cell_volume   582.96241579
_cell_formula_units_Z   1
loop_
 _symmetry_equiv_pos_site_id
 _symmetry_equiv_pos_as_xyz
  1  'x, y, z'
loop_
 _atom_site_type_symbol
 _atom_site_label
 _atom_site_symmetry_multiplicity
 _atom_site_fract_x
 _atom_site_fract_y
 _atom_site_fract_z
 _atom_site_occupancy
  Dy  Dy0  1  0.333333  0.666667  0.500000  1
  Dy  Dy1  1  0.666667  0.333333  0.500000  1
  Dy  Dy2  1  0.000000  0.814864  0.000000  1
  Dy  Dy3  1  0.185136  0.185136  0.000000  1
  Dy  Dy4  1  0.814864  0.000000  0.000000  1
  Er  Er5  1  0.000000  0.446648  0.500000  1
  Er  Er6  1  0.553352  0.553352  0.500000  1
  Er  Er7  1  0.446648  0.000000  0.500000  1
  P  P8  1  0.000000  0.653019  0.500000  1
  P  P9  1  0.346981  0.346981  0.500000  1
  P  P10  1  0.653019  0.000000  0.500000  1
  P  P11  1  0.516575  0.688193  0.000000  1
  P  P12  1  0.311807  0.828382  0.000000  1
  P  P13  1  0.171618  0.483425  0.000000  1
  P  P14  1  0.483425  0.171618  0.000000  1
  P  P15  1  0.688193  0.516575  0.000000  1
  P  P16  1  0.828382  0.311807  0.000000  1
  P  P17  1  0.000000  0.176723  0.500000  1
  P  P18  1  0.823277  0.823277  0.500000  1
  P  P19  1  0.176723  0.000000  0.500000  1
  Ir  Ir20  1  0.509399  0.865550  0.000000  1
  Ir  Ir21  1  0.134450  0.643850  0.000000  1
  Ir  Ir22  1  0.356150  0.490601  0.000000  1
  Ir  Ir23  1  0.490601  0.356150  0.000000  1
  Ir  Ir24  1  0.865550  0.509399  0.000000  1
  Ir  Ir25  1  0.643850  0.134450  0.000000  1
  Ir  Ir26  1  0.000000  0.275065  0.000000  1
  Ir  Ir27  1  0.724935  0.724935  0.000000  1
  Ir  Ir28  1  0.275065  0.000000  0.000000  1
  Ir  Ir29  1  0.630272  0.808889  0.500000  1
  Ir  Ir30  1  0.191111  0.821384  0.500000  1
  Ir  Ir31  1  0.178616  0.369728  0.500000  1
  Ir  Ir32  1  0.369728  0.178616  0.500000  1
  Ir  Ir33  1  0.808889  0.630272  0.500000  1
  Ir  Ir34  1  0.821384  0.191111  0.500000  1
  Ir  Ir35  1  0.000000  0.000000  0.500000  1
