# generated using pymatgen
data_LaPr3Zn2(CoO6)2
_symmetry_space_group_name_H-M   'P 1'
_cell_length_a   5.50816472
_cell_length_b   5.56848902
_cell_length_c   7.78698450
_cell_angle_alpha   89.97441856
_cell_angle_beta   90.15105360
_cell_angle_gamma   89.88325670
_symmetry_Int_Tables_number   1
_chemical_formula_structural   LaPr3Zn2(CoO6)2
_chemical_formula_sum   'La1 Pr3 Zn2 Co2 O12'
_cell_volume   238.84224376
_cell_formula_units_Z   1
loop_
 _symmetry_equiv_pos_site_id
 _symmetry_equiv_pos_as_xyz
  1  'x, y, z'
loop_
 _atom_site_type_symbol
 _atom_site_label
 _atom_site_symmetry_multiplicity
 _atom_site_fract_x
 _atom_site_fract_y
 _atom_site_fract_z
 _atom_site_occupancy
  La  La0  1  0.009152  0.959367  0.749859  1
  Pr  Pr1  1  0.488959  0.455028  0.749950  1
  Pr  Pr2  1  0.510763  0.545273  0.250087  1
  Pr  Pr3  1  0.988301  0.046056  0.250004  1
  Zn  Zn4  1  0.499871  0.999608  0.499543  1
  Zn  Zn5  1  0.999988  0.500830  0.000157  1
  Co  Co6  1  0.000380  0.500267  0.499533  1
  Co  Co7  1  0.499661  0.999767  0.000618  1
  O  O8  1  0.725963  0.294052  0.456455  1
  O  O9  1  0.773829  0.794609  0.044604  1
  O  O10  1  0.202579  0.228224  0.542478  1
  O  O11  1  0.300708  0.724458  0.957627  1
  O  O12  1  0.276660  0.703560  0.542122  1
  O  O13  1  0.226997  0.205821  0.958104  1
  O  O14  1  0.798651  0.772660  0.455063  1
  O  O15  1  0.702058  0.272891  0.043822  1
  O  O16  1  0.080354  0.482920  0.260442  1
  O  O17  1  0.418946  0.983093  0.239618  1
  O  O18  1  0.576951  0.016975  0.760678  1
  O  O19  1  0.919230  0.514541  0.739237  1
