# generated using pymatgen
data_TbTaMn4P3
_symmetry_space_group_name_H-M   'P 1'
_cell_length_a   3.62318800
_cell_length_b   10.94770700
_cell_length_c   12.46876300
_cell_angle_alpha   90.00000000
_cell_angle_beta   90.00000000
_cell_angle_gamma   90.00000000
_symmetry_Int_Tables_number   1
_chemical_formula_structural   TbTaMn4P3
_chemical_formula_sum   'Tb4 Ta4 Mn16 P12'
_cell_volume   494.58097351
_cell_formula_units_Z   4
loop_
 _symmetry_equiv_pos_site_id
 _symmetry_equiv_pos_as_xyz
  1  'x, y, z'
loop_
 _atom_site_type_symbol
 _atom_site_label
 _atom_site_symmetry_multiplicity
 _atom_site_fract_x
 _atom_site_fract_y
 _atom_site_fract_z
 _atom_site_occupancy
  Tb  Tb0  1  0.250000  0.587413  0.708004  1
  Tb  Tb1  1  0.250000  0.912587  0.208004  1
  Tb  Tb2  1  0.750000  0.412587  0.291996  1
  Tb  Tb3  1  0.750000  0.087413  0.791996  1
  Ta  Ta4  1  0.250000  0.708883  0.984188  1
  Ta  Ta5  1  0.250000  0.791117  0.484188  1
  Ta  Ta6  1  0.750000  0.291117  0.015812  1
  Ta  Ta7  1  0.750000  0.208883  0.515812  1
  Mn  Mn8  1  0.250000  0.409837  0.492674  1
  Mn  Mn9  1  0.250000  0.090163  0.992674  1
  Mn  Mn10  1  0.750000  0.590163  0.507326  1
  Mn  Mn11  1  0.750000  0.909837  0.007326  1
  Mn  Mn12  1  0.250000  0.212616  0.178011  1
  Mn  Mn13  1  0.250000  0.287384  0.678011  1
  Mn  Mn14  1  0.750000  0.787384  0.821989  1
  Mn  Mn15  1  0.750000  0.712616  0.321989  1
  Mn  Mn16  1  0.250000  0.883646  0.696166  1
  Mn  Mn17  1  0.250000  0.616354  0.196166  1
  Mn  Mn18  1  0.750000  0.116354  0.303834  1
  Mn  Mn19  1  0.750000  0.383646  0.803834  1
  Mn  Mn20  1  0.250000  0.463864  0.934146  1
  Mn  Mn21  1  0.250000  0.036136  0.434146  1
  Mn  Mn22  1  0.750000  0.536136  0.065854  1
  Mn  Mn23  1  0.750000  0.963864  0.565854  1
  P  P24  1  0.250000  0.417193  0.117674  1
  P  P25  1  0.250000  0.082807  0.617674  1
  P  P26  1  0.750000  0.582807  0.882326  1
  P  P27  1  0.750000  0.917193  0.382326  1
  P  P28  1  0.250000  0.266372  0.866828  1
  P  P29  1  0.250000  0.233628  0.366828  1
  P  P30  1  0.750000  0.733628  0.133172  1
  P  P31  1  0.750000  0.766372  0.633172  1
  P  P32  1  0.250000  0.585694  0.383063  1
  P  P33  1  0.250000  0.914306  0.883063  1
  P  P34  1  0.750000  0.414306  0.616937  1
  P  P35  1  0.750000  0.085694  0.116937  1
