# generated using pymatgen
data_Lu6TlTcNi
_symmetry_space_group_name_H-M   'P 1'
_cell_length_a   8.28958123
_cell_length_b   8.28958150
_cell_length_c   8.28958100
_cell_angle_alpha   113.73164780
_cell_angle_beta   111.09497131
_cell_angle_gamma   103.74678539
_symmetry_Int_Tables_number   1
_chemical_formula_structural   Lu6TlTcNi
_chemical_formula_sum   'Lu12 Tl2 Tc2 Ni2'
_cell_volume   435.01074564
_cell_formula_units_Z   2
loop_
 _symmetry_equiv_pos_site_id
 _symmetry_equiv_pos_as_xyz
  1  'x, y, z'
loop_
 _atom_site_type_symbol
 _atom_site_label
 _atom_site_symmetry_multiplicity
 _atom_site_fract_x
 _atom_site_fract_y
 _atom_site_fract_z
 _atom_site_occupancy
  Lu  Lu0  1  0.666628  0.849452  0.182824  1
  Lu  Lu1  1  0.333372  0.516197  0.182824  1
  Lu  Lu2  1  0.816323  0.788646  0.604970  1
  Lu  Lu3  1  0.183677  0.788646  0.972323  1
  Lu  Lu4  1  0.816323  0.211354  0.027677  1
  Lu  Lu5  1  0.183677  0.211354  0.395030  1
  Lu  Lu6  1  0.666628  0.483803  0.817176  1
  Lu  Lu7  1  0.333372  0.150548  0.817176  1
  Lu  Lu8  1  0.555070  0.256824  0.298245  1
  Lu  Lu9  1  0.444930  0.743176  0.701755  1
  Lu  Lu10  1  0.041420  0.743176  0.298245  1
  Lu  Lu11  1  0.958580  0.256824  0.701755  1
  Tl  Tl12  1  0.000000  0.500000  0.500000  1
  Tl  Tl13  1  0.500000  0.000000  0.500000  1
  Tc  Tc14  1  0.324119  0.500000  0.824119  1
  Tc  Tc15  1  0.675881  0.500000  0.175881  1
  Ni  Ni16  1  0.879629  0.879629  0.000000  1
  Ni  Ni17  1  0.120371  0.120371  0.000000  1
