# generated using pymatgen
data_Nd6Sn2Ge2Ir3Rh
_symmetry_space_group_name_H-M   'P 1'
_cell_length_a   5.77697538
_cell_length_b   8.39349229
_cell_length_c   13.70960121
_cell_angle_alpha   89.88262342
_cell_angle_beta   89.98506422
_cell_angle_gamma   90.30472530
_symmetry_Int_Tables_number   1
_chemical_formula_structural   Nd6Sn2Ge2Ir3Rh
_chemical_formula_sum   'Nd12 Sn4 Ge4 Ir6 Rh2'
_cell_volume   664.75400864
_cell_formula_units_Z   2
loop_
 _symmetry_equiv_pos_site_id
 _symmetry_equiv_pos_as_xyz
  1  'x, y, z'
loop_
 _atom_site_type_symbol
 _atom_site_label
 _atom_site_symmetry_multiplicity
 _atom_site_fract_x
 _atom_site_fract_y
 _atom_site_fract_z
 _atom_site_occupancy
  Nd  Nd0  1  0.639923  0.251934  0.250792  1
  Nd  Nd1  1  0.360077  0.748066  0.749208  1
  Nd  Nd2  1  0.360881  0.754372  0.250989  1
  Nd  Nd3  1  0.639119  0.245628  0.749011  1
  Nd  Nd4  1  0.161546  0.394068  0.101315  1
  Nd  Nd5  1  0.838454  0.605932  0.898685  1
  Nd  Nd6  1  0.840391  0.604432  0.601405  1
  Nd  Nd7  1  0.840989  0.895274  0.399605  1
  Nd  Nd8  1  0.159609  0.395568  0.398595  1
  Nd  Nd9  1  0.159011  0.104726  0.600395  1
  Nd  Nd10  1  0.159047  0.101930  0.899265  1
  Nd  Nd11  1  0.840953  0.898070  0.100735  1
  Sn  Sn12  1  0.657136  0.251031  0.999941  1
  Sn  Sn13  1  0.342864  0.748969  0.000059  1
  Sn  Sn14  1  0.344211  0.749175  0.500391  1
  Sn  Sn15  1  0.655789  0.250825  0.499609  1
  Ge  Ge16  1  0.137015  0.105653  0.250190  1
  Ge  Ge17  1  0.862985  0.894347  0.749810  1
  Ge  Ge18  1  0.863458  0.605917  0.248770  1
  Ge  Ge19  1  0.136542  0.394083  0.751230  1
  Ir  Ir20  1  0.367106  0.038481  0.097500  1
  Ir  Ir21  1  0.632894  0.961519  0.902500  1
  Ir  Ir22  1  0.634648  0.961103  0.597441  1
  Ir  Ir23  1  0.632934  0.540262  0.401509  1
  Ir  Ir24  1  0.365352  0.038897  0.402559  1
  Ir  Ir25  1  0.367066  0.459738  0.598491  1
  Rh  Rh26  1  0.368228  0.461151  0.903319  1
  Rh  Rh27  1  0.631772  0.538849  0.096681  1
