# generated using pymatgen
data_YbTa4MnRu4
_symmetry_space_group_name_H-M   'P 1'
_cell_length_a   3.15660100
_cell_length_b   3.15660100
_cell_length_c   16.29092800
_cell_angle_alpha   90.00000000
_cell_angle_beta   90.00000000
_cell_angle_gamma   90.00000000
_symmetry_Int_Tables_number   1
_chemical_formula_structural   YbTa4MnRu4
_chemical_formula_sum   'Yb1 Ta4 Mn1 Ru4'
_cell_volume   162.32492235
_cell_formula_units_Z   1
loop_
 _symmetry_equiv_pos_site_id
 _symmetry_equiv_pos_as_xyz
  1  'x, y, z'
loop_
 _atom_site_type_symbol
 _atom_site_label
 _atom_site_symmetry_multiplicity
 _atom_site_fract_x
 _atom_site_fract_y
 _atom_site_fract_z
 _atom_site_occupancy
  Yb  Yb0  1  0.000000  0.000000  0.500000  1
  Ta  Ta1  1  0.000000  0.000000  0.908704  1
  Ta  Ta2  1  0.000000  0.000000  0.091296  1
  Ta  Ta3  1  0.000000  0.000000  0.292948  1
  Ta  Ta4  1  0.000000  0.000000  0.707052  1
  Mn  Mn5  1  0.500000  0.500000  0.000000  1
  Ru  Ru6  1  0.500000  0.500000  0.188734  1
  Ru  Ru7  1  0.500000  0.500000  0.378259  1
  Ru  Ru8  1  0.500000  0.500000  0.621741  1
  Ru  Ru9  1  0.500000  0.500000  0.811266  1
