# generated using pymatgen
data_Dy9HoCuIrPb6
_symmetry_space_group_name_H-M   'P 1'
_cell_length_a   9.18278200
_cell_length_b   9.18278294
_cell_length_c   6.73837400
_cell_angle_alpha   90.00000000
_cell_angle_beta   90.00000000
_cell_angle_gamma   120.00000381
_symmetry_Int_Tables_number   1
_chemical_formula_structural   Dy9HoCuIrPb6
_chemical_formula_sum   'Dy9 Ho1 Cu1 Ir1 Pb6'
_cell_volume   492.07842056
_cell_formula_units_Z   1
loop_
 _symmetry_equiv_pos_site_id
 _symmetry_equiv_pos_as_xyz
  1  'x, y, z'
loop_
 _atom_site_type_symbol
 _atom_site_label
 _atom_site_symmetry_multiplicity
 _atom_site_fract_x
 _atom_site_fract_y
 _atom_site_fract_z
 _atom_site_occupancy
  Dy  Dy0  1  0.244245  0.999941  0.739341  1
  Dy  Dy1  1  0.755696  0.999941  0.260659  1
  Dy  Dy2  1  0.000059  0.244304  0.739341  1
  Dy  Dy3  1  0.000059  0.755755  0.260659  1
  Dy  Dy4  1  0.755696  0.755755  0.739341  1
  Dy  Dy5  1  0.244245  0.244304  0.260659  1
  Dy  Dy6  1  0.333333  0.666667  0.500000  1
  Dy  Dy7  1  0.666667  0.333333  0.500000  1
  Dy  Dy8  1  0.666667  0.333333  0.000000  1
  Ho  Ho9  1  0.333333  0.666667  0.000000  1
  Cu  Cu10  1  0.000000  0.000000  0.000000  1
  Ir  Ir11  1  0.000000  0.000000  0.500000  1
  Pb  Pb12  1  0.602641  0.999801  0.752431  1
  Pb  Pb13  1  0.397160  0.999801  0.247569  1
  Pb  Pb14  1  0.000199  0.602840  0.752431  1
  Pb  Pb15  1  0.000199  0.397359  0.247569  1
  Pb  Pb16  1  0.397160  0.397359  0.752431  1
  Pb  Pb17  1  0.602641  0.602840  0.247569  1
