# generated using pymatgen
data_Ac2Y3Tl4
_symmetry_space_group_name_H-M   'P 1'
_cell_length_a   8.31335100
_cell_length_b   8.49517400
_cell_length_c   16.06871000
_cell_angle_alpha   90.00000000
_cell_angle_beta   90.00000000
_cell_angle_gamma   90.00000000
_symmetry_Int_Tables_number   1
_chemical_formula_structural   Ac2Y3Tl4
_chemical_formula_sum   'Ac8 Y12 Tl16'
_cell_volume   1134.82634358
_cell_formula_units_Z   4
loop_
 _symmetry_equiv_pos_site_id
 _symmetry_equiv_pos_as_xyz
  1  'x, y, z'
loop_
 _atom_site_type_symbol
 _atom_site_label
 _atom_site_symmetry_multiplicity
 _atom_site_fract_x
 _atom_site_fract_y
 _atom_site_fract_z
 _atom_site_occupancy
  Ac  Ac0  1  0.498846  0.179403  0.592613  1
  Ac  Ac1  1  0.998846  0.320597  0.907387  1
  Ac  Ac2  1  0.501154  0.820597  0.092613  1
  Ac  Ac3  1  0.001154  0.679403  0.407387  1
  Ac  Ac4  1  0.501154  0.820597  0.407387  1
  Ac  Ac5  1  0.001154  0.679403  0.092613  1
  Ac  Ac6  1  0.498846  0.179403  0.907387  1
  Ac  Ac7  1  0.998846  0.320597  0.592613  1
  Y  Y8  1  0.334847  0.662446  0.624587  1
  Y  Y9  1  0.834847  0.837554  0.875413  1
  Y  Y10  1  0.665153  0.337554  0.124587  1
  Y  Y11  1  0.165153  0.162446  0.375413  1
  Y  Y12  1  0.665153  0.337554  0.375413  1
  Y  Y13  1  0.165153  0.162446  0.124587  1
  Y  Y14  1  0.334847  0.662446  0.875413  1
  Y  Y15  1  0.834847  0.837554  0.624587  1
  Y  Y16  1  0.672197  0.502309  0.750000  1
  Y  Y17  1  0.172197  0.997691  0.750000  1
  Y  Y18  1  0.327803  0.497691  0.250000  1
  Y  Y19  1  0.827803  0.002309  0.250000  1
  Tl  Tl20  1  0.828429  0.041658  0.457363  1
  Tl  Tl21  1  0.328429  0.458342  0.042637  1
  Tl  Tl22  1  0.171571  0.958342  0.957363  1
  Tl  Tl23  1  0.671571  0.541658  0.542637  1
  Tl  Tl24  1  0.171571  0.958342  0.542637  1
  Tl  Tl25  1  0.671571  0.541658  0.957363  1
  Tl  Tl26  1  0.828429  0.041658  0.042637  1
  Tl  Tl27  1  0.328429  0.458342  0.457363  1
  Tl  Tl28  1  0.300676  0.366555  0.750000  1
  Tl  Tl29  1  0.800676  0.133445  0.750000  1
  Tl  Tl30  1  0.699324  0.633445  0.250000  1
  Tl  Tl31  1  0.199324  0.866555  0.250000  1
  Tl  Tl32  1  0.532295  0.874726  0.750000  1
  Tl  Tl33  1  0.032295  0.625274  0.750000  1
  Tl  Tl34  1  0.467705  0.125274  0.250000  1
  Tl  Tl35  1  0.967705  0.374726  0.250000  1
