# generated using pymatgen
data_TbHo15In3Rh4Au
_symmetry_space_group_name_H-M   'P 1'
_cell_length_a   9.59069990
_cell_length_b   9.59070024
_cell_length_c   9.58882508
_cell_angle_alpha   59.83254272
_cell_angle_beta   59.83254580
_cell_angle_gamma   59.80857435
_symmetry_Int_Tables_number   1
_chemical_formula_structural   TbHo15In3Rh4Au
_chemical_formula_sum   'Tb1 Ho15 In3 Rh4 Au1'
_cell_volume   621.18088556
_cell_formula_units_Z   1
loop_
 _symmetry_equiv_pos_site_id
 _symmetry_equiv_pos_as_xyz
  1  'x, y, z'
loop_
 _atom_site_type_symbol
 _atom_site_label
 _atom_site_symmetry_multiplicity
 _atom_site_fract_x
 _atom_site_fract_y
 _atom_site_fract_z
 _atom_site_occupancy
  Tb  Tb0  1  0.186919  0.186919  0.812155  1
  Ho  Ho1  1  0.602235  0.602235  0.196737  1
  Ho  Ho2  1  0.440991  0.058338  0.440467  1
  Ho  Ho3  1  0.440799  0.440799  0.058340  1
  Ho  Ho4  1  0.812056  0.180503  0.812781  1
  Ho  Ho5  1  0.187187  0.811279  0.187718  1
  Ho  Ho6  1  0.438535  0.059602  0.059858  1
  Ho  Ho7  1  0.180503  0.812056  0.812781  1
  Ho  Ho8  1  0.059602  0.438535  0.059858  1
  Ho  Ho9  1  0.812787  0.812787  0.180485  1
  Ho  Ho10  1  0.196640  0.602378  0.601919  1
  Ho  Ho11  1  0.058338  0.440991  0.440467  1
  Ho  Ho12  1  0.059691  0.059691  0.438277  1
  Ho  Ho13  1  0.811279  0.187187  0.187718  1
  Ho  Ho14  1  0.602378  0.196640  0.601919  1
  Ho  Ho15  1  0.599567  0.599567  0.599298  1
  In  In16  1  0.832556  0.832556  0.504091  1
  In  In17  1  0.504845  0.831961  0.832465  1
  In  In18  1  0.831961  0.504845  0.832465  1
  Rh  Rh19  1  0.392287  0.822789  0.392251  1
  Rh  Rh20  1  0.393324  0.393324  0.392595  1
  Rh  Rh21  1  0.822789  0.392287  0.392251  1
  Rh  Rh22  1  0.392498  0.392498  0.822907  1
  Au  Au23  1  0.840231  0.840231  0.840197  1
