# generated using pymatgen
data_Yb3Er(Si5Os3)2
_symmetry_space_group_name_H-M   'P 1'
_cell_length_a   8.25705869
_cell_length_b   8.25158364
_cell_length_c   8.25158383
_cell_angle_alpha   139.92371066
_cell_angle_beta   108.96747759
_cell_angle_gamma   84.81480911
_symmetry_Int_Tables_number   1
_chemical_formula_structural   Yb3Er(Si5Os3)2
_chemical_formula_sum   'Yb3 Er1 Si10 Os6'
_cell_volume   330.52550743
_cell_formula_units_Z   1
loop_
 _symmetry_equiv_pos_site_id
 _symmetry_equiv_pos_as_xyz
  1  'x, y, z'
loop_
 _atom_site_type_symbol
 _atom_site_label
 _atom_site_symmetry_multiplicity
 _atom_site_fract_x
 _atom_site_fract_y
 _atom_site_fract_z
 _atom_site_occupancy
  Yb  Yb0  1  0.902594  0.135731  0.766863  1
  Yb  Yb1  1  0.097933  0.864314  0.233618  1
  Yb  Yb2  1  0.631221  0.364861  0.266360  1
  Er  Er3  1  0.369542  0.635853  0.733688  1
  Si  Si4  1  0.998755  0.752126  0.750722  1
  Si  Si5  1  0.998755  0.248033  0.246630  1
  Si  Si6  1  0.708852  0.456637  0.749218  1
  Si  Si7  1  0.292902  0.039441  0.748299  1
  Si  Si8  1  0.292902  0.544603  0.253461  1
  Si  Si9  1  0.708852  0.959634  0.252215  1
  Si  Si10  1  0.233504  0.404762  0.828741  1
  Si  Si11  1  0.575708  0.904921  0.670788  1
  Si  Si12  1  0.424061  0.094610  0.329450  1
  Si  Si13  1  0.765793  0.594735  0.171059  1
  Os  Os14  1  0.759397  0.851978  0.907422  1
  Os  Os15  1  0.499068  0.250931  0.749481  1
  Os  Os16  1  0.946819  0.354524  0.592295  1
  Os  Os17  1  0.052693  0.645489  0.407204  1
  Os  Os18  1  0.241581  0.147229  0.094350  1
  Os  Os19  1  0.499068  0.749587  0.248137  1
