# generated using pymatgen
data_Ta6BeFe2B3Ru8
_symmetry_space_group_name_H-M   'P 1'
_cell_length_a   9.28806983
_cell_length_b   9.28807905
_cell_length_c   3.05711500
_cell_angle_alpha   90.00000000
_cell_angle_beta   90.00000000
_cell_angle_gamma   90.10980993
_symmetry_Int_Tables_number   1
_chemical_formula_structural   Ta6BeFe2B3Ru8
_chemical_formula_sum   'Ta6 Be1 Fe2 B3 Ru8'
_cell_volume   263.73171158
_cell_formula_units_Z   1
loop_
 _symmetry_equiv_pos_site_id
 _symmetry_equiv_pos_as_xyz
  1  'x, y, z'
loop_
 _atom_site_type_symbol
 _atom_site_label
 _atom_site_symmetry_multiplicity
 _atom_site_fract_x
 _atom_site_fract_y
 _atom_site_fract_z
 _atom_site_occupancy
  Ta  Ta0  1  0.827260  0.672740  0.000000  1
  Ta  Ta1  1  0.171785  0.328216  0.000000  1
  Ta  Ta2  1  0.327579  0.828620  0.000000  1
  Ta  Ta3  1  0.671381  0.172421  0.000000  1
  Ta  Ta4  1  0.500065  0.500925  0.000000  1
  Ta  Ta5  1  0.999074  0.999935  0.000000  1
  Be  Be6  1  0.614034  0.885965  0.000000  1
  Fe  Fe7  1  0.496737  0.003265  0.500000  1
  Fe  Fe8  1  0.999259  0.500741  0.500000  1
  B  B9  1  0.390729  0.109271  0.000000  1
  B  B10  1  0.111225  0.611424  0.000000  1
  B  B11  1  0.888578  0.388777  0.000000  1
  Ru  Ru12  1  0.566532  0.716647  0.500000  1
  Ru  Ru13  1  0.429949  0.278734  0.500000  1
  Ru  Ru14  1  0.069334  0.777375  0.500000  1
  Ru  Ru15  1  0.932834  0.223597  0.500000  1
  Ru  Ru16  1  0.276404  0.567166  0.500000  1
  Ru  Ru17  1  0.722626  0.430667  0.500000  1
  Ru  Ru18  1  0.221265  0.070048  0.500000  1
  Ru  Ru19  1  0.783352  0.933468  0.500000  1
