# generated using pymatgen
data_HfNbP7Ru12
_symmetry_space_group_name_H-M   'P 1'
_cell_length_a   9.35565300
_cell_length_b   9.35565211
_cell_length_c   3.87227400
_cell_angle_alpha   90.00000000
_cell_angle_beta   90.00000000
_cell_angle_gamma   119.99999868
_symmetry_Int_Tables_number   1
_chemical_formula_structural   HfNbP7Ru12
_chemical_formula_sum   'Hf1 Nb1 P7 Ru12'
_cell_volume   293.52485834
_cell_formula_units_Z   1
loop_
 _symmetry_equiv_pos_site_id
 _symmetry_equiv_pos_as_xyz
  1  'x, y, z'
loop_
 _atom_site_type_symbol
 _atom_site_label
 _atom_site_symmetry_multiplicity
 _atom_site_fract_x
 _atom_site_fract_y
 _atom_site_fract_z
 _atom_site_occupancy
  Hf  Hf0  1  0.333333  0.666667  0.000000  1
  Nb  Nb1  1  0.666667  0.333333  0.500000  1
  P  P2  1  0.593306  0.717034  0.500000  1
  P  P3  1  0.000000  0.000000  0.000000  1
  P  P4  1  0.282966  0.876272  0.500000  1
  P  P5  1  0.123728  0.406694  0.500000  1
  P  P6  1  0.884425  0.580121  0.000000  1
  P  P7  1  0.419879  0.304304  0.000000  1
  P  P8  1  0.695696  0.115575  0.000000  1
  Ru  Ru9  1  0.552402  0.945047  0.500000  1
  Ru  Ru10  1  0.392645  0.447598  0.500000  1
  Ru  Ru11  1  0.909318  0.128423  0.500000  1
  Ru  Ru12  1  0.219105  0.090682  0.500000  1
  Ru  Ru13  1  0.871577  0.780895  0.500000  1
  Ru  Ru14  1  0.724363  0.884898  0.000000  1
  Ru  Ru15  1  0.115102  0.839465  0.000000  1
  Ru  Ru16  1  0.160535  0.275637  0.000000  1
  Ru  Ru17  1  0.437536  0.076199  0.000000  1
  Ru  Ru18  1  0.923801  0.361338  0.000000  1
  Ru  Ru19  1  0.638662  0.562464  0.000000  1
  Ru  Ru20  1  0.054953  0.607355  0.500000  1
