# generated using pymatgen
data_Lu5HgAu4
_symmetry_space_group_name_H-M   'P 1'
_cell_length_a   3.59709100
_cell_length_b   3.59709100
_cell_length_c   17.76998000
_cell_angle_alpha   90.00000000
_cell_angle_beta   90.00000000
_cell_angle_gamma   90.00000000
_symmetry_Int_Tables_number   1
_chemical_formula_structural   Lu5HgAu4
_chemical_formula_sum   'Lu5 Hg1 Au4'
_cell_volume   229.92690250
_cell_formula_units_Z   1
loop_
 _symmetry_equiv_pos_site_id
 _symmetry_equiv_pos_as_xyz
  1  'x, y, z'
loop_
 _atom_site_type_symbol
 _atom_site_label
 _atom_site_symmetry_multiplicity
 _atom_site_fract_x
 _atom_site_fract_y
 _atom_site_fract_z
 _atom_site_occupancy
  Lu  Lu0  1  0.500000  0.500000  0.107717  1
  Lu  Lu1  1  0.500000  0.500000  0.302911  1
  Lu  Lu2  1  0.500000  0.500000  0.500000  1
  Lu  Lu3  1  0.500000  0.500000  0.697089  1
  Lu  Lu4  1  0.500000  0.500000  0.892283  1
  Hg  Hg5  1  0.000000  0.000000  0.000000  1
  Au  Au6  1  0.000000  0.000000  0.203131  1
  Au  Au7  1  0.000000  0.000000  0.401944  1
  Au  Au8  1  0.000000  0.000000  0.598056  1
  Au  Au9  1  0.000000  0.000000  0.796869  1
