# generated using pymatgen
data_ErTm7Si12Pt3Rh
_symmetry_space_group_name_H-M   'P 1'
_cell_length_a   8.13587500
_cell_length_b   8.13587488
_cell_length_c   7.81085200
_cell_angle_alpha   90.00000000
_cell_angle_beta   90.00000000
_cell_angle_gamma   120.00000457
_symmetry_Int_Tables_number   1
_chemical_formula_structural   ErTm7Si12Pt3Rh
_chemical_formula_sum   'Er1 Tm7 Si12 Pt3 Rh1'
_cell_volume   447.75201486
_cell_formula_units_Z   1
loop_
 _symmetry_equiv_pos_site_id
 _symmetry_equiv_pos_as_xyz
  1  'x, y, z'
loop_
 _atom_site_type_symbol
 _atom_site_label
 _atom_site_symmetry_multiplicity
 _atom_site_fract_x
 _atom_site_fract_y
 _atom_site_fract_z
 _atom_site_occupancy
  Er  Er0  1  0.000000  0.000000  0.250348  1
  Tm  Tm1  1  0.981841  0.490921  0.252166  1
  Tm  Tm2  1  0.509079  0.490921  0.252166  1
  Tm  Tm3  1  0.489180  0.978358  0.748019  1
  Tm  Tm4  1  0.021642  0.510820  0.748019  1
  Tm  Tm5  1  0.489180  0.510820  0.748019  1
  Tm  Tm6  1  0.509079  0.018159  0.252166  1
  Tm  Tm7  1  0.000000  0.000000  0.748699  1
  Si  Si8  1  0.167517  0.832483  0.499467  1
  Si  Si9  1  0.167517  0.335031  0.499467  1
  Si  Si10  1  0.664969  0.832483  0.499467  1
  Si  Si11  1  0.330348  0.165174  0.999318  1
  Si  Si12  1  0.835729  0.671459  0.500911  1
  Si  Si13  1  0.834826  0.165174  0.999318  1
  Si  Si14  1  0.834826  0.669652  0.999318  1
  Si  Si15  1  0.165176  0.330350  0.000066  1
  Si  Si16  1  0.669650  0.834824  0.000066  1
  Si  Si17  1  0.328541  0.164271  0.500911  1
  Si  Si18  1  0.835729  0.164271  0.500911  1
  Si  Si19  1  0.165176  0.834824  0.000066  1
  Pt  Pt20  1  0.333333  0.666667  0.037117  1
  Pt  Pt21  1  0.666667  0.333333  0.965999  1
  Pt  Pt22  1  0.666667  0.333333  0.534213  1
  Rh  Rh23  1  0.333333  0.666667  0.463777  1
