# generated using pymatgen
data_DyEr3ReB12Ir
_symmetry_space_group_name_H-M   'P 1'
_cell_length_a   3.65166800
_cell_length_b   9.12170051
_cell_length_c   11.51018000
_cell_angle_alpha   90.31870383
_cell_angle_beta   90.00000000
_cell_angle_gamma   90.00000000
_symmetry_Int_Tables_number   1
_chemical_formula_structural   DyEr3ReB12Ir
_chemical_formula_sum   'Dy2 Er6 Re2 B24 Ir2'
_cell_volume   383.39151013
_cell_formula_units_Z   2
loop_
 _symmetry_equiv_pos_site_id
 _symmetry_equiv_pos_as_xyz
  1  'x, y, z'
loop_
 _atom_site_type_symbol
 _atom_site_label
 _atom_site_symmetry_multiplicity
 _atom_site_fract_x
 _atom_site_fract_y
 _atom_site_fract_z
 _atom_site_occupancy
  Dy  Dy0  1  0.000000  0.317032  0.409841  1
  Dy  Dy1  1  0.000000  0.682968  0.590159  1
  Er  Er2  1  0.000000  0.826384  0.082177  1
  Er  Er3  1  0.000000  0.173616  0.917823  1
  Er  Er4  1  0.000000  0.945979  0.372240  1
  Er  Er5  1  0.000000  0.054021  0.627760  1
  Er  Er6  1  0.000000  0.441634  0.125685  1
  Er  Er7  1  0.000000  0.558366  0.874315  1
  Re  Re8  1  0.000000  0.137933  0.179640  1
  Re  Re9  1  0.000000  0.862067  0.820360  1
  B  B10  1  0.500000  0.554115  0.433870  1
  B  B11  1  0.500000  0.445885  0.566130  1
  B  B12  1  0.500000  0.053015  0.067028  1
  B  B13  1  0.500000  0.946985  0.932972  1
  B  B14  1  0.500000  0.749584  0.421132  1
  B  B15  1  0.500000  0.250416  0.578868  1
  B  B16  1  0.500000  0.247886  0.080372  1
  B  B17  1  0.500000  0.752114  0.919628  1
  B  B18  1  0.500000  0.790983  0.265947  1
  B  B19  1  0.500000  0.209017  0.734053  1
  B  B20  1  0.500000  0.292207  0.234063  1
  B  B21  1  0.500000  0.707793  0.765937  1
  B  B22  1  0.500000  0.631626  0.183820  1
  B  B23  1  0.500000  0.368374  0.816180  1
  B  B24  1  0.500000  0.131134  0.314709  1
  B  B25  1  0.500000  0.868866  0.685291  1
  B  B26  1  0.500000  0.982131  0.213067  1
  B  B27  1  0.500000  0.017869  0.786933  1
  B  B28  1  0.500000  0.482303  0.287048  1
  B  B29  1  0.500000  0.517697  0.712952  1
  B  B30  1  0.500000  0.606850  0.029957  1
  B  B31  1  0.500000  0.393150  0.970043  1
  B  B32  1  0.500000  0.106795  0.470992  1
  B  B33  1  0.500000  0.893205  0.529008  1
  Ir  Ir34  1  0.000000  0.636795  0.321875  1
  Ir  Ir35  1  0.000000  0.363205  0.678125  1
