# generated using pymatgen
data_Tb6GaTcNi
_symmetry_space_group_name_H-M   'P 1'
_cell_length_a   8.38774706
_cell_length_b   8.38774758
_cell_length_c   8.38774711
_cell_angle_alpha   104.36744914
_cell_angle_beta   110.87527440
_cell_angle_gamma   113.29875662
_symmetry_Int_Tables_number   1
_chemical_formula_structural   Tb6GaTcNi
_chemical_formula_sum   'Tb12 Ga2 Tc2 Ni2'
_cell_volume   451.37613377
_cell_formula_units_Z   2
loop_
 _symmetry_equiv_pos_site_id
 _symmetry_equiv_pos_as_xyz
  1  'x, y, z'
loop_
 _atom_site_type_symbol
 _atom_site_label
 _atom_site_symmetry_multiplicity
 _atom_site_fract_x
 _atom_site_fract_y
 _atom_site_fract_z
 _atom_site_occupancy
  Tb  Tb0  1  0.690709  0.257632  0.948341  1
  Tb  Tb1  1  0.309291  0.742368  0.051659  1
  Tb  Tb2  1  0.690709  0.742368  0.433078  1
  Tb  Tb3  1  0.309291  0.257632  0.566922  1
  Tb  Tb4  1  0.814263  0.146628  0.332365  1
  Tb  Tb5  1  0.814263  0.481898  0.667635  1
  Tb  Tb6  1  0.185737  0.853372  0.667635  1
  Tb  Tb7  1  0.185737  0.518102  0.332365  1
  Tb  Tb8  1  0.600909  0.781036  0.819872  1
  Tb  Tb9  1  0.961163  0.781036  0.180128  1
  Tb  Tb10  1  0.038837  0.218964  0.819872  1
  Tb  Tb11  1  0.399091  0.218964  0.180128  1
  Ga  Ga12  1  0.500000  0.500000  0.000000  1
  Ga  Ga13  1  0.500000  0.000000  0.500000  1
  Tc  Tc14  1  0.821264  0.500000  0.321264  1
  Tc  Tc15  1  0.178736  0.500000  0.678736  1
  Ni  Ni16  1  0.000000  0.116451  0.116451  1
  Ni  Ni17  1  0.000000  0.883549  0.883549  1
