# generated using pymatgen
data_Lu6Al24Ru5Pt3
_symmetry_space_group_name_H-M   'P 1'
_cell_length_a   8.77454529
_cell_length_b   8.84379073
_cell_length_c   9.48060328
_cell_angle_alpha   89.79964927
_cell_angle_beta   90.27352191
_cell_angle_gamma   120.01442187
_symmetry_Int_Tables_number   1
_chemical_formula_structural   Lu6Al24Ru5Pt3
_chemical_formula_sum   'Lu6 Al24 Ru5 Pt3'
_cell_volume   637.03199533
_cell_formula_units_Z   1
loop_
 _symmetry_equiv_pos_site_id
 _symmetry_equiv_pos_as_xyz
  1  'x, y, z'
loop_
 _atom_site_type_symbol
 _atom_site_label
 _atom_site_symmetry_multiplicity
 _atom_site_fract_x
 _atom_site_fract_y
 _atom_site_fract_z
 _atom_site_occupancy
  Lu  Lu0  1  0.801142  0.189881  0.748439  1
  Lu  Lu1  1  0.198858  0.810119  0.251561  1
  Lu  Lu2  1  0.389960  0.193141  0.749279  1
  Lu  Lu3  1  0.610040  0.806859  0.250721  1
  Lu  Lu4  1  0.804643  0.613476  0.749325  1
  Lu  Lu5  1  0.195357  0.386524  0.250675  1
  Al  Al6  1  0.663804  0.327788  0.971142  1
  Al  Al7  1  0.336196  0.672212  0.028858  1
  Al  Al8  1  0.339165  0.669567  0.472347  1
  Al  Al9  1  0.660835  0.330433  0.527653  1
  Al  Al10  1  0.833365  0.158331  0.421506  1
  Al  Al11  1  0.166635  0.841669  0.578494  1
  Al  Al12  1  0.326501  0.163854  0.421028  1
  Al  Al13  1  0.166352  0.842257  0.920369  1
  Al  Al14  1  0.673499  0.836146  0.578972  1
  Al  Al15  1  0.833648  0.157743  0.079631  1
  Al  Al16  1  0.833487  0.676431  0.421086  1
  Al  Al17  1  0.674633  0.841928  0.920066  1
  Al  Al18  1  0.166513  0.323569  0.578914  1
  Al  Al19  1  0.325367  0.158072  0.079934  1
  Al  Al20  1  0.160345  0.322034  0.919299  1
  Al  Al21  1  0.839655  0.677966  0.080701  1
  Al  Al22  1  0.437737  0.561798  0.746789  1
  Al  Al23  1  0.562263  0.438202  0.253211  1
  Al  Al24  1  0.126139  0.563302  0.750467  1
  Al  Al25  1  0.873861  0.436698  0.249533  1
  Al  Al26  1  0.439008  0.878832  0.750418  1
  Al  Al27  1  0.560992  0.121168  0.249582  1
  Al  Al28  1  0.997556  0.997610  0.749850  1
  Al  Al29  1  0.002444  0.002390  0.250150  1
  Ru  Ru30  1  0.500000  0.500000  0.500000  1
  Ru  Ru31  1  0.500000  0.000000  0.000000  1
  Ru  Ru32  1  0.500000  0.000000  0.500000  1
  Ru  Ru33  1  0.000000  0.000000  0.000000  1
  Ru  Ru34  1  0.000000  0.000000  0.500000  1
  Pt  Pt35  1  0.500000  0.500000  0.000000  1
  Pt  Pt36  1  0.000000  0.500000  0.000000  1
  Pt  Pt37  1  0.000000  0.500000  0.500000  1
