# generated using pymatgen
data_Tm8Mg4Sc8Si15Sn
_symmetry_space_group_name_H-M   'P 1'
_cell_length_a   6.94686568
_cell_length_b   7.43266238
_cell_length_c   13.91556296
_cell_angle_alpha   90.06485611
_cell_angle_beta   89.70792533
_cell_angle_gamma   90.06431900
_symmetry_Int_Tables_number   1
_chemical_formula_structural   Tm8Mg4Sc8Si15Sn
_chemical_formula_sum   'Tm8 Mg4 Sc8 Si15 Sn1'
_cell_volume   718.50186034
_cell_formula_units_Z   1
loop_
 _symmetry_equiv_pos_site_id
 _symmetry_equiv_pos_as_xyz
  1  'x, y, z'
loop_
 _atom_site_type_symbol
 _atom_site_label
 _atom_site_symmetry_multiplicity
 _atom_site_fract_x
 _atom_site_fract_y
 _atom_site_fract_z
 _atom_site_occupancy
  Tm  Tm0  1  0.011199  0.180773  0.095431  1
  Tm  Tm1  1  0.988903  0.819797  0.905172  1
  Tm  Tm2  1  0.488901  0.678071  0.904989  1
  Tm  Tm3  1  0.988488  0.828047  0.597129  1
  Tm  Tm4  1  0.510379  0.322183  0.095861  1
  Tm  Tm5  1  0.006688  0.172583  0.400055  1
  Tm  Tm6  1  0.513649  0.317019  0.399326  1
  Tm  Tm7  1  0.501753  0.689629  0.599554  1
  Mg  Mg8  1  0.160301  0.505846  0.754458  1
  Mg  Mg9  1  0.839167  0.493558  0.249056  1
  Mg  Mg10  1  0.339311  0.007616  0.248106  1
  Mg  Mg11  1  0.662479  0.992217  0.753997  1
  Sc  Sc12  1  0.342472  0.166143  0.631242  1
  Sc  Sc13  1  0.664833  0.821038  0.371651  1
  Sc  Sc14  1  0.163881  0.687357  0.369222  1
  Sc  Sc15  1  0.667425  0.818366  0.124791  1
  Sc  Sc16  1  0.823222  0.318506  0.626671  1
  Sc  Sc17  1  0.330130  0.180270  0.875555  1
  Sc  Sc18  1  0.831433  0.320004  0.874932  1
  Sc  Sc19  1  0.168751  0.679839  0.125171  1
  Si  Si20  1  0.035248  0.103466  0.751368  1
  Si  Si21  1  0.963396  0.898494  0.246914  1
  Si  Si22  1  0.464082  0.602028  0.248888  1
  Si  Si23  1  0.533664  0.398949  0.751895  1
  Si  Si24  1  0.282791  0.874451  0.752794  1
  Si  Si25  1  0.714935  0.122823  0.247053  1
  Si  Si26  1  0.215070  0.377312  0.249152  1
  Si  Si27  1  0.785650  0.622925  0.751622  1
  Si  Si28  1  0.827011  0.539370  0.463569  1
  Si  Si29  1  0.335751  0.962516  0.466139  1
  Si  Si30  1  0.837150  0.535781  0.034005  1
  Si  Si31  1  0.664265  0.038323  0.531016  1
  Si  Si32  1  0.162026  0.463811  0.966553  1
  Si  Si33  1  0.661324  0.036002  0.965850  1
  Si  Si34  1  0.338625  0.964504  0.034777  1
  Sn  Sn35  1  0.175645  0.460385  0.536037  1
