# generated using pymatgen
data_Li3La3OsPd2
_symmetry_space_group_name_H-M   'P 1'
_cell_length_a   7.45738400
_cell_length_b   7.45738437
_cell_length_c   4.14810200
_cell_angle_alpha   90.00000000
_cell_angle_beta   90.00000000
_cell_angle_gamma   119.99998947
_symmetry_Int_Tables_number   1
_chemical_formula_structural   Li3La3OsPd2
_chemical_formula_sum   'Li3 La3 Os1 Pd2'
_cell_volume   199.78052028
_cell_formula_units_Z   1
loop_
 _symmetry_equiv_pos_site_id
 _symmetry_equiv_pos_as_xyz
  1  'x, y, z'
loop_
 _atom_site_type_symbol
 _atom_site_label
 _atom_site_symmetry_multiplicity
 _atom_site_fract_x
 _atom_site_fract_y
 _atom_site_fract_z
 _atom_site_occupancy
  Li  Li0  1  0.004182  0.233127  0.000000  1
  Li  Li1  1  0.766873  0.771055  0.000000  1
  Li  Li2  1  0.228945  0.995818  0.000000  1
  La  La3  1  0.016858  0.587624  0.500000  1
  La  La4  1  0.412376  0.429234  0.500000  1
  La  La5  1  0.570766  0.983142  0.500000  1
  Os  Os6  1  0.333333  0.666667  0.000000  1
  Pd  Pd7  1  0.000000  0.000000  0.500000  1
  Pd  Pd8  1  0.666667  0.333333  0.000000  1
