# generated using pymatgen
data_Tb2Dy14Cd4NiOs3
_symmetry_space_group_name_H-M   'P 1'
_cell_length_a   9.55793381
_cell_length_b   9.67986467
_cell_length_c   9.70209100
_cell_angle_alpha   59.92370992
_cell_angle_beta   59.49970436
_cell_angle_gamma   59.43583926
_symmetry_Int_Tables_number   1
_chemical_formula_structural   Tb2Dy14Cd4NiOs3
_chemical_formula_sum   'Tb2 Dy14 Cd4 Ni1 Os3'
_cell_volume   629.20980179
_cell_formula_units_Z   1
loop_
 _symmetry_equiv_pos_site_id
 _symmetry_equiv_pos_as_xyz
  1  'x, y, z'
loop_
 _atom_site_type_symbol
 _atom_site_label
 _atom_site_symmetry_multiplicity
 _atom_site_fract_x
 _atom_site_fract_y
 _atom_site_fract_z
 _atom_site_occupancy
  Tb  Tb0  1  0.602508  0.596279  0.595001  1
  Tb  Tb1  1  0.602510  0.596280  0.206211  1
  Dy  Dy2  1  0.602866  0.207737  0.594702  1
  Dy  Dy3  1  0.212848  0.596167  0.595496  1
  Dy  Dy4  1  0.059893  0.438681  0.440114  1
  Dy  Dy5  1  0.435128  0.060570  0.060747  1
  Dy  Dy6  1  0.435128  0.060567  0.443556  1
  Dy  Dy7  1  0.059897  0.438682  0.061307  1
  Dy  Dy8  1  0.436503  0.440909  0.061292  1
  Dy  Dy9  1  0.059533  0.059620  0.440424  1
  Dy  Dy10  1  0.189410  0.809365  0.809707  1
  Dy  Dy11  1  0.803583  0.189248  0.188866  1
  Dy  Dy12  1  0.803581  0.189249  0.818302  1
  Dy  Dy13  1  0.189410  0.809366  0.191518  1
  Dy  Dy14  1  0.803082  0.819315  0.188802  1
  Dy  Dy15  1  0.190425  0.191860  0.808858  1
  Cd  Cd16  1  0.829909  0.830332  0.830966  1
  Cd  Cd17  1  0.829909  0.830333  0.508792  1
  Cd  Cd18  1  0.829955  0.507543  0.831251  1
  Cd  Cd19  1  0.505363  0.830991  0.831823  1
  Ni  Ni20  1  0.831471  0.390829  0.388850  1
  Os  Os21  1  0.395555  0.388388  0.387558  1
  Os  Os22  1  0.395554  0.388388  0.828498  1
  Os  Os23  1  0.395975  0.829304  0.387361  1
