# generated using pymatgen
data_Ho2Er18Ir7Au5
_symmetry_space_group_name_H-M   'P 1'
_cell_length_a   11.06809432
_cell_length_b   11.06943326
_cell_length_c   6.31781106
_cell_angle_alpha   89.88553053
_cell_angle_beta   89.90714740
_cell_angle_gamma   89.54691003
_symmetry_Int_Tables_number   1
_chemical_formula_structural   Ho2Er18Ir7Au5
_chemical_formula_sum   'Ho2 Er18 Ir7 Au5'
_cell_volume   774.01587072
_cell_formula_units_Z   1
loop_
 _symmetry_equiv_pos_site_id
 _symmetry_equiv_pos_as_xyz
  1  'x, y, z'
loop_
 _atom_site_type_symbol
 _atom_site_label
 _atom_site_symmetry_multiplicity
 _atom_site_fract_x
 _atom_site_fract_y
 _atom_site_fract_z
 _atom_site_occupancy
  Ho  Ho0  1  0.300131  0.090411  0.364050  1
  Ho  Ho1  1  0.301885  0.907808  0.861718  1
  Er  Er2  1  0.696386  0.079741  0.859705  1
  Er  Er3  1  0.696935  0.906325  0.360854  1
  Er  Er4  1  0.580784  0.785985  0.875839  1
  Er  Er5  1  0.575227  0.205850  0.362860  1
  Er  Er6  1  0.418726  0.789483  0.375344  1
  Er  Er7  1  0.411977  0.207238  0.878530  1
  Er  Er8  1  0.213963  0.419491  0.624159  1
  Er  Er9  1  0.210266  0.581479  0.124664  1
  Er  Er10  1  0.794284  0.425062  0.137116  1
  Er  Er11  1  0.793006  0.588256  0.621274  1
  Er  Er12  1  0.909754  0.699478  0.135708  1
  Er  Er13  1  0.920327  0.303631  0.640131  1
  Er  Er14  1  0.091904  0.697607  0.638022  1
  Er  Er15  1  0.093412  0.303216  0.139042  1
  Er  Er16  1  0.998222  0.000261  0.499346  1
  Er  Er17  1  0.999514  0.001549  0.000988  1
  Er  Er18  1  0.496171  0.501990  0.001835  1
  Er  Er19  1  0.498120  0.503868  0.498350  1
  Ir  Ir20  1  0.653180  0.651258  0.250312  1
  Ir  Ir21  1  0.348770  0.347275  0.249394  1
  Ir  Ir22  1  0.345910  0.653663  0.749685  1
  Ir  Ir23  1  0.499717  0.999287  0.111010  1
  Ir  Ir24  1  0.499569  0.999916  0.612935  1
  Ir  Ir25  1  0.000031  0.500884  0.886890  1
  Ir  Ir26  1  0.000689  0.500776  0.388889  1
  Au  Au27  1  0.841434  0.158677  0.250020  1
  Au  Au28  1  0.843554  0.845392  0.750908  1
  Au  Au29  1  0.154115  0.156849  0.749742  1
  Au  Au30  1  0.155856  0.843350  0.250612  1
  Au  Au31  1  0.656184  0.343945  0.750066  1
