# generated using pymatgen
data_Rb4MnHgSe4
_symmetry_space_group_name_H-M   'P 1'
_cell_length_a   8.61552353
_cell_length_b   8.61560746
_cell_length_c   8.61553667
_cell_angle_alpha   132.86826683
_cell_angle_beta   128.92208193
_cell_angle_gamma   72.02665032
_symmetry_Int_Tables_number   1
_chemical_formula_structural   Rb4MnHgSe4
_chemical_formula_sum   'Rb4 Mn1 Hg1 Se4'
_cell_volume   356.65077654
_cell_formula_units_Z   1
loop_
 _symmetry_equiv_pos_site_id
 _symmetry_equiv_pos_as_xyz
  1  'x, y, z'
loop_
 _atom_site_type_symbol
 _atom_site_label
 _atom_site_symmetry_multiplicity
 _atom_site_fract_x
 _atom_site_fract_y
 _atom_site_fract_z
 _atom_site_occupancy
  Rb  Rb0  1  0.813728  0.646374  0.169460  1
  Rb  Rb1  1  0.186288  0.355730  0.832667  1
  Rb  Rb2  1  0.523081  0.853624  0.667355  1
  Rb  Rb3  1  0.476936  0.144267  0.330563  1
  Mn  Mn4  1  0.999932  0.250002  0.249902  1
  Hg  Hg5  1  0.000009  0.750000  0.750013  1
  Se  Se6  1  0.296187  0.585718  0.673852  1
  Se  Se7  1  0.088132  0.914283  0.210473  1
  Se  Se8  1  0.911881  0.122338  0.826169  1
  Se  Se9  1  0.703826  0.377663  0.289547  1
