# generated using pymatgen
data_Li3Tm4Si8Rh
_symmetry_space_group_name_H-M   'P 1'
_cell_length_a   3.78366100
_cell_length_b   7.43842984
_cell_length_c   9.98933974
_cell_angle_alpha   90.19159059
_cell_angle_beta   90.00000000
_cell_angle_gamma   90.00000000
_symmetry_Int_Tables_number   1
_chemical_formula_structural   Li3Tm4Si8Rh
_chemical_formula_sum   'Li3 Tm4 Si8 Rh1'
_cell_volume   281.14336926
_cell_formula_units_Z   1
loop_
 _symmetry_equiv_pos_site_id
 _symmetry_equiv_pos_as_xyz
  1  'x, y, z'
loop_
 _atom_site_type_symbol
 _atom_site_label
 _atom_site_symmetry_multiplicity
 _atom_site_fract_x
 _atom_site_fract_y
 _atom_site_fract_z
 _atom_site_occupancy
  Li  Li0  1  0.250000  0.489847  0.108495  1
  Li  Li1  1  0.750000  0.010290  0.604758  1
  Li  Li2  1  0.750000  0.505641  0.892222  1
  Tm  Tm3  1  0.250000  0.137788  0.865891  1
  Tm  Tm4  1  0.250000  0.641429  0.628343  1
  Tm  Tm5  1  0.750000  0.861949  0.136005  1
  Tm  Tm6  1  0.750000  0.369239  0.367361  1
  Si  Si7  1  0.250000  0.220687  0.563460  1
  Si  Si8  1  0.250000  0.732931  0.930677  1
  Si  Si9  1  0.750000  0.781598  0.433490  1
  Si  Si10  1  0.750000  0.261511  0.071974  1
  Si  Si11  1  0.250000  0.660259  0.319935  1
  Si  Si12  1  0.250000  0.153227  0.190993  1
  Si  Si13  1  0.750000  0.341447  0.676695  1
  Si  Si14  1  0.750000  0.845354  0.816205  1
  Rh  Rh15  1  0.250000  0.986801  0.393497  1
