# generated using pymatgen
data_TaTi4Nb5(Ge3B)2
_symmetry_space_group_name_H-M   'P 1'
_cell_length_a   7.74414544
_cell_length_b   7.73961234
_cell_length_c   5.26097700
_cell_angle_alpha   90.00000000
_cell_angle_beta   90.00000000
_cell_angle_gamma   119.98063643
_symmetry_Int_Tables_number   1
_chemical_formula_structural   TaTi4Nb5(Ge3B)2
_chemical_formula_sum   'Ta1 Ti4 Nb5 Ge6 B2'
_cell_volume   273.13317341
_cell_formula_units_Z   1
loop_
 _symmetry_equiv_pos_site_id
 _symmetry_equiv_pos_as_xyz
  1  'x, y, z'
loop_
 _atom_site_type_symbol
 _atom_site_label
 _atom_site_symmetry_multiplicity
 _atom_site_fract_x
 _atom_site_fract_y
 _atom_site_fract_z
 _atom_site_occupancy
  Ta  Ta0  1  0.000000  0.756752  0.750000  1
  Ti  Ti1  1  0.666803  0.333668  0.500183  1
  Ti  Ti2  1  0.333197  0.666866  0.500183  1
  Ti  Ti3  1  0.333197  0.666866  0.999817  1
  Ti  Ti4  1  0.666803  0.333668  0.999817  1
  Nb  Nb5  1  0.756062  0.755478  0.250000  1
  Nb  Nb6  1  0.243938  0.999416  0.250000  1
  Nb  Nb7  1  0.000000  0.243848  0.250000  1
  Nb  Nb8  1  0.244308  0.244203  0.750000  1
  Nb  Nb9  1  0.755692  0.999895  0.750000  1
  Ge  Ge10  1  0.403916  0.403862  0.250000  1
  Ge  Ge11  1  0.596084  0.999946  0.250000  1
  Ge  Ge12  1  0.000000  0.595813  0.250000  1
  Ge  Ge13  1  0.596014  0.596019  0.750000  1
  Ge  Ge14  1  0.403986  0.000004  0.750000  1
  Ge  Ge15  1  0.000000  0.404098  0.750000  1
  B  B16  1  0.000000  0.999798  0.499830  1
  B  B17  1  0.000000  0.999798  0.000170  1
