# generated using pymatgen
data_Tb2ErThMgRu
_symmetry_space_group_name_H-M   'P 1'
_cell_length_a   9.75192903
_cell_length_b   9.75192967
_cell_length_c   9.75342500
_cell_angle_alpha   59.99492413
_cell_angle_beta   59.99492195
_cell_angle_gamma   60.01014962
_symmetry_Int_Tables_number   1
_chemical_formula_structural   Tb2ErThMgRu
_chemical_formula_sum   'Tb8 Er4 Th4 Mg4 Ru4'
_cell_volume   655.87821877
_cell_formula_units_Z   4
loop_
 _symmetry_equiv_pos_site_id
 _symmetry_equiv_pos_as_xyz
  1  'x, y, z'
loop_
 _atom_site_type_symbol
 _atom_site_label
 _atom_site_symmetry_multiplicity
 _atom_site_fract_x
 _atom_site_fract_y
 _atom_site_fract_z
 _atom_site_occupancy
  Tb  Tb0  1  0.435889  0.435889  0.064111  1
  Tb  Tb1  1  0.064111  0.064111  0.435889  1
  Tb  Tb2  1  0.186176  0.813824  0.813824  1
  Tb  Tb3  1  0.813824  0.186176  0.186176  1
  Tb  Tb4  1  0.813824  0.186176  0.813824  1
  Tb  Tb5  1  0.186176  0.813824  0.186176  1
  Tb  Tb6  1  0.813803  0.813803  0.186197  1
  Tb  Tb7  1  0.186197  0.186197  0.813803  1
  Er  Er8  1  0.063771  0.436229  0.436229  1
  Er  Er9  1  0.436229  0.063771  0.063771  1
  Er  Er10  1  0.436229  0.063771  0.436229  1
  Er  Er11  1  0.063771  0.436229  0.063771  1
  Th  Th12  1  0.596266  0.596266  0.595381  1
  Th  Th13  1  0.596266  0.596266  0.212089  1
  Th  Th14  1  0.595381  0.212089  0.596266  1
  Th  Th15  1  0.212089  0.595381  0.596266  1
  Mg  Mg16  1  0.829681  0.829681  0.830249  1
  Mg  Mg17  1  0.829681  0.829681  0.510390  1
  Mg  Mg18  1  0.830249  0.510390  0.829681  1
  Mg  Mg19  1  0.510390  0.830249  0.829681  1
  Ru  Ru20  1  0.393015  0.393015  0.394018  1
  Ru  Ru21  1  0.393015  0.393015  0.819953  1
  Ru  Ru22  1  0.394018  0.819953  0.393015  1
  Ru  Ru23  1  0.819953  0.394018  0.393015  1
