# generated using pymatgen
data_Ac4TbPa3O14
_symmetry_space_group_name_H-M   'P 1'
_cell_length_a   7.93891476
_cell_length_b   7.93891499
_cell_length_c   7.85194300
_cell_angle_alpha   59.63291250
_cell_angle_beta   59.63291152
_cell_angle_gamma   60.00000241
_symmetry_Int_Tables_number   1
_chemical_formula_structural   Ac4TbPa3O14
_chemical_formula_sum   'Ac4 Tb1 Pa3 O14'
_cell_volume   347.97843043
_cell_formula_units_Z   1
loop_
 _symmetry_equiv_pos_site_id
 _symmetry_equiv_pos_as_xyz
  1  'x, y, z'
loop_
 _atom_site_type_symbol
 _atom_site_label
 _atom_site_symmetry_multiplicity
 _atom_site_fract_x
 _atom_site_fract_y
 _atom_site_fract_z
 _atom_site_occupancy
  Ac  Ac0  1  0.625000  0.125000  0.125000  1
  Ac  Ac1  1  0.125000  0.125000  0.125000  1
  Ac  Ac2  1  0.125000  0.625000  0.125000  1
  Ac  Ac3  1  0.125000  0.125000  0.625000  1
  Tb  Tb4  1  0.625000  0.625000  0.125000  1
  Pa  Pa5  1  0.625000  0.625000  0.625000  1
  Pa  Pa6  1  0.625000  0.125000  0.625000  1
  Pa  Pa7  1  0.125000  0.625000  0.625000  1
  O  O8  1  0.719075  0.273575  0.288275  1
  O  O9  1  0.719075  0.719075  0.288275  1
  O  O10  1  0.273575  0.719075  0.288275  1
  O  O11  1  0.999269  0.999269  0.002191  1
  O  O12  1  0.721871  0.281954  0.714220  1
  O  O13  1  0.968046  0.528129  0.535780  1
  O  O14  1  0.281954  0.721871  0.714220  1
  O  O15  1  0.528129  0.968046  0.535780  1
  O  O16  1  0.250731  0.250731  0.247809  1
  O  O17  1  0.976425  0.530925  0.961725  1
  O  O18  1  0.530925  0.530925  0.961725  1
  O  O19  1  0.968046  0.968046  0.535780  1
  O  O20  1  0.530925  0.976425  0.961725  1
  O  O21  1  0.281954  0.281954  0.714220  1
