# generated using pymatgen
data_Ce4Ta3NbN8
_symmetry_space_group_name_H-M   'P 1'
_cell_length_a   3.34621400
_cell_length_b   5.76559369
_cell_length_c   11.05073848
_cell_angle_alpha   89.83000085
_cell_angle_beta   90.00000000
_cell_angle_gamma   90.00000000
_symmetry_Int_Tables_number   1
_chemical_formula_structural   Ce4Ta3NbN8
_chemical_formula_sum   'Ce4 Ta3 Nb1 N8'
_cell_volume   213.19996813
_cell_formula_units_Z   1
loop_
 _symmetry_equiv_pos_site_id
 _symmetry_equiv_pos_as_xyz
  1  'x, y, z'
loop_
 _atom_site_type_symbol
 _atom_site_label
 _atom_site_symmetry_multiplicity
 _atom_site_fract_x
 _atom_site_fract_y
 _atom_site_fract_z
 _atom_site_occupancy
  Ce  Ce0  1  0.250000  0.580118  0.860274  1
  Ce  Ce1  1  0.750000  0.419174  0.140281  1
  Ce  Ce2  1  0.750000  0.923437  0.360934  1
  Ce  Ce3  1  0.250000  0.079156  0.639363  1
  Ta  Ta4  1  0.250000  0.919600  0.105445  1
  Ta  Ta5  1  0.750000  0.079762  0.893575  1
  Ta  Ta6  1  0.750000  0.577771  0.603640  1
  Nb  Nb7  1  0.250000  0.422283  0.396745  1
  N  N8  1  0.250000  0.664522  0.244330  1
  N  N9  1  0.750000  0.337555  0.754100  1
  N  N10  1  0.750000  0.836623  0.746589  1
  N  N11  1  0.250000  0.159694  0.250896  1
  N  N12  1  0.250000  0.741288  0.511794  1
  N  N13  1  0.750000  0.259470  0.493119  1
  N  N14  1  0.750000  0.763816  0.009503  1
  N  N15  1  0.250000  0.235728  0.989410  1
