# generated using pymatgen
data_Lu4Ga2B4Ir9Ru
_symmetry_space_group_name_H-M   'P 1'
_cell_length_a   9.54778068
_cell_length_b   9.54778068
_cell_length_c   3.10894200
_cell_angle_alpha   90.00000000
_cell_angle_beta   90.00000000
_cell_angle_gamma   90.44093908
_symmetry_Int_Tables_number   1
_chemical_formula_structural   Lu4Ga2B4Ir9Ru
_chemical_formula_sum   'Lu4 Ga2 B4 Ir9 Ru1'
_cell_volume   283.40312074
_cell_formula_units_Z   1
loop_
 _symmetry_equiv_pos_site_id
 _symmetry_equiv_pos_as_xyz
  1  'x, y, z'
loop_
 _atom_site_type_symbol
 _atom_site_label
 _atom_site_symmetry_multiplicity
 _atom_site_fract_x
 _atom_site_fract_y
 _atom_site_fract_z
 _atom_site_occupancy
  Lu  Lu0  1  0.673528  0.173528  0.000000  1
  Lu  Lu1  1  0.326472  0.826472  0.000000  1
  Lu  Lu2  1  0.176495  0.323505  0.000000  1
  Lu  Lu3  1  0.823505  0.676495  0.000000  1
  Ga  Ga4  1  0.000000  0.000000  0.000000  1
  Ga  Ga5  1  0.500000  0.500000  0.000000  1
  B  B6  1  0.123769  0.623769  0.000000  1
  B  B7  1  0.876231  0.376231  0.000000  1
  B  B8  1  0.621748  0.878252  0.000000  1
  B  B9  1  0.378252  0.121748  0.000000  1
  Ir  Ir10  1  0.217455  0.069416  0.500000  1
  Ir  Ir11  1  0.782545  0.930584  0.500000  1
  Ir  Ir12  1  0.069927  0.782028  0.500000  1
  Ir  Ir13  1  0.717972  0.430073  0.500000  1
  Ir  Ir14  1  0.930073  0.217972  0.500000  1
  Ir  Ir15  1  0.282028  0.569927  0.500000  1
  Ir  Ir16  1  0.569416  0.717455  0.500000  1
  Ir  Ir17  1  0.430584  0.282545  0.500000  1
  Ir  Ir18  1  0.000000  0.500000  0.500000  1
  Ru  Ru19  1  0.500000  0.000000  0.500000  1
