# generated using pymatgen
data_TmZn(GaCo)2
_symmetry_space_group_name_H-M   'P 1'
_cell_length_a   4.09038500
_cell_length_b   8.83787285
_cell_length_c   8.83787481
_cell_angle_alpha   60.05841967
_cell_angle_beta   90.00000000
_cell_angle_gamma   90.00000000
_symmetry_Int_Tables_number   1
_chemical_formula_structural   TmZn(GaCo)2
_chemical_formula_sum   'Tm3 Zn3 Ga6 Co6'
_cell_volume   276.85079219
_cell_formula_units_Z   3
loop_
 _symmetry_equiv_pos_site_id
 _symmetry_equiv_pos_as_xyz
  1  'x, y, z'
loop_
 _atom_site_type_symbol
 _atom_site_label
 _atom_site_symmetry_multiplicity
 _atom_site_fract_x
 _atom_site_fract_y
 _atom_site_fract_z
 _atom_site_occupancy
  Tm  Tm0  1  0.500000  0.333344  0.333367  1
  Tm  Tm1  1  0.500000  0.666633  0.666656  1
  Tm  Tm2  1  0.000000  0.000004  0.999996  1
  Zn  Zn3  1  0.500000  0.293396  0.706604  1
  Zn  Zn4  1  0.500000  0.706553  0.999984  1
  Zn  Zn5  1  0.500000  0.000016  0.293447  1
  Ga  Ga6  1  0.000000  0.493913  0.506087  1
  Ga  Ga7  1  0.000000  0.506089  0.999989  1
  Ga  Ga8  1  0.000000  0.000011  0.493911  1
  Ga  Ga9  1  0.500000  0.716104  0.283896  1
  Ga  Ga10  1  0.500000  0.283916  0.000032  1
  Ga  Ga11  1  0.500000  0.999968  0.716084  1
  Co  Co12  1  0.000000  0.189037  0.179162  1
  Co  Co13  1  0.000000  0.179163  0.631867  1
  Co  Co14  1  0.000000  0.631839  0.189055  1
  Co  Co15  1  0.000000  0.820838  0.810963  1
  Co  Co16  1  0.000000  0.368133  0.820837  1
  Co  Co17  1  0.000000  0.810945  0.368161  1
