# generated using pymatgen
data_YTm7Sc12Si15Ru
_symmetry_space_group_name_H-M   'P 1'
_cell_length_a   7.03602405
_cell_length_b   7.41107346
_cell_length_c   13.87820236
_cell_angle_alpha   90.02547255
_cell_angle_beta   90.00504959
_cell_angle_gamma   90.21538199
_symmetry_Int_Tables_number   1
_chemical_formula_structural   YTm7Sc12Si15Ru
_chemical_formula_sum   'Y1 Tm7 Sc12 Si15 Ru1'
_cell_volume   723.66661200
_cell_formula_units_Z   1
loop_
 _symmetry_equiv_pos_site_id
 _symmetry_equiv_pos_as_xyz
  1  'x, y, z'
loop_
 _atom_site_type_symbol
 _atom_site_label
 _atom_site_symmetry_multiplicity
 _atom_site_fract_x
 _atom_site_fract_y
 _atom_site_fract_z
 _atom_site_occupancy
  Y  Y0  1  0.010747  0.178837  0.095222  1
  Tm  Tm1  1  0.991311  0.826424  0.904978  1
  Tm  Tm2  1  0.489508  0.677928  0.904647  1
  Tm  Tm3  1  0.991384  0.826613  0.594847  1
  Tm  Tm4  1  0.510841  0.321936  0.095819  1
  Tm  Tm5  1  0.011140  0.179537  0.404197  1
  Tm  Tm6  1  0.510952  0.321804  0.404288  1
  Tm  Tm7  1  0.489375  0.677912  0.595271  1
  Sc  Sc8  1  0.158586  0.504575  0.749980  1
  Sc  Sc9  1  0.837596  0.494673  0.250221  1
  Sc  Sc10  1  0.339336  0.006123  0.250191  1
  Sc  Sc11  1  0.670028  0.997205  0.750000  1
  Sc  Sc12  1  0.316195  0.171826  0.627881  1
  Sc  Sc13  1  0.671633  0.825367  0.374260  1
  Sc  Sc14  1  0.171106  0.677897  0.374284  1
  Sc  Sc15  1  0.671481  0.825205  0.125894  1
  Sc  Sc16  1  0.838070  0.320021  0.627663  1
  Sc  Sc17  1  0.316475  0.171772  0.871954  1
  Sc  Sc18  1  0.837765  0.320338  0.872154  1
  Sc  Sc19  1  0.171192  0.677827  0.125852  1
  Si  Si20  1  0.968627  0.886600  0.250325  1
  Si  Si21  1  0.469381  0.611940  0.250075  1
  Si  Si22  1  0.529429  0.390051  0.749965  1
  Si  Si23  1  0.286698  0.864545  0.749977  1
  Si  Si24  1  0.712844  0.131488  0.250460  1
  Si  Si25  1  0.214770  0.369583  0.250555  1
  Si  Si26  1  0.779770  0.629113  0.749965  1
  Si  Si27  1  0.161466  0.468641  0.537351  1
  Si  Si28  1  0.842151  0.535079  0.461640  1
  Si  Si29  1  0.342659  0.966521  0.460310  1
  Si  Si30  1  0.841726  0.536066  0.038107  1
  Si  Si31  1  0.657225  0.034502  0.538723  1
  Si  Si32  1  0.161677  0.469452  0.962311  1
  Si  Si33  1  0.656929  0.034325  0.961110  1
  Si  Si34  1  0.343895  0.965795  0.039496  1
  Ru  Ru35  1  0.026027  0.102481  0.750028  1
