# generated using pymatgen
data_La2HgC2
_symmetry_space_group_name_H-M   'P 1'
_cell_length_a   8.09000425
_cell_length_b   8.09000408
_cell_length_c   7.11830831
_cell_angle_alpha   103.38497013
_cell_angle_beta   103.38497070
_cell_angle_gamma   30.35419794
_symmetry_Int_Tables_number   1
_chemical_formula_structural   La2HgC2
_chemical_formula_sum   'La4 Hg2 C4'
_cell_volume   228.55712065
_cell_formula_units_Z   2
loop_
 _symmetry_equiv_pos_site_id
 _symmetry_equiv_pos_as_xyz
  1  'x, y, z'
loop_
 _atom_site_type_symbol
 _atom_site_label
 _atom_site_symmetry_multiplicity
 _atom_site_fract_x
 _atom_site_fract_y
 _atom_site_fract_z
 _atom_site_occupancy
  La  La0  1  0.825544  0.476653  0.136785  1
  La  La1  1  0.523347  0.174456  0.363216  1
  La  La2  1  0.476653  0.825544  0.636785  1
  La  La3  1  0.174456  0.523347  0.863216  1
  Hg  Hg4  1  0.132694  0.867307  0.250000  1
  Hg  Hg5  1  0.867307  0.132694  0.750000  1
  C  C6  1  0.360446  0.091019  0.025732  1
  C  C7  1  0.908981  0.639553  0.474268  1
  C  C8  1  0.091019  0.360446  0.525732  1
  C  C9  1  0.639554  0.908981  0.974268  1
