# generated using pymatgen
data_LiHo6Si6Ni
_symmetry_space_group_name_H-M   'P 1'
_cell_length_a   5.62840624
_cell_length_b   5.62840672
_cell_length_c   13.54397291
_cell_angle_alpha   108.75629681
_cell_angle_beta   108.75630017
_cell_angle_gamma   43.87314189
_symmetry_Int_Tables_number   1
_chemical_formula_structural   LiHo6Si6Ni
_chemical_formula_sum   'Li1 Ho6 Si6 Ni1'
_cell_volume   278.92803073
_cell_formula_units_Z   1
loop_
 _symmetry_equiv_pos_site_id
 _symmetry_equiv_pos_as_xyz
  1  'x, y, z'
loop_
 _atom_site_type_symbol
 _atom_site_label
 _atom_site_symmetry_multiplicity
 _atom_site_fract_x
 _atom_site_fract_y
 _atom_site_fract_z
 _atom_site_occupancy
  Li  Li0  1  0.247643  0.247643  0.407567  1
  Ho  Ho1  1  0.394350  0.394350  0.077293  1
  Ho  Ho2  1  0.743822  0.743822  0.222166  1
  Ho  Ho3  1  0.536032  0.536032  0.384496  1
  Ho  Ho4  1  0.472363  0.472363  0.622459  1
  Ho  Ho5  1  0.252698  0.252698  0.773422  1
  Ho  Ho6  1  0.600393  0.600393  0.921509  1
  Si  Si7  1  0.109472  0.109472  0.074375  1
  Si  Si8  1  0.035797  0.035797  0.228830  1
  Si  Si9  1  0.880637  0.880637  0.458687  1
  Si  Si10  1  0.134546  0.134546  0.551330  1
  Si  Si11  1  0.951585  0.951585  0.763704  1
  Si  Si12  1  0.884771  0.884771  0.922756  1
  Ni  Ni13  1  0.755891  0.755891  0.591407  1
