# generated using pymatgen
data_ErPa3MnGa12
_symmetry_space_group_name_H-M   'P 1'
_cell_length_a   7.52893723
_cell_length_b   7.44987503
_cell_length_c   7.44987551
_cell_angle_alpha   109.25524961
_cell_angle_beta   109.68634363
_cell_angle_gamma   109.68633779
_symmetry_Int_Tables_number   1
_chemical_formula_structural   ErPa3MnGa12
_chemical_formula_sum   'Er1 Pa3 Mn1 Ga12'
_cell_volume   320.81146714
_cell_formula_units_Z   1
loop_
 _symmetry_equiv_pos_site_id
 _symmetry_equiv_pos_as_xyz
  1  'x, y, z'
loop_
 _atom_site_type_symbol
 _atom_site_label
 _atom_site_symmetry_multiplicity
 _atom_site_fract_x
 _atom_site_fract_y
 _atom_site_fract_z
 _atom_site_occupancy
  Er  Er0  1  0.500000  0.000000  0.000000  1
  Pa  Pa1  1  0.000000  0.000000  0.500000  1
  Pa  Pa2  1  0.000000  0.500000  0.000000  1
  Pa  Pa3  1  0.500000  0.500000  0.500000  1
  Mn  Mn4  1  0.000000  0.000000  0.000000  1
  Ga  Ga5  1  0.749590  0.249590  0.499180  1
  Ga  Ga6  1  0.749590  0.499180  0.249590  1
  Ga  Ga7  1  0.500000  0.249590  0.750410  1
  Ga  Ga8  1  0.250410  0.500820  0.750410  1
  Ga  Ga9  1  0.250410  0.750410  0.500820  1
  Ga  Ga10  1  0.500000  0.750410  0.249590  1
  Ga  Ga11  1  0.709466  0.711283  0.000000  1
  Ga  Ga12  1  0.290534  0.000000  0.288717  1
  Ga  Ga13  1  0.998183  0.288717  0.288717  1
  Ga  Ga14  1  0.290534  0.288717  0.000000  1
  Ga  Ga15  1  0.709466  0.000000  0.711283  1
  Ga  Ga16  1  0.001817  0.711283  0.711283  1
