# generated using pymatgen
data_Y2Er10ZnCo4Bi
_symmetry_space_group_name_H-M   'P 1'
_cell_length_a   8.33535178
_cell_length_b   8.33535140
_cell_length_c   8.28858900
_cell_angle_alpha   109.65586912
_cell_angle_beta   111.37398387
_cell_angle_gamma   107.64436335
_symmetry_Int_Tables_number   1
_chemical_formula_structural   Y2Er10ZnCo4Bi
_chemical_formula_sum   'Y2 Er10 Zn1 Co4 Bi1'
_cell_volume   441.52675901
_cell_formula_units_Z   1
loop_
 _symmetry_equiv_pos_site_id
 _symmetry_equiv_pos_as_xyz
  1  'x, y, z'
loop_
 _atom_site_type_symbol
 _atom_site_label
 _atom_site_symmetry_multiplicity
 _atom_site_fract_x
 _atom_site_fract_y
 _atom_site_fract_z
 _atom_site_occupancy
  Y  Y0  1  0.285252  0.183510  0.468763  1
  Y  Y1  1  0.714748  0.816490  0.531237  1
  Er  Er2  1  0.286172  0.817663  0.103835  1
  Er  Er3  1  0.713828  0.182337  0.896165  1
  Er  Er4  1  0.622299  0.313044  0.307488  1
  Er  Er5  1  0.377701  0.686956  0.692512  1
  Er  Er6  1  0.005557  0.314810  0.692512  1
  Er  Er7  1  0.994443  0.685190  0.307488  1
  Er  Er8  1  0.217437  0.425284  0.205497  1
  Er  Er9  1  0.782563  0.574716  0.794503  1
  Er  Er10  1  0.219787  0.011940  0.794503  1
  Er  Er11  1  0.780213  0.988060  0.205497  1
  Zn  Zn12  1  0.000000  0.000000  0.000000  1
  Co  Co13  1  0.000001  0.376452  0.376453  1
  Co  Co14  1  0.999999  0.623548  0.623547  1
  Co  Co15  1  0.387030  0.887030  0.500000  1
  Co  Co16  1  0.612970  0.112970  0.500000  1
  Bi  Bi17  1  0.500000  0.500000  0.000000  1
