# generated using pymatgen
data_Ho3Cd3PdPt2
_symmetry_space_group_name_H-M   'P 1'
_cell_length_a   7.62992100
_cell_length_b   7.62992002
_cell_length_c   3.86349200
_cell_angle_alpha   90.00000000
_cell_angle_beta   90.00000000
_cell_angle_gamma   120.00000856
_symmetry_Int_Tables_number   1
_chemical_formula_structural   Ho3Cd3PdPt2
_chemical_formula_sum   'Ho3 Cd3 Pd1 Pt2'
_cell_volume   194.78281529
_cell_formula_units_Z   1
loop_
 _symmetry_equiv_pos_site_id
 _symmetry_equiv_pos_as_xyz
  1  'x, y, z'
loop_
 _atom_site_type_symbol
 _atom_site_label
 _atom_site_symmetry_multiplicity
 _atom_site_fract_x
 _atom_site_fract_y
 _atom_site_fract_z
 _atom_site_occupancy
  Ho  Ho0  1  0.409507  0.409507  0.500000  1
  Ho  Ho1  1  0.590493  0.000000  0.500000  1
  Ho  Ho2  1  0.000000  0.590493  0.500000  1
  Cd  Cd3  1  0.000000  0.256762  0.000000  1
  Cd  Cd4  1  0.743238  0.743238  0.000000  1
  Cd  Cd5  1  0.256762  0.000000  0.000000  1
  Pd  Pd6  1  0.000000  0.000000  0.500000  1
  Pt  Pt7  1  0.666667  0.333333  0.000000  1
  Pt  Pt8  1  0.333333  0.666667  0.000000  1
