# generated using pymatgen
data_Sm2MnFeSi2C
_symmetry_space_group_name_H-M   'P 1'
_cell_length_a   4.01458766
_cell_length_b   5.77923039
_cell_length_c   5.77630719
_cell_angle_alpha   74.01078512
_cell_angle_beta   69.66522718
_cell_angle_gamma   69.67597632
_symmetry_Int_Tables_number   1
_chemical_formula_structural   Sm2MnFeSi2C
_chemical_formula_sum   'Sm2 Mn1 Fe1 Si2 C1'
_cell_volume   116.00220729
_cell_formula_units_Z   1
loop_
 _symmetry_equiv_pos_site_id
 _symmetry_equiv_pos_as_xyz
  1  'x, y, z'
loop_
 _atom_site_type_symbol
 _atom_site_label
 _atom_site_symmetry_multiplicity
 _atom_site_fract_x
 _atom_site_fract_y
 _atom_site_fract_z
 _atom_site_occupancy
  Sm  Sm0  1  0.441173  0.822652  0.295003  1
  Sm  Sm1  1  0.559216  0.175897  0.705671  1
  Mn  Mn2  1  0.802315  0.303391  0.091979  1
  Fe  Fe3  1  0.199237  0.694028  0.907498  1
  Si  Si4  1  0.828668  0.611258  0.731407  1
  Si  Si5  1  0.169535  0.392552  0.268378  1
  C  C6  1  0.999856  0.000223  0.000065  1
