# generated using pymatgen
data_Ho6Pb5
_symmetry_space_group_name_H-M   'P 1'
_cell_length_a   11.71008355
_cell_length_b   11.71008341
_cell_length_c   11.71008269
_cell_angle_alpha   146.85128166
_cell_angle_beta   132.79562742
_cell_angle_gamma   58.89289997
_symmetry_Int_Tables_number   1
_chemical_formula_structural   Ho6Pb5
_chemical_formula_sum   'Ho12 Pb10'
_cell_volume   638.82646291
_cell_formula_units_Z   2
loop_
 _symmetry_equiv_pos_site_id
 _symmetry_equiv_pos_as_xyz
  1  'x, y, z'
loop_
 _atom_site_type_symbol
 _atom_site_label
 _atom_site_symmetry_multiplicity
 _atom_site_fract_x
 _atom_site_fract_y
 _atom_site_fract_z
 _atom_site_occupancy
  Ho  Ho0  1  0.696243  0.946243  0.250000  1
  Ho  Ho1  1  0.250358  0.637933  0.612424  1
  Ho  Ho2  1  0.680327  0.941026  0.739300  1
  Ho  Ho3  1  0.025510  0.137933  0.887576  1
  Ho  Ho4  1  0.974490  0.862067  0.112424  1
  Ho  Ho5  1  0.798274  0.558974  0.239300  1
  Ho  Ho6  1  0.201726  0.441026  0.760700  1
  Ho  Ho7  1  0.303757  0.053757  0.750000  1
  Ho  Ho8  1  0.319673  0.058974  0.260700  1
  Ho  Ho9  1  0.303757  0.553757  0.250000  1
  Ho  Ho10  1  0.749642  0.362067  0.387576  1
  Ho  Ho11  1  0.696243  0.446243  0.750000  1
  Pb  Pb12  1  0.479631  0.574280  0.905352  1
  Pb  Pb13  1  0.598952  0.794536  0.804416  1
  Pb  Pb14  1  0.668928  0.074280  0.594648  1
  Pb  Pb15  1  0.000000  0.750000  0.750000  1
  Pb  Pb16  1  0.990120  0.294536  0.695584  1
  Pb  Pb17  1  0.520369  0.425720  0.094648  1
  Pb  Pb18  1  0.009880  0.705464  0.304416  1
  Pb  Pb19  1  0.401048  0.205464  0.195584  1
  Pb  Pb20  1  0.331072  0.925720  0.405352  1
  Pb  Pb21  1  0.000000  0.250000  0.250000  1
