# generated using pymatgen
data_Ba2CeCu2S5
_symmetry_space_group_name_H-M   'P 1'
_cell_length_a   4.12169158
_cell_length_b   7.13685470
_cell_length_c   9.13739011
_cell_angle_alpha   102.93760006
_cell_angle_beta   103.03463038
_cell_angle_gamma   106.78378798
_symmetry_Int_Tables_number   1
_chemical_formula_structural   Ba2CeCu2S5
_chemical_formula_sum   'Ba2 Ce1 Cu2 S5'
_cell_volume   238.36513888
_cell_formula_units_Z   1
loop_
 _symmetry_equiv_pos_site_id
 _symmetry_equiv_pos_as_xyz
  1  'x, y, z'
loop_
 _atom_site_type_symbol
 _atom_site_label
 _atom_site_symmetry_multiplicity
 _atom_site_fract_x
 _atom_site_fract_y
 _atom_site_fract_z
 _atom_site_occupancy
  Ba  Ba0  1  0.478383  0.655159  0.301608  1
  Ba  Ba1  1  0.521617  0.344841  0.698392  1
  Ce  Ce2  1  0.000000  0.000000  0.000000  1
  Cu  Cu3  1  0.743112  0.190167  0.296058  1
  Cu  Cu4  1  0.256888  0.809833  0.703942  1
  S  S5  1  0.677250  0.288166  0.066335  1
  S  S6  1  0.164015  0.018861  0.309169  1
  S  S7  1  0.000001  0.500001  0.500000  1
  S  S8  1  0.835985  0.981139  0.690832  1
  S  S9  1  0.322751  0.711836  0.933665  1
