# generated using pymatgen
data_SmTm2Be2Co9B4
_symmetry_space_group_name_H-M   'P 1'
_cell_length_a   5.04928802
_cell_length_b   5.05040127
_cell_length_c   9.42586800
_cell_angle_alpha   90.00000000
_cell_angle_beta   90.00000000
_cell_angle_gamma   120.00292343
_symmetry_Int_Tables_number   1
_chemical_formula_structural   SmTm2Be2Co9B4
_chemical_formula_sum   'Sm1 Tm2 Be2 Co9 B4'
_cell_volume   208.15901332
_cell_formula_units_Z   1
loop_
 _symmetry_equiv_pos_site_id
 _symmetry_equiv_pos_as_xyz
  1  'x, y, z'
loop_
 _atom_site_type_symbol
 _atom_site_label
 _atom_site_symmetry_multiplicity
 _atom_site_fract_x
 _atom_site_fract_y
 _atom_site_fract_z
 _atom_site_occupancy
  Sm  Sm0  1  0.000000  0.000000  0.000000  1
  Tm  Tm1  1  0.000000  0.000000  0.660938  1
  Tm  Tm2  1  0.000000  0.000000  0.339062  1
  Be  Be3  1  0.666676  0.333245  0.000000  1
  Be  Be4  1  0.333324  0.666755  0.000000  1
  Co  Co5  1  0.500000  0.500000  0.500000  1
  Co  Co6  1  0.500000  0.000000  0.500000  1
  Co  Co7  1  0.000000  0.500000  0.500000  1
  Co  Co8  1  0.500000  0.500000  0.806910  1
  Co  Co9  1  0.500000  0.000000  0.806915  1
  Co  Co10  1  0.000000  0.500000  0.806901  1
  Co  Co11  1  0.500000  0.500000  0.193090  1
  Co  Co12  1  0.500000  0.000000  0.193085  1
  Co  Co13  1  0.000000  0.500000  0.193099  1
  B  B14  1  0.666665  0.333313  0.656622  1
  B  B15  1  0.333335  0.666687  0.656622  1
  B  B16  1  0.333335  0.666687  0.343378  1
  B  B17  1  0.666665  0.333313  0.343378  1
