# generated using pymatgen
data_Yb3Pr17(Ga2Sn)4
_symmetry_space_group_name_H-M   'P 1'
_cell_length_a   8.13990300
_cell_length_b   8.13990300
_cell_length_c   14.45126700
_cell_angle_alpha   90.00000000
_cell_angle_beta   90.00000000
_cell_angle_gamma   90.00000000
_symmetry_Int_Tables_number   1
_chemical_formula_structural   Yb3Pr17(Ga2Sn)4
_chemical_formula_sum   'Yb3 Pr17 Ga8 Sn4'
_cell_volume   957.51235019
_cell_formula_units_Z   1
loop_
 _symmetry_equiv_pos_site_id
 _symmetry_equiv_pos_as_xyz
  1  'x, y, z'
loop_
 _atom_site_type_symbol
 _atom_site_label
 _atom_site_symmetry_multiplicity
 _atom_site_fract_x
 _atom_site_fract_y
 _atom_site_fract_z
 _atom_site_occupancy
  Yb  Yb0  1  0.000000  0.500000  0.739450  1
  Yb  Yb1  1  0.000000  0.500000  0.245256  1
  Yb  Yb2  1  0.500000  0.000000  0.254664  1
  Pr  Pr3  1  0.823700  0.831136  0.605419  1
  Pr  Pr4  1  0.171845  0.831283  0.105655  1
  Pr  Pr5  1  0.168473  0.826592  0.393155  1
  Pr  Pr6  1  0.831527  0.173408  0.393155  1
  Pr  Pr7  1  0.673408  0.668473  0.393155  1
  Pr  Pr8  1  0.668864  0.323700  0.605419  1
  Pr  Pr9  1  0.331136  0.676300  0.605419  1
  Pr  Pr10  1  0.668717  0.671845  0.105655  1
  Pr  Pr11  1  0.675918  0.335462  0.894554  1
  Pr  Pr12  1  0.835462  0.824082  0.894554  1
  Pr  Pr13  1  0.326592  0.331527  0.393155  1
  Pr  Pr14  1  0.176300  0.168864  0.605419  1
  Pr  Pr15  1  0.828155  0.168717  0.105655  1
  Pr  Pr16  1  0.324082  0.664538  0.894554  1
  Pr  Pr17  1  0.331283  0.328155  0.105655  1
  Pr  Pr18  1  0.164538  0.175918  0.894554  1
  Pr  Pr19  1  0.500000  0.000000  0.772408  1
  Ga  Ga20  1  0.619728  0.380842  0.249609  1
  Ga  Ga21  1  0.121265  0.880939  0.748365  1
  Ga  Ga22  1  0.380939  0.378735  0.748365  1
  Ga  Ga23  1  0.380272  0.619158  0.249609  1
  Ga  Ga24  1  0.880842  0.880272  0.249609  1
  Ga  Ga25  1  0.619061  0.621265  0.748365  1
  Ga  Ga26  1  0.878735  0.119061  0.748365  1
  Ga  Ga27  1  0.119158  0.119728  0.249609  1
  Sn  Sn28  1  0.000000  0.500000  0.500908  1
  Sn  Sn29  1  0.500000  0.000000  0.495882  1
  Sn  Sn30  1  0.500000  0.000000  0.001796  1
  Sn  Sn31  1  0.000000  0.500000  0.002604  1
