# generated using pymatgen
data_HgBF5
_symmetry_space_group_name_H-M   'P 1'
_cell_length_a   7.03147100
_cell_length_b   7.03147100
_cell_length_c   4.26896600
_cell_angle_alpha   90.00000000
_cell_angle_beta   90.00000000
_cell_angle_gamma   90.00000000
_symmetry_Int_Tables_number   1
_chemical_formula_structural   HgBF5
_chemical_formula_sum   'Hg2 B2 F10'
_cell_volume   211.06444289
_cell_formula_units_Z   2
loop_
 _symmetry_equiv_pos_site_id
 _symmetry_equiv_pos_as_xyz
  1  'x, y, z'
loop_
 _atom_site_type_symbol
 _atom_site_label
 _atom_site_symmetry_multiplicity
 _atom_site_fract_x
 _atom_site_fract_y
 _atom_site_fract_z
 _atom_site_occupancy
  Hg  Hg0  1  0.500000  0.000000  0.820077  1
  Hg  Hg1  1  0.000000  0.500000  0.179923  1
  B  B2  1  0.000000  0.000000  0.000000  1
  B  B3  1  0.500000  0.500000  0.000000  1
  F  F4  1  0.000000  0.500000  0.679446  1
  F  F5  1  0.500000  0.000000  0.320554  1
  F  F6  1  0.566653  0.651055  0.808680  1
  F  F7  1  0.848945  0.066653  0.808680  1
  F  F8  1  0.348945  0.566653  0.191320  1
  F  F9  1  0.066653  0.151055  0.191320  1
  F  F10  1  0.933347  0.848945  0.191320  1
  F  F11  1  0.651055  0.433347  0.191320  1
  F  F12  1  0.151055  0.933347  0.808680  1
  F  F13  1  0.433347  0.348945  0.808680  1
