# generated using pymatgen
data_LaNd7(CdPd)2
_symmetry_space_group_name_H-M   'P 1'
_cell_length_a   10.06273509
_cell_length_b   10.06273462
_cell_length_c   10.07269100
_cell_angle_alpha   59.96726120
_cell_angle_beta   59.96726274
_cell_angle_gamma   59.89359474
_symmetry_Int_Tables_number   1
_chemical_formula_structural   LaNd7(CdPd)2
_chemical_formula_sum   'La2 Nd14 Cd4 Pd4'
_cell_volume   720.27340215
_cell_formula_units_Z   2
loop_
 _symmetry_equiv_pos_site_id
 _symmetry_equiv_pos_as_xyz
  1  'x, y, z'
loop_
 _atom_site_type_symbol
 _atom_site_label
 _atom_site_symmetry_multiplicity
 _atom_site_fract_x
 _atom_site_fract_y
 _atom_site_fract_z
 _atom_site_occupancy
  La  La0  1  0.350190  0.350190  0.351265  1
  La  La1  1  0.350190  0.350190  0.948356  1
  Nd  Nd2  1  0.352344  0.940928  0.353364  1
  Nd  Nd3  1  0.940928  0.352344  0.353364  1
  Nd  Nd4  1  0.810397  0.191951  0.190441  1
  Nd  Nd5  1  0.191951  0.810397  0.807211  1
  Nd  Nd6  1  0.191951  0.810397  0.190441  1
  Nd  Nd7  1  0.810397  0.191951  0.807211  1
  Nd  Nd8  1  0.191573  0.191573  0.808427  1
  Nd  Nd9  1  0.808601  0.808601  0.191399  1
  Nd  Nd10  1  0.936633  0.564764  0.565451  1
  Nd  Nd11  1  0.564764  0.936633  0.933153  1
  Nd  Nd12  1  0.564764  0.936633  0.565451  1
  Nd  Nd13  1  0.936633  0.564764  0.933153  1
  Nd  Nd14  1  0.565043  0.565043  0.934957  1
  Nd  Nd15  1  0.935589  0.935589  0.564411  1
  Cd  Cd16  1  0.581425  0.581425  0.579392  1
  Cd  Cd17  1  0.581425  0.581425  0.257757  1
  Cd  Cd18  1  0.582180  0.257055  0.580383  1
  Cd  Cd19  1  0.257055  0.582180  0.580383  1
  Pd  Pd20  1  0.142475  0.142475  0.146532  1
  Pd  Pd21  1  0.142475  0.142475  0.568517  1
  Pd  Pd22  1  0.142086  0.568933  0.144491  1
  Pd  Pd23  1  0.568933  0.142086  0.144491  1
