# generated using pymatgen
data_Zr6Zn20SiNi2Pd
_symmetry_space_group_name_H-M   'P 1'
_cell_length_a   8.71640036
_cell_length_b   8.71639882
_cell_length_c   8.75237500
_cell_angle_alpha   59.86338349
_cell_angle_beta   59.86338936
_cell_angle_gamma   60.27324004
_symmetry_Int_Tables_number   1
_chemical_formula_structural   Zr6Zn20SiNi2Pd
_chemical_formula_sum   'Zr6 Zn20 Si1 Ni2 Pd1'
_cell_volume   470.18673033
_cell_formula_units_Z   1
loop_
 _symmetry_equiv_pos_site_id
 _symmetry_equiv_pos_as_xyz
  1  'x, y, z'
loop_
 _atom_site_type_symbol
 _atom_site_label
 _atom_site_symmetry_multiplicity
 _atom_site_fract_x
 _atom_site_fract_y
 _atom_site_fract_z
 _atom_site_occupancy
  Zr  Zr0  1  0.708912  0.291088  0.291088  1
  Zr  Zr1  1  0.291088  0.708912  0.708912  1
  Zr  Zr2  1  0.291088  0.708912  0.291088  1
  Zr  Zr3  1  0.708912  0.291088  0.708912  1
  Zr  Zr4  1  0.286222  0.286222  0.713778  1
  Zr  Zr5  1  0.713778  0.713778  0.286222  1
  Zn  Zn6  1  0.118210  0.118210  0.133405  1
  Zn  Zn7  1  0.881790  0.881790  0.866595  1
  Zn  Zn8  1  0.118210  0.118210  0.630175  1
  Zn  Zn9  1  0.133405  0.630175  0.118210  1
  Zn  Zn10  1  0.881790  0.881790  0.369825  1
  Zn  Zn11  1  0.866595  0.369825  0.881790  1
  Zn  Zn12  1  0.630175  0.133405  0.118210  1
  Zn  Zn13  1  0.369825  0.866595  0.881790  1
  Zn  Zn14  1  0.500000  0.000000  0.000000  1
  Zn  Zn15  1  0.000000  0.500000  0.500000  1
  Zn  Zn16  1  0.000000  0.500000  0.000000  1
  Zn  Zn17  1  0.500000  0.000000  0.500000  1
  Zn  Zn18  1  0.340249  0.340249  0.329105  1
  Zn  Zn19  1  0.659751  0.659751  0.670895  1
  Zn  Zn20  1  0.340249  0.340249  0.990398  1
  Zn  Zn21  1  0.329105  0.990398  0.340249  1
  Zn  Zn22  1  0.659751  0.659751  0.009602  1
  Zn  Zn23  1  0.670895  0.009602  0.659751  1
  Zn  Zn24  1  0.990398  0.329105  0.340249  1
  Zn  Zn25  1  0.009602  0.670895  0.659751  1
  Si  Si26  1  0.500000  0.500000  0.500000  1
  Ni  Ni27  1  0.000000  0.000000  0.500000  1
  Ni  Ni28  1  0.500000  0.500000  0.000000  1
  Pd  Pd29  1  0.000000  0.000000  0.000000  1
