# generated using pymatgen
data_Dy4Er8Co2Ni3Bi
_symmetry_space_group_name_H-M   'P 1'
_cell_length_a   8.28013707
_cell_length_b   8.28013705
_cell_length_c   8.28013726
_cell_angle_alpha   109.40969219
_cell_angle_beta   111.15031706
_cell_angle_gamma   107.87029795
_symmetry_Int_Tables_number   1
_chemical_formula_structural   Dy4Er8Co2Ni3Bi
_chemical_formula_sum   'Dy4 Er8 Co2 Ni3 Bi1'
_cell_volume   436.65049303
_cell_formula_units_Z   1
loop_
 _symmetry_equiv_pos_site_id
 _symmetry_equiv_pos_as_xyz
  1  'x, y, z'
loop_
 _atom_site_type_symbol
 _atom_site_label
 _atom_site_symmetry_multiplicity
 _atom_site_fract_x
 _atom_site_fract_y
 _atom_site_fract_z
 _atom_site_occupancy
  Dy  Dy0  1  0.288792  0.180925  0.469717  1
  Dy  Dy1  1  0.711208  0.819075  0.530283  1
  Dy  Dy2  1  0.288792  0.819075  0.107868  1
  Dy  Dy3  1  0.711208  0.180925  0.892132  1
  Er  Er4  1  0.625263  0.315132  0.310129  1
  Er  Er5  1  0.374737  0.684868  0.689871  1
  Er  Er6  1  0.005004  0.315132  0.689871  1
  Er  Er7  1  0.994996  0.684868  0.310129  1
  Er  Er8  1  0.210229  0.404474  0.194245  1
  Er  Er9  1  0.789771  0.595526  0.805755  1
  Er  Er10  1  0.210229  0.015985  0.805755  1
  Er  Er11  1  0.789771  0.984015  0.194245  1
  Co  Co12  1  0.385190  0.885190  0.500000  1
  Co  Co13  1  0.614810  0.114810  0.500000  1
  Ni  Ni14  1  0.000000  0.367591  0.367591  1
  Ni  Ni15  1  0.000000  0.632409  0.632409  1
  Ni  Ni16  1  0.000000  0.000000  0.000000  1
  Bi  Bi17  1  0.500000  0.500000  0.000000  1
