# generated using pymatgen
data_Gd3Ho(ReB4)4
_symmetry_space_group_name_H-M   'P 1'
_cell_length_a   3.62372900
_cell_length_b   5.99208613
_cell_length_c   11.59657125
_cell_angle_alpha   90.02386024
_cell_angle_beta   90.00000000
_cell_angle_gamma   90.00000000
_symmetry_Int_Tables_number   1
_chemical_formula_structural   Gd3Ho(ReB4)4
_chemical_formula_sum   'Gd3 Ho1 Re4 B16'
_cell_volume   251.80440420
_cell_formula_units_Z   1
loop_
 _symmetry_equiv_pos_site_id
 _symmetry_equiv_pos_as_xyz
  1  'x, y, z'
loop_
 _atom_site_type_symbol
 _atom_site_label
 _atom_site_symmetry_multiplicity
 _atom_site_fract_x
 _atom_site_fract_y
 _atom_site_fract_z
 _atom_site_occupancy
  Gd  Gd0  1  0.000000  0.626678  0.150484  1
  Gd  Gd1  1  0.000000  0.373876  0.849305  1
  Gd  Gd2  1  0.000000  0.126409  0.349732  1
  Ho  Ho3  1  0.000000  0.873845  0.650208  1
  Re  Re4  1  0.000000  0.633169  0.413246  1
  Re  Re5  1  0.000000  0.366834  0.587840  1
  Re  Re6  1  0.000000  0.132625  0.087049  1
  Re  Re7  1  0.000000  0.866989  0.911830  1
  B  B8  1  0.500000  0.976412  0.191640  1
  B  B9  1  0.500000  0.023133  0.807499  1
  B  B10  1  0.500000  0.476453  0.308643  1
  B  B11  1  0.500000  0.523868  0.691859  1
  B  B12  1  0.500000  0.786593  0.315757  1
  B  B13  1  0.500000  0.212683  0.684700  1
  B  B14  1  0.500000  0.286318  0.184631  1
  B  B15  1  0.500000  0.713576  0.814716  1
  B  B16  1  0.500000  0.863390  0.469188  1
  B  B17  1  0.500000  0.136579  0.531918  1
  B  B18  1  0.500000  0.363058  0.031318  1
  B  B19  1  0.500000  0.636982  0.968068  1
  B  B20  1  0.500000  0.886437  0.046751  1
  B  B21  1  0.500000  0.113297  0.952565  1
  B  B22  1  0.500000  0.386567  0.453468  1
  B  B23  1  0.500000  0.614231  0.547586  1
