# generated using pymatgen
data_TmTa5(Be2Rh5)2
_symmetry_space_group_name_H-M   'P 1'
_cell_length_a   9.14500600
_cell_length_b   9.14500602
_cell_length_c   3.40899600
_cell_angle_alpha   90.00000000
_cell_angle_beta   90.00000000
_cell_angle_gamma   90.02705336
_symmetry_Int_Tables_number   1
_chemical_formula_structural   TmTa5(Be2Rh5)2
_chemical_formula_sum   'Tm1 Ta5 Be4 Rh10'
_cell_volume   285.09817263
_cell_formula_units_Z   1
loop_
 _symmetry_equiv_pos_site_id
 _symmetry_equiv_pos_as_xyz
  1  'x, y, z'
loop_
 _atom_site_type_symbol
 _atom_site_label
 _atom_site_symmetry_multiplicity
 _atom_site_fract_x
 _atom_site_fract_y
 _atom_site_fract_z
 _atom_site_occupancy
  Tm  Tm0  1  0.824914  0.324914  0.000000  1
  Ta  Ta1  1  0.499089  0.500756  0.000000  1
  Ta  Ta2  1  0.000756  0.999089  0.000000  1
  Ta  Ta3  1  0.174666  0.674666  0.000000  1
  Ta  Ta4  1  0.325031  0.175146  0.000000  1
  Ta  Ta5  1  0.675146  0.825031  0.000000  1
  Be  Be6  1  0.614393  0.114393  0.000000  1
  Be  Be7  1  0.379416  0.879416  0.000000  1
  Be  Be8  1  0.126224  0.382847  0.000000  1
  Be  Be9  1  0.882847  0.626224  0.000000  1
  Rh  Rh10  1  0.496819  0.996819  0.500000  1
  Rh  Rh11  1  0.007242  0.507242  0.500000  1
  Rh  Rh12  1  0.710315  0.581265  0.500000  1
  Rh  Rh13  1  0.290217  0.430510  0.500000  1
  Rh  Rh14  1  0.210543  0.925033  0.500000  1
  Rh  Rh15  1  0.784401  0.061173  0.500000  1
  Rh  Rh16  1  0.425033  0.710543  0.500000  1
  Rh  Rh17  1  0.561173  0.284401  0.500000  1
  Rh  Rh18  1  0.081265  0.210315  0.500000  1
  Rh  Rh19  1  0.930510  0.790217  0.500000  1
