# generated using pymatgen
data_AlHgI4
_symmetry_space_group_name_H-M   'P 1'
_cell_length_a   7.67955737
_cell_length_b   7.89971154
_cell_length_c   10.98738252
_cell_angle_alpha   82.38506144
_cell_angle_beta   76.41931357
_cell_angle_gamma   60.52893068
_symmetry_Int_Tables_number   1
_chemical_formula_structural   AlHgI4
_chemical_formula_sum   'Al2 Hg2 I8'
_cell_volume   563.97405822
_cell_formula_units_Z   2
loop_
 _symmetry_equiv_pos_site_id
 _symmetry_equiv_pos_as_xyz
  1  'x, y, z'
loop_
 _atom_site_type_symbol
 _atom_site_label
 _atom_site_symmetry_multiplicity
 _atom_site_fract_x
 _atom_site_fract_y
 _atom_site_fract_z
 _atom_site_occupancy
  Al  Al0  1  0.379810  0.848549  0.781588  1
  Al  Al1  1  0.620190  0.151451  0.218412  1
  Hg  Hg2  1  0.966431  0.503225  0.884998  1
  Hg  Hg3  1  0.033569  0.496775  0.115002  1
  I  I4  1  0.749585  0.566525  0.688616  1
  I  I5  1  0.250415  0.433475  0.311384  1
  I  I6  1  0.324515  0.821566  0.016507  1
  I  I7  1  0.675485  0.178434  0.983493  1
  I  I8  1  0.141123  0.792754  0.685436  1
  I  I9  1  0.858877  0.207246  0.314564  1
  I  I10  1  0.369243  0.173376  0.700161  1
  I  I11  1  0.630757  0.826624  0.299839  1
