# generated using pymatgen
data_Ho(BeB14)2
_symmetry_space_group_name_H-M   'P 1'
_cell_length_a   7.17787088
_cell_length_b   7.17787066
_cell_length_c   5.72353219
_cell_angle_alpha   66.67652958
_cell_angle_beta   66.67654573
_cell_angle_gamma   92.06324869
_symmetry_Int_Tables_number   1
_chemical_formula_structural   Ho(BeB14)2
_chemical_formula_sum   'Ho1 Be2 B28'
_cell_volume   242.07837540
_cell_formula_units_Z   1
loop_
 _symmetry_equiv_pos_site_id
 _symmetry_equiv_pos_as_xyz
  1  'x, y, z'
loop_
 _atom_site_type_symbol
 _atom_site_label
 _atom_site_symmetry_multiplicity
 _atom_site_fract_x
 _atom_site_fract_y
 _atom_site_fract_z
 _atom_site_occupancy
  Ho  Ho0  1  0.883080  0.883080  0.372539  1
  Be  Be1  1  0.538471  0.538471  0.429052  1
  Be  Be2  1  0.241195  0.241195  0.319900  1
  B  B3  1  0.414179  0.733126  0.183002  1
  B  B4  1  0.578641  0.255494  0.837148  1
  B  B5  1  0.255494  0.578641  0.837148  1
  B  B6  1  0.733126  0.414179  0.183002  1
  B  B7  1  0.690926  0.857639  0.982940  1
  B  B8  1  0.302217  0.130422  0.039521  1
  B  B9  1  0.130422  0.302217  0.039521  1
  B  B10  1  0.857639  0.690926  0.982940  1
  B  B11  1  0.527397  0.869062  0.311442  1
  B  B12  1  0.466918  0.119574  0.219066  1
  B  B13  1  0.119574  0.466918  0.219066  1
  B  B14  1  0.869062  0.527397  0.311442  1
  B  B15  1  0.460125  0.116981  0.717148  1
  B  B16  1  0.528145  0.866314  0.804739  1
  B  B17  1  0.866314  0.528145  0.804739  1
  B  B18  1  0.116981  0.460125  0.717148  1
  B  B19  1  0.719063  0.096661  0.009537  1
  B  B20  1  0.273623  0.890600  0.336690  1
  B  B21  1  0.890600  0.273623  0.336690  1
  B  B22  1  0.096661  0.719063  0.009537  1
  B  B23  1  0.272699  0.890960  0.014730  1
  B  B24  1  0.716539  0.095625  0.691039  1
  B  B25  1  0.095625  0.716539  0.691039  1
  B  B26  1  0.890960  0.272699  0.014730  1
  B  B27  1  0.283876  0.465240  0.389838  1
  B  B28  1  0.697962  0.517246  0.652414  1
  B  B29  1  0.517246  0.697962  0.652414  1
  B  B30  1  0.465240  0.283876  0.389838  1
