# generated using pymatgen
data_Ca9Dy(TaN5)2
_symmetry_space_group_name_H-M   'P 1'
_cell_length_a   6.95506888
_cell_length_b   6.91872051
_cell_length_c   8.91795281
_cell_angle_alpha   80.43403520
_cell_angle_beta   80.21461538
_cell_angle_gamma   59.74679733
_symmetry_Int_Tables_number   1
_chemical_formula_structural   Ca9Dy(TaN5)2
_chemical_formula_sum   'Ca9 Dy1 Ta2 N10'
_cell_volume   363.65628401
_cell_formula_units_Z   1
loop_
 _symmetry_equiv_pos_site_id
 _symmetry_equiv_pos_as_xyz
  1  'x, y, z'
loop_
 _atom_site_type_symbol
 _atom_site_label
 _atom_site_symmetry_multiplicity
 _atom_site_fract_x
 _atom_site_fract_y
 _atom_site_fract_z
 _atom_site_occupancy
  Ca  Ca0  1  0.869200  0.868012  0.829057  1
  Ca  Ca1  1  0.740656  0.742528  0.520363  1
  Ca  Ca2  1  0.755280  0.247510  0.503902  1
  Ca  Ca3  1  0.622498  0.143260  0.155207  1
  Ca  Ca4  1  0.363639  0.869655  0.838188  1
  Ca  Ca5  1  0.249933  0.757368  0.508691  1
  Ca  Ca6  1  0.245058  0.245992  0.488901  1
  Ca  Ca7  1  0.139613  0.144010  0.164295  1
  Ca  Ca8  1  0.135230  0.631209  0.154119  1
  Dy  Dy9  1  0.879476  0.347451  0.830297  1
  Ta  Ta10  1  0.630792  0.629467  0.220724  1
  Ta  Ta11  1  0.372961  0.365477  0.774979  1
  N  N12  1  0.913611  0.466859  0.320393  1
  N  N13  1  0.986165  0.017889  0.010404  1
  N  N14  1  0.685729  0.664005  0.997506  1
  N  N15  1  0.545400  0.529043  0.697396  1
  N  N16  1  0.465238  0.915061  0.321129  1
  N  N17  1  0.540653  0.082008  0.676885  1
  N  N18  1  0.461401  0.468162  0.303296  1
  N  N19  1  0.320837  0.319422  0.994751  1
  N  N20  1  0.054363  0.075205  0.653279  1
  N  N21  1  0.084550  0.532691  0.682044  1
