# generated using pymatgen
data_TbLuB6Rh
_symmetry_space_group_name_H-M   'P 1'
_cell_length_a   3.63306900
_cell_length_b   9.11952600
_cell_length_c   11.47234300
_cell_angle_alpha   90.00000000
_cell_angle_beta   90.00000000
_cell_angle_gamma   90.00000000
_symmetry_Int_Tables_number   1
_chemical_formula_structural   TbLuB6Rh
_chemical_formula_sum   'Tb4 Lu4 B24 Rh4'
_cell_volume   380.10014481
_cell_formula_units_Z   4
loop_
 _symmetry_equiv_pos_site_id
 _symmetry_equiv_pos_as_xyz
  1  'x, y, z'
loop_
 _atom_site_type_symbol
 _atom_site_label
 _atom_site_symmetry_multiplicity
 _atom_site_fract_x
 _atom_site_fract_y
 _atom_site_fract_z
 _atom_site_occupancy
  Tb  Tb0  1  0.500000  0.321505  0.414084  1
  Tb  Tb1  1  0.500000  0.678495  0.585916  1
  Tb  Tb2  1  0.500000  0.178495  0.914084  1
  Tb  Tb3  1  0.500000  0.821505  0.085916  1
  Lu  Lu4  1  0.500000  0.444304  0.126976  1
  Lu  Lu5  1  0.500000  0.555696  0.873024  1
  Lu  Lu6  1  0.500000  0.055696  0.626976  1
  Lu  Lu7  1  0.500000  0.944304  0.373024  1
  B  B8  1  0.000000  0.104781  0.471874  1
  B  B9  1  0.000000  0.895219  0.528126  1
  B  B10  1  0.000000  0.395219  0.971874  1
  B  B11  1  0.000000  0.604781  0.028126  1
  B  B12  1  0.000000  0.131797  0.317113  1
  B  B13  1  0.000000  0.868203  0.682887  1
  B  B14  1  0.000000  0.368203  0.817113  1
  B  B15  1  0.000000  0.631797  0.182887  1
  B  B16  1  0.000000  0.054773  0.065846  1
  B  B17  1  0.000000  0.945227  0.934154  1
  B  B18  1  0.000000  0.445227  0.565846  1
  B  B19  1  0.000000  0.554773  0.434154  1
  B  B20  1  0.000000  0.483101  0.285805  1
  B  B21  1  0.000000  0.516899  0.714195  1
  B  B22  1  0.000000  0.016899  0.785805  1
  B  B23  1  0.000000  0.983101  0.214195  1
  B  B24  1  0.000000  0.251425  0.080450  1
  B  B25  1  0.000000  0.748575  0.919550  1
  B  B26  1  0.000000  0.248575  0.580450  1
  B  B27  1  0.000000  0.751425  0.419550  1
  B  B28  1  0.000000  0.294611  0.235947  1
  B  B29  1  0.000000  0.705389  0.764053  1
  B  B30  1  0.000000  0.205389  0.735947  1
  B  B31  1  0.000000  0.794611  0.264053  1
  Rh  Rh32  1  0.500000  0.140386  0.180034  1
  Rh  Rh33  1  0.500000  0.859614  0.819966  1
  Rh  Rh34  1  0.500000  0.359614  0.680034  1
  Rh  Rh35  1  0.500000  0.640386  0.319966  1
