# generated using pymatgen
data_Na5P12Ir14Ru5
_symmetry_space_group_name_H-M   'P 1'
_cell_length_a   12.63016829
_cell_length_b   12.55545193
_cell_length_c   3.96193800
_cell_angle_alpha   90.00000000
_cell_angle_beta   90.00000000
_cell_angle_gamma   120.32128677
_symmetry_Int_Tables_number   1
_chemical_formula_structural   Na5P12Ir14Ru5
_chemical_formula_sum   'Na5 P12 Ir14 Ru5'
_cell_volume   542.33126544
_cell_formula_units_Z   1
loop_
 _symmetry_equiv_pos_site_id
 _symmetry_equiv_pos_as_xyz
  1  'x, y, z'
loop_
 _atom_site_type_symbol
 _atom_site_label
 _atom_site_symmetry_multiplicity
 _atom_site_fract_x
 _atom_site_fract_y
 _atom_site_fract_z
 _atom_site_occupancy
  Na  Na0  1  0.334265  0.665649  0.000000  1
  Na  Na1  1  0.667390  0.333170  0.000000  1
  Na  Na2  1  0.817090  0.999431  0.500000  1
  Na  Na3  1  0.998531  0.820050  0.500000  1
  Na  Na4  1  0.179651  0.181719  0.500000  1
  P  P5  1  0.178527  0.001146  0.000000  1
  P  P6  1  0.002101  0.182740  0.000000  1
  P  P7  1  0.816192  0.820715  0.000000  1
  P  P8  1  0.173520  0.480659  0.500000  1
  P  P9  1  0.519244  0.689157  0.500000  1
  P  P10  1  0.313542  0.830314  0.500000  1
  P  P11  1  0.689424  0.516329  0.500000  1
  P  P12  1  0.830059  0.313306  0.500000  1
  P  P13  1  0.482957  0.169895  0.500000  1
  P  P14  1  0.632327  0.995881  0.000000  1
  P  P15  1  0.000883  0.635831  0.000000  1
  P  P16  1  0.361781  0.366203  0.000000  1
  Ir  Ir17  1  0.363026  0.486988  0.500000  1
  Ir  Ir18  1  0.511033  0.872364  0.500000  1
  Ir  Ir19  1  0.132979  0.638940  0.500000  1
  Ir  Ir20  1  0.872764  0.512129  0.500000  1
  Ir  Ir21  1  0.639932  0.131846  0.500000  1
  Ir  Ir22  1  0.492591  0.359272  0.500000  1
  Ir  Ir23  1  0.194465  0.817531  0.000000  1
  Ir  Ir24  1  0.806105  0.622340  0.000000  1
  Ir  Ir25  1  0.814606  0.193192  0.000000  1
  Ir  Ir26  1  0.375897  0.184228  0.000000  1
  Ir  Ir27  1  0.285995  0.000261  0.500000  1
  Ir  Ir28  1  0.997267  0.285388  0.500000  1
  Ir  Ir29  1  0.713807  0.711742  0.500000  1
  Ir  Ir30  1  0.999000  0.000471  0.000000  1
  Ru  Ru31  1  0.454464  0.003313  0.000000  1
  Ru  Ru32  1  0.999441  0.454121  0.000000  1
  Ru  Ru33  1  0.548574  0.543304  0.000000  1
  Ru  Ru34  1  0.181195  0.379411  0.000000  1
  Ru  Ru35  1  0.619376  0.800966  0.000000  1
