# generated using pymatgen
data_Sm4VRe2PN12
_symmetry_space_group_name_H-M   'P 1'
_cell_length_a   7.31989975
_cell_length_b   7.19356855
_cell_length_c   6.05934552
_cell_angle_alpha   76.75814127
_cell_angle_beta   75.57577718
_cell_angle_gamma   84.87264522
_symmetry_Int_Tables_number   1
_chemical_formula_structural   Sm4VRe2PN12
_chemical_formula_sum   'Sm4 V1 Re2 P1 N12'
_cell_volume   300.61202964
_cell_formula_units_Z   1
loop_
 _symmetry_equiv_pos_site_id
 _symmetry_equiv_pos_as_xyz
  1  'x, y, z'
loop_
 _atom_site_type_symbol
 _atom_site_label
 _atom_site_symmetry_multiplicity
 _atom_site_fract_x
 _atom_site_fract_y
 _atom_site_fract_z
 _atom_site_occupancy
  Sm  Sm0  1  0.908466  0.088617  0.753416  1
  Sm  Sm1  1  0.105859  0.903502  0.242850  1
  Sm  Sm2  1  0.702674  0.309857  0.255979  1
  Sm  Sm3  1  0.306615  0.669329  0.729452  1
  V  V4  1  0.199330  0.380314  0.244794  1
  Re  Re5  1  0.382314  0.198272  0.742319  1
  Re  Re6  1  0.782753  0.630382  0.764364  1
  P  P7  1  0.614017  0.819031  0.265524  1
  N  N8  1  0.654481  0.673163  0.057504  1
  N  N9  1  0.393324  0.865702  0.337699  1
  N  N10  1  0.339775  0.376486  0.485209  1
  N  N11  1  0.123492  0.604960  0.140546  1
  N  N12  1  0.006459  0.223262  0.343754  1
  N  N13  1  0.765160  0.986319  0.163994  1
  N  N14  1  0.223732  0.999748  0.832388  1
  N  N15  1  0.617635  0.113183  0.649679  1
  N  N16  1  0.370921  0.336091  0.971196  1
  N  N17  1  0.857794  0.387797  0.842556  1
  N  N18  1  0.654546  0.664158  0.519608  1
  N  N19  1  0.990654  0.769829  0.657168  1
