# generated using pymatgen
data_TmLu9Os3Ru
_symmetry_space_group_name_H-M   'P 1'
_cell_length_a   6.20944667
_cell_length_b   7.27152574
_cell_length_c   8.22570841
_cell_angle_alpha   97.05489142
_cell_angle_beta   112.11136397
_cell_angle_gamma   89.92155411
_symmetry_Int_Tables_number   1
_chemical_formula_structural   TmLu9Os3Ru
_chemical_formula_sum   'Tm1 Lu9 Os3 Ru1'
_cell_volume   341.08095012
_cell_formula_units_Z   1
loop_
 _symmetry_equiv_pos_site_id
 _symmetry_equiv_pos_as_xyz
  1  'x, y, z'
loop_
 _atom_site_type_symbol
 _atom_site_label
 _atom_site_symmetry_multiplicity
 _atom_site_fract_x
 _atom_site_fract_y
 _atom_site_fract_z
 _atom_site_occupancy
  Tm  Tm0  1  0.524563  0.082219  0.814683  1
  Lu  Lu1  1  0.475516  0.916924  0.181608  1
  Lu  Lu2  1  0.706868  0.415383  0.180785  1
  Lu  Lu3  1  0.291338  0.583060  0.818799  1
  Lu  Lu4  1  0.297522  0.319868  0.436853  1
  Lu  Lu5  1  0.703794  0.681700  0.563324  1
  Lu  Lu6  1  0.859984  0.182405  0.564526  1
  Lu  Lu7  1  0.139662  0.817618  0.436121  1
  Lu  Lu8  1  0.081121  0.251038  0.000179  1
  Lu  Lu9  1  0.919280  0.749199  0.000188  1
  Os  Os10  1  0.322994  0.579100  0.219240  1
  Os  Os11  1  0.678176  0.421839  0.781715  1
  Os  Os12  1  0.101066  0.921085  0.780788  1
  Ru  Ru13  1  0.898115  0.078562  0.221192  1
