# generated using pymatgen
data_Zr8VReBi4
_symmetry_space_group_name_H-M   'P 1'
_cell_length_a   8.38728607
_cell_length_b   8.38728666
_cell_length_c   8.38728600
_cell_angle_alpha   96.05533048
_cell_angle_beta   96.05533778
_cell_angle_gamma   142.09423834
_symmetry_Int_Tables_number   1
_chemical_formula_structural   Zr8VReBi4
_chemical_formula_sum   'Zr8 V1 Re1 Bi4'
_cell_volume   342.83361791
_cell_formula_units_Z   1
loop_
 _symmetry_equiv_pos_site_id
 _symmetry_equiv_pos_as_xyz
  1  'x, y, z'
loop_
 _atom_site_type_symbol
 _atom_site_label
 _atom_site_symmetry_multiplicity
 _atom_site_fract_x
 _atom_site_fract_y
 _atom_site_fract_z
 _atom_site_occupancy
  Zr  Zr0  1  0.080543  0.198130  0.283970  1
  Zr  Zr1  1  0.914159  0.796572  0.716023  1
  Zr  Zr2  1  0.796554  0.080537  0.882413  1
  Zr  Zr3  1  0.419451  0.703436  0.117588  1
  Zr  Zr4  1  0.198138  0.914161  0.117597  1
  Zr  Zr5  1  0.585855  0.301861  0.882414  1
  Zr  Zr6  1  0.703440  0.585855  0.283970  1
  Zr  Zr7  1  0.301870  0.419455  0.716029  1
  V  V8  1  0.749994  0.749996  0.999994  1
  Re  Re9  1  0.249999  0.249998  0.999994  1
  Bi  Bi10  1  0.139932  0.639936  0.779869  1
  Bi  Bi11  1  0.860065  0.360064  0.220134  1
  Bi  Bi12  1  0.360066  0.139938  0.500004  1
  Bi  Bi13  1  0.639931  0.860062  0.500000  1
