# generated using pymatgen
data_Pu3NpI12
_symmetry_space_group_name_H-M   'P 1'
_cell_length_a   13.64043378
_cell_length_b   7.97436495
_cell_length_c   9.09570900
_cell_angle_alpha   63.52116285
_cell_angle_beta   89.75006902
_cell_angle_gamma   90.78521038
_symmetry_Int_Tables_number   1
_chemical_formula_structural   Pu3NpI12
_chemical_formula_sum   'Pu3 Np1 I12'
_cell_volume   885.44472665
_cell_formula_units_Z   1
loop_
 _symmetry_equiv_pos_site_id
 _symmetry_equiv_pos_as_xyz
  1  'x, y, z'
loop_
 _atom_site_type_symbol
 _atom_site_label
 _atom_site_symmetry_multiplicity
 _atom_site_fract_x
 _atom_site_fract_y
 _atom_site_fract_z
 _atom_site_occupancy
  Pu  Pu0  1  0.334820  0.461356  0.024758  1
  Pu  Pu1  1  0.830978  0.043647  0.974965  1
  Pu  Pu2  1  0.667435  0.541342  0.973138  1
  Np  Np3  1  0.166360  0.956536  0.027345  1
  I  I4  1  0.516750  0.255886  0.219870  1
  I  I5  1  0.021735  0.240522  0.780549  1
  I  I6  1  0.484865  0.742583  0.774268  1
  I  I7  1  0.978134  0.761468  0.226015  1
  I  I8  1  0.330296  0.236560  0.817005  1
  I  I9  1  0.828636  0.265451  0.180710  1
  I  I10  1  0.666716  0.761262  0.180472  1
  I  I11  1  0.170780  0.732553  0.820951  1
  I  I12  1  0.187418  0.148661  0.256540  1
  I  I13  1  0.691466  0.348296  0.743926  1
  I  I14  1  0.812286  0.850238  0.744828  1
  I  I15  1  0.311323  0.653638  0.254661  1
