# generated using pymatgen
data_GdDyHo4C3Cl5
_symmetry_space_group_name_H-M   'P 1'
_cell_length_a   3.65232569
_cell_length_b   8.30722700
_cell_length_c   10.33255188
_cell_angle_alpha   85.42277191
_cell_angle_beta   79.76643384
_cell_angle_gamma   77.31320090
_symmetry_Int_Tables_number   1
_chemical_formula_structural   GdDyHo4C3Cl5
_chemical_formula_sum   'Gd1 Dy1 Ho4 C3 Cl5'
_cell_volume   300.70572931
_cell_formula_units_Z   1
loop_
 _symmetry_equiv_pos_site_id
 _symmetry_equiv_pos_as_xyz
  1  'x, y, z'
loop_
 _atom_site_type_symbol
 _atom_site_label
 _atom_site_symmetry_multiplicity
 _atom_site_fract_x
 _atom_site_fract_y
 _atom_site_fract_z
 _atom_site_occupancy
  Gd  Gd0  1  0.431424  0.924144  0.218284  1
  Dy  Dy1  1  0.575449  0.073717  0.777528  1
  Ho  Ho2  1  0.959665  0.428344  0.655462  1
  Ho  Ho3  1  0.682918  0.179871  0.456908  1
  Ho  Ho4  1  0.044548  0.569301  0.345024  1
  Ho  Ho5  1  0.321343  0.818856  0.542489  1
  C  C6  1  0.128296  0.122688  0.623844  1
  C  C7  1  0.876617  0.875435  0.374919  1
  C  C8  1  0.501769  0.499095  0.500259  1
  Cl  Cl9  1  0.755245  0.744479  0.750990  1
  Cl  Cl10  1  0.380770  0.379527  0.862876  1
  Cl  Cl11  1  0.248088  0.255353  0.249544  1
  Cl  Cl12  1  0.626479  0.612858  0.136825  1
  Cl  Cl13  1  0.004610  0.999921  0.994365  1
