# generated using pymatgen
data_Li3Al(Rh3W)2
_symmetry_space_group_name_H-M   'P 1'
_cell_length_a   4.30028700
_cell_length_b   6.01407400
_cell_length_c   12.70471200
_cell_angle_alpha   90.00000000
_cell_angle_beta   90.00003587
_cell_angle_gamma   90.00000000
_symmetry_Int_Tables_number   1
_chemical_formula_structural   Li3Al(Rh3W)2
_chemical_formula_sum   'Li6 Al2 Rh12 W4'
_cell_volume   328.57236473
_cell_formula_units_Z   2
loop_
 _symmetry_equiv_pos_site_id
 _symmetry_equiv_pos_as_xyz
  1  'x, y, z'
loop_
 _atom_site_type_symbol
 _atom_site_label
 _atom_site_symmetry_multiplicity
 _atom_site_fract_x
 _atom_site_fract_y
 _atom_site_fract_z
 _atom_site_occupancy
  Li  Li0  1  0.999993  0.000000  0.997478  1
  Li  Li1  1  0.499552  0.499999  0.164874  1
  Li  Li2  1  0.999551  0.000000  0.335108  1
  Li  Li3  1  0.499982  0.499999  0.502498  1
  Li  Li4  1  0.000401  0.000000  0.667791  1
  Li  Li5  1  0.500408  0.499999  0.832224  1
  Al  Al6  1  0.000363  0.499999  0.669493  1
  Al  Al7  1  0.500366  0.000000  0.830519  1
  Rh  Rh8  1  0.500031  0.248190  0.999594  1
  Rh  Rh9  1  0.500031  0.751811  0.999594  1
  Rh  Rh10  1  0.999663  0.251393  0.166464  1
  Rh  Rh11  1  0.999663  0.748607  0.166464  1
  Rh  Rh12  1  0.499663  0.248613  0.333532  1
  Rh  Rh13  1  0.499663  0.751387  0.333532  1
  Rh  Rh14  1  0.000028  0.251814  0.500395  1
  Rh  Rh15  1  0.000028  0.748186  0.500395  1
  Rh  Rh16  1  0.500302  0.250755  0.666176  1
  Rh  Rh17  1  0.500302  0.749245  0.666176  1
  Rh  Rh18  1  0.000306  0.249269  0.833829  1
  Rh  Rh19  1  0.000306  0.750731  0.833829  1
  W  W20  1  0.000062  0.499999  0.992214  1
  W  W21  1  0.499635  0.000000  0.165102  1
  W  W22  1  0.999635  0.499999  0.334918  1
  W  W23  1  0.500058  0.000000  0.507801  1
