# generated using pymatgen
data_NaTb6Sn23Rh6
_symmetry_space_group_name_H-M   'P 1'
_cell_length_a   9.88558500
_cell_length_b   9.88558511
_cell_length_c   10.11116200
_cell_angle_alpha   90.00000000
_cell_angle_beta   90.00000000
_cell_angle_gamma   120.00000968
_symmetry_Int_Tables_number   1
_chemical_formula_structural   NaTb6Sn23Rh6
_chemical_formula_sum   'Na1 Tb6 Sn23 Rh6'
_cell_volume   855.72931918
_cell_formula_units_Z   1
loop_
 _symmetry_equiv_pos_site_id
 _symmetry_equiv_pos_as_xyz
  1  'x, y, z'
loop_
 _atom_site_type_symbol
 _atom_site_label
 _atom_site_symmetry_multiplicity
 _atom_site_fract_x
 _atom_site_fract_y
 _atom_site_fract_z
 _atom_site_occupancy
  Na  Na0  1  0.000000  0.000000  0.000000  1
  Tb  Tb1  1  0.479035  0.520965  0.306941  1
  Tb  Tb2  1  0.520965  0.479035  0.693059  1
  Tb  Tb3  1  0.479035  0.958070  0.306941  1
  Tb  Tb4  1  0.520965  0.041930  0.693059  1
  Tb  Tb5  1  0.041930  0.520965  0.306941  1
  Tb  Tb6  1  0.958070  0.479035  0.693059  1
  Sn  Sn7  1  0.348815  0.000000  0.000000  1
  Sn  Sn8  1  0.651185  0.000000  0.000000  1
  Sn  Sn9  1  0.000000  0.348815  0.000000  1
  Sn  Sn10  1  0.000000  0.651185  0.000000  1
  Sn  Sn11  1  0.651185  0.651185  0.000000  1
  Sn  Sn12  1  0.348815  0.348815  0.000000  1
  Sn  Sn13  1  0.333333  0.666667  0.818212  1
  Sn  Sn14  1  0.666667  0.333333  0.181788  1
  Sn  Sn15  1  0.000000  0.000000  0.500000  1
  Sn  Sn16  1  0.778549  0.221451  0.456578  1
  Sn  Sn17  1  0.221451  0.778549  0.543422  1
  Sn  Sn18  1  0.778549  0.557097  0.456578  1
  Sn  Sn19  1  0.221451  0.442903  0.543422  1
  Sn  Sn20  1  0.442903  0.221451  0.456578  1
  Sn  Sn21  1  0.557097  0.778549  0.543422  1
  Sn  Sn22  1  0.333333  0.666667  0.117481  1
  Sn  Sn23  1  0.666667  0.333333  0.882519  1
  Sn  Sn24  1  0.118016  0.881984  0.279010  1
  Sn  Sn25  1  0.881984  0.118016  0.720990  1
  Sn  Sn26  1  0.118016  0.236031  0.279010  1
  Sn  Sn27  1  0.881984  0.763969  0.720990  1
  Sn  Sn28  1  0.763969  0.881984  0.279010  1
  Sn  Sn29  1  0.236031  0.118016  0.720990  1
  Rh  Rh30  1  0.828976  0.171024  0.201898  1
  Rh  Rh31  1  0.171024  0.828976  0.798102  1
  Rh  Rh32  1  0.828976  0.657953  0.201898  1
  Rh  Rh33  1  0.171024  0.342047  0.798102  1
  Rh  Rh34  1  0.342047  0.171024  0.201898  1
  Rh  Rh35  1  0.657953  0.828976  0.798102  1
