# generated using pymatgen
data_Ti12Al8Co3IrN4
_symmetry_space_group_name_H-M   'P 1'
_cell_length_a   8.06680978
_cell_length_b   8.06681004
_cell_length_c   8.06680943
_cell_angle_alpha   59.79996009
_cell_angle_beta   59.79995665
_cell_angle_gamma   59.79996361
_symmetry_Int_Tables_number   1
_chemical_formula_structural   Ti12Al8Co3IrN4
_chemical_formula_sum   'Ti12 Al8 Co3 Ir1 N4'
_cell_volume   369.49944402
_cell_formula_units_Z   1
loop_
 _symmetry_equiv_pos_site_id
 _symmetry_equiv_pos_as_xyz
  1  'x, y, z'
loop_
 _atom_site_type_symbol
 _atom_site_label
 _atom_site_symmetry_multiplicity
 _atom_site_fract_x
 _atom_site_fract_y
 _atom_site_fract_z
 _atom_site_occupancy
  Ti  Ti0  1  0.813445  0.813445  0.187501  1
  Ti  Ti1  1  0.062499  0.436555  0.436555  1
  Ti  Ti2  1  0.436278  0.063646  0.063646  1
  Ti  Ti3  1  0.063646  0.063646  0.436278  1
  Ti  Ti4  1  0.063646  0.436278  0.063646  1
  Ti  Ti5  1  0.436555  0.062499  0.436555  1
  Ti  Ti6  1  0.186354  0.813722  0.186354  1
  Ti  Ti7  1  0.187501  0.813445  0.813445  1
  Ti  Ti8  1  0.813722  0.186354  0.186354  1
  Ti  Ti9  1  0.813445  0.187501  0.813445  1
  Ti  Ti10  1  0.436555  0.436555  0.062499  1
  Ti  Ti11  1  0.186354  0.186354  0.813722  1
  Al  Al12  1  0.412439  0.750149  0.412439  1
  Al  Al13  1  0.837561  0.837561  0.499851  1
  Al  Al14  1  0.499851  0.837561  0.837561  1
  Al  Al15  1  0.833611  0.833611  0.833611  1
  Al  Al16  1  0.750149  0.412439  0.412439  1
  Al  Al17  1  0.416389  0.416389  0.416389  1
  Al  Al18  1  0.412439  0.412439  0.750149  1
  Al  Al19  1  0.837561  0.499851  0.837561  1
  Co  Co20  1  0.625000  0.125000  0.625000  1
  Co  Co21  1  0.625000  0.625000  0.125000  1
  Co  Co22  1  0.125000  0.625000  0.625000  1
  Ir  Ir23  1  0.625000  0.625000  0.625000  1
  N  N24  1  0.125000  0.625000  0.125000  1
  N  N25  1  0.125000  0.125000  0.625000  1
  N  N26  1  0.625000  0.125000  0.125000  1
  N  N27  1  0.125000  0.125000  0.125000  1
