# generated using pymatgen
data_Pa2Ni12P7
_symmetry_space_group_name_H-M   'P 1'
_cell_length_a   3.72378300
_cell_length_b   9.07267532
_cell_length_c   9.07186992
_cell_angle_alpha   120.00279579
_cell_angle_beta   90.00000000
_cell_angle_gamma   90.00000000
_symmetry_Int_Tables_number   1
_chemical_formula_structural   Pa2Ni12P7
_chemical_formula_sum   'Pa2 Ni12 P7'
_cell_volume   265.42079444
_cell_formula_units_Z   1
loop_
 _symmetry_equiv_pos_site_id
 _symmetry_equiv_pos_as_xyz
  1  'x, y, z'
loop_
 _atom_site_type_symbol
 _atom_site_label
 _atom_site_symmetry_multiplicity
 _atom_site_fract_x
 _atom_site_fract_y
 _atom_site_fract_z
 _atom_site_occupancy
  Pa  Pa0  1  0.000000  0.666682  0.333346  1
  Pa  Pa1  1  0.500000  0.333304  0.666647  1
  Ni  Ni2  1  0.000000  0.377370  0.939458  1
  Ni  Ni3  1  0.000000  0.060491  0.437856  1
  Ni  Ni4  1  0.000000  0.562103  0.622619  1
  Ni  Ni5  1  0.000000  0.874196  0.724371  1
  Ni  Ni6  1  0.000000  0.275672  0.149842  1
  Ni  Ni7  1  0.000000  0.850168  0.125807  1
  Ni  Ni8  1  0.500000  0.954823  0.567641  1
  Ni  Ni9  1  0.500000  0.432398  0.387214  1
  Ni  Ni10  1  0.500000  0.612737  0.045123  1
  Ni  Ni11  1  0.500000  0.119730  0.905139  1
  Ni  Ni12  1  0.500000  0.094868  0.214567  1
  Ni  Ni13  1  0.500000  0.785451  0.880327  1
  P  P14  1  0.000000  0.110576  0.709157  1
  P  P15  1  0.000000  0.290825  0.401424  1
  P  P16  1  0.000000  0.598559  0.889404  1
  P  P17  1  0.500000  0.707864  0.598456  1
  P  P18  1  0.500000  0.401582  0.109440  1
  P  P19  1  0.500000  0.890544  0.292108  1
  P  P20  1  0.000000  0.000055  0.000055  1
