# generated using pymatgen
data_Sc5TiB4(Ir3Rh2)2
_symmetry_space_group_name_H-M   'P 1'
_cell_length_a   9.44937518
_cell_length_b   9.49651115
_cell_length_c   3.11122200
_cell_angle_alpha   90.00000000
_cell_angle_beta   90.00000000
_cell_angle_gamma   90.07743208
_symmetry_Int_Tables_number   1
_chemical_formula_structural   Sc5TiB4(Ir3Rh2)2
_chemical_formula_sum   'Sc5 Ti1 B4 Ir6 Rh4'
_cell_volume   279.18866333
_cell_formula_units_Z   1
loop_
 _symmetry_equiv_pos_site_id
 _symmetry_equiv_pos_as_xyz
  1  'x, y, z'
loop_
 _atom_site_type_symbol
 _atom_site_label
 _atom_site_symmetry_multiplicity
 _atom_site_fract_x
 _atom_site_fract_y
 _atom_site_fract_z
 _atom_site_occupancy
  Sc  Sc0  1  0.825672  0.324066  0.000000  1
  Sc  Sc1  1  0.324897  0.175063  0.000000  1
  Sc  Sc2  1  0.675103  0.824937  0.000000  1
  Sc  Sc3  1  0.174328  0.675934  0.000000  1
  Sc  Sc4  1  0.500000  0.500000  0.000000  1
  Ti  Ti5  1  0.000000  0.000000  0.000000  1
  B  B6  1  0.621144  0.121974  0.000000  1
  B  B7  1  0.121110  0.378163  0.000000  1
  B  B8  1  0.878890  0.621837  0.000000  1
  B  B9  1  0.378856  0.878026  0.000000  1
  Ir  Ir10  1  0.068131  0.217915  0.500000  1
  Ir  Ir11  1  0.216325  0.933784  0.500000  1
  Ir  Ir12  1  0.783675  0.066216  0.500000  1
  Ir  Ir13  1  0.931869  0.782085  0.500000  1
  Ir  Ir14  1  0.425112  0.723316  0.500000  1
  Ir  Ir15  1  0.574888  0.276684  0.500000  1
  Rh  Rh16  1  0.723144  0.573986  0.500000  1
  Rh  Rh17  1  0.276856  0.426014  0.500000  1
  Rh  Rh18  1  0.500000  0.000000  0.500000  1
  Rh  Rh19  1  0.000000  0.500000  0.500000  1
