# generated using pymatgen
data_TbDy2Er2Sb3
_symmetry_space_group_name_H-M   'P 1'
_cell_length_a   8.97790215
_cell_length_b   8.98077003
_cell_length_c   6.26632800
_cell_angle_alpha   90.00000000
_cell_angle_beta   90.00000000
_cell_angle_gamma   120.01056826
_symmetry_Int_Tables_number   1
_chemical_formula_structural   TbDy2Er2Sb3
_chemical_formula_sum   'Tb2 Dy4 Er4 Sb6'
_cell_volume   437.50794045
_cell_formula_units_Z   2
loop_
 _symmetry_equiv_pos_site_id
 _symmetry_equiv_pos_as_xyz
  1  'x, y, z'
loop_
 _atom_site_type_symbol
 _atom_site_label
 _atom_site_symmetry_multiplicity
 _atom_site_fract_x
 _atom_site_fract_y
 _atom_site_fract_z
 _atom_site_occupancy
  Tb  Tb0  1  0.247372  0.247413  0.750000  1
  Tb  Tb1  1  0.247372  0.999959  0.250000  1
  Dy  Dy2  1  0.999959  0.752556  0.750000  1
  Dy  Dy3  1  0.999959  0.247403  0.250000  1
  Dy  Dy4  1  0.752632  0.752620  0.250000  1
  Dy  Dy5  1  0.752632  0.000012  0.750000  1
  Er  Er6  1  0.333377  0.666689  0.500000  1
  Er  Er7  1  0.666663  0.333331  0.000000  1
  Er  Er8  1  0.666663  0.333331  0.500000  1
  Er  Er9  1  0.333377  0.666689  0.000000  1
  Sb  Sb10  1  0.389282  0.999864  0.750000  1
  Sb  Sb11  1  0.389282  0.389418  0.250000  1
  Sb  Sb12  1  0.999856  0.610597  0.250000  1
  Sb  Sb13  1  0.999856  0.389259  0.750000  1
  Sb  Sb14  1  0.610860  0.610855  0.750000  1
  Sb  Sb15  1  0.610860  0.000005  0.250000  1
