# generated using pymatgen
data_Tb16Dy4Ir5Rh7
_symmetry_space_group_name_H-M   'P 1'
_cell_length_a   10.92837613
_cell_length_b   10.92837622
_cell_length_c   6.39636800
_cell_angle_alpha   89.99207418
_cell_angle_beta   89.99207389
_cell_angle_gamma   90.04043711
_symmetry_Int_Tables_number   1
_chemical_formula_structural   Tb16Dy4Ir5Rh7
_chemical_formula_sum   'Tb16 Dy4 Ir5 Rh7'
_cell_volume   763.91422469
_cell_formula_units_Z   1
loop_
 _symmetry_equiv_pos_site_id
 _symmetry_equiv_pos_as_xyz
  1  'x, y, z'
loop_
 _atom_site_type_symbol
 _atom_site_label
 _atom_site_symmetry_multiplicity
 _atom_site_fract_x
 _atom_site_fract_y
 _atom_site_fract_z
 _atom_site_occupancy
  Tb  Tb0  1  0.290754  0.088621  0.378509  1
  Tb  Tb1  1  0.290690  0.909644  0.879761  1
  Tb  Tb2  1  0.708702  0.089971  0.879183  1
  Tb  Tb3  1  0.708551  0.909980  0.378654  1
  Tb  Tb4  1  0.587971  0.789980  0.879768  1
  Tb  Tb5  1  0.587761  0.209931  0.379624  1
  Tb  Tb6  1  0.410706  0.790328  0.379643  1
  Tb  Tb7  1  0.411978  0.209881  0.879522  1
  Tb  Tb8  1  0.210020  0.412029  0.620232  1
  Tb  Tb9  1  0.209672  0.589294  0.120357  1
  Tb  Tb10  1  0.790069  0.412239  0.120376  1
  Tb  Tb11  1  0.790119  0.588022  0.620478  1
  Tb  Tb12  1  0.911379  0.709246  0.121491  1
  Tb  Tb13  1  0.910029  0.291298  0.620817  1
  Tb  Tb14  1  0.090356  0.709310  0.620239  1
  Tb  Tb15  1  0.090020  0.291449  0.121346  1
  Dy  Dy16  1  0.000084  0.999774  0.500072  1
  Dy  Dy17  1  0.000226  0.999916  0.999928  1
  Dy  Dy18  1  0.499929  0.499812  0.000105  1
  Dy  Dy19  1  0.500188  0.500071  0.499895  1
  Ir  Ir20  1  0.153045  0.846955  0.250000  1
  Ir  Ir21  1  0.654355  0.345645  0.750000  1
  Ir  Ir22  1  0.654499  0.654206  0.249827  1
  Ir  Ir23  1  0.345794  0.345501  0.250173  1
  Ir  Ir24  1  0.346267  0.653733  0.750000  1
  Rh  Rh25  1  0.846920  0.153080  0.250000  1
  Rh  Rh26  1  0.846277  0.846904  0.749874  1
  Rh  Rh27  1  0.153096  0.153723  0.750126  1
  Rh  Rh28  1  0.500603  0.000254  0.124044  1
  Rh  Rh29  1  0.500423  0.000232  0.624596  1
  Rh  Rh30  1  0.999768  0.499577  0.875404  1
  Rh  Rh31  1  0.999746  0.499397  0.375956  1
