# generated using pymatgen
data_Ni(SCl6)2
_symmetry_space_group_name_H-M   'P 1'
_cell_length_a   8.26009667
_cell_length_b   8.26009719
_cell_length_c   8.26009656
_cell_angle_alpha   78.74701375
_cell_angle_beta   78.74701238
_cell_angle_gamma   78.74701104
_symmetry_Int_Tables_number   1
_chemical_formula_structural   Ni(SCl6)2
_chemical_formula_sum   'Ni1 S2 Cl12'
_cell_volume   534.84330114
_cell_formula_units_Z   1
loop_
 _symmetry_equiv_pos_site_id
 _symmetry_equiv_pos_as_xyz
  1  'x, y, z'
loop_
 _atom_site_type_symbol
 _atom_site_label
 _atom_site_symmetry_multiplicity
 _atom_site_fract_x
 _atom_site_fract_y
 _atom_site_fract_z
 _atom_site_occupancy
  Ni  Ni0  1  0.000000  0.000000  0.000000  1
  S  S1  1  0.208647  0.208647  0.208647  1
  S  S2  1  0.791353  0.791353  0.791353  1
  Cl  Cl3  1  0.834384  0.834384  0.535644  1
  Cl  Cl4  1  0.874186  0.177345  0.177345  1
  Cl  Cl5  1  0.177345  0.177345  0.874186  1
  Cl  Cl6  1  0.177345  0.874186  0.177345  1
  Cl  Cl7  1  0.822655  0.125814  0.822655  1
  Cl  Cl8  1  0.125814  0.822655  0.822655  1
  Cl  Cl9  1  0.822655  0.822655  0.125814  1
  Cl  Cl10  1  0.464356  0.165616  0.165616  1
  Cl  Cl11  1  0.165616  0.165616  0.464356  1
  Cl  Cl12  1  0.165616  0.464356  0.165616  1
  Cl  Cl13  1  0.834384  0.535644  0.834384  1
  Cl  Cl14  1  0.535644  0.834384  0.834384  1
