# generated using pymatgen
data_Lu10In8IrRh3
_symmetry_space_group_name_H-M   'P 1'
_cell_length_a   3.51929800
_cell_length_b   7.95637380
_cell_length_c   18.09431429
_cell_angle_alpha   89.94173355
_cell_angle_beta   90.00000000
_cell_angle_gamma   90.00000000
_symmetry_Int_Tables_number   1
_chemical_formula_structural   Lu10In8IrRh3
_chemical_formula_sum   'Lu10 In8 Ir1 Rh3'
_cell_volume   506.65592526
_cell_formula_units_Z   1
loop_
 _symmetry_equiv_pos_site_id
 _symmetry_equiv_pos_as_xyz
  1  'x, y, z'
loop_
 _atom_site_type_symbol
 _atom_site_label
 _atom_site_symmetry_multiplicity
 _atom_site_fract_x
 _atom_site_fract_y
 _atom_site_fract_z
 _atom_site_occupancy
  Lu  Lu0  1  0.000000  0.499782  0.500039  1
  Lu  Lu1  1  0.000000  0.000423  0.000101  1
  Lu  Lu2  1  0.000000  0.747583  0.278631  1
  Lu  Lu3  1  0.000000  0.254129  0.721616  1
  Lu  Lu4  1  0.000000  0.754404  0.778362  1
  Lu  Lu5  1  0.000000  0.243735  0.221995  1
  Lu  Lu6  1  0.000000  0.617226  0.087304  1
  Lu  Lu7  1  0.000000  0.382597  0.912877  1
  Lu  Lu8  1  0.000000  0.882423  0.587117  1
  Lu  Lu9  1  0.000000  0.117709  0.413081  1
  In  In10  1  0.500000  0.707374  0.933195  1
  In  In11  1  0.500000  0.293554  0.066455  1
  In  In12  1  0.500000  0.792990  0.433726  1
  In  In13  1  0.500000  0.207173  0.567049  1
  In  In14  1  0.500000  0.571445  0.649337  1
  In  In15  1  0.500000  0.429590  0.350851  1
  In  In16  1  0.500000  0.927527  0.148431  1
  In  In17  1  0.500000  0.071290  0.850771  1
  Ir  Ir18  1  0.500000  0.024579  0.303545  1
  Rh  Rh19  1  0.500000  0.525587  0.195859  1
  Rh  Rh20  1  0.500000  0.474435  0.804121  1
  Rh  Rh21  1  0.500000  0.974443  0.695538  1
