# generated using pymatgen
data_Pr3Nd2Sn15IrRh7
_symmetry_space_group_name_H-M   'P 1'
_cell_length_a   4.54695600
_cell_length_b   7.31071783
_cell_length_c   18.77609906
_cell_angle_alpha   89.89731744
_cell_angle_beta   90.00000000
_cell_angle_gamma   90.00000000
_symmetry_Int_Tables_number   1
_chemical_formula_structural   Pr3Nd2Sn15IrRh7
_chemical_formula_sum   'Pr3 Nd2 Sn15 Ir1 Rh7'
_cell_volume   624.14492589
_cell_formula_units_Z   1
loop_
 _symmetry_equiv_pos_site_id
 _symmetry_equiv_pos_as_xyz
  1  'x, y, z'
loop_
 _atom_site_type_symbol
 _atom_site_label
 _atom_site_symmetry_multiplicity
 _atom_site_fract_x
 _atom_site_fract_y
 _atom_site_fract_z
 _atom_site_occupancy
  Pr  Pr0  1  0.500000  0.001899  0.856028  1
  Pr  Pr1  1  0.500000  0.500531  0.357461  1
  Pr  Pr2  1  0.000000  0.001392  0.143522  1
  Nd  Nd3  1  0.000000  0.500034  0.641554  1
  Nd  Nd4  1  0.500000  0.494820  0.930449  1
  Sn  Sn5  1  0.000000  0.717602  0.806237  1
  Sn  Sn6  1  0.000000  0.780196  0.305363  1
  Sn  Sn7  1  0.500000  0.278262  0.194357  1
  Sn  Sn8  1  0.500000  0.218906  0.693377  1
  Sn  Sn9  1  0.000000  0.852972  0.969757  1
  Sn  Sn10  1  0.000000  0.632270  0.468635  1
  Sn  Sn11  1  0.500000  0.133639  0.032106  1
  Sn  Sn12  1  0.500000  0.366536  0.530727  1
  Sn  Sn13  1  0.000000  0.304791  0.819428  1
  Sn  Sn14  1  0.000000  0.198876  0.317683  1
  Sn  Sn15  1  0.500000  0.697441  0.185242  1
  Sn  Sn16  1  0.500000  0.806148  0.678965  1
  Sn  Sn17  1  0.500000  0.019073  0.433060  1
  Sn  Sn18  1  0.000000  0.510853  0.067474  1
  Sn  Sn19  1  0.000000  0.981399  0.568171  1
  Ir  Ir20  1  0.000000  0.230701  0.965323  1
  Rh  Rh21  1  0.000000  0.247612  0.464653  1
  Rh  Rh22  1  0.500000  0.763892  0.044509  1
  Rh  Rh23  1  0.500000  0.750434  0.533434  1
  Rh  Rh24  1  0.000000  0.018782  0.715698  1
  Rh  Rh25  1  0.000000  0.483057  0.213259  1
  Rh  Rh26  1  0.500000  0.986895  0.289118  1
  Rh  Rh27  1  0.500000  0.520988  0.774410  1
