# generated using pymatgen
data_LiDy6Si6Ni
_symmetry_space_group_name_H-M   'P 1'
_cell_length_a   5.64971244
_cell_length_b   5.64971199
_cell_length_c   13.59881416
_cell_angle_alpha   108.81810355
_cell_angle_beta   108.81810385
_cell_angle_gamma   43.96278993
_symmetry_Int_Tables_number   1
_chemical_formula_structural   LiDy6Si6Ni
_chemical_formula_sum   'Li1 Dy6 Si6 Ni1'
_cell_volume   282.50552242
_cell_formula_units_Z   1
loop_
 _symmetry_equiv_pos_site_id
 _symmetry_equiv_pos_as_xyz
  1  'x, y, z'
loop_
 _atom_site_type_symbol
 _atom_site_label
 _atom_site_symmetry_multiplicity
 _atom_site_fract_x
 _atom_site_fract_y
 _atom_site_fract_z
 _atom_site_occupancy
  Li  Li0  1  0.247152  0.247152  0.406158  1
  Dy  Dy1  1  0.395152  0.395152  0.077086  1
  Dy  Dy2  1  0.744405  0.744405  0.221927  1
  Dy  Dy3  1  0.536551  0.536551  0.384669  1
  Dy  Dy4  1  0.470868  0.470868  0.622207  1
  Dy  Dy5  1  0.252580  0.252580  0.773429  1
  Dy  Dy6  1  0.601082  0.601082  0.921831  1
  Si  Si7  1  0.110010  0.110010  0.074334  1
  Si  Si8  1  0.036719  0.036719  0.228451  1
  Si  Si9  1  0.879645  0.879645  0.459075  1
  Si  Si10  1  0.133984  0.133984  0.550852  1
  Si  Si11  1  0.951056  0.951056  0.763908  1
  Si  Si12  1  0.885918  0.885918  0.922788  1
  Ni  Ni13  1  0.754878  0.754878  0.593285  1
