# generated using pymatgen
data_LaFeSiPd
_symmetry_space_group_name_H-M   'P 1'
_cell_length_a   9.09890670
_cell_length_b   9.09890870
_cell_length_c   4.13271100
_cell_angle_alpha   90.00000000
_cell_angle_beta   90.00000000
_cell_angle_gamma   154.09757057
_symmetry_Int_Tables_number   1
_chemical_formula_structural   LaFeSiPd
_chemical_formula_sum   'La2 Fe2 Si2 Pd2'
_cell_volume   149.46375367
_cell_formula_units_Z   2
loop_
 _symmetry_equiv_pos_site_id
 _symmetry_equiv_pos_as_xyz
  1  'x, y, z'
loop_
 _atom_site_type_symbol
 _atom_site_label
 _atom_site_symmetry_multiplicity
 _atom_site_fract_x
 _atom_site_fract_y
 _atom_site_fract_z
 _atom_site_occupancy
  La  La0  1  0.612933  0.387067  0.250000  1
  La  La1  1  0.387067  0.612933  0.750000  1
  Fe  Fe2  1  0.250613  0.749387  0.250000  1
  Fe  Fe3  1  0.749387  0.250613  0.750000  1
  Si  Si4  1  0.808838  0.191162  0.250000  1
  Si  Si5  1  0.191162  0.808838  0.750000  1
  Pd  Pd6  1  0.950300  0.049700  0.250000  1
  Pd  Pd7  1  0.049700  0.950300  0.750000  1
