# generated using pymatgen
data_Gd4Cd2Rh3Au
_symmetry_space_group_name_H-M   'P 1'
_cell_length_a   7.70723300
_cell_length_b   7.70723314
_cell_length_c   3.83421500
_cell_angle_alpha   90.00000000
_cell_angle_beta   90.00000000
_cell_angle_gamma   89.53930838
_symmetry_Int_Tables_number   1
_chemical_formula_structural   Gd4Cd2Rh3Au
_chemical_formula_sum   'Gd4 Cd2 Rh3 Au1'
_cell_volume   227.75053600
_cell_formula_units_Z   1
loop_
 _symmetry_equiv_pos_site_id
 _symmetry_equiv_pos_as_xyz
  1  'x, y, z'
loop_
 _atom_site_type_symbol
 _atom_site_label
 _atom_site_symmetry_multiplicity
 _atom_site_fract_x
 _atom_site_fract_y
 _atom_site_fract_z
 _atom_site_occupancy
  Gd  Gd0  1  0.837121  0.685148  0.500000  1
  Gd  Gd1  1  0.328766  0.828766  0.500000  1
  Gd  Gd2  1  0.651610  0.151610  0.500000  1
  Gd  Gd3  1  0.185148  0.337121  0.500000  1
  Cd  Cd4  1  0.002372  0.000895  0.000000  1
  Cd  Cd5  1  0.500895  0.502372  0.000000  1
  Rh  Rh6  1  0.362691  0.130864  0.000000  1
  Rh  Rh7  1  0.630864  0.862691  0.000000  1
  Rh  Rh8  1  0.132534  0.632534  0.000000  1
  Au  Au9  1  0.867999  0.367999  0.000000  1
