# generated using pymatgen
data_Y9Ho(In3Cl)2
_symmetry_space_group_name_H-M   'P 1'
_cell_length_a   9.13904000
_cell_length_b   9.13904017
_cell_length_c   6.70654000
_cell_angle_alpha   90.00000000
_cell_angle_beta   90.00000000
_cell_angle_gamma   119.99999939
_symmetry_Int_Tables_number   1
_chemical_formula_structural   Y9Ho(In3Cl)2
_chemical_formula_sum   'Y9 Ho1 In6 Cl2'
_cell_volume   485.09893131
_cell_formula_units_Z   1
loop_
 _symmetry_equiv_pos_site_id
 _symmetry_equiv_pos_as_xyz
  1  'x, y, z'
loop_
 _atom_site_type_symbol
 _atom_site_label
 _atom_site_symmetry_multiplicity
 _atom_site_fract_x
 _atom_site_fract_y
 _atom_site_fract_z
 _atom_site_occupancy
  Y  Y0  1  0.741339  0.741158  0.249766  1
  Y  Y1  1  0.999820  0.741158  0.750234  1
  Y  Y2  1  0.741339  0.000180  0.750234  1
  Y  Y3  1  0.333333  0.666667  0.500000  1
  Y  Y4  1  0.258842  0.258661  0.750234  1
  Y  Y5  1  0.999820  0.258661  0.249766  1
  Y  Y6  1  0.666667  0.333333  0.500000  1
  Y  Y7  1  0.258842  0.000180  0.249766  1
  Y  Y8  1  0.333333  0.666667  0.000000  1
  Ho  Ho9  1  0.666667  0.333333  0.000000  1
  In  In10  1  0.395492  0.000431  0.750572  1
  In  In11  1  0.999569  0.604508  0.249428  1
  In  In12  1  0.604939  0.000431  0.249428  1
  In  In13  1  0.999569  0.395061  0.750572  1
  In  In14  1  0.395492  0.395061  0.249428  1
  In  In15  1  0.604939  0.604508  0.750572  1
  Cl  Cl16  1  0.000000  0.000000  0.500000  1
  Cl  Cl17  1  0.000000  0.000000  0.000000  1
