# generated using pymatgen
data_Sm2URu3
_symmetry_space_group_name_H-M   'P 1'
_cell_length_a   5.23985706
_cell_length_b   5.23985639
_cell_length_c   5.23985708
_cell_angle_alpha   68.70699732
_cell_angle_beta   68.70699553
_cell_angle_gamma   68.70700120
_symmetry_Int_Tables_number   1
_chemical_formula_structural   Sm2URu3
_chemical_formula_sum   'Sm2 U1 Ru3'
_cell_volume   120.38128162
_cell_formula_units_Z   1
loop_
 _symmetry_equiv_pos_site_id
 _symmetry_equiv_pos_as_xyz
  1  'x, y, z'
loop_
 _atom_site_type_symbol
 _atom_site_label
 _atom_site_symmetry_multiplicity
 _atom_site_fract_x
 _atom_site_fract_y
 _atom_site_fract_z
 _atom_site_occupancy
  Sm  Sm0  1  0.624850  0.624850  0.624850  1
  Sm  Sm1  1  0.375150  0.375150  0.375150  1
  U  U2  1  0.000000  0.000000  0.000000  1
  Ru  Ru3  1  0.000000  0.500000  0.000000  1
  Ru  Ru4  1  0.500000  0.000000  0.000000  1
  Ru  Ru5  1  0.000000  0.000000  0.500000  1
