# generated using pymatgen
data_La3Pr4Nd(MgIr)2
_symmetry_space_group_name_H-M   'P 1'
_cell_length_a   10.09951862
_cell_length_b   10.16167701
_cell_length_c   10.16240779
_cell_angle_alpha   59.59334857
_cell_angle_beta   60.19972058
_cell_angle_gamma   60.20692505
_symmetry_Int_Tables_number   1
_chemical_formula_structural   La3Pr4Nd(MgIr)2
_chemical_formula_sum   'La6 Pr8 Nd2 Mg4 Ir4'
_cell_volume   737.42010868
_cell_formula_units_Z   2
loop_
 _symmetry_equiv_pos_site_id
 _symmetry_equiv_pos_as_xyz
  1  'x, y, z'
loop_
 _atom_site_type_symbol
 _atom_site_label
 _atom_site_symmetry_multiplicity
 _atom_site_fract_x
 _atom_site_fract_y
 _atom_site_fract_z
 _atom_site_occupancy
  La  La0  1  0.344188  0.346888  0.346365  1
  La  La1  1  0.346888  0.344188  0.962558  1
  La  La2  1  0.346365  0.962558  0.344188  1
  La  La3  1  0.962558  0.346365  0.346888  1
  La  La4  1  0.813693  0.186307  0.186307  1
  La  La5  1  0.186307  0.813693  0.813693  1
  Pr  Pr6  1  0.189576  0.189576  0.810424  1
  Pr  Pr7  1  0.810424  0.810424  0.189576  1
  Pr  Pr8  1  0.936487  0.563513  0.563513  1
  Pr  Pr9  1  0.563513  0.936487  0.936487  1
  Pr  Pr10  1  0.562339  0.937661  0.562339  1
  Pr  Pr11  1  0.937661  0.562339  0.937661  1
  Pr  Pr12  1  0.562337  0.562337  0.937663  1
  Pr  Pr13  1  0.937663  0.937663  0.562337  1
  Nd  Nd14  1  0.189728  0.810272  0.189728  1
  Nd  Nd15  1  0.810272  0.189728  0.810272  1
  Mg  Mg16  1  0.580518  0.578313  0.578604  1
  Mg  Mg17  1  0.578313  0.580518  0.262565  1
  Mg  Mg18  1  0.578604  0.262565  0.580518  1
  Mg  Mg19  1  0.262565  0.578604  0.578313  1
  Ir  Ir20  1  0.136978  0.143234  0.144071  1
  Ir  Ir21  1  0.143234  0.136978  0.575717  1
  Ir  Ir22  1  0.144071  0.575717  0.136978  1
  Ir  Ir23  1  0.575717  0.144071  0.143234  1
