# generated using pymatgen
data_Ti4Be3(BRu2)5
_symmetry_space_group_name_H-M   'P 1'
_cell_length_a   3.01061100
_cell_length_b   8.43971289
_cell_length_c   10.03118790
_cell_angle_alpha   90.20920044
_cell_angle_beta   90.00000000
_cell_angle_gamma   90.00000000
_symmetry_Int_Tables_number   1
_chemical_formula_structural   Ti4Be3(BRu2)5
_chemical_formula_sum   'Ti4 Be3 B5 Ru10'
_cell_volume   254.87766943
_cell_formula_units_Z   1
loop_
 _symmetry_equiv_pos_site_id
 _symmetry_equiv_pos_as_xyz
  1  'x, y, z'
loop_
 _atom_site_type_symbol
 _atom_site_label
 _atom_site_symmetry_multiplicity
 _atom_site_fract_x
 _atom_site_fract_y
 _atom_site_fract_z
 _atom_site_occupancy
  Ti  Ti0  1  0.500000  0.847715  0.183183  1
  Ti  Ti1  1  0.500000  0.153164  0.815222  1
  Ti  Ti2  1  0.500000  0.659227  0.678359  1
  Ti  Ti3  1  0.500000  0.344837  0.321337  1
  Be  Be4  1  0.500000  0.959910  0.593372  1
  Be  Be5  1  0.500000  0.041423  0.406143  1
  Be  Be6  1  0.500000  0.844162  0.901145  1
  B  B7  1  0.500000  0.147080  0.099856  1
  B  B8  1  0.500000  0.653300  0.400606  1
  B  B9  1  0.500000  0.347955  0.599646  1
  B  B10  1  0.500000  0.462987  0.910732  1
  B  B11  1  0.500000  0.534952  0.090805  1
  Ru  Ru12  1  0.000000  0.650021  0.958735  1
  Ru  Ru13  1  0.000000  0.338947  0.046635  1
  Ru  Ru14  1  0.000000  0.832193  0.443314  1
  Ru  Ru15  1  0.000000  0.170399  0.552867  1
  Ru  Ru16  1  0.000000  0.006106  0.000565  1
  Ru  Ru17  1  0.000000  0.404076  0.761576  1
  Ru  Ru18  1  0.000000  0.596209  0.239047  1
  Ru  Ru19  1  0.000000  0.501135  0.500399  1
  Ru  Ru20  1  0.000000  0.896378  0.741700  1
  Ru  Ru21  1  0.000000  0.107825  0.254750  1
