# generated using pymatgen
data_La3Pr8Nd(IrBr3)4
_symmetry_space_group_name_H-M   'P 1'
_cell_length_a   10.56627280
_cell_length_b   10.61175232
_cell_length_c   10.61175112
_cell_angle_alpha   109.07485863
_cell_angle_beta   109.63067113
_cell_angle_gamma   109.63067838
_symmetry_Int_Tables_number   1
_chemical_formula_structural   La3Pr8Nd(IrBr3)4
_chemical_formula_sum   'La3 Pr8 Nd1 Ir4 Br12'
_cell_volume   916.80785384
_cell_formula_units_Z   1
loop_
 _symmetry_equiv_pos_site_id
 _symmetry_equiv_pos_as_xyz
  1  'x, y, z'
loop_
 _atom_site_type_symbol
 _atom_site_label
 _atom_site_symmetry_multiplicity
 _atom_site_fract_x
 _atom_site_fract_y
 _atom_site_fract_z
 _atom_site_occupancy
  La  La0  1  0.750000  0.017813  0.482187  1
  La  La1  1  0.467581  0.483231  0.233990  1
  La  La2  1  0.032419  0.266010  0.016769  1
  Pr  Pr3  1  0.263771  0.750932  0.235115  1
  Pr  Pr4  1  0.482876  0.748108  0.014640  1
  Pr  Pr5  1  0.230990  0.467725  0.488043  1
  Pr  Pr6  1  0.017507  0.032253  0.264514  1
  Pr  Pr7  1  0.236229  0.264885  0.749068  1
  Pr  Pr8  1  0.017124  0.485360  0.751892  1
  Pr  Pr9  1  0.482493  0.235486  0.467747  1
  Pr  Pr10  1  0.269010  0.011957  0.032275  1
  Nd  Nd11  1  0.750000  0.234260  0.265740  1
  Ir  Ir12  1  0.501858  0.000407  0.251691  1
  Ir  Ir13  1  0.250000  0.498098  0.001902  1
  Ir  Ir14  1  0.998142  0.248309  0.499593  1
  Ir  Ir15  1  0.250000  0.251755  0.248245  1
  Br  Br16  1  0.250000  0.995804  0.504196  1
  Br  Br17  1  0.509333  0.504914  0.754625  1
  Br  Br18  1  0.250000  0.754278  0.745722  1
  Br  Br19  1  0.990667  0.745375  0.995086  1
  Br  Br20  1  0.997374  0.507481  0.254876  1
  Br  Br21  1  0.744670  0.995232  0.993144  1
  Br  Br22  1  0.755029  0.746570  0.244256  1
  Br  Br23  1  0.497673  0.753451  0.507414  1
  Br  Br24  1  0.502626  0.245124  0.992519  1
  Br  Br25  1  0.755330  0.506856  0.504768  1
  Br  Br26  1  0.744971  0.255744  0.753430  1
  Br  Br27  1  0.002327  0.992586  0.746549  1
