# generated using pymatgen
data_La2Er3TmCoI10
_symmetry_space_group_name_H-M   'P 1'
_cell_length_a   7.82583013
_cell_length_b   9.83901123
_cell_length_c   9.80003600
_cell_angle_alpha   106.78076609
_cell_angle_beta   95.80792268
_cell_angle_gamma   105.61443419
_symmetry_Int_Tables_number   1
_chemical_formula_structural   La2Er3TmCoI10
_chemical_formula_sum   'La2 Er3 Tm1 Co1 I10'
_cell_volume   682.57012433
_cell_formula_units_Z   1
loop_
 _symmetry_equiv_pos_site_id
 _symmetry_equiv_pos_as_xyz
  1  'x, y, z'
loop_
 _atom_site_type_symbol
 _atom_site_label
 _atom_site_symmetry_multiplicity
 _atom_site_fract_x
 _atom_site_fract_y
 _atom_site_fract_z
 _atom_site_occupancy
  La  La0  1  0.885522  0.957624  0.229372  1
  La  La1  1  0.113875  0.042920  0.770559  1
  Er  Er2  1  0.972791  0.279886  0.084558  1
  Er  Er3  1  0.660511  0.876637  0.840683  1
  Er  Er4  1  0.339189  0.122829  0.159129  1
  Tm  Tm5  1  0.027710  0.722080  0.916161  1
  Co  Co6  1  0.999930  0.000131  0.999969  1
  I  I7  1  0.655821  0.555417  0.732972  1
  I  I8  1  0.346519  0.444324  0.267382  1
  I  I9  1  0.728932  0.910704  0.545158  1
  I  I10  1  0.270072  0.088810  0.454829  1
  I  I11  1  0.080507  0.380393  0.826810  1
  I  I12  1  0.920134  0.620141  0.172423  1
  I  I13  1  0.443935  0.817919  0.087316  1
  I  I14  1  0.555503  0.181026  0.912071  1
  I  I15  1  0.228176  0.736839  0.663300  1
  I  I16  1  0.770872  0.262318  0.337310  1
