# generated using pymatgen
data_TbCe3(PaTc3)2
_symmetry_space_group_name_H-M   'P 1'
_cell_length_a   5.85396200
_cell_length_b   5.85396390
_cell_length_c   8.23685900
_cell_angle_alpha   90.00000000
_cell_angle_beta   90.00000000
_cell_angle_gamma   119.99998926
_symmetry_Int_Tables_number   1
_chemical_formula_structural   TbCe3(PaTc3)2
_chemical_formula_sum   'Tb1 Ce3 Pa2 Tc6'
_cell_volume   244.45124269
_cell_formula_units_Z   1
loop_
 _symmetry_equiv_pos_site_id
 _symmetry_equiv_pos_as_xyz
  1  'x, y, z'
loop_
 _atom_site_type_symbol
 _atom_site_label
 _atom_site_symmetry_multiplicity
 _atom_site_fract_x
 _atom_site_fract_y
 _atom_site_fract_z
 _atom_site_occupancy
  Tb  Tb0  1  0.333333  0.666667  0.067682  1
  Ce  Ce1  1  0.333333  0.666667  0.445949  1
  Ce  Ce2  1  0.666667  0.333333  0.568036  1
  Ce  Ce3  1  0.666667  0.333333  0.928773  1
  Pa  Pa4  1  0.000000  0.000000  0.496952  1
  Pa  Pa5  1  0.000000  0.000000  0.998345  1
  Tc  Tc6  1  0.831323  0.168677  0.251248  1
  Tc  Tc7  1  0.831323  0.662646  0.251248  1
  Tc  Tc8  1  0.337354  0.168677  0.251248  1
  Tc  Tc9  1  0.167578  0.832422  0.746839  1
  Tc  Tc10  1  0.167578  0.335156  0.746839  1
  Tc  Tc11  1  0.664844  0.832422  0.746839  1
