# generated using pymatgen
data_Er4Zr3IrF28
_symmetry_space_group_name_H-M   'P 1'
_cell_length_a   5.69089883
_cell_length_b   8.99001821
_cell_length_c   12.07831536
_cell_angle_alpha   62.79380517
_cell_angle_beta   90.08604873
_cell_angle_gamma   90.07505647
_symmetry_Int_Tables_number   1
_chemical_formula_structural   Er4Zr3IrF28
_chemical_formula_sum   'Er4 Zr3 Ir1 F28'
_cell_volume   549.57654466
_cell_formula_units_Z   1
loop_
 _symmetry_equiv_pos_site_id
 _symmetry_equiv_pos_as_xyz
  1  'x, y, z'
loop_
 _atom_site_type_symbol
 _atom_site_label
 _atom_site_symmetry_multiplicity
 _atom_site_fract_x
 _atom_site_fract_y
 _atom_site_fract_z
 _atom_site_occupancy
  Er  Er0  1  0.757402  0.816374  0.766544  1
  Er  Er1  1  0.260959  0.184444  0.730155  1
  Er  Er2  1  0.238834  0.184520  0.239408  1
  Er  Er3  1  0.742652  0.816518  0.267225  1
  Zr  Zr4  1  0.756870  0.273045  0.955899  1
  Zr  Zr5  1  0.255449  0.725559  0.544236  1
  Zr  Zr6  1  0.244896  0.726017  0.045835  1
  Ir  Ir7  1  0.740253  0.272298  0.454670  1
  F  F8  1  0.465048  0.709420  0.919231  1
  F  F9  1  0.940577  0.292014  0.578003  1
  F  F10  1  0.534655  0.288876  0.081657  1
  F  F11  1  0.033759  0.710326  0.418167  1
  F  F12  1  0.447385  0.278458  0.546277  1
  F  F13  1  0.947086  0.725670  0.949733  1
  F  F14  1  0.553475  0.718250  0.451172  1
  F  F15  1  0.052439  0.273783  0.053046  1
  F  F16  1  0.775949  0.527075  0.858996  1
  F  F17  1  0.262839  0.471652  0.640643  1
  F  F18  1  0.227884  0.472389  0.142265  1
  F  F19  1  0.731413  0.515284  0.358414  1
  F  F20  1  0.756458  0.019578  0.059731  1
  F  F21  1  0.261677  0.978721  0.443240  1
  F  F22  1  0.246062  0.978369  0.939577  1
  F  F23  1  0.745169  0.029186  0.548478  1
  F  F24  1  0.979699  0.735674  0.648377  1
  F  F25  1  0.485220  0.267895  0.847352  1
  F  F26  1  0.023597  0.271628  0.356253  1
  F  F27  1  0.518449  0.730896  0.152976  1
  F  F28  1  0.034572  0.749325  0.175039  1
  F  F29  1  0.543697  0.255367  0.327512  1
  F  F30  1  0.969564  0.250258  0.826302  1
  F  F31  1  0.468868  0.748157  0.673268  1
  F  F32  1  0.428208  0.974344  0.237672  1
  F  F33  1  0.927315  0.026408  0.267764  1
  F  F34  1  0.572128  0.026159  0.763925  1
  F  F35  1  0.069493  0.976065  0.730962  1
