# generated using pymatgen
data_Li4YEr3(Si2Ge)2
_symmetry_space_group_name_H-M   'P 1'
_cell_length_a   9.26347066
_cell_length_b   9.26347132
_cell_length_c   6.68988400
_cell_angle_alpha   90.00000000
_cell_angle_beta   90.00000000
_cell_angle_gamma   153.51698991
_symmetry_Int_Tables_number   1
_chemical_formula_structural   Li4YEr3(Si2Ge)2
_chemical_formula_sum   'Li4 Y1 Er3 Si4 Ge2'
_cell_volume   255.99714675
_cell_formula_units_Z   1
loop_
 _symmetry_equiv_pos_site_id
 _symmetry_equiv_pos_as_xyz
  1  'x, y, z'
loop_
 _atom_site_type_symbol
 _atom_site_label
 _atom_site_symmetry_multiplicity
 _atom_site_fract_x
 _atom_site_fract_y
 _atom_site_fract_z
 _atom_site_occupancy
  Li  Li0  1  0.810451  0.189549  0.441087  1
  Li  Li1  1  0.189652  0.810348  0.558660  1
  Li  Li2  1  0.810451  0.189549  0.058913  1
  Li  Li3  1  0.189652  0.810348  0.941340  1
  Y  Y4  1  0.551651  0.448349  0.750000  1
  Er  Er5  1  0.448246  0.551754  0.250000  1
  Er  Er6  1  0.346342  0.653658  0.750000  1
  Er  Er7  1  0.653741  0.346259  0.250000  1
  Si  Si8  1  0.940172  0.059828  0.928268  1
  Si  Si9  1  0.059241  0.940759  0.073009  1
  Si  Si10  1  0.940172  0.059828  0.571732  1
  Si  Si11  1  0.059241  0.940759  0.426991  1
  Ge  Ge12  1  0.720790  0.279210  0.750000  1
  Ge  Ge13  1  0.280194  0.719806  0.250000  1
