# generated using pymatgen
data_Hf4VGe3N
_symmetry_space_group_name_H-M   'P 1'
_cell_length_a   7.82294600
_cell_length_b   7.82294603
_cell_length_c   5.44134900
_cell_angle_alpha   90.00000000
_cell_angle_beta   90.00000000
_cell_angle_gamma   119.99999988
_symmetry_Int_Tables_number   1
_chemical_formula_structural   Hf4VGe3N
_chemical_formula_sum   'Hf8 V2 Ge6 N2'
_cell_volume   288.38846164
_cell_formula_units_Z   2
loop_
 _symmetry_equiv_pos_site_id
 _symmetry_equiv_pos_as_xyz
  1  'x, y, z'
loop_
 _atom_site_type_symbol
 _atom_site_label
 _atom_site_symmetry_multiplicity
 _atom_site_fract_x
 _atom_site_fract_y
 _atom_site_fract_z
 _atom_site_occupancy
  Hf  Hf0  1  0.234652  0.000000  0.249885  1
  Hf  Hf1  1  0.765348  0.000000  0.750115  1
  Hf  Hf2  1  0.000000  0.234652  0.249885  1
  Hf  Hf3  1  0.000000  0.765348  0.750115  1
  Hf  Hf4  1  0.765348  0.765348  0.249885  1
  Hf  Hf5  1  0.234652  0.234652  0.750115  1
  Hf  Hf6  1  0.666667  0.333333  0.500000  1
  Hf  Hf7  1  0.333333  0.666667  0.500000  1
  V  V8  1  0.333333  0.666667  0.000000  1
  V  V9  1  0.666667  0.333333  0.000000  1
  Ge  Ge10  1  0.592577  0.000000  0.232459  1
  Ge  Ge11  1  0.407423  0.000000  0.767541  1
  Ge  Ge12  1  0.000000  0.592577  0.232459  1
  Ge  Ge13  1  0.000000  0.407423  0.767541  1
  Ge  Ge14  1  0.407423  0.407423  0.232459  1
  Ge  Ge15  1  0.592577  0.592577  0.767541  1
  N  N16  1  0.000000  0.000000  0.000000  1
  N  N17  1  0.000000  0.000000  0.500000  1
