# generated using pymatgen
data_Rb12MoP8W
_symmetry_space_group_name_H-M   'P 1'
_cell_length_a   10.46516500
_cell_length_b   10.46516410
_cell_length_c   8.38147300
_cell_angle_alpha   90.00000000
_cell_angle_beta   90.00000000
_cell_angle_gamma   119.99999967
_symmetry_Int_Tables_number   1
_chemical_formula_structural   Rb12MoP8W
_chemical_formula_sum   'Rb12 Mo1 P8 W1'
_cell_volume   794.95602728
_cell_formula_units_Z   1
loop_
 _symmetry_equiv_pos_site_id
 _symmetry_equiv_pos_as_xyz
  1  'x, y, z'
loop_
 _atom_site_type_symbol
 _atom_site_label
 _atom_site_symmetry_multiplicity
 _atom_site_fract_x
 _atom_site_fract_y
 _atom_site_fract_z
 _atom_site_occupancy
  Rb  Rb0  1  0.146002  0.292007  0.287923  1
  Rb  Rb1  1  0.853965  0.146035  0.787871  1
  Rb  Rb2  1  0.533300  0.466700  0.104261  1
  Rb  Rb3  1  0.066242  0.533121  0.604017  1
  Rb  Rb4  1  0.466879  0.933758  0.604017  1
  Rb  Rb5  1  0.533300  0.066600  0.104261  1
  Rb  Rb6  1  0.933400  0.466700  0.104261  1
  Rb  Rb7  1  0.466879  0.533121  0.604017  1
  Rb  Rb8  1  0.146002  0.853998  0.287923  1
  Rb  Rb9  1  0.707993  0.853998  0.287923  1
  Rb  Rb10  1  0.853965  0.707928  0.787871  1
  Rb  Rb11  1  0.292072  0.146035  0.787871  1
  Mo  Mo12  1  0.666667  0.333333  0.497181  1
  P  P13  1  0.789559  0.579118  0.409156  1
  P  P14  1  0.420882  0.210441  0.409156  1
  P  P15  1  0.333333  0.666667  0.274617  1
  P  P16  1  0.666667  0.333333  0.774203  1
  P  P17  1  0.789559  0.210441  0.409156  1
  P  P18  1  0.210376  0.789624  0.908978  1
  P  P19  1  0.210376  0.420752  0.908978  1
  P  P20  1  0.579248  0.789624  0.908978  1
  W  W21  1  0.333333  0.666667  0.997177  1
