# generated using pymatgen
data_Dy4VTc3B16
_symmetry_space_group_name_H-M   'P 1'
_cell_length_a   3.57893000
_cell_length_b   5.97723643
_cell_length_c   11.55427560
_cell_angle_alpha   89.84514823
_cell_angle_beta   90.00000000
_cell_angle_gamma   90.00000000
_symmetry_Int_Tables_number   1
_chemical_formula_structural   Dy4VTc3B16
_chemical_formula_sum   'Dy4 V1 Tc3 B16'
_cell_volume   247.16944092
_cell_formula_units_Z   1
loop_
 _symmetry_equiv_pos_site_id
 _symmetry_equiv_pos_as_xyz
  1  'x, y, z'
loop_
 _atom_site_type_symbol
 _atom_site_label
 _atom_site_symmetry_multiplicity
 _atom_site_fract_x
 _atom_site_fract_y
 _atom_site_fract_z
 _atom_site_occupancy
  Dy  Dy0  1  0.000000  0.625991  0.350339  1
  Dy  Dy1  1  0.000000  0.374317  0.649755  1
  Dy  Dy2  1  0.000000  0.127197  0.150222  1
  Dy  Dy3  1  0.000000  0.872704  0.848552  1
  V  V4  1  0.000000  0.872306  0.581957  1
  Tc  Tc5  1  0.000000  0.633537  0.087264  1
  Tc  Tc6  1  0.000000  0.366744  0.913977  1
  Tc  Tc7  1  0.000000  0.126576  0.416722  1
  B  B8  1  0.500000  0.785306  0.185696  1
  B  B9  1  0.500000  0.214794  0.814733  1
  B  B10  1  0.500000  0.285357  0.315739  1
  B  B11  1  0.500000  0.714441  0.684686  1
  B  B12  1  0.500000  0.864071  0.031407  1
  B  B13  1  0.500000  0.136062  0.968620  1
  B  B14  1  0.500000  0.364428  0.467925  1
  B  B15  1  0.500000  0.635195  0.532131  1
  B  B16  1  0.500000  0.886279  0.452933  1
  B  B17  1  0.500000  0.114057  0.547222  1
  B  B18  1  0.500000  0.386767  0.047369  1
  B  B19  1  0.500000  0.613826  0.952672  1
  B  B20  1  0.500000  0.976864  0.307732  1
  B  B21  1  0.500000  0.023239  0.692341  1
  B  B22  1  0.500000  0.475795  0.192533  1
  B  B23  1  0.500000  0.524147  0.807474  1
