# generated using pymatgen
data_Ba2HgSb3Pd2
_symmetry_space_group_name_H-M   'P 1'
_cell_length_a   10.05891266
_cell_length_b   10.05891292
_cell_length_c   4.88102100
_cell_angle_alpha   90.00000000
_cell_angle_beta   90.00000000
_cell_angle_gamma   151.95337786
_symmetry_Int_Tables_number   1
_chemical_formula_structural   Ba2HgSb3Pd2
_chemical_formula_sum   'Ba2 Hg1 Sb3 Pd2'
_cell_volume   232.21273344
_cell_formula_units_Z   1
loop_
 _symmetry_equiv_pos_site_id
 _symmetry_equiv_pos_as_xyz
  1  'x, y, z'
loop_
 _atom_site_type_symbol
 _atom_site_label
 _atom_site_symmetry_multiplicity
 _atom_site_fract_x
 _atom_site_fract_y
 _atom_site_fract_z
 _atom_site_occupancy
  Ba  Ba0  1  0.387895  0.612105  0.750000  1
  Ba  Ba1  1  0.610257  0.389743  0.250000  1
  Hg  Hg2  1  0.044397  0.955603  0.750000  1
  Sb  Sb3  1  0.955834  0.044166  0.250000  1
  Sb  Sb4  1  0.248676  0.751324  0.250000  1
  Sb  Sb5  1  0.750679  0.249321  0.750000  1
  Pd  Pd6  1  0.815292  0.184708  0.250000  1
  Pd  Pd7  1  0.186971  0.813029  0.750000  1
