# generated using pymatgen
data_YLu(Al2Co)2
_symmetry_space_group_name_H-M   'P 1'
_cell_length_a   5.41719900
_cell_length_b   5.41719868
_cell_length_c   7.07704500
_cell_angle_alpha   90.00000000
_cell_angle_beta   90.00000000
_cell_angle_gamma   136.82301155
_symmetry_Int_Tables_number   1
_chemical_formula_structural   YLu(Al2Co)2
_chemical_formula_sum   'Y1 Lu1 Al4 Co2'
_cell_volume   142.10816504
_cell_formula_units_Z   1
loop_
 _symmetry_equiv_pos_site_id
 _symmetry_equiv_pos_as_xyz
  1  'x, y, z'
loop_
 _atom_site_type_symbol
 _atom_site_label
 _atom_site_symmetry_multiplicity
 _atom_site_fract_x
 _atom_site_fract_y
 _atom_site_fract_z
 _atom_site_occupancy
  Y  Y0  1  0.059533  0.940467  0.250000  1
  Lu  Lu1  1  0.940387  0.059613  0.750000  1
  Al  Al2  1  0.660027  0.339973  0.943373  1
  Al  Al3  1  0.340551  0.659449  0.053051  1
  Al  Al4  1  0.340551  0.659449  0.446949  1
  Al  Al5  1  0.660027  0.339973  0.556627  1
  Co  Co6  1  0.217194  0.782806  0.750000  1
  Co  Co7  1  0.781729  0.218271  0.250000  1
