# generated using pymatgen
data_Er5ThUO12
_symmetry_space_group_name_H-M   'P 1'
_cell_length_a   6.59658404
_cell_length_b   6.56173074
_cell_length_c   6.59318236
_cell_angle_alpha   99.21907166
_cell_angle_beta   99.07990699
_cell_angle_gamma   99.38891474
_symmetry_Int_Tables_number   1
_chemical_formula_structural   Er5ThUO12
_chemical_formula_sum   'Er5 Th1 U1 O12'
_cell_volume   272.92300918
_cell_formula_units_Z   1
loop_
 _symmetry_equiv_pos_site_id
 _symmetry_equiv_pos_as_xyz
  1  'x, y, z'
loop_
 _atom_site_type_symbol
 _atom_site_label
 _atom_site_symmetry_multiplicity
 _atom_site_fract_x
 _atom_site_fract_y
 _atom_site_fract_z
 _atom_site_occupancy
  Er  Er0  1  0.852756  0.387322  0.677598  1
  Er  Er1  1  0.689814  0.859204  0.395600  1
  Er  Er2  1  0.612389  0.313137  0.146358  1
  Er  Er3  1  0.136076  0.608177  0.314354  1
  Er  Er4  1  0.317865  0.142223  0.602069  1
  Th  Th5  1  0.393863  0.688430  0.859550  1
  U  U6  1  0.003169  0.006329  0.002653  1
  O  O7  1  0.176040  0.426880  0.583354  1
  O  O8  1  0.584618  0.177625  0.428694  1
  O  O9  1  0.426911  0.581307  0.179239  1
  O  O10  1  0.821128  0.571013  0.414678  1
  O  O11  1  0.414780  0.821250  0.564789  1
  O  O12  1  0.572812  0.411116  0.822216  1
  O  O13  1  0.916254  0.053385  0.687607  1
  O  O14  1  0.947206  0.318087  0.081887  1
  O  O15  1  0.318231  0.073347  0.938963  1
  O  O16  1  0.081712  0.946883  0.314947  1
  O  O17  1  0.045809  0.685657  0.920276  1
  O  O18  1  0.688568  0.928627  0.065169  1
