# generated using pymatgen
data_Y3ErBBr6
_symmetry_space_group_name_H-M   'P 1'
_cell_length_a   3.96453800
_cell_length_b   13.17594956
_cell_length_c   13.64574844
_cell_angle_alpha   89.77875225
_cell_angle_beta   90.00000000
_cell_angle_gamma   90.00000000
_symmetry_Int_Tables_number   1
_chemical_formula_structural   Y3ErBBr6
_chemical_formula_sum   'Y6 Er2 B2 Br12'
_cell_volume   712.80154298
_cell_formula_units_Z   2
loop_
 _symmetry_equiv_pos_site_id
 _symmetry_equiv_pos_as_xyz
  1  'x, y, z'
loop_
 _atom_site_type_symbol
 _atom_site_label
 _atom_site_symmetry_multiplicity
 _atom_site_fract_x
 _atom_site_fract_y
 _atom_site_fract_z
 _atom_site_occupancy
  Y  Y0  1  0.000000  0.101957  0.080965  1
  Y  Y1  1  0.000000  0.898043  0.919035  1
  Y  Y2  1  0.500000  0.123244  0.855192  1
  Y  Y3  1  0.500000  0.876756  0.144808  1
  Y  Y4  1  0.500000  0.622285  0.643737  1
  Y  Y5  1  0.500000  0.377715  0.356263  1
  Er  Er6  1  0.000000  0.600342  0.420183  1
  Er  Er7  1  0.000000  0.399658  0.579817  1
  B  B8  1  0.500000  0.000000  0.000000  1
  B  B9  1  0.500000  0.500000  0.500000  1
  Br  Br10  1  0.500000  0.270498  0.680456  1
  Br  Br11  1  0.500000  0.729502  0.319544  1
  Br  Br12  1  0.500000  0.767282  0.816992  1
  Br  Br13  1  0.500000  0.232718  0.183008  1
  Br  Br14  1  0.000000  0.262000  0.931036  1
  Br  Br15  1  0.000000  0.738000  0.068964  1
  Br  Br16  1  0.000000  0.483193  0.240370  1
  Br  Br17  1  0.000000  0.516807  0.759630  1
  Br  Br18  1  0.000000  0.980607  0.261609  1
  Br  Br19  1  0.000000  0.019393  0.738391  1
  Br  Br20  1  0.000000  0.239646  0.433880  1
  Br  Br21  1  0.000000  0.760354  0.566120  1
