# generated using pymatgen
data_Cs2HoInBr6
_symmetry_space_group_name_H-M   'P 1'
_cell_length_a   8.35005772
_cell_length_b   8.35005863
_cell_length_c   8.56709834
_cell_angle_alpha   119.84942130
_cell_angle_beta   119.84942815
_cell_angle_gamma   59.86270591
_symmetry_Int_Tables_number   1
_chemical_formula_structural   Cs2HoInBr6
_chemical_formula_sum   'Cs2 Ho1 In1 Br6'
_cell_volume   422.89033768
_cell_formula_units_Z   1
loop_
 _symmetry_equiv_pos_site_id
 _symmetry_equiv_pos_as_xyz
  1  'x, y, z'
loop_
 _atom_site_type_symbol
 _atom_site_label
 _atom_site_symmetry_multiplicity
 _atom_site_fract_x
 _atom_site_fract_y
 _atom_site_fract_z
 _atom_site_occupancy
  Cs  Cs0  1  0.248265  0.248265  0.241170  1
  Cs  Cs1  1  0.751735  0.751735  0.758831  1
  Ho  Ho2  1  0.500000  0.500000  0.000000  1
  In  In3  1  0.000000  0.000000  0.499999  1
  Br  Br4  1  0.694721  0.221804  0.184684  1
  Br  Br5  1  0.221804  0.694721  0.184684  1
  Br  Br6  1  0.729327  0.729327  0.303659  1
  Br  Br7  1  0.270673  0.270673  0.696341  1
  Br  Br8  1  0.778196  0.305280  0.815315  1
  Br  Br9  1  0.305280  0.778196  0.815315  1
