# generated using pymatgen
data_Y5Er5In8(CoPd)2
_symmetry_space_group_name_H-M   'P 1'
_cell_length_a   3.57929700
_cell_length_b   8.07489793
_cell_length_c   18.11264504
_cell_angle_alpha   90.22955586
_cell_angle_beta   90.00000000
_cell_angle_gamma   90.00000000
_symmetry_Int_Tables_number   1
_chemical_formula_structural   Y5Er5In8(CoPd)2
_chemical_formula_sum   'Y5 Er5 In8 Co2 Pd2'
_cell_volume   523.49575951
_cell_formula_units_Z   1
loop_
 _symmetry_equiv_pos_site_id
 _symmetry_equiv_pos_as_xyz
  1  'x, y, z'
loop_
 _atom_site_type_symbol
 _atom_site_label
 _atom_site_symmetry_multiplicity
 _atom_site_fract_x
 _atom_site_fract_y
 _atom_site_fract_z
 _atom_site_occupancy
  Y  Y0  1  0.000000  0.500235  0.499768  1
  Y  Y1  1  0.000000  0.999496  0.999951  1
  Y  Y2  1  0.000000  0.726448  0.276248  1
  Y  Y3  1  0.000000  0.274002  0.723395  1
  Y  Y4  1  0.000000  0.741414  0.782801  1
  Er  Er5  1  0.000000  0.260001  0.217875  1
  Er  Er6  1  0.000000  0.612800  0.089974  1
  Er  Er7  1  0.000000  0.385481  0.910776  1
  Er  Er8  1  0.000000  0.882113  0.584704  1
  Er  Er9  1  0.000000  0.118517  0.414834  1
  In  In10  1  0.500000  0.702262  0.933141  1
  In  In11  1  0.500000  0.295317  0.068294  1
  In  In12  1  0.500000  0.793589  0.431684  1
  In  In13  1  0.500000  0.207211  0.567928  1
  In  In14  1  0.500000  0.577410  0.652072  1
  In  In15  1  0.500000  0.423069  0.347538  1
  In  In16  1  0.500000  0.924020  0.149961  1
  In  In17  1  0.500000  0.077560  0.849800  1
  Co  Co18  1  0.500000  0.515871  0.193361  1
  Co  Co19  1  0.500000  0.479763  0.807210  1
  Pd  Pd20  1  0.500000  0.977452  0.695817  1
  Pd  Pd21  1  0.500000  0.025969  0.302869  1
