# generated using pymatgen
data_CaLa16Y3Sn16
_symmetry_space_group_name_H-M   'P 1'
_cell_length_a   8.40772500
_cell_length_b   8.55947048
_cell_length_c   16.29529600
_cell_angle_alpha   90.00000000
_cell_angle_beta   90.00000000
_cell_angle_gamma   89.91474714
_symmetry_Int_Tables_number   1
_chemical_formula_structural   CaLa16Y3Sn16
_chemical_formula_sum   'Ca1 La16 Y3 Sn16'
_cell_volume   1172.70065990
_cell_formula_units_Z   1
loop_
 _symmetry_equiv_pos_site_id
 _symmetry_equiv_pos_as_xyz
  1  'x, y, z'
loop_
 _atom_site_type_symbol
 _atom_site_label
 _atom_site_symmetry_multiplicity
 _atom_site_fract_x
 _atom_site_fract_y
 _atom_site_fract_z
 _atom_site_occupancy
  Ca  Ca0  1  0.199320  0.501069  0.750000  1
  La  La1  1  0.368166  0.838034  0.880600  1
  La  La2  1  0.868494  0.661390  0.619349  1
  La  La3  1  0.632081  0.161547  0.380202  1
  La  La4  1  0.132539  0.338394  0.120458  1
  La  La5  1  0.632081  0.161547  0.119798  1
  La  La6  1  0.132539  0.338394  0.379542  1
  La  La7  1  0.368166  0.838034  0.619400  1
  La  La8  1  0.868494  0.661390  0.880651  1
  La  La9  1  0.519128  0.318680  0.901951  1
  La  La10  1  0.019112  0.181156  0.598118  1
  La  La11  1  0.479997  0.680676  0.400961  1
  La  La12  1  0.980717  0.818889  0.098487  1
  La  La13  1  0.479997  0.680676  0.099039  1
  La  La14  1  0.980717  0.818889  0.401513  1
  La  La15  1  0.519128  0.318680  0.598049  1
  La  La16  1  0.019112  0.181156  0.901882  1
  Y  Y17  1  0.700349  0.999335  0.750000  1
  Y  Y18  1  0.798765  0.499733  0.250000  1
  Y  Y19  1  0.298885  0.000228  0.250000  1
  Sn  Sn20  1  0.291213  0.032838  0.045558  1
  Sn  Sn21  1  0.791633  0.466854  0.454710  1
  Sn  Sn22  1  0.708812  0.967305  0.545341  1
  Sn  Sn23  1  0.208661  0.534816  0.957892  1
  Sn  Sn24  1  0.708812  0.967305  0.954659  1
  Sn  Sn25  1  0.208661  0.534816  0.542108  1
  Sn  Sn26  1  0.291213  0.032838  0.454442  1
  Sn  Sn27  1  0.791633  0.466854  0.045290  1
  Sn  Sn28  1  0.569130  0.615262  0.750000  1
  Sn  Sn29  1  0.064596  0.889697  0.750000  1
  Sn  Sn30  1  0.436352  0.384501  0.250000  1
  Sn  Sn31  1  0.935123  0.115222  0.250000  1
  Sn  Sn32  1  0.326473  0.141566  0.750000  1
  Sn  Sn33  1  0.820101  0.351868  0.750000  1
  Sn  Sn34  1  0.674965  0.852305  0.250000  1
  Sn  Sn35  1  0.174841  0.648049  0.250000  1
