# generated using pymatgen
data_Tb3Tm2(Tl2Pt)2
_symmetry_space_group_name_H-M   'P 1'
_cell_length_a   3.63316800
_cell_length_b   8.15362600
_cell_length_c   18.18286400
_cell_angle_alpha   90.00000000
_cell_angle_beta   90.00000000
_cell_angle_gamma   90.00000000
_symmetry_Int_Tables_number   1
_chemical_formula_structural   Tb3Tm2(Tl2Pt)2
_chemical_formula_sum   'Tb6 Tm4 Tl8 Pt4'
_cell_volume   538.63994565
_cell_formula_units_Z   2
loop_
 _symmetry_equiv_pos_site_id
 _symmetry_equiv_pos_as_xyz
  1  'x, y, z'
loop_
 _atom_site_type_symbol
 _atom_site_label
 _atom_site_symmetry_multiplicity
 _atom_site_fract_x
 _atom_site_fract_y
 _atom_site_fract_z
 _atom_site_occupancy
  Tb  Tb0  1  0.000000  0.242177  0.218082  1
  Tb  Tb1  1  0.000000  0.757823  0.781918  1
  Tb  Tb2  1  0.000000  0.257823  0.718082  1
  Tb  Tb3  1  0.000000  0.742177  0.281918  1
  Tb  Tb4  1  0.000000  0.000000  0.000000  1
  Tb  Tb5  1  0.000000  0.500000  0.500000  1
  Tm  Tm6  1  0.000000  0.116144  0.412991  1
  Tm  Tm7  1  0.000000  0.883856  0.587009  1
  Tm  Tm8  1  0.000000  0.383856  0.912991  1
  Tm  Tm9  1  0.000000  0.616144  0.087009  1
  Tl  Tl10  1  0.500000  0.418129  0.352370  1
  Tl  Tl11  1  0.500000  0.581871  0.647630  1
  Tl  Tl12  1  0.500000  0.081871  0.852370  1
  Tl  Tl13  1  0.500000  0.918129  0.147630  1
  Tl  Tl14  1  0.500000  0.296796  0.062802  1
  Tl  Tl15  1  0.500000  0.703204  0.937198  1
  Tl  Tl16  1  0.500000  0.203204  0.562802  1
  Tl  Tl17  1  0.500000  0.796796  0.437198  1
  Pt  Pt18  1  0.500000  0.028392  0.304342  1
  Pt  Pt19  1  0.500000  0.971608  0.695658  1
  Pt  Pt20  1  0.500000  0.471608  0.804342  1
  Pt  Pt21  1  0.500000  0.528392  0.195658  1
