# generated using pymatgen
data_Tb5Er7(InSi2)2
_symmetry_space_group_name_H-M   'P 1'
_cell_length_a   8.49603473
_cell_length_b   8.49536966
_cell_length_c   8.49603500
_cell_angle_alpha   112.03133380
_cell_angle_beta   110.99282110
_cell_angle_gamma   105.46713037
_symmetry_Int_Tables_number   1
_chemical_formula_structural   Tb5Er7(InSi2)2
_chemical_formula_sum   'Tb5 Er7 In2 Si4'
_cell_volume   470.28175498
_cell_formula_units_Z   1
loop_
 _symmetry_equiv_pos_site_id
 _symmetry_equiv_pos_as_xyz
  1  'x, y, z'
loop_
 _atom_site_type_symbol
 _atom_site_label
 _atom_site_symmetry_multiplicity
 _atom_site_fract_x
 _atom_site_fract_y
 _atom_site_fract_z
 _atom_site_occupancy
  Tb  Tb0  1  0.185951  0.278344  0.465591  1
  Tb  Tb1  1  0.814416  0.721528  0.535627  1
  Tb  Tb2  1  0.185901  0.721528  0.907111  1
  Tb  Tb3  1  0.812753  0.278344  0.092394  1
  Tb  Tb4  1  0.319689  0.615910  0.296221  1
  Er  Er5  1  0.680446  0.382678  0.702232  1
  Er  Er6  1  0.319539  0.021552  0.702013  1
  Er  Er7  1  0.680247  0.978233  0.297986  1
  Er  Er8  1  0.442934  0.237602  0.204018  1
  Er  Er9  1  0.558055  0.762084  0.796523  1
  Er  Er10  1  0.033583  0.237602  0.794667  1
  Er  Er11  1  0.965560  0.762084  0.204030  1
  In  In12  1  0.500580  0.499560  0.998980  1
  In  In13  1  0.000682  0.001277  0.000596  1
  Si  Si14  1  0.115864  0.616131  0.500267  1
  Si  Si15  1  0.883047  0.383167  0.500120  1
  Si  Si16  1  0.369235  0.001189  0.369670  1
  Si  Si17  1  0.631518  0.001189  0.631954  1
