# generated using pymatgen
data_Ce3Al10Re3Si2Ru
_symmetry_space_group_name_H-M   'P 1'
_cell_length_a   8.86482000
_cell_length_b   8.86481972
_cell_length_c   9.62011700
_cell_angle_alpha   90.00000000
_cell_angle_beta   90.00000000
_cell_angle_gamma   120.00000103
_symmetry_Int_Tables_number   1
_chemical_formula_structural   Ce3Al10Re3Si2Ru
_chemical_formula_sum   'Ce6 Al20 Re6 Si4 Ru2'
_cell_volume   654.71276868
_cell_formula_units_Z   2
loop_
 _symmetry_equiv_pos_site_id
 _symmetry_equiv_pos_as_xyz
  1  'x, y, z'
loop_
 _atom_site_type_symbol
 _atom_site_label
 _atom_site_symmetry_multiplicity
 _atom_site_fract_x
 _atom_site_fract_y
 _atom_site_fract_z
 _atom_site_occupancy
  Ce  Ce0  1  0.804200  0.608401  0.748885  1
  Ce  Ce1  1  0.192735  0.807265  0.251675  1
  Ce  Ce2  1  0.614531  0.807265  0.251675  1
  Ce  Ce3  1  0.391599  0.195800  0.748885  1
  Ce  Ce4  1  0.804200  0.195800  0.748885  1
  Ce  Ce5  1  0.192735  0.385469  0.251675  1
  Al  Al6  1  0.333333  0.666667  0.007678  1
  Al  Al7  1  0.162840  0.325679  0.578263  1
  Al  Al8  1  0.674321  0.837160  0.578263  1
  Al  Al9  1  0.162840  0.837160  0.578263  1
  Al  Al10  1  0.835869  0.164131  0.077279  1
  Al  Al11  1  0.835124  0.164876  0.424200  1
  Al  Al12  1  0.835869  0.671738  0.077279  1
  Al  Al13  1  0.328262  0.164131  0.077279  1
  Al  Al14  1  0.676724  0.838361  0.923611  1
  Al  Al15  1  0.161639  0.323276  0.923611  1
  Al  Al16  1  0.835124  0.670248  0.424200  1
  Al  Al17  1  0.000000  0.000000  0.750461  1
  Al  Al18  1  0.564039  0.128077  0.250906  1
  Al  Al19  1  0.436678  0.563322  0.750965  1
  Al  Al20  1  0.126643  0.563322  0.750965  1
  Al  Al21  1  0.871923  0.435961  0.250906  1
  Al  Al22  1  0.564039  0.435961  0.250906  1
  Al  Al23  1  0.436678  0.873357  0.750965  1
  Al  Al24  1  0.161639  0.838361  0.923611  1
  Al  Al25  1  0.329752  0.164876  0.424200  1
  Re  Re26  1  0.499138  0.998276  0.500908  1
  Re  Re27  1  0.503447  0.496553  0.998637  1
  Re  Re28  1  0.993106  0.496553  0.998637  1
  Re  Re29  1  0.001724  0.500862  0.500908  1
  Re  Re30  1  0.499138  0.500862  0.500908  1
  Re  Re31  1  0.503447  0.006894  0.998637  1
  Si  Si32  1  0.333333  0.666667  0.472123  1
  Si  Si33  1  0.666667  0.333333  0.973386  1
  Si  Si34  1  0.666667  0.333333  0.528970  1
  Si  Si35  1  0.000000  0.000000  0.250594  1
  Ru  Ru36  1  0.000000  0.000000  0.492625  1
  Ru  Ru37  1  0.000000  0.000000  0.008183  1
