# generated using pymatgen
data_Y7Tm9(In3Ir)2
_symmetry_space_group_name_H-M   'P 1'
_cell_length_a   10.25358100
_cell_length_b   10.26936273
_cell_length_c   7.05969400
_cell_angle_alpha   89.88035198
_cell_angle_beta   90.00000000
_cell_angle_gamma   119.94918003
_symmetry_Int_Tables_number   1
_chemical_formula_structural   Y7Tm9(In3Ir)2
_chemical_formula_sum   'Y7 Tm9 In6 Ir2'
_cell_volume   644.10471857
_cell_formula_units_Z   1
loop_
 _symmetry_equiv_pos_site_id
 _symmetry_equiv_pos_as_xyz
  1  'x, y, z'
loop_
 _atom_site_type_symbol
 _atom_site_label
 _atom_site_symmetry_multiplicity
 _atom_site_fract_x
 _atom_site_fract_y
 _atom_site_fract_z
 _atom_site_occupancy
  Y  Y0  1  0.531972  0.063943  0.520943  1
  Y  Y1  1  0.934768  0.467910  0.522190  1
  Y  Y2  1  0.533142  0.467910  0.522190  1
  Y  Y3  1  0.468371  0.936743  0.021642  1
  Y  Y4  1  0.065127  0.534651  0.023142  1
  Y  Y5  1  0.469523  0.534651  0.023142  1
  Y  Y6  1  0.174100  0.348200  0.730815  1
  Tm  Tm7  1  0.647319  0.823372  0.727208  1
  Tm  Tm8  1  0.176054  0.823372  0.727208  1
  Tm  Tm9  1  0.823871  0.647742  0.227967  1
  Tm  Tm10  1  0.352326  0.177051  0.228157  1
  Tm  Tm11  1  0.824726  0.177051  0.228157  1
  Tm  Tm12  1  0.667008  0.334015  0.904271  1
  Tm  Tm13  1  0.333554  0.667109  0.404293  1
  Tm  Tm14  1  0.998970  0.997940  0.506727  1
  Tm  Tm15  1  0.998575  0.997150  0.009094  1
  In  In16  1  0.836838  0.673676  0.774680  1
  In  In17  1  0.328156  0.161057  0.775053  1
  In  In18  1  0.832901  0.161057  0.775053  1
  In  In19  1  0.163569  0.327137  0.271846  1
  In  In20  1  0.674266  0.837699  0.274367  1
  In  In21  1  0.163432  0.837699  0.274367  1
  Ir  Ir22  1  0.666899  0.333796  0.291161  1
  Ir  Ir23  1  0.334533  0.669067  0.792008  1
