# generated using pymatgen
data_Eu2B4Os3C
_symmetry_space_group_name_H-M   'P 1'
_cell_length_a   5.71642370
_cell_length_b   5.71642454
_cell_length_c   8.03433141
_cell_angle_alpha   57.53576722
_cell_angle_beta   57.53576209
_cell_angle_gamma   41.47377684
_symmetry_Int_Tables_number   1
_chemical_formula_structural   Eu2B4Os3C
_chemical_formula_sum   'Eu2 B4 Os3 C1'
_cell_volume   142.38424106
_cell_formula_units_Z   1
loop_
 _symmetry_equiv_pos_site_id
 _symmetry_equiv_pos_as_xyz
  1  'x, y, z'
loop_
 _atom_site_type_symbol
 _atom_site_label
 _atom_site_symmetry_multiplicity
 _atom_site_fract_x
 _atom_site_fract_y
 _atom_site_fract_z
 _atom_site_occupancy
  Eu  Eu0  1  0.383306  0.940476  0.241158  1
  Eu  Eu1  1  0.059524  0.616694  0.758842  1
  B  B2  1  0.070749  0.638249  0.311985  1
  B  B3  1  0.523778  0.529946  0.879369  1
  B  B4  1  0.361751  0.929251  0.688015  1
  B  B5  1  0.470054  0.476222  0.120631  1
  Os  Os6  1  0.861323  0.398081  0.591344  1
  Os  Os7  1  0.003422  0.996578  0.000000  1
  Os  Os8  1  0.601919  0.138677  0.408656  1
  C  C9  1  0.729174  0.270826  0.500000  1
