# generated using pymatgen
data_CePr3(Sc3Ga4)2
_symmetry_space_group_name_H-M   'P 1'
_cell_length_a   7.44556922
_cell_length_b   7.69736900
_cell_length_c   14.70384800
_cell_angle_alpha   90.00000000
_cell_angle_beta   89.98615618
_cell_angle_gamma   90.00000000
_symmetry_Int_Tables_number   1
_chemical_formula_structural   CePr3(Sc3Ga4)2
_chemical_formula_sum   'Ce2 Pr6 Sc12 Ga16'
_cell_volume   842.69652637
_cell_formula_units_Z   2
loop_
 _symmetry_equiv_pos_site_id
 _symmetry_equiv_pos_as_xyz
  1  'x, y, z'
loop_
 _atom_site_type_symbol
 _atom_site_label
 _atom_site_symmetry_multiplicity
 _atom_site_fract_x
 _atom_site_fract_y
 _atom_site_fract_z
 _atom_site_occupancy
  Ce  Ce0  1  0.013179  0.178527  0.404167  1
  Ce  Ce1  1  0.513179  0.321473  0.404167  1
  Pr  Pr2  1  0.487531  0.675264  0.904193  1
  Pr  Pr3  1  0.488197  0.675904  0.595470  1
  Pr  Pr4  1  0.988197  0.824096  0.595470  1
  Pr  Pr5  1  0.987531  0.824736  0.904193  1
  Pr  Pr6  1  0.512257  0.325778  0.094953  1
  Pr  Pr7  1  0.012257  0.174222  0.094953  1
  Sc  Sc8  1  0.329882  0.173037  0.624699  1
  Sc  Sc9  1  0.670723  0.827565  0.375838  1
  Sc  Sc10  1  0.661613  0.000645  0.750246  1
  Sc  Sc11  1  0.170723  0.672435  0.375838  1
  Sc  Sc12  1  0.829852  0.326756  0.875226  1
  Sc  Sc13  1  0.829882  0.326963  0.624699  1
  Sc  Sc14  1  0.837075  0.501327  0.249959  1
  Sc  Sc15  1  0.337075  0.998673  0.249959  1
  Sc  Sc16  1  0.329852  0.173244  0.875226  1
  Sc  Sc17  1  0.170140  0.672973  0.124354  1
  Sc  Sc18  1  0.670140  0.827027  0.124354  1
  Sc  Sc19  1  0.161613  0.499355  0.750246  1
  Ga  Ga20  1  0.286640  0.880311  0.749691  1
  Ga  Ga21  1  0.468845  0.621398  0.251255  1
  Ga  Ga22  1  0.031909  0.123224  0.749602  1
  Ga  Ga23  1  0.531909  0.376776  0.749602  1
  Ga  Ga24  1  0.156508  0.459225  0.539281  1
  Ga  Ga25  1  0.968845  0.878602  0.251255  1
  Ga  Ga26  1  0.714424  0.121882  0.253067  1
  Ga  Ga27  1  0.844368  0.538401  0.041065  1
  Ga  Ga28  1  0.344368  0.961599  0.041065  1
  Ga  Ga29  1  0.155550  0.461370  0.959248  1
  Ga  Ga30  1  0.656508  0.040775  0.539281  1
  Ga  Ga31  1  0.341305  0.967022  0.457686  1
  Ga  Ga32  1  0.841305  0.532978  0.457686  1
  Ga  Ga33  1  0.786640  0.619689  0.749691  1
  Ga  Ga34  1  0.214424  0.378118  0.253067  1
  Ga  Ga35  1  0.655550  0.038630  0.959248  1
