# generated using pymatgen
data_CsCo3TeO8
_symmetry_space_group_name_H-M   'P 1'
_cell_length_a   5.81554818
_cell_length_b   7.80860847
_cell_length_c   5.81533542
_cell_angle_alpha   85.87934803
_cell_angle_beta   120.10838724
_cell_angle_gamma   72.88790275
_symmetry_Int_Tables_number   1
_chemical_formula_structural   CsCo3TeO8
_chemical_formula_sum   'Cs1 Co3 Te1 O8'
_cell_volume   210.50604074
_cell_formula_units_Z   1
loop_
 _symmetry_equiv_pos_site_id
 _symmetry_equiv_pos_as_xyz
  1  'x, y, z'
loop_
 _atom_site_type_symbol
 _atom_site_label
 _atom_site_symmetry_multiplicity
 _atom_site_fract_x
 _atom_site_fract_y
 _atom_site_fract_z
 _atom_site_occupancy
  Cs  Cs0  1  0.000000  0.500000  0.500000  1
  Co  Co1  1  0.000000  0.000000  0.500000  1
  Co  Co2  1  0.000000  0.000000  0.000000  1
  Co  Co3  1  0.500000  0.000000  0.000000  1
  Te  Te4  1  0.500000  0.000000  0.500000  1
  O  O5  1  0.415865  0.858447  0.723699  1
  O  O6  1  0.584135  0.141553  0.276301  1
  O  O7  1  0.911221  0.869475  0.217456  1
  O  O8  1  0.088779  0.130525  0.782544  1
  O  O9  1  0.920496  0.858423  0.723441  1
  O  O10  1  0.416332  0.858347  0.219189  1
  O  O11  1  0.079504  0.141577  0.276559  1
  O  O12  1  0.583668  0.141653  0.780811  1
