# generated using pymatgen
data_Hf6Co4TcSn6Au
_symmetry_space_group_name_H-M   'P 1'
_cell_length_a   7.32249800
_cell_length_b   7.32249898
_cell_length_c   7.08139100
_cell_angle_alpha   90.00000000
_cell_angle_beta   90.00000000
_cell_angle_gamma   119.99998652
_symmetry_Int_Tables_number   1
_chemical_formula_structural   Hf6Co4TcSn6Au
_chemical_formula_sum   'Hf6 Co4 Tc1 Sn6 Au1'
_cell_volume   328.82728535
_cell_formula_units_Z   1
loop_
 _symmetry_equiv_pos_site_id
 _symmetry_equiv_pos_as_xyz
  1  'x, y, z'
loop_
 _atom_site_type_symbol
 _atom_site_label
 _atom_site_symmetry_multiplicity
 _atom_site_fract_x
 _atom_site_fract_y
 _atom_site_fract_z
 _atom_site_occupancy
  Hf  Hf0  1  0.995434  0.389893  0.755569  1
  Hf  Hf1  1  0.610107  0.605541  0.755569  1
  Hf  Hf2  1  0.394459  0.004566  0.755569  1
  Hf  Hf3  1  0.971551  0.375696  0.245231  1
  Hf  Hf4  1  0.624304  0.595854  0.245231  1
  Hf  Hf5  1  0.404146  0.028449  0.245231  1
  Co  Co6  1  0.333333  0.666667  0.037981  1
  Co  Co7  1  0.000000  0.000000  0.767196  1
  Co  Co8  1  0.000000  0.000000  0.238114  1
  Co  Co9  1  0.666667  0.333333  0.975374  1
  Tc  Tc10  1  0.666667  0.333333  0.511979  1
  Sn  Sn11  1  0.251833  0.254244  0.504398  1
  Sn  Sn12  1  0.002412  0.748167  0.504398  1
  Sn  Sn13  1  0.012030  0.731063  0.000870  1
  Sn  Sn14  1  0.745756  0.997588  0.504398  1
  Sn  Sn15  1  0.719033  0.987970  0.000870  1
  Sn  Sn16  1  0.268937  0.280967  0.000870  1
  Au  Au17  1  0.333333  0.666667  0.451153  1
