# generated using pymatgen
data_Tm12Fe2Co2SnPt
_symmetry_space_group_name_H-M   'P 1'
_cell_length_a   8.21038626
_cell_length_b   8.21038578
_cell_length_c   8.21038641
_cell_angle_alpha   111.78059185
_cell_angle_beta   110.98143646
_cell_angle_gamma   105.71670456
_symmetry_Int_Tables_number   1
_chemical_formula_structural   Tm12Fe2Co2SnPt
_chemical_formula_sum   'Tm12 Fe2 Co2 Sn1 Pt1'
_cell_volume   424.67551057
_cell_formula_units_Z   1
loop_
 _symmetry_equiv_pos_site_id
 _symmetry_equiv_pos_as_xyz
  1  'x, y, z'
loop_
 _atom_site_type_symbol
 _atom_site_label
 _atom_site_symmetry_multiplicity
 _atom_site_fract_x
 _atom_site_fract_y
 _atom_site_fract_z
 _atom_site_occupancy
  Tm  Tm0  1  0.416768  0.216288  0.200481  1
  Tm  Tm1  1  0.583232  0.783712  0.799519  1
  Tm  Tm2  1  0.015807  0.216288  0.799519  1
  Tm  Tm3  1  0.984193  0.783712  0.200481  1
  Tm  Tm4  1  0.187460  0.286953  0.474413  1
  Tm  Tm5  1  0.812540  0.713047  0.525587  1
  Tm  Tm6  1  0.187460  0.713047  0.900507  1
  Tm  Tm7  1  0.812540  0.286953  0.099493  1
  Tm  Tm8  1  0.314193  0.619626  0.305433  1
  Tm  Tm9  1  0.685807  0.380374  0.694567  1
  Tm  Tm10  1  0.314193  0.008759  0.694567  1
  Tm  Tm11  1  0.685807  0.991241  0.305433  1
  Fe  Fe12  1  0.382766  0.000000  0.382766  1
  Fe  Fe13  1  0.617234  0.000000  0.617234  1
  Co  Co14  1  0.111371  0.611371  0.500000  1
  Co  Co15  1  0.888629  0.388629  0.500000  1
  Sn  Sn16  1  0.500000  0.500000  0.000000  1
  Pt  Pt17  1  0.000000  0.000000  0.000000  1
