# generated using pymatgen
data_CsNd3Sm7(C2Br9)2
_symmetry_space_group_name_H-M   'P 1'
_cell_length_a   10.91038524
_cell_length_b   10.99593112
_cell_length_c   11.17013105
_cell_angle_alpha   113.08250144
_cell_angle_beta   87.82738128
_cell_angle_gamma   118.48711139
_symmetry_Int_Tables_number   1
_chemical_formula_structural   CsNd3Sm7(C2Br9)2
_chemical_formula_sum   'Cs1 Nd3 Sm7 C4 Br18'
_cell_volume   1064.95472368
_cell_formula_units_Z   1
loop_
 _symmetry_equiv_pos_site_id
 _symmetry_equiv_pos_as_xyz
  1  'x, y, z'
loop_
 _atom_site_type_symbol
 _atom_site_label
 _atom_site_symmetry_multiplicity
 _atom_site_fract_x
 _atom_site_fract_y
 _atom_site_fract_z
 _atom_site_occupancy
  Cs  Cs0  1  0.500020  0.999739  0.500064  1
  Nd  Nd1  1  0.344829  0.285489  0.302654  1
  Nd  Nd2  1  0.717153  0.631957  0.987095  1
  Nd  Nd3  1  0.883900  0.058834  0.998684  1
  Sm  Sm4  1  0.658321  0.715470  0.699545  1
  Sm  Sm5  1  0.281007  0.365387  0.013421  1
  Sm  Sm6  1  0.092920  0.410728  0.303427  1
  Sm  Sm7  1  0.961799  0.038331  0.333509  1
  Sm  Sm8  1  0.907981  0.588926  0.696203  1
  Sm  Sm9  1  0.113784  0.941965  0.001117  1
  Sm  Sm10  1  0.038662  0.961961  0.665902  1
  C  C11  1  0.156546  0.229166  0.126865  1
  C  C12  1  0.844078  0.769744  0.871729  1
  C  C13  1  0.919672  0.846676  0.793967  1
  C  C14  1  0.080840  0.152323  0.204620  1
  Br  Br15  1  0.449091  0.530127  0.829912  1
  Br  Br16  1  0.383648  0.033781  0.158338  1
  Br  Br17  1  0.775693  0.857430  0.502416  1
  Br  Br18  1  0.836954  0.316602  0.157901  1
  Br  Br19  1  0.547909  0.469320  0.167804  1
  Br  Br20  1  0.223259  0.141474  0.499263  1
  Br  Br21  1  0.312284  0.099001  0.832107  1
  Br  Br22  1  0.686698  0.903054  0.171415  1
  Br  Br23  1  0.980811  0.765939  0.174042  1
  Br  Br24  1  0.932004  0.301123  0.500424  1
  Br  Br25  1  0.024385  0.237766  0.826822  1
  Br  Br26  1  0.068490  0.699084  0.499441  1
  Br  Br27  1  0.261715  0.624479  0.189047  1
  Br  Br28  1  0.738847  0.371563  0.807539  1
  Br  Br29  1  0.639624  0.432675  0.500402  1
  Br  Br30  1  0.162867  0.688189  0.845119  1
  Br  Br31  1  0.612222  0.959776  0.836056  1
  Br  Br32  1  0.361987  0.571921  0.503152  1
