# generated using pymatgen
data_Li5Ni6As7Rh3
_symmetry_space_group_name_H-M   'P 1'
_cell_length_a   9.55315900
_cell_length_b   9.55315855
_cell_length_c   3.86373600
_cell_angle_alpha   90.00000000
_cell_angle_beta   90.00000000
_cell_angle_gamma   120.00001193
_symmetry_Int_Tables_number   1
_chemical_formula_structural   Li5Ni6As7Rh3
_chemical_formula_sum   'Li5 Ni6 As7 Rh3'
_cell_volume   305.37397048
_cell_formula_units_Z   1
loop_
 _symmetry_equiv_pos_site_id
 _symmetry_equiv_pos_as_xyz
  1  'x, y, z'
loop_
 _atom_site_type_symbol
 _atom_site_label
 _atom_site_symmetry_multiplicity
 _atom_site_fract_x
 _atom_site_fract_y
 _atom_site_fract_z
 _atom_site_occupancy
  Li  Li0  1  0.768068  0.541572  0.500000  1
  Li  Li1  1  0.458428  0.226496  0.500000  1
  Li  Li2  1  0.773504  0.231932  0.500000  1
  Li  Li3  1  0.333333  0.666667  0.000000  1
  Li  Li4  1  0.000000  0.000000  0.500000  1
  Ni  Ni5  1  0.501126  0.452621  0.000000  1
  Ni  Ni6  1  0.547379  0.048505  0.000000  1
  Ni  Ni7  1  0.951495  0.498874  0.000000  1
  Ni  Ni8  1  0.717418  0.760559  0.000000  1
  Ni  Ni9  1  0.239441  0.956859  0.000000  1
  Ni  Ni10  1  0.043141  0.282582  0.000000  1
  As  As11  1  0.961573  0.756843  0.000000  1
  As  As12  1  0.243157  0.204730  0.000000  1
  As  As13  1  0.795270  0.038427  0.000000  1
  As  As14  1  0.666667  0.333333  0.000000  1
  As  As15  1  0.548640  0.618346  0.500000  1
  As  As16  1  0.381654  0.930294  0.500000  1
  As  As17  1  0.069706  0.451360  0.500000  1
  Rh  Rh18  1  0.276277  0.375926  0.500000  1
  Rh  Rh19  1  0.624074  0.900351  0.500000  1
  Rh  Rh20  1  0.099649  0.723723  0.500000  1
