# generated using pymatgen
data_KTbVN3
_symmetry_space_group_name_H-M   'P 1'
_cell_length_a   6.23280700
_cell_length_b   6.23280582
_cell_length_c   11.99099700
_cell_angle_alpha   90.00000000
_cell_angle_beta   90.00000000
_cell_angle_gamma   125.89316817
_symmetry_Int_Tables_number   1
_chemical_formula_structural   KTbVN3
_chemical_formula_sum   'K4 Tb4 V4 N12'
_cell_volume   377.37002079
_cell_formula_units_Z   4
loop_
 _symmetry_equiv_pos_site_id
 _symmetry_equiv_pos_as_xyz
  1  'x, y, z'
loop_
 _atom_site_type_symbol
 _atom_site_label
 _atom_site_symmetry_multiplicity
 _atom_site_fract_x
 _atom_site_fract_y
 _atom_site_fract_z
 _atom_site_occupancy
  K  K0  1  0.464525  0.535475  0.645203  1
  K  K1  1  0.535475  0.464525  0.354797  1
  K  K2  1  0.035475  0.964525  0.145203  1
  K  K3  1  0.964525  0.035475  0.854797  1
  Tb  Tb4  1  0.855266  0.144734  0.417199  1
  Tb  Tb5  1  0.355266  0.644734  0.082801  1
  Tb  Tb6  1  0.644734  0.355266  0.917199  1
  Tb  Tb7  1  0.144734  0.855266  0.582801  1
  V  V8  1  0.774631  0.225369  0.659893  1
  V  V9  1  0.725369  0.274631  0.159893  1
  V  V10  1  0.225369  0.774631  0.340107  1
  V  V11  1  0.274631  0.725369  0.840107  1
  N  N12  1  0.974789  0.525211  0.750000  1
  N  N13  1  0.525211  0.974789  0.250000  1
  N  N14  1  0.025211  0.474789  0.250000  1
  N  N15  1  0.474789  0.025211  0.750000  1
  N  N16  1  0.428661  0.571339  0.887782  1
  N  N17  1  0.571339  0.428661  0.112218  1
  N  N18  1  0.071339  0.928661  0.387782  1
  N  N19  1  0.687401  0.312599  0.538308  1
  N  N20  1  0.187401  0.812599  0.961692  1
  N  N21  1  0.812599  0.187401  0.038308  1
  N  N22  1  0.312599  0.687401  0.461692  1
  N  N23  1  0.928661  0.071339  0.612218  1
