# generated using pymatgen
data_Be6TcNi2Mo3
_symmetry_space_group_name_H-M   'P 1'
_cell_length_a   4.54969100
_cell_length_b   4.54969126
_cell_length_c   7.13485100
_cell_angle_alpha   90.00000000
_cell_angle_beta   90.00000000
_cell_angle_gamma   120.00000536
_symmetry_Int_Tables_number   1
_chemical_formula_structural   Be6TcNi2Mo3
_chemical_formula_sum   'Be6 Tc1 Ni2 Mo3'
_cell_volume   127.90259176
_cell_formula_units_Z   1
loop_
 _symmetry_equiv_pos_site_id
 _symmetry_equiv_pos_as_xyz
  1  'x, y, z'
loop_
 _atom_site_type_symbol
 _atom_site_label
 _atom_site_symmetry_multiplicity
 _atom_site_fract_x
 _atom_site_fract_y
 _atom_site_fract_z
 _atom_site_occupancy
  Be  Be0  1  0.830129  0.169871  0.251561  1
  Be  Be1  1  0.830129  0.660256  0.251561  1
  Be  Be2  1  0.339744  0.169871  0.251561  1
  Be  Be3  1  0.170390  0.829610  0.749278  1
  Be  Be4  1  0.170390  0.340782  0.749278  1
  Be  Be5  1  0.659218  0.829610  0.749278  1
  Tc  Tc6  1  0.333333  0.666667  0.426417  1
  Ni  Ni7  1  0.000000  0.000000  0.500461  1
  Ni  Ni8  1  0.000000  0.000000  0.002200  1
  Mo  Mo9  1  0.666667  0.333333  0.567770  1
  Mo  Mo10  1  0.666667  0.333333  0.928096  1
  Mo  Mo11  1  0.333333  0.666667  0.072537  1
