# generated using pymatgen
data_Tb4CrFe4(P4Rh5)3
_symmetry_space_group_name_H-M   'P 1'
_cell_length_a   3.83787800
_cell_length_b   10.72905029
_cell_length_c   12.44769035
_cell_angle_alpha   90.56006906
_cell_angle_beta   90.00000000
_cell_angle_gamma   90.00000000
_symmetry_Int_Tables_number   1
_chemical_formula_structural   Tb4CrFe4(P4Rh5)3
_chemical_formula_sum   'Tb4 Cr1 Fe4 P12 Rh15'
_cell_volume   512.53139519
_cell_formula_units_Z   1
loop_
 _symmetry_equiv_pos_site_id
 _symmetry_equiv_pos_as_xyz
  1  'x, y, z'
loop_
 _atom_site_type_symbol
 _atom_site_label
 _atom_site_symmetry_multiplicity
 _atom_site_fract_x
 _atom_site_fract_y
 _atom_site_fract_z
 _atom_site_occupancy
  Tb  Tb0  1  0.250000  0.583325  0.710770  1
  Tb  Tb1  1  0.250000  0.917467  0.208258  1
  Tb  Tb2  1  0.750000  0.419639  0.290654  1
  Tb  Tb3  1  0.750000  0.080635  0.791939  1
  Cr  Cr4  1  0.250000  0.706789  0.988287  1
  Fe  Fe5  1  0.250000  0.461425  0.935305  1
  Fe  Fe6  1  0.250000  0.039292  0.432960  1
  Fe  Fe7  1  0.750000  0.536312  0.065400  1
  Fe  Fe8  1  0.750000  0.962391  0.565506  1
  P  P9  1  0.250000  0.430184  0.106997  1
  P  P10  1  0.250000  0.070252  0.605661  1
  P  P11  1  0.750000  0.574071  0.895866  1
  P  P12  1  0.750000  0.931005  0.393279  1
  P  P13  1  0.250000  0.269291  0.869903  1
  P  P14  1  0.250000  0.230298  0.369930  1
  P  P15  1  0.750000  0.728108  0.129064  1
  P  P16  1  0.750000  0.772020  0.630145  1
  P  P17  1  0.250000  0.600210  0.389386  1
  P  P18  1  0.250000  0.895439  0.890095  1
  P  P19  1  0.750000  0.399650  0.611588  1
  P  P20  1  0.750000  0.100367  0.109427  1
  Rh  Rh21  1  0.250000  0.785433  0.489039  1
  Rh  Rh22  1  0.750000  0.286055  0.009375  1
  Rh  Rh23  1  0.750000  0.215922  0.509448  1
  Rh  Rh24  1  0.250000  0.408380  0.482482  1
  Rh  Rh25  1  0.250000  0.090802  0.981359  1
  Rh  Rh26  1  0.750000  0.592831  0.519869  1
  Rh  Rh27  1  0.750000  0.903593  0.018503  1
  Rh  Rh28  1  0.250000  0.231837  0.175943  1
  Rh  Rh29  1  0.250000  0.269397  0.676254  1
  Rh  Rh30  1  0.750000  0.771049  0.825227  1
  Rh  Rh31  1  0.750000  0.731392  0.324567  1
  Rh  Rh32  1  0.250000  0.881992  0.698901  1
  Rh  Rh33  1  0.250000  0.619701  0.199907  1
  Rh  Rh34  1  0.750000  0.118134  0.298672  1
  Rh  Rh35  1  0.750000  0.385312  0.800035  1
