# generated using pymatgen
data_Nd6Cd(SiS7)2
_symmetry_space_group_name_H-M   'P 1'
_cell_length_a   10.27819300
_cell_length_b   10.27819391
_cell_length_c   5.73710200
_cell_angle_alpha   90.00000000
_cell_angle_beta   90.00000000
_cell_angle_gamma   120.00000030
_symmetry_Int_Tables_number   1
_chemical_formula_structural   Nd6Cd(SiS7)2
_chemical_formula_sum   'Nd6 Cd1 Si2 S14'
_cell_volume   524.87607460
_cell_formula_units_Z   1
loop_
 _symmetry_equiv_pos_site_id
 _symmetry_equiv_pos_as_xyz
  1  'x, y, z'
loop_
 _atom_site_type_symbol
 _atom_site_label
 _atom_site_symmetry_multiplicity
 _atom_site_fract_x
 _atom_site_fract_y
 _atom_site_fract_z
 _atom_site_occupancy
  Nd  Nd0  1  0.975307  0.432286  0.751596  1
  Nd  Nd1  1  0.456980  0.024693  0.751596  1
  Nd  Nd2  1  0.567714  0.543020  0.751596  1
  Nd  Nd3  1  0.691237  0.900747  0.248131  1
  Nd  Nd4  1  0.209509  0.308763  0.248131  1
  Nd  Nd5  1  0.099253  0.790491  0.248131  1
  Cd  Cd6  1  0.333333  0.666667  0.512177  1
  Si  Si7  1  0.666667  0.333333  0.164342  1
  Si  Si8  1  0.000000  0.000000  0.658855  1
  S  S9  1  0.666667  0.333333  0.531815  1
  S  S10  1  0.000000  0.000000  0.027022  1
  S  S11  1  0.077417  0.499587  0.270454  1
  S  S12  1  0.422170  0.922583  0.270454  1
  S  S13  1  0.500413  0.577830  0.270454  1
  S  S14  1  0.588789  0.835530  0.760568  1
  S  S15  1  0.246741  0.411211  0.760568  1
  S  S16  1  0.164470  0.753259  0.760568  1
  S  S17  1  0.810220  0.552579  0.018241  1
  S  S18  1  0.742359  0.189780  0.018241  1
  S  S19  1  0.447421  0.257641  0.018241  1
  S  S20  1  0.856461  0.780493  0.514285  1
  S  S21  1  0.924034  0.143539  0.514285  1
  S  S22  1  0.219507  0.075966  0.514285  1
