# generated using pymatgen
data_Ba2Dy3Er(Si3O10)2
_symmetry_space_group_name_H-M   'P 1'
_cell_length_a   5.45142988
_cell_length_b   12.33197683
_cell_length_c   6.91655177
_cell_angle_alpha   90.04505282
_cell_angle_beta   106.48431613
_cell_angle_gamma   89.94529311
_symmetry_Int_Tables_number   1
_chemical_formula_structural   Ba2Dy3Er(Si3O10)2
_chemical_formula_sum   'Ba2 Dy3 Er1 Si6 O20'
_cell_volume   445.86631495
_cell_formula_units_Z   1
loop_
 _symmetry_equiv_pos_site_id
 _symmetry_equiv_pos_as_xyz
  1  'x, y, z'
loop_
 _atom_site_type_symbol
 _atom_site_label
 _atom_site_symmetry_multiplicity
 _atom_site_fract_x
 _atom_site_fract_y
 _atom_site_fract_z
 _atom_site_occupancy
  Ba  Ba0  1  0.762470  0.250703  0.015791  1
  Ba  Ba1  1  0.237504  0.749494  0.984233  1
  Dy  Dy2  1  0.843329  0.598273  0.316640  1
  Dy  Dy3  1  0.843184  0.900968  0.315890  1
  Dy  Dy4  1  0.156945  0.099668  0.684143  1
  Er  Er5  1  0.157696  0.400474  0.683939  1
  Si  Si6  1  0.305544  0.061492  0.214672  1
  Si  Si7  1  0.304415  0.438711  0.213466  1
  Si  Si8  1  0.581290  0.250752  0.488074  1
  Si  Si9  1  0.419397  0.749966  0.511946  1
  Si  Si10  1  0.694473  0.560227  0.785703  1
  Si  Si11  1  0.694677  0.939053  0.785652  1
  O  O12  1  0.163827  0.122463  0.003741  1
  O  O13  1  0.162163  0.379205  0.000801  1
  O  O14  1  0.435777  0.554419  0.193363  1
  O  O15  1  0.436356  0.945873  0.192077  1
  O  O16  1  0.548348  0.143202  0.339619  1
  O  O17  1  0.547340  0.356434  0.335768  1
  O  O18  1  0.103555  0.049923  0.352496  1
  O  O19  1  0.104563  0.449007  0.353797  1
  O  O20  1  0.125031  0.749619  0.365455  1
  O  O21  1  0.630185  0.749898  0.385370  1
  O  O22  1  0.370556  0.251111  0.614932  1
  O  O23  1  0.875840  0.251633  0.634486  1
  O  O24  1  0.896939  0.547195  0.648234  1
  O  O25  1  0.896512  0.950693  0.647726  1
  O  O26  1  0.453949  0.643329  0.661886  1
  O  O27  1  0.452067  0.857022  0.661489  1
  O  O28  1  0.563631  0.054673  0.807935  1
  O  O29  1  0.558957  0.445800  0.807070  1
  O  O30  1  0.836905  0.620688  0.997156  1
  O  O31  1  0.836577  0.878034  0.996458  1
