# generated using pymatgen
data_Li4LuPaS6
_symmetry_space_group_name_H-M   'P 1'
_cell_length_a   6.58826443
_cell_length_b   6.58826465
_cell_length_c   6.38893700
_cell_angle_alpha   100.03703717
_cell_angle_beta   100.03703750
_cell_angle_gamma   119.80528500
_symmetry_Int_Tables_number   1
_chemical_formula_structural   Li4LuPaS6
_chemical_formula_sum   'Li4 Lu1 Pa1 S6'
_cell_volume   225.62989020
_cell_formula_units_Z   1
loop_
 _symmetry_equiv_pos_site_id
 _symmetry_equiv_pos_as_xyz
  1  'x, y, z'
loop_
 _atom_site_type_symbol
 _atom_site_label
 _atom_site_symmetry_multiplicity
 _atom_site_fract_x
 _atom_site_fract_y
 _atom_site_fract_z
 _atom_site_occupancy
  Li  Li0  1  0.499083  0.500915  0.000000  1
  Li  Li1  1  0.005272  0.994727  0.499999  1
  Li  Li2  1  0.664873  0.335127  0.500001  1
  Li  Li3  1  0.335658  0.664342  0.500001  1
  Lu  Lu4  1  0.832809  0.167190  0.000000  1
  Pa  Pa5  1  0.166368  0.833630  0.000000  1
  S  S6  1  0.921774  0.585892  0.247588  1
  S  S7  1  0.581350  0.922400  0.250221  1
  S  S8  1  0.244314  0.243214  0.253515  1
  S  S9  1  0.756787  0.755687  0.746484  1
  S  S10  1  0.077602  0.418652  0.749781  1
  S  S11  1  0.414110  0.078228  0.752413  1
