# generated using pymatgen
data_Ho3ErCoB14
_symmetry_space_group_name_H-M   'P 1'
_cell_length_a   7.19638040
_cell_length_b   7.19719640
_cell_length_c   7.47193200
_cell_angle_alpha   90.00000000
_cell_angle_beta   90.00000000
_cell_angle_gamma   90.03819831
_symmetry_Int_Tables_number   1
_chemical_formula_structural   Ho3ErCoB14
_chemical_formula_sum   'Ho6 Er2 Co2 B28'
_cell_volume   386.99938994
_cell_formula_units_Z   2
loop_
 _symmetry_equiv_pos_site_id
 _symmetry_equiv_pos_as_xyz
  1  'x, y, z'
loop_
 _atom_site_type_symbol
 _atom_site_label
 _atom_site_symmetry_multiplicity
 _atom_site_fract_x
 _atom_site_fract_y
 _atom_site_fract_z
 _atom_site_occupancy
  Ho  Ho0  1  0.192838  0.330284  0.000000  1
  Ho  Ho1  1  0.669713  0.192843  0.000000  1
  Ho  Ho2  1  0.330287  0.807157  0.000000  1
  Ho  Ho3  1  0.692851  0.169776  0.500000  1
  Ho  Ho4  1  0.307149  0.830224  0.500000  1
  Ho  Ho5  1  0.807162  0.669716  0.000000  1
  Er  Er6  1  0.830199  0.692814  0.500000  1
  Er  Er7  1  0.169801  0.307186  0.500000  1
  Co  Co8  1  0.000000  0.000000  0.000000  1
  Co  Co9  1  0.500000  0.500000  0.500000  1
  B  B10  1  0.174500  0.038864  0.230634  1
  B  B11  1  0.961243  0.174530  0.230674  1
  B  B12  1  0.038757  0.825470  0.230674  1
  B  B13  1  0.674538  0.461272  0.269600  1
  B  B14  1  0.325462  0.538728  0.269600  1
  B  B15  1  0.825500  0.961136  0.230634  1
  B  B16  1  0.538907  0.674491  0.269568  1
  B  B17  1  0.461093  0.325509  0.269568  1
  B  B18  1  0.825500  0.961136  0.769366  1
  B  B19  1  0.038757  0.825470  0.769326  1
  B  B20  1  0.961243  0.174530  0.769326  1
  B  B21  1  0.325462  0.538728  0.730400  1
  B  B22  1  0.674538  0.461272  0.730400  1
  B  B23  1  0.174500  0.038864  0.769366  1
  B  B24  1  0.461093  0.325509  0.730432  1
  B  B25  1  0.538907  0.674491  0.730432  1
  B  B26  1  0.087935  0.587985  0.250139  1
  B  B27  1  0.411981  0.088016  0.250029  1
  B  B28  1  0.588019  0.911984  0.250029  1
  B  B29  1  0.912065  0.412015  0.250139  1
  B  B30  1  0.912065  0.412015  0.749861  1
  B  B31  1  0.588019  0.911984  0.749971  1
  B  B32  1  0.411981  0.088016  0.749971  1
  B  B33  1  0.087935  0.587985  0.749861  1
  B  B34  1  0.000000  0.000000  0.388257  1
  B  B35  1  0.500000  0.500000  0.111903  1
  B  B36  1  0.000000  0.000000  0.611743  1
  B  B37  1  0.500000  0.500000  0.888097  1
