# generated using pymatgen
data_DyNb2Fe9
_symmetry_space_group_name_H-M   'P 1'
_cell_length_a   4.91979760
_cell_length_b   4.91979784
_cell_length_c   8.34064503
_cell_angle_alpha   72.84671605
_cell_angle_beta   72.84671241
_cell_angle_gamma   59.99999148
_symmetry_Int_Tables_number   1
_chemical_formula_structural   DyNb2Fe9
_chemical_formula_sum   'Dy1 Nb2 Fe9'
_cell_volume   164.38279969
_cell_formula_units_Z   1
loop_
 _symmetry_equiv_pos_site_id
 _symmetry_equiv_pos_as_xyz
  1  'x, y, z'
loop_
 _atom_site_type_symbol
 _atom_site_label
 _atom_site_symmetry_multiplicity
 _atom_site_fract_x
 _atom_site_fract_y
 _atom_site_fract_z
 _atom_site_occupancy
  Dy  Dy0  1  0.000000  0.000000  0.000000  1
  Nb  Nb1  1  0.143683  0.143683  0.568952  1
  Nb  Nb2  1  0.856317  0.856317  0.431048  1
  Fe  Fe3  1  0.083361  0.587686  0.741267  1
  Fe  Fe4  1  0.587686  0.587686  0.741267  1
  Fe  Fe5  1  0.587686  0.083361  0.741267  1
  Fe  Fe6  1  0.916639  0.412314  0.258733  1
  Fe  Fe7  1  0.412314  0.412314  0.258733  1
  Fe  Fe8  1  0.412314  0.916639  0.258733  1
  Fe  Fe9  1  0.333161  0.333161  0.000517  1
  Fe  Fe10  1  0.666838  0.666838  0.999483  1
  Fe  Fe11  1  0.500000  0.500000  0.500000  1
