# generated using pymatgen
data_Li12TaNb3O16
_symmetry_space_group_name_H-M   'P 1'
_cell_length_a   7.36385005
_cell_length_b   7.36384970
_cell_length_c   7.36690000
_cell_angle_alpha   109.47960912
_cell_angle_beta   109.47960817
_cell_angle_gamma   109.46282885
_symmetry_Int_Tables_number   1
_chemical_formula_structural   Li12TaNb3O16
_chemical_formula_sum   'Li12 Ta1 Nb3 O16'
_cell_volume   307.48772348
_cell_formula_units_Z   1
loop_
 _symmetry_equiv_pos_site_id
 _symmetry_equiv_pos_as_xyz
  1  'x, y, z'
loop_
 _atom_site_type_symbol
 _atom_site_label
 _atom_site_symmetry_multiplicity
 _atom_site_fract_x
 _atom_site_fract_y
 _atom_site_fract_z
 _atom_site_occupancy
  Li  Li0  1  0.728249  0.241158  0.727116  1
  Li  Li1  1  0.270577  0.000000  0.515016  1
  Li  Li2  1  0.515853  0.000000  0.273662  1
  Li  Li3  1  0.758842  0.487090  0.485957  1
  Li  Li4  1  0.487090  0.758842  0.485957  1
  Li  Li5  1  0.241158  0.728249  0.727116  1
  Li  Li6  1  0.271751  0.512910  0.998867  1
  Li  Li7  1  0.000000  0.515853  0.273662  1
  Li  Li8  1  0.729423  0.729423  0.244439  1
  Li  Li9  1  0.000000  0.270577  0.515016  1
  Li  Li10  1  0.512910  0.271751  0.998867  1
  Li  Li11  1  0.484147  0.484147  0.757808  1
  Ta  Ta12  1  0.000000  0.000000  0.721841  1
  Nb  Nb13  1  0.000000  0.718353  0.000337  1
  Nb  Nb14  1  0.718353  0.000000  0.000337  1
  Nb  Nb15  1  0.281647  0.281647  0.281984  1
  O  O16  1  0.486843  0.246043  0.486354  1
  O  O17  1  0.239095  0.239095  0.753299  1
  O  O18  1  0.759198  0.513157  0.999510  1
  O  O19  1  0.513157  0.759198  0.999510  1
  O  O20  1  0.773896  0.773896  0.771285  1
  O  O21  1  0.226104  0.000000  0.997390  1
  O  O22  1  0.000000  0.226104  0.997390  1
  O  O23  1  0.000000  0.000000  0.226394  1
  O  O24  1  0.486398  0.486398  0.246099  1
  O  O25  1  0.513602  0.000000  0.759700  1
  O  O26  1  0.000000  0.513602  0.759700  1
  O  O27  1  0.240802  0.753957  0.240312  1
  O  O28  1  0.000000  0.760905  0.514204  1
  O  O29  1  0.760905  0.000000  0.514204  1
  O  O30  1  0.753957  0.240802  0.240312  1
  O  O31  1  0.246043  0.486843  0.486354  1
