# generated using pymatgen
data_CaTb(OsO3)6
_symmetry_space_group_name_H-M   'P 1'
_cell_length_a   7.40021900
_cell_length_b   5.26802062
_cell_length_c   8.18547100
_cell_angle_alpha   85.84145409
_cell_angle_beta   90.00000000
_cell_angle_gamma   90.00000000
_symmetry_Int_Tables_number   1
_chemical_formula_structural   CaTb(OsO3)6
_chemical_formula_sum   'Ca1 Tb1 Os6 O18'
_cell_volume   318.26640342
_cell_formula_units_Z   1
loop_
 _symmetry_equiv_pos_site_id
 _symmetry_equiv_pos_as_xyz
  1  'x, y, z'
loop_
 _atom_site_type_symbol
 _atom_site_label
 _atom_site_symmetry_multiplicity
 _atom_site_fract_x
 _atom_site_fract_y
 _atom_site_fract_z
 _atom_site_occupancy
  Ca  Ca0  1  0.250000  0.970997  0.430073  1
  Tb  Tb1  1  0.750000  0.034343  0.569489  1
  Os  Os2  1  0.999714  0.003974  0.000398  1
  Os  Os3  1  0.500286  0.003974  0.000398  1
  Os  Os4  1  0.496226  0.539222  0.691834  1
  Os  Os5  1  0.003774  0.539222  0.691834  1
  Os  Os6  1  0.997446  0.464566  0.306888  1
  Os  Os7  1  0.502554  0.464566  0.306888  1
  O  O8  1  0.250000  0.917838  0.982433  1
  O  O9  1  0.936314  0.853395  0.786716  1
  O  O10  1  0.563686  0.853395  0.786716  1
  O  O11  1  0.955605  0.731488  0.473651  1
  O  O12  1  0.544395  0.731488  0.473651  1
  O  O13  1  0.250000  0.626260  0.676051  1
  O  O14  1  0.960608  0.693082  0.124328  1
  O  O15  1  0.539392  0.693082  0.124328  1
  O  O16  1  0.250000  0.569426  0.310411  1
  O  O17  1  0.750000  0.417090  0.692262  1
  O  O18  1  0.039350  0.314361  0.878165  1
  O  O19  1  0.460650  0.314361  0.878165  1
  O  O20  1  0.750000  0.338527  0.329642  1
  O  O21  1  0.031659  0.264615  0.527256  1
  O  O22  1  0.468341  0.264615  0.527256  1
  O  O23  1  0.061599  0.157611  0.208047  1
  O  O24  1  0.438401  0.157611  0.208047  1
  O  O25  1  0.750000  0.080892  0.015069  1
