# generated using pymatgen
data_Tb4ZnGa4Ru3
_symmetry_space_group_name_H-M   'P 1'
_cell_length_a   4.53285300
_cell_length_b   7.16673602
_cell_length_c   7.25484565
_cell_angle_alpha   88.94887731
_cell_angle_beta   90.00000000
_cell_angle_gamma   90.00000000
_symmetry_Int_Tables_number   1
_chemical_formula_structural   Tb4ZnGa4Ru3
_chemical_formula_sum   'Tb4 Zn1 Ga4 Ru3'
_cell_volume   235.63952194
_cell_formula_units_Z   1
loop_
 _symmetry_equiv_pos_site_id
 _symmetry_equiv_pos_as_xyz
  1  'x, y, z'
loop_
 _atom_site_type_symbol
 _atom_site_label
 _atom_site_symmetry_multiplicity
 _atom_site_fract_x
 _atom_site_fract_y
 _atom_site_fract_z
 _atom_site_occupancy
  Tb  Tb0  1  0.250000  0.027659  0.801154  1
  Tb  Tb1  1  0.250000  0.516410  0.691803  1
  Tb  Tb2  1  0.750000  0.994096  0.202921  1
  Tb  Tb3  1  0.750000  0.475155  0.307478  1
  Zn  Zn4  1  0.750000  0.671831  0.929706  1
  Ga  Ga5  1  0.250000  0.200158  0.401370  1
  Ga  Ga6  1  0.250000  0.693899  0.117179  1
  Ga  Ga7  1  0.750000  0.794463  0.589193  1
  Ga  Ga8  1  0.750000  0.300175  0.894696  1
  Ru  Ru9  1  0.250000  0.838856  0.436975  1
  Ru  Ru10  1  0.250000  0.333747  0.061884  1
  Ru  Ru11  1  0.750000  0.153551  0.565640  1
