# generated using pymatgen
data_Dy9Er4Lu7Pt16
_symmetry_space_group_name_H-M   'P 1'
_cell_length_a   7.41993788
_cell_length_b   7.52065751
_cell_length_c   14.68608600
_cell_angle_alpha   90.02386862
_cell_angle_beta   90.14837586
_cell_angle_gamma   90.04015587
_symmetry_Int_Tables_number   1
_chemical_formula_structural   Dy9Er4Lu7Pt16
_chemical_formula_sum   'Dy9 Er4 Lu7 Pt16'
_cell_volume   819.52186785
_cell_formula_units_Z   1
loop_
 _symmetry_equiv_pos_site_id
 _symmetry_equiv_pos_as_xyz
  1  'x, y, z'
loop_
 _atom_site_type_symbol
 _atom_site_label
 _atom_site_symmetry_multiplicity
 _atom_site_fract_x
 _atom_site_fract_y
 _atom_site_fract_z
 _atom_site_occupancy
  Dy  Dy0  1  0.139992  0.330859  0.620402  1
  Dy  Dy1  1  0.484357  0.676394  0.595181  1
  Dy  Dy2  1  0.984706  0.825796  0.905681  1
  Dy  Dy3  1  0.515819  0.326226  0.095314  1
  Dy  Dy4  1  0.017708  0.171292  0.401866  1
  Dy  Dy5  1  0.515631  0.325136  0.404325  1
  Dy  Dy6  1  0.014668  0.174716  0.095604  1
  Dy  Dy7  1  0.484830  0.673449  0.905187  1
  Dy  Dy8  1  0.983377  0.826242  0.596094  1
  Er  Er9  1  0.639944  0.168022  0.622334  1
  Er  Er10  1  0.140996  0.331293  0.878614  1
  Er  Er11  1  0.359101  0.831787  0.121593  1
  Er  Er12  1  0.859379  0.669051  0.378058  1
  Lu  Lu13  1  0.361378  0.831756  0.376877  1
  Lu  Lu14  1  0.858427  0.668833  0.121978  1
  Lu  Lu15  1  0.641431  0.168472  0.878751  1
  Lu  Lu16  1  0.801676  0.510452  0.751057  1
  Lu  Lu17  1  0.302853  0.989540  0.751292  1
  Lu  Lu18  1  0.197434  0.490469  0.249786  1
  Lu  Lu19  1  0.697548  0.010028  0.249252  1
  Pt  Pt20  1  0.692501  0.970969  0.457125  1
  Pt  Pt21  1  0.190003  0.530605  0.042822  1
  Pt  Pt22  1  0.310116  0.030467  0.957349  1
  Pt  Pt23  1  0.803984  0.472769  0.542829  1
  Pt  Pt24  1  0.308834  0.024941  0.541379  1
  Pt  Pt25  1  0.807355  0.469447  0.958431  1
  Pt  Pt26  1  0.692995  0.969840  0.042365  1
  Pt  Pt27  1  0.194178  0.532041  0.454770  1
  Pt  Pt28  1  0.437439  0.381560  0.751639  1
  Pt  Pt29  1  0.935046  0.116620  0.751700  1
  Pt  Pt30  1  0.563991  0.619089  0.249437  1
  Pt  Pt31  1  0.063790  0.880729  0.249384  1
  Pt  Pt32  1  0.663347  0.857937  0.751529  1
  Pt  Pt33  1  0.164530  0.642508  0.751349  1
  Pt  Pt34  1  0.335715  0.141643  0.249651  1
  Pt  Pt35  1  0.834925  0.359025  0.248998  1
