# generated using pymatgen
data_Bi(IBr4)3
_symmetry_space_group_name_H-M   'P 1'
_cell_length_a   4.45857088
_cell_length_b   12.51277397
_cell_length_c   15.86357398
_cell_angle_alpha   64.17478111
_cell_angle_beta   109.28179255
_cell_angle_gamma   100.59261870
_symmetry_Int_Tables_number   1
_chemical_formula_structural   Bi(IBr4)3
_chemical_formula_sum   'Bi1 I3 Br12'
_cell_volume   751.10675567
_cell_formula_units_Z   1
loop_
 _symmetry_equiv_pos_site_id
 _symmetry_equiv_pos_as_xyz
  1  'x, y, z'
loop_
 _atom_site_type_symbol
 _atom_site_label
 _atom_site_symmetry_multiplicity
 _atom_site_fract_x
 _atom_site_fract_y
 _atom_site_fract_z
 _atom_site_occupancy
  Bi  Bi0  1  0.219625  0.440697  0.982026  1
  I  I1  1  0.968664  0.442652  0.480749  1
  I  I2  1  0.355936  0.992576  0.528437  1
  I  I3  1  0.781586  0.042404  0.040145  1
  Br  Br4  1  0.006144  0.338138  0.374777  1
  Br  Br5  1  0.809484  0.246872  0.616286  1
  Br  Br6  1  0.944324  0.837081  0.197609  1
  Br  Br7  1  0.172155  0.659822  0.849536  1
  Br  Br8  1  0.925473  0.476756  0.097007  1
  Br  Br9  1  0.366005  0.957342  0.925622  1
  Br  Br10  1  0.298685  0.077034  0.341065  1
  Br  Br11  1  0.908847  0.547499  0.605400  1
  Br  Br12  1  0.626933  0.357157  0.889124  1
  Br  Br13  1  0.274700  0.158527  0.149487  1
  Br  Br14  1  0.132456  0.767068  0.562327  1
  Br  Br15  1  0.208981  0.658374  0.360405  1
