# generated using pymatgen
data_Ce(PuS2)3
_symmetry_space_group_name_H-M   'P 1'
_cell_length_a   3.97254200
_cell_length_b   7.35310232
_cell_length_c   15.06027560
_cell_angle_alpha   90.03311004
_cell_angle_beta   90.00000000
_cell_angle_gamma   90.00000000
_symmetry_Int_Tables_number   1
_chemical_formula_structural   Ce(PuS2)3
_chemical_formula_sum   'Ce2 Pu6 S12'
_cell_volume   439.91822446
_cell_formula_units_Z   2
loop_
 _symmetry_equiv_pos_site_id
 _symmetry_equiv_pos_as_xyz
  1  'x, y, z'
loop_
 _atom_site_type_symbol
 _atom_site_label
 _atom_site_symmetry_multiplicity
 _atom_site_fract_x
 _atom_site_fract_y
 _atom_site_fract_z
 _atom_site_occupancy
  Ce  Ce0  1  0.250000  0.633986  0.707795  1
  Ce  Ce1  1  0.750000  0.366014  0.292205  1
  Pu  Pu2  1  0.250000  0.262276  0.039548  1
  Pu  Pu3  1  0.750000  0.737724  0.960452  1
  Pu  Pu4  1  0.250000  0.766085  0.458232  1
  Pu  Pu5  1  0.750000  0.233915  0.541768  1
  Pu  Pu6  1  0.250000  0.133236  0.790663  1
  Pu  Pu7  1  0.750000  0.866764  0.209337  1
  S  S8  1  0.250000  0.148139  0.217836  1
  S  S9  1  0.750000  0.851861  0.782164  1
  S  S10  1  0.250000  0.651409  0.279784  1
  S  S11  1  0.750000  0.348591  0.720216  1
  S  S12  1  0.250000  0.372260  0.433027  1
  S  S13  1  0.750000  0.627740  0.566973  1
  S  S14  1  0.250000  0.871911  0.068224  1
  S  S15  1  0.750000  0.128089  0.931776  1
  S  S16  1  0.750000  0.488622  0.107173  1
  S  S17  1  0.250000  0.511378  0.892827  1
  S  S18  1  0.750000  0.990136  0.392578  1
  S  S19  1  0.250000  0.009864  0.607422  1
