# generated using pymatgen
data_Y5Tm5(Bi3C)2
_symmetry_space_group_name_H-M   'P 1'
_cell_length_a   9.10469119
_cell_length_b   9.10323638
_cell_length_c   6.46375600
_cell_angle_alpha   90.00000375
_cell_angle_beta   90.00005397
_cell_angle_gamma   119.74317406
_symmetry_Int_Tables_number   1
_chemical_formula_structural   Y5Tm5(Bi3C)2
_chemical_formula_sum   'Y5 Tm5 Bi6 C2'
_cell_volume   465.15184725
_cell_formula_units_Z   1
loop_
 _symmetry_equiv_pos_site_id
 _symmetry_equiv_pos_as_xyz
  1  'x, y, z'
loop_
 _atom_site_type_symbol
 _atom_site_label
 _atom_site_symmetry_multiplicity
 _atom_site_fract_x
 _atom_site_fract_y
 _atom_site_fract_z
 _atom_site_occupancy
  Y  Y0  1  0.666755  0.333386  0.500113  1
  Y  Y1  1  0.333236  0.667025  0.500185  1
  Y  Y2  1  0.333238  0.667029  0.999815  1
  Y  Y3  1  0.666755  0.333386  0.999889  1
  Y  Y4  1  0.999827  0.788282  0.749999  1
  Tm  Tm5  1  0.796388  0.797495  0.249997  1
  Tm  Tm6  1  0.203583  0.001226  0.250000  1
  Tm  Tm7  1  0.000100  0.204566  0.250003  1
  Tm  Tm8  1  0.203022  0.202627  0.749999  1
  Tm  Tm9  1  0.796979  0.999402  0.749995  1
  Bi  Bi10  1  0.398864  0.398955  0.250002  1
  Bi  Bi11  1  0.600793  0.000577  0.250000  1
  Bi  Bi12  1  0.000471  0.601981  0.250002  1
  Bi  Bi13  1  0.600231  0.601403  0.750003  1
  Bi  Bi14  1  0.400169  0.000652  0.750001  1
  Bi  Bi15  1  0.999554  0.397953  0.750002  1
  C  C16  1  0.000018  0.002028  0.498511  1
  C  C17  1  0.000017  0.002029  0.001481  1
