# generated using pymatgen
data_Dy2(HoAu2)5
_symmetry_space_group_name_H-M   'P 1'
_cell_length_a   8.70016567
_cell_length_b   8.70016729
_cell_length_c   10.40802600
_cell_angle_alpha   90.00000000
_cell_angle_beta   90.00000000
_cell_angle_gamma   106.90282648
_symmetry_Int_Tables_number   1
_chemical_formula_structural   Dy2(HoAu2)5
_chemical_formula_sum   'Dy4 Ho10 Au20'
_cell_volume   753.77949199
_cell_formula_units_Z   2
loop_
 _symmetry_equiv_pos_site_id
 _symmetry_equiv_pos_as_xyz
  1  'x, y, z'
loop_
 _atom_site_type_symbol
 _atom_site_label
 _atom_site_symmetry_multiplicity
 _atom_site_fract_x
 _atom_site_fract_y
 _atom_site_fract_z
 _atom_site_occupancy
  Dy  Dy0  1  0.312456  0.312456  0.188436  1
  Dy  Dy1  1  0.687544  0.687544  0.811564  1
  Dy  Dy2  1  0.187544  0.187544  0.688436  1
  Dy  Dy3  1  0.812456  0.812456  0.311564  1
  Ho  Ho4  1  0.694004  0.305996  0.000000  1
  Ho  Ho5  1  0.305996  0.694004  0.000000  1
  Ho  Ho6  1  0.805996  0.194004  0.500000  1
  Ho  Ho7  1  0.194004  0.805996  0.500000  1
  Ho  Ho8  1  0.000000  0.000000  0.000000  1
  Ho  Ho9  1  0.500000  0.500000  0.500000  1
  Ho  Ho10  1  0.002380  0.502380  0.250000  1
  Ho  Ho11  1  0.997620  0.497620  0.750000  1
  Ho  Ho12  1  0.497620  0.997620  0.750000  1
  Ho  Ho13  1  0.502380  0.002380  0.250000  1
  Au  Au14  1  0.859867  0.149606  0.209371  1
  Au  Au15  1  0.140133  0.850394  0.790629  1
  Au  Au16  1  0.640133  0.350394  0.709371  1
  Au  Au17  1  0.649606  0.359867  0.290629  1
  Au  Au18  1  0.359867  0.649606  0.290629  1
  Au  Au19  1  0.350394  0.640133  0.709371  1
  Au  Au20  1  0.850394  0.140133  0.790629  1
  Au  Au21  1  0.149606  0.859867  0.209371  1
  Au  Au22  1  0.937382  0.644964  0.002424  1
  Au  Au23  1  0.062618  0.355036  0.997576  1
  Au  Au24  1  0.562618  0.855036  0.502424  1
  Au  Au25  1  0.144964  0.437382  0.497576  1
  Au  Au26  1  0.437382  0.144964  0.497576  1
  Au  Au27  1  0.855036  0.562618  0.502424  1
  Au  Au28  1  0.355036  0.062618  0.997576  1
  Au  Au29  1  0.644964  0.937382  0.002424  1
  Au  Au30  1  0.105142  0.105142  0.397074  1
  Au  Au31  1  0.894858  0.894858  0.602926  1
  Au  Au32  1  0.394858  0.394858  0.897074  1
  Au  Au33  1  0.605142  0.605142  0.102926  1
