# generated using pymatgen
data_YTmFe4(CoB2)4
_symmetry_space_group_name_H-M   'P 1'
_cell_length_a   6.92622531
_cell_length_b   6.91338585
_cell_length_c   3.81517700
_cell_angle_alpha   90.00000000
_cell_angle_beta   90.00000000
_cell_angle_gamma   90.04010798
_symmetry_Int_Tables_number   1
_chemical_formula_structural   YTmFe4(CoB2)4
_chemical_formula_sum   'Y1 Tm1 Fe4 Co4 B8'
_cell_volume   182.68462426
_cell_formula_units_Z   1
loop_
 _symmetry_equiv_pos_site_id
 _symmetry_equiv_pos_as_xyz
  1  'x, y, z'
loop_
 _atom_site_type_symbol
 _atom_site_label
 _atom_site_symmetry_multiplicity
 _atom_site_fract_x
 _atom_site_fract_y
 _atom_site_fract_z
 _atom_site_occupancy
  Y  Y0  1  0.000000  0.000000  0.004103  1
  Tm  Tm1  1  0.500000  0.500000  0.503405  1
  Fe  Fe2  1  0.384125  0.133686  0.891547  1
  Fe  Fe3  1  0.615875  0.866314  0.891547  1
  Fe  Fe4  1  0.368582  0.883218  0.391353  1
  Fe  Fe5  1  0.631418  0.116782  0.391353  1
  Co  Co6  1  0.118152  0.363150  0.610010  1
  Co  Co7  1  0.881848  0.636850  0.610010  1
  Co  Co8  1  0.139567  0.617127  0.109899  1
  Co  Co9  1  0.860433  0.382873  0.109899  1
  B  B10  1  0.796811  0.663061  0.105046  1
  B  B11  1  0.203189  0.336939  0.105046  1
  B  B12  1  0.835112  0.299478  0.603899  1
  B  B13  1  0.164888  0.700522  0.603899  1
  B  B14  1  0.695789  0.832783  0.392784  1
  B  B15  1  0.304211  0.167217  0.392784  1
  B  B16  1  0.665094  0.198776  0.891710  1
  B  B17  1  0.334906  0.801224  0.891710  1
