# generated using pymatgen
data_Ca7Er(OsC2)4
_symmetry_space_group_name_H-M   'P 1'
_cell_length_a   5.17045100
_cell_length_b   6.52626777
_cell_length_c   10.31023238
_cell_angle_alpha   90.24391675
_cell_angle_beta   90.00000000
_cell_angle_gamma   90.00000000
_symmetry_Int_Tables_number   1
_chemical_formula_structural   Ca7Er(OsC2)4
_chemical_formula_sum   'Ca7 Er1 Os4 C8'
_cell_volume   347.90272775
_cell_formula_units_Z   1
loop_
 _symmetry_equiv_pos_site_id
 _symmetry_equiv_pos_as_xyz
  1  'x, y, z'
loop_
 _atom_site_type_symbol
 _atom_site_label
 _atom_site_symmetry_multiplicity
 _atom_site_fract_x
 _atom_site_fract_y
 _atom_site_fract_z
 _atom_site_occupancy
  Ca  Ca0  1  0.750000  0.306433  0.450814  1
  Ca  Ca1  1  0.750000  0.807142  0.050819  1
  Ca  Ca2  1  0.250000  0.189763  0.948657  1
  Ca  Ca3  1  0.250000  0.535494  0.219049  1
  Ca  Ca4  1  0.750000  0.464395  0.781477  1
  Ca  Ca5  1  0.750000  0.965556  0.723756  1
  Ca  Ca6  1  0.250000  0.036466  0.278540  1
  Er  Er7  1  0.250000  0.680289  0.553162  1
  Os  Os8  1  0.250000  0.730378  0.848952  1
  Os  Os9  1  0.750000  0.267230  0.150644  1
  Os  Os10  1  0.750000  0.767659  0.353531  1
  Os  Os11  1  0.250000  0.230469  0.646711  1
  C  C12  1  0.250000  0.469175  0.754455  1
  C  C13  1  0.750000  0.531796  0.241555  1
  C  C14  1  0.750000  0.029744  0.260554  1
  C  C15  1  0.250000  0.961896  0.733019  1
  C  C16  1  0.250000  0.792051  0.023735  1
  C  C17  1  0.750000  0.210126  0.974778  1
  C  C18  1  0.750000  0.707377  0.530752  1
  C  C19  1  0.250000  0.316558  0.475041  1
