# generated using pymatgen
data_Pr5Co16(TcP4)3
_symmetry_space_group_name_H-M   'P 1'
_cell_length_a   12.20377100
_cell_length_b   12.20377100
_cell_length_c   3.77198200
_cell_angle_alpha   90.00000000
_cell_angle_beta   90.00000000
_cell_angle_gamma   119.99999728
_symmetry_Int_Tables_number   1
_chemical_formula_structural   Pr5Co16(TcP4)3
_chemical_formula_sum   'Pr5 Co16 Tc3 P12'
_cell_volume   486.50617237
_cell_formula_units_Z   1
loop_
 _symmetry_equiv_pos_site_id
 _symmetry_equiv_pos_as_xyz
  1  'x, y, z'
loop_
 _atom_site_type_symbol
 _atom_site_label
 _atom_site_symmetry_multiplicity
 _atom_site_fract_x
 _atom_site_fract_y
 _atom_site_fract_z
 _atom_site_occupancy
  Pr  Pr0  1  0.666667  0.333333  0.000000  1
  Pr  Pr1  1  0.333333  0.666667  0.000000  1
  Pr  Pr2  1  0.186876  0.186876  0.500000  1
  Pr  Pr3  1  0.813124  0.000000  0.500000  1
  Pr  Pr4  1  0.000000  0.813124  0.500000  1
  Co  Co5  1  0.820734  0.198960  0.000000  1
  Co  Co6  1  0.801040  0.621774  0.000000  1
  Co  Co7  1  0.378226  0.179266  0.000000  1
  Co  Co8  1  0.198960  0.820734  0.000000  1
  Co  Co9  1  0.621774  0.801040  0.000000  1
  Co  Co10  1  0.179266  0.378226  0.000000  1
  Co  Co11  1  0.640239  0.123372  0.500000  1
  Co  Co12  1  0.876628  0.516866  0.500000  1
  Co  Co13  1  0.483134  0.359761  0.500000  1
  Co  Co14  1  0.123372  0.640239  0.500000  1
  Co  Co15  1  0.516866  0.876628  0.500000  1
  Co  Co16  1  0.359761  0.483134  0.500000  1
  Co  Co17  1  0.716858  0.716858  0.500000  1
  Co  Co18  1  0.283142  0.000000  0.500000  1
  Co  Co19  1  0.000000  0.283142  0.500000  1
  Co  Co20  1  0.000000  0.000000  0.000000  1
  Tc  Tc21  1  0.556709  0.556709  0.000000  1
  Tc  Tc22  1  0.443291  0.000000  0.000000  1
  Tc  Tc23  1  0.000000  0.443291  0.000000  1
  P  P24  1  0.368627  0.368627  0.000000  1
  P  P25  1  0.631373  0.000000  0.000000  1
  P  P26  1  0.000000  0.631373  0.000000  1
  P  P27  1  0.836761  0.312239  0.500000  1
  P  P28  1  0.687761  0.524522  0.500000  1
  P  P29  1  0.475478  0.163239  0.500000  1
  P  P30  1  0.312239  0.836761  0.500000  1
  P  P31  1  0.524522  0.687761  0.500000  1
  P  P32  1  0.163239  0.475478  0.500000  1
  P  P33  1  0.816952  0.816952  0.000000  1
  P  P34  1  0.183048  0.000000  0.000000  1
  P  P35  1  0.000000  0.183048  0.000000  1
