# generated using pymatgen
data_SrFe3(AsO4)3
_symmetry_space_group_name_H-M   'P 1'
_cell_length_a   9.50071966
_cell_length_b   9.50059372
_cell_length_c   9.50050512
_cell_angle_alpha   137.81383707
_cell_angle_beta   110.59012508
_cell_angle_gamma   84.68435007
_symmetry_Int_Tables_number   1
_chemical_formula_structural   SrFe3(AsO4)3
_chemical_formula_sum   'Sr2 Fe6 As6 O24'
_cell_volume   519.49374518
_cell_formula_units_Z   2
loop_
 _symmetry_equiv_pos_site_id
 _symmetry_equiv_pos_as_xyz
  1  'x, y, z'
loop_
 _atom_site_type_symbol
 _atom_site_label
 _atom_site_symmetry_multiplicity
 _atom_site_fract_x
 _atom_site_fract_y
 _atom_site_fract_z
 _atom_site_occupancy
  Sr  Sr0  1  0.750001  0.832972  0.082975  1
  Sr  Sr1  1  0.249999  0.167028  0.917025  1
  Fe  Fe2  1  0.615837  0.615881  0.500071  1
  Fe  Fe3  1  0.884183  0.384238  0.000022  1
  Fe  Fe4  1  0.115817  0.615762  0.999978  1
  Fe  Fe5  1  0.384163  0.384119  0.499929  1
  Fe  Fe6  1  0.500000  0.000000  0.500000  1
  Fe  Fe7  1  0.000000  0.500000  0.500000  1
  As  As8  1  0.750005  0.327858  0.577863  1
  As  As9  1  0.249995  0.672142  0.422137  1
  As  As10  1  0.822871  0.822879  0.500005  1
  As  As11  1  0.677124  0.177127  0.999999  1
  As  As12  1  0.322876  0.822873  0.000001  1
  As  As13  1  0.177129  0.177121  0.499995  1
  O  O14  1  0.651076  0.080561  0.429500  1
  O  O15  1  0.348924  0.919439  0.570500  1
  O  O16  1  0.151075  0.721581  0.570518  1
  O  O17  1  0.848925  0.278419  0.429482  1
  O  O18  1  0.627406  0.489116  0.616543  1
  O  O19  1  0.127388  0.510841  0.138271  1
  O  O20  1  0.372594  0.510884  0.383457  1
  O  O21  1  0.872612  0.489159  0.861729  1
  O  O22  1  0.939584  0.082808  0.743319  1
  O  O23  1  0.660521  0.917189  0.856779  1
  O  O24  1  0.439585  0.696269  0.856770  1
  O  O25  1  0.160530  0.303735  0.743328  1
  O  O26  1  0.060416  0.917192  0.256681  1
  O  O27  1  0.339479  0.082811  0.143221  1
  O  O28  1  0.560415  0.303731  0.143230  1
  O  O29  1  0.839470  0.696265  0.256672  1
  O  O30  1  0.623018  0.789575  0.435322  1
  O  O31  1  0.645729  0.210417  0.833428  1
  O  O32  1  0.123025  0.687711  0.833453  1
  O  O33  1  0.145735  0.312300  0.435315  1
  O  O34  1  0.376982  0.210425  0.564678  1
  O  O35  1  0.354271  0.789583  0.166572  1
  O  O36  1  0.876975  0.312289  0.166547  1
  O  O37  1  0.854265  0.687700  0.564685  1
