# generated using pymatgen
data_NdIn2Pd3
_symmetry_space_group_name_H-M   'P 1'
_cell_length_a   4.68388600
_cell_length_b   10.02873300
_cell_length_c   10.34031600
_cell_angle_alpha   90.00000000
_cell_angle_beta   90.00000000
_cell_angle_gamma   90.00000000
_symmetry_Int_Tables_number   1
_chemical_formula_structural   NdIn2Pd3
_chemical_formula_sum   'Nd4 In8 Pd12'
_cell_volume   485.72023488
_cell_formula_units_Z   4
loop_
 _symmetry_equiv_pos_site_id
 _symmetry_equiv_pos_as_xyz
  1  'x, y, z'
loop_
 _atom_site_type_symbol
 _atom_site_label
 _atom_site_symmetry_multiplicity
 _atom_site_fract_x
 _atom_site_fract_y
 _atom_site_fract_z
 _atom_site_occupancy
  Nd  Nd0  1  0.250000  0.442626  0.729744  1
  Nd  Nd1  1  0.250000  0.057374  0.229744  1
  Nd  Nd2  1  0.750000  0.557374  0.270256  1
  Nd  Nd3  1  0.750000  0.942626  0.770256  1
  In  In4  1  0.250000  0.884341  0.516369  1
  In  In5  1  0.250000  0.615659  0.016369  1
  In  In6  1  0.750000  0.115659  0.483631  1
  In  In7  1  0.750000  0.384341  0.983631  1
  In  In8  1  0.250000  0.158646  0.894928  1
  In  In9  1  0.250000  0.341354  0.394928  1
  In  In10  1  0.750000  0.841354  0.105072  1
  In  In11  1  0.750000  0.658646  0.605072  1
  Pd  Pd12  1  0.250000  0.144994  0.618953  1
  Pd  Pd13  1  0.250000  0.355006  0.118953  1
  Pd  Pd14  1  0.750000  0.855006  0.381047  1
  Pd  Pd15  1  0.750000  0.644994  0.881047  1
  Pd  Pd16  1  0.250000  0.738443  0.742317  1
  Pd  Pd17  1  0.250000  0.761557  0.242317  1
  Pd  Pd18  1  0.750000  0.261557  0.257683  1
  Pd  Pd19  1  0.750000  0.238443  0.757683  1
  Pd  Pd20  1  0.250000  0.894804  0.973965  1
  Pd  Pd21  1  0.250000  0.605196  0.473965  1
  Pd  Pd22  1  0.750000  0.105196  0.026035  1
  Pd  Pd23  1  0.750000  0.394804  0.526035  1
