# generated using pymatgen
data_BaV4Sn2O11
_symmetry_space_group_name_H-M   'P 1'
_cell_length_a   6.09845856
_cell_length_b   6.09845901
_cell_length_c   13.69678400
_cell_angle_alpha   90.00000000
_cell_angle_beta   90.00000000
_cell_angle_gamma   120.11277831
_symmetry_Int_Tables_number   1
_chemical_formula_structural   BaV4Sn2O11
_chemical_formula_sum   'Ba2 V8 Sn4 O22'
_cell_volume   440.65099705
_cell_formula_units_Z   2
loop_
 _symmetry_equiv_pos_site_id
 _symmetry_equiv_pos_as_xyz
  1  'x, y, z'
loop_
 _atom_site_type_symbol
 _atom_site_label
 _atom_site_symmetry_multiplicity
 _atom_site_fract_x
 _atom_site_fract_y
 _atom_site_fract_z
 _atom_site_occupancy
  Ba  Ba0  1  0.664588  0.335412  0.750000  1
  Ba  Ba1  1  0.335412  0.664588  0.250000  1
  V  V2  1  0.668722  0.331278  0.250000  1
  V  V3  1  0.331278  0.668722  0.750000  1
  V  V4  1  0.500000  0.500000  0.000000  1
  V  V5  1  0.500000  0.500000  0.500000  1
  V  V6  1  0.500000  0.000000  0.000000  1
  V  V7  1  0.000000  0.500000  0.000000  1
  V  V8  1  0.500000  0.000000  0.500000  1
  V  V9  1  0.000000  0.500000  0.500000  1
  Sn  Sn10  1  0.998697  0.001303  0.861200  1
  Sn  Sn11  1  0.001303  0.998697  0.138800  1
  Sn  Sn12  1  0.998697  0.001303  0.638800  1
  Sn  Sn13  1  0.001303  0.998697  0.361200  1
  O  O14  1  0.821683  0.178317  0.919676  1
  O  O15  1  0.178317  0.821683  0.080324  1
  O  O16  1  0.821683  0.178317  0.580324  1
  O  O17  1  0.178317  0.821683  0.419676  1
  O  O18  1  0.147345  0.852655  0.750000  1
  O  O19  1  0.852655  0.147345  0.250000  1
  O  O20  1  0.699852  0.852244  0.750000  1
  O  O21  1  0.852244  0.699852  0.250000  1
  O  O22  1  0.300148  0.147756  0.250000  1
  O  O23  1  0.147756  0.300148  0.750000  1
  O  O24  1  0.822921  0.646772  0.920019  1
  O  O25  1  0.646772  0.822921  0.079981  1
  O  O26  1  0.822921  0.646772  0.579981  1
  O  O27  1  0.646772  0.822921  0.420019  1
  O  O28  1  0.177079  0.353228  0.079981  1
  O  O29  1  0.353228  0.177079  0.920019  1
  O  O30  1  0.177079  0.353228  0.420019  1
  O  O31  1  0.353228  0.177079  0.579981  1
  O  O32  1  0.667054  0.332946  0.415113  1
  O  O33  1  0.332946  0.667054  0.584887  1
  O  O34  1  0.667054  0.332946  0.084887  1
  O  O35  1  0.332946  0.667054  0.915113  1
