# generated using pymatgen
data_Zr4ZnCd2Co3
_symmetry_space_group_name_H-M   'P 1'
_cell_length_a   7.31691555
_cell_length_b   7.31691605
_cell_length_c   3.28659700
_cell_angle_alpha   90.00000000
_cell_angle_beta   90.00000000
_cell_angle_gamma   91.57318509
_symmetry_Int_Tables_number   1
_chemical_formula_structural   Zr4ZnCd2Co3
_chemical_formula_sum   'Zr4 Zn1 Cd2 Co3'
_cell_volume   175.88906531
_cell_formula_units_Z   1
loop_
 _symmetry_equiv_pos_site_id
 _symmetry_equiv_pos_as_xyz
  1  'x, y, z'
loop_
 _atom_site_type_symbol
 _atom_site_label
 _atom_site_symmetry_multiplicity
 _atom_site_fract_x
 _atom_site_fract_y
 _atom_site_fract_z
 _atom_site_occupancy
  Zr  Zr0  1  0.693747  0.159922  0.500000  1
  Zr  Zr1  1  0.147140  0.352860  0.500000  1
  Zr  Zr2  1  0.829387  0.670613  0.500000  1
  Zr  Zr3  1  0.340078  0.806253  0.500000  1
  Zn  Zn4  1  0.372699  0.127301  0.000000  1
  Cd  Cd5  1  0.008623  0.996355  0.000000  1
  Cd  Cd6  1  0.503645  0.491377  0.000000  1
  Co  Co7  1  0.121197  0.631393  0.000000  1
  Co  Co8  1  0.614876  0.885124  0.000000  1
  Co  Co9  1  0.868607  0.378803  0.000000  1
