# generated using pymatgen
data_Y6Er2Ti12Si15Sn
_symmetry_space_group_name_H-M   'P 1'
_cell_length_a   7.10941115
_cell_length_b   7.06930986
_cell_length_c   13.02240401
_cell_angle_alpha   89.98156803
_cell_angle_beta   89.74142998
_cell_angle_gamma   89.94665071
_symmetry_Int_Tables_number   1
_chemical_formula_structural   Y6Er2Ti12Si15Sn
_chemical_formula_sum   'Y6 Er2 Ti12 Si15 Sn1'
_cell_volume   654.48120694
_cell_formula_units_Z   1
loop_
 _symmetry_equiv_pos_site_id
 _symmetry_equiv_pos_as_xyz
  1  'x, y, z'
loop_
 _atom_site_type_symbol
 _atom_site_label
 _atom_site_symmetry_multiplicity
 _atom_site_fract_x
 _atom_site_fract_y
 _atom_site_fract_z
 _atom_site_occupancy
  Y  Y0  1  0.342422  0.999293  0.461478  1
  Y  Y1  1  0.505501  0.835072  0.718094  1
  Y  Y2  1  0.502462  0.160128  0.216769  1
  Y  Y3  1  0.840923  0.496757  0.282193  1
  Y  Y4  1  0.159424  0.510022  0.786051  1
  Y  Y5  1  0.662182  0.996195  0.968875  1
  Er  Er6  1  0.991611  0.348662  0.527627  1
  Er  Er7  1  0.000163  0.659124  0.034216  1
  Ti  Ti8  1  0.326362  0.326737  0.001236  1
  Ti  Ti9  1  0.173808  0.825711  0.249566  1
  Ti  Ti10  1  0.816658  0.175442  0.751939  1
  Ti  Ti11  1  0.672457  0.672936  0.499442  1
  Ti  Ti12  1  0.152674  0.008317  0.883585  1
  Ti  Ti13  1  0.492202  0.649928  0.126888  1
  Ti  Ti14  1  0.515239  0.354111  0.626481  1
  Ti  Ti15  1  0.654603  0.493067  0.875837  1
  Ti  Ti16  1  0.346805  0.509548  0.372758  1
  Ti  Ti17  1  0.846927  0.992028  0.375758  1
  Ti  Ti18  1  0.010497  0.150911  0.123270  1
  Ti  Ti19  1  0.978595  0.835771  0.618504  1
  Si  Si20  1  0.371002  0.702688  0.936520  1
  Si  Si21  1  0.628072  0.297674  0.433289  1
  Si  Si22  1  0.705134  0.370375  0.066439  1
  Si  Si23  1  0.295542  0.629766  0.565270  1
  Si  Si24  1  0.798252  0.869231  0.184006  1
  Si  Si25  1  0.129316  0.202865  0.314790  1
  Si  Si26  1  0.871381  0.799992  0.816044  1
  Si  Si27  1  0.292220  0.951158  0.066825  1
  Si  Si28  1  0.549529  0.788827  0.313441  1
  Si  Si29  1  0.459344  0.210971  0.820024  1
  Si  Si30  1  0.793763  0.544409  0.686718  1
  Si  Si31  1  0.209313  0.452928  0.184875  1
  Si  Si32  1  0.706978  0.049328  0.564224  1
  Si  Si33  1  0.952968  0.291992  0.935720  1
  Si  Si34  1  0.047156  0.710505  0.432899  1
  Sn  Sn35  1  0.198515  0.127531  0.678351  1
