# generated using pymatgen
data_Be8Ni4Mo3W9C2
_symmetry_space_group_name_H-M   'P 1'
_cell_length_a   7.55843053
_cell_length_b   7.55842985
_cell_length_c   7.55744103
_cell_angle_alpha   59.99566871
_cell_angle_beta   59.99567338
_cell_angle_gamma   59.99999859
_symmetry_Int_Tables_number   1
_chemical_formula_structural   Be8Ni4Mo3W9C2
_chemical_formula_sum   'Be8 Ni4 Mo3 W9 C2'
_cell_volume   305.27733188
_cell_formula_units_Z   1
loop_
 _symmetry_equiv_pos_site_id
 _symmetry_equiv_pos_as_xyz
  1  'x, y, z'
loop_
 _atom_site_type_symbol
 _atom_site_label
 _atom_site_symmetry_multiplicity
 _atom_site_fract_x
 _atom_site_fract_y
 _atom_site_fract_z
 _atom_site_occupancy
  Be  Be0  1  0.421924  0.421924  0.734226  1
  Be  Be1  1  0.421651  0.734817  0.421880  1
  Be  Be2  1  0.734817  0.421651  0.421880  1
  Be  Be3  1  0.421651  0.421651  0.421880  1
  Be  Be4  1  0.827854  0.827854  0.516440  1
  Be  Be5  1  0.828286  0.515492  0.827938  1
  Be  Be6  1  0.515492  0.828286  0.827938  1
  Be  Be7  1  0.828286  0.828286  0.827938  1
  Ni  Ni8  1  0.624763  0.624763  0.125711  1
  Ni  Ni9  1  0.624529  0.125771  0.625170  1
  Ni  Ni10  1  0.125771  0.624529  0.625170  1
  Ni  Ni11  1  0.624529  0.624529  0.625170  1
  Mo  Mo12  1  0.049836  0.049836  0.449958  1
  Mo  Mo13  1  0.450369  0.049836  0.449958  1
  Mo  Mo14  1  0.049836  0.450369  0.449958  1
  W  W15  1  0.450659  0.450659  0.049280  1
  W  W16  1  0.049402  0.450659  0.049280  1
  W  W17  1  0.450659  0.049402  0.049280  1
  W  W18  1  0.200717  0.200717  0.799598  1
  W  W19  1  0.798967  0.200717  0.799598  1
  W  W20  1  0.200717  0.798967  0.799598  1
  W  W21  1  0.799230  0.799230  0.200931  1
  W  W22  1  0.200608  0.799230  0.200931  1
  W  W23  1  0.799230  0.200608  0.200931  1
  C  C24  1  0.250215  0.250215  0.249354  1
  C  C25  1  0.000000  0.000000  0.999999  1
