# generated using pymatgen
data_Sr4CrTcO8
_symmetry_space_group_name_H-M   'P 1'
_cell_length_a   6.95300843
_cell_length_b   6.95300914
_cell_length_c   5.54783500
_cell_angle_alpha   90.00000000
_cell_angle_beta   90.00000000
_cell_angle_gamma   132.98959246
_symmetry_Int_Tables_number   1
_chemical_formula_structural   Sr4CrTcO8
_chemical_formula_sum   'Sr4 Cr1 Tc1 O8'
_cell_volume   196.18694599
_cell_formula_units_Z   1
loop_
 _symmetry_equiv_pos_site_id
 _symmetry_equiv_pos_as_xyz
  1  'x, y, z'
loop_
 _atom_site_type_symbol
 _atom_site_label
 _atom_site_symmetry_multiplicity
 _atom_site_fract_x
 _atom_site_fract_y
 _atom_site_fract_z
 _atom_site_occupancy
  Sr  Sr0  1  0.647904  0.352096  0.000000  1
  Sr  Sr1  1  0.145501  0.854499  0.500000  1
  Sr  Sr2  1  0.854499  0.145501  0.500000  1
  Sr  Sr3  1  0.352096  0.647904  0.000000  1
  Cr  Cr4  1  0.000000  0.000000  0.000000  1
  Tc  Tc5  1  0.500000  0.500000  0.500000  1
  O  O6  1  0.747894  0.747894  0.253141  1
  O  O7  1  0.252106  0.252106  0.746859  1
  O  O8  1  0.252106  0.252106  0.253141  1
  O  O9  1  0.747894  0.747894  0.746859  1
  O  O10  1  0.839631  0.160369  0.000000  1
  O  O11  1  0.339547  0.660453  0.500000  1
  O  O12  1  0.660453  0.339547  0.500000  1
  O  O13  1  0.160369  0.839631  0.000000  1
