# generated using pymatgen
data_Nd5Er5Pb8
_symmetry_space_group_name_H-M   'P 1'
_cell_length_a   8.28470400
_cell_length_b   8.36642342
_cell_length_c   15.85136876
_cell_angle_alpha   90.15179796
_cell_angle_beta   90.00000000
_cell_angle_gamma   90.00000000
_symmetry_Int_Tables_number   1
_chemical_formula_structural   Nd5Er5Pb8
_chemical_formula_sum   'Nd10 Er10 Pb16'
_cell_volume   1098.70748113
_cell_formula_units_Z   2
loop_
 _symmetry_equiv_pos_site_id
 _symmetry_equiv_pos_as_xyz
  1  'x, y, z'
loop_
 _atom_site_type_symbol
 _atom_site_label
 _atom_site_symmetry_multiplicity
 _atom_site_fract_x
 _atom_site_fract_y
 _atom_site_fract_z
 _atom_site_occupancy
  Nd  Nd0  1  0.632171  0.160154  0.881395  1
  Nd  Nd1  1  0.132171  0.339846  0.618605  1
  Nd  Nd2  1  0.474624  0.679134  0.596076  1
  Nd  Nd3  1  0.974624  0.820866  0.903924  1
  Nd  Nd4  1  0.525666  0.323572  0.099304  1
  Nd  Nd5  1  0.025666  0.176428  0.400696  1
  Nd  Nd6  1  0.523291  0.322607  0.401965  1
  Nd  Nd7  1  0.023291  0.177393  0.098035  1
  Nd  Nd8  1  0.476797  0.678323  0.903212  1
  Nd  Nd9  1  0.976797  0.821677  0.596788  1
  Er  Er10  1  0.636908  0.158381  0.622930  1
  Er  Er11  1  0.136908  0.341619  0.877070  1
  Er  Er12  1  0.364112  0.843144  0.122950  1
  Er  Er13  1  0.864112  0.656856  0.377050  1
  Er  Er14  1  0.366784  0.841618  0.374529  1
  Er  Er15  1  0.866784  0.658382  0.125471  1
  Er  Er16  1  0.802686  0.495408  0.750338  1
  Er  Er17  1  0.302686  0.004592  0.749662  1
  Er  Er18  1  0.197925  0.505905  0.248959  1
  Er  Er19  1  0.697925  0.994095  0.251041  1
  Pb  Pb20  1  0.704945  0.959415  0.456625  1
  Pb  Pb21  1  0.204945  0.540585  0.043375  1
  Pb  Pb22  1  0.285817  0.037558  0.958061  1
  Pb  Pb23  1  0.785817  0.462442  0.541939  1
  Pb  Pb24  1  0.301121  0.033718  0.541619  1
  Pb  Pb25  1  0.801121  0.466282  0.958381  1
  Pb  Pb26  1  0.706313  0.955696  0.047781  1
  Pb  Pb27  1  0.206313  0.544304  0.452219  1
  Pb  Pb28  1  0.440534  0.374228  0.749452  1
  Pb  Pb29  1  0.940534  0.125772  0.750548  1
  Pb  Pb30  1  0.559547  0.627732  0.249028  1
  Pb  Pb31  1  0.059547  0.872268  0.250972  1
  Pb  Pb32  1  0.665573  0.847363  0.748713  1
  Pb  Pb33  1  0.165573  0.652637  0.751287  1
  Pb  Pb34  1  0.335186  0.151757  0.249942  1
  Pb  Pb35  1  0.835186  0.348243  0.250058  1
