# generated using pymatgen
data_Pr4Al24Pt8Rh
_symmetry_space_group_name_H-M   'P 1'
_cell_length_a   7.55629121
_cell_length_b   7.61625727
_cell_length_c   13.38196044
_cell_angle_alpha   84.59721092
_cell_angle_beta   79.20785666
_cell_angle_gamma   59.98258557
_symmetry_Int_Tables_number   1
_chemical_formula_structural   Pr4Al24Pt8Rh
_chemical_formula_sum   'Pr4 Al24 Pt8 Rh1'
_cell_volume   655.04965537
_cell_formula_units_Z   1
loop_
 _symmetry_equiv_pos_site_id
 _symmetry_equiv_pos_as_xyz
  1  'x, y, z'
loop_
 _atom_site_type_symbol
 _atom_site_label
 _atom_site_symmetry_multiplicity
 _atom_site_fract_x
 _atom_site_fract_y
 _atom_site_fract_z
 _atom_site_occupancy
  Pr  Pr0  1  0.394403  0.167621  0.808342  1
  Pr  Pr1  1  0.605597  0.832379  0.191658  1
  Pr  Pr2  1  0.733233  0.497820  0.808657  1
  Pr  Pr3  1  0.266767  0.502180  0.191343  1
  Al  Al4  1  0.689201  0.830393  0.947510  1
  Al  Al5  1  0.310799  0.169607  0.052490  1
  Al  Al6  1  0.147122  0.831551  0.559157  1
  Al  Al7  1  0.852878  0.168449  0.440843  1
  Al  Al8  1  0.479627  0.166040  0.557266  1
  Al  Al9  1  0.520373  0.833960  0.442734  1
  Al  Al10  1  0.213751  0.165664  0.331531  1
  Al  Al11  1  0.786249  0.834336  0.668469  1
  Al  Al12  1  0.436072  0.508414  0.667962  1
  Al  Al13  1  0.563928  0.491586  0.332038  1
  Al  Al14  1  0.110400  0.159003  0.665620  1
  Al  Al15  1  0.889600  0.840997  0.334380  1
  Al  Al16  1  0.346812  0.501275  0.947974  1
  Al  Al17  1  0.653188  0.498725  0.052026  1
  Al  Al18  1  0.014176  0.169817  0.958423  1
  Al  Al19  1  0.985824  0.830183  0.041577  1
  Al  Al20  1  0.186263  0.499337  0.442304  1
  Al  Al21  1  0.813737  0.500663  0.557696  1
  Al  Al22  1  0.736062  0.164327  0.183533  1
  Al  Al23  1  0.263938  0.835673  0.816467  1
  Al  Al24  1  0.061424  0.630599  0.817602  1
  Al  Al25  1  0.938576  0.369401  0.182398  1
  Al  Al26  1  0.859112  0.038001  0.815987  1
  Al  Al27  1  0.140888  0.961999  0.184014  1
  Pt  Pt28  1  0.120673  0.494808  0.636130  1
  Pt  Pt29  1  0.879327  0.505192  0.363870  1
  Pt  Pt30  1  0.658352  0.170591  0.999804  1
  Pt  Pt31  1  0.341648  0.829409  0.000196  1
  Pt  Pt32  1  0.539074  0.167038  0.363599  1
  Pt  Pt33  1  0.460926  0.832962  0.636401  1
  Pt  Pt34  1  0.781194  0.172407  0.634834  1
  Pt  Pt35  1  0.218806  0.827593  0.365166  1
  Rh  Rh36  1  0.000000  0.500000  0.000000  1
