# generated using pymatgen
data_Lu12Fe4BiAu
_symmetry_space_group_name_H-M   'P 1'
_cell_length_a   8.14908072
_cell_length_b   8.14907954
_cell_length_c   8.14907900
_cell_angle_alpha   110.91259679
_cell_angle_beta   111.38415486
_cell_angle_gamma   106.16696528
_symmetry_Int_Tables_number   1
_chemical_formula_structural   Lu12Fe4BiAu
_chemical_formula_sum   'Lu12 Fe4 Bi1 Au1'
_cell_volume   415.54621727
_cell_formula_units_Z   1
loop_
 _symmetry_equiv_pos_site_id
 _symmetry_equiv_pos_as_xyz
  1  'x, y, z'
loop_
 _atom_site_type_symbol
 _atom_site_label
 _atom_site_symmetry_multiplicity
 _atom_site_fract_x
 _atom_site_fract_y
 _atom_site_fract_z
 _atom_site_occupancy
  Lu  Lu0  1  0.813180  0.712599  0.525770  1
  Lu  Lu1  1  0.186820  0.287401  0.474230  1
  Lu  Lu2  1  0.186828  0.712599  0.899420  1
  Lu  Lu3  1  0.813172  0.287401  0.100580  1
  Lu  Lu4  1  0.689573  0.385379  0.695806  1
  Lu  Lu5  1  0.310427  0.614621  0.304194  1
  Lu  Lu6  1  0.689562  0.993842  0.304281  1
  Lu  Lu7  1  0.310438  0.006158  0.695719  1
  Lu  Lu8  1  0.570738  0.780877  0.789798  1
  Lu  Lu9  1  0.429262  0.219123  0.210202  1
  Lu  Lu10  1  0.991080  0.780877  0.210138  1
  Lu  Lu11  1  0.008920  0.219123  0.789862  1
  Fe  Fe12  1  0.617084  0.000000  0.617084  1
  Fe  Fe13  1  0.382916  0.000000  0.382916  1
  Fe  Fe14  1  0.109078  0.609170  0.500092  1
  Fe  Fe15  1  0.890922  0.390830  0.499908  1
  Bi  Bi16  1  0.500000  0.500000  0.000000  1
  Au  Au17  1  0.000000  0.000000  0.000000  1
