# generated using pymatgen
data_Tb2Y6AlPd24
_symmetry_space_group_name_H-M   'P 1'
_cell_length_a   8.36438056
_cell_length_b   8.36438137
_cell_length_c   8.36438176
_cell_angle_alpha   89.99145445
_cell_angle_beta   90.00854022
_cell_angle_gamma   90.00853763
_symmetry_Int_Tables_number   1
_chemical_formula_structural   Tb2Y6AlPd24
_chemical_formula_sum   'Tb2 Y6 Al1 Pd24'
_cell_volume   585.19612507
_cell_formula_units_Z   1
loop_
 _symmetry_equiv_pos_site_id
 _symmetry_equiv_pos_as_xyz
  1  'x, y, z'
loop_
 _atom_site_type_symbol
 _atom_site_label
 _atom_site_symmetry_multiplicity
 _atom_site_fract_x
 _atom_site_fract_y
 _atom_site_fract_z
 _atom_site_occupancy
  Tb  Tb0  1  0.251928  0.748072  0.748072  1
  Tb  Tb1  1  0.748072  0.251928  0.251928  1
  Y  Y2  1  0.251311  0.251458  0.251458  1
  Y  Y3  1  0.748689  0.748542  0.748542  1
  Y  Y4  1  0.748542  0.748689  0.251458  1
  Y  Y5  1  0.748542  0.251458  0.748689  1
  Y  Y6  1  0.251458  0.251311  0.748542  1
  Y  Y7  1  0.251458  0.748542  0.251311  1
  Al  Al8  1  0.000000  0.000000  0.000000  1
  Pd  Pd9  1  0.259768  0.500075  0.999718  1
  Pd  Pd10  1  0.740232  0.499925  0.000282  1
  Pd  Pd11  1  0.999718  0.259768  0.499925  1
  Pd  Pd12  1  0.500075  0.259768  0.000282  1
  Pd  Pd13  1  0.000282  0.740232  0.500075  1
  Pd  Pd14  1  0.499925  0.740232  0.999718  1
  Pd  Pd15  1  0.500075  0.000282  0.259768  1
  Pd  Pd16  1  0.259768  0.999718  0.500075  1
  Pd  Pd17  1  0.499925  0.999718  0.740232  1
  Pd  Pd18  1  0.740232  0.000282  0.499925  1
  Pd  Pd19  1  0.999718  0.499925  0.259768  1
  Pd  Pd20  1  0.000282  0.500075  0.740232  1
  Pd  Pd21  1  0.252744  0.499991  0.499991  1
  Pd  Pd22  1  0.747256  0.500009  0.500009  1
  Pd  Pd23  1  0.499991  0.252744  0.500009  1
  Pd  Pd24  1  0.500009  0.747256  0.499991  1
  Pd  Pd25  1  0.499991  0.500009  0.252744  1
  Pd  Pd26  1  0.500009  0.499991  0.747256  1
  Pd  Pd27  1  0.289396  0.999913  0.999913  1
  Pd  Pd28  1  0.710604  0.000087  0.000087  1
  Pd  Pd29  1  0.999913  0.289396  0.000087  1
  Pd  Pd30  1  0.000087  0.710604  0.999913  1
  Pd  Pd31  1  0.999913  0.000087  0.289396  1
  Pd  Pd32  1  0.000087  0.999913  0.710604  1
