# generated using pymatgen
data_K4MgTaH11
_symmetry_space_group_name_H-M   'P 1'
_cell_length_a   5.90987502
_cell_length_b   8.76403840
_cell_length_c   10.57586500
_cell_angle_alpha   65.50746090
_cell_angle_beta   89.16670174
_cell_angle_gamma   89.10333862
_symmetry_Int_Tables_number   1
_chemical_formula_structural   K4MgTaH11
_chemical_formula_sum   'K8 Mg2 Ta2 H22'
_cell_volume   498.39874392
_cell_formula_units_Z   2
loop_
 _symmetry_equiv_pos_site_id
 _symmetry_equiv_pos_as_xyz
  1  'x, y, z'
loop_
 _atom_site_type_symbol
 _atom_site_label
 _atom_site_symmetry_multiplicity
 _atom_site_fract_x
 _atom_site_fract_y
 _atom_site_fract_z
 _atom_site_occupancy
  K  K0  1  0.733038  0.367750  0.471171  1
  K  K1  1  0.266945  0.632258  0.528847  1
  K  K2  1  0.746722  0.334892  0.096188  1
  K  K3  1  0.253287  0.665115  0.903810  1
  K  K4  1  0.749032  0.946832  0.401736  1
  K  K5  1  0.251006  0.053176  0.598260  1
  K  K6  1  0.268558  0.175738  0.900167  1
  K  K7  1  0.731472  0.824231  0.099857  1
  Mg  Mg8  1  0.752452  0.884322  0.756948  1
  Mg  Mg9  1  0.247561  0.115672  0.243052  1
  Ta  Ta10  1  0.768671  0.544363  0.737647  1
  Ta  Ta11  1  0.231307  0.455641  0.262339  1
  H  H12  1  0.557071  0.724977  0.687674  1
  H  H13  1  0.442914  0.275025  0.312334  1
  H  H14  1  0.566444  0.430531  0.677970  1
  H  H15  1  0.433521  0.569466  0.322029  1
  H  H16  1  0.727504  0.060360  0.584375  1
  H  H17  1  0.272545  0.939641  0.415628  1
  H  H18  1  0.529264  0.469633  0.852613  1
  H  H19  1  0.470720  0.530377  0.147380  1
  H  H20  1  0.938482  0.743067  0.668944  1
  H  H21  1  0.061507  0.256931  0.331048  1
  H  H22  1  0.792307  0.625613  0.544482  1
  H  H23  1  0.207650  0.374395  0.455503  1
  H  H24  1  0.999932  0.941877  0.835695  1
  H  H25  1  0.000118  0.058114  0.164294  1
  H  H26  1  0.773838  0.627115  0.874858  1
  H  H27  1  0.226155  0.372879  0.125135  1
  H  H28  1  0.809780  0.321268  0.853978  1
  H  H29  1  0.190189  0.678738  0.146016  1
  H  H30  1  0.070073  0.496600  0.776231  1
  H  H31  1  0.929897  0.503397  0.223782  1
  H  H32  1  0.506828  0.927111  0.850813  1
  H  H33  1  0.493212  0.072895  0.149194  1
