# generated using pymatgen
data_YScNb2(Co4P3)2
_symmetry_space_group_name_H-M   'P 1'
_cell_length_a   12.09310721
_cell_length_b   12.09310660
_cell_length_c   3.66455700
_cell_angle_alpha   90.00000000
_cell_angle_beta   90.00000000
_cell_angle_gamma   119.91962904
_symmetry_Int_Tables_number   1
_chemical_formula_structural   YScNb2(Co4P3)2
_chemical_formula_sum   'Y2 Sc2 Nb4 Co16 P12'
_cell_volume   464.49286832
_cell_formula_units_Z   2
loop_
 _symmetry_equiv_pos_site_id
 _symmetry_equiv_pos_as_xyz
  1  'x, y, z'
loop_
 _atom_site_type_symbol
 _atom_site_label
 _atom_site_symmetry_multiplicity
 _atom_site_fract_x
 _atom_site_fract_y
 _atom_site_fract_z
 _atom_site_occupancy
  Y  Y0  1  0.333447  0.666613  0.000000  1
  Y  Y1  1  0.666613  0.333447  0.000000  1
  Sc  Sc2  1  0.821827  0.999244  0.500000  1
  Sc  Sc3  1  0.999244  0.821827  0.500000  1
  Nb  Nb4  1  0.182598  0.182598  0.500000  1
  Nb  Nb5  1  0.446554  0.000432  0.000000  1
  Nb  Nb6  1  0.000432  0.446554  0.000000  1
  Nb  Nb7  1  0.552367  0.552367  0.000000  1
  Co  Co8  1  0.276859  0.003299  0.500000  1
  Co  Co9  1  0.003299  0.276859  0.500000  1
  Co  Co10  1  0.722929  0.722929  0.500000  1
  Co  Co11  1  0.631156  0.806379  0.000000  1
  Co  Co12  1  0.193815  0.825600  0.000000  1
  Co  Co13  1  0.174362  0.365268  0.000000  1
  Co  Co14  1  0.365268  0.174362  0.000000  1
  Co  Co15  1  0.806379  0.631156  0.000000  1
  Co  Co16  1  0.825600  0.193815  0.000000  1
  Co  Co17  1  0.520966  0.874209  0.500000  1
  Co  Co18  1  0.125965  0.647729  0.500000  1
  Co  Co19  1  0.349688  0.474855  0.500000  1
  Co  Co20  1  0.474855  0.349688  0.500000  1
  Co  Co21  1  0.874209  0.520966  0.500000  1
  Co  Co22  1  0.647729  0.125965  0.500000  1
  Co  Co23  1  0.002096  0.002096  0.000000  1
  P  P24  1  0.173013  0.999865  0.000000  1
  P  P25  1  0.999865  0.173013  0.000000  1
  P  P26  1  0.827470  0.827470  0.000000  1
  P  P27  1  0.522761  0.689429  0.500000  1
  P  P28  1  0.310189  0.833831  0.500000  1
  P  P29  1  0.166968  0.478384  0.500000  1
  P  P30  1  0.478384  0.166968  0.500000  1
  P  P31  1  0.689429  0.522761  0.500000  1
  P  P32  1  0.833831  0.310189  0.500000  1
  P  P33  1  0.650149  0.000033  0.000000  1
  P  P34  1  0.000033  0.650149  0.000000  1
  P  P35  1  0.349655  0.349655  0.000000  1
