# generated using pymatgen
data_Lu12GaFe3Au
_symmetry_space_group_name_H-M   'P 1'
_cell_length_a   8.05400306
_cell_length_b   8.05402591
_cell_length_c   8.05400300
_cell_angle_alpha   109.12116785
_cell_angle_beta   108.27523623
_cell_angle_gamma   111.02951610
_symmetry_Int_Tables_number   1
_chemical_formula_structural   Lu12GaFe3Au
_chemical_formula_sum   'Lu12 Ga1 Fe3 Au1'
_cell_volume   401.93019664
_cell_formula_units_Z   1
loop_
 _symmetry_equiv_pos_site_id
 _symmetry_equiv_pos_as_xyz
  1  'x, y, z'
loop_
 _atom_site_type_symbol
 _atom_site_label
 _atom_site_symmetry_multiplicity
 _atom_site_fract_x
 _atom_site_fract_y
 _atom_site_fract_z
 _atom_site_occupancy
  Lu  Lu0  1  0.308198  0.309591  0.617796  1
  Lu  Lu1  1  0.691802  0.690409  0.382204  1
  Lu  Lu2  1  0.691796  0.309591  0.001393  1
  Lu  Lu3  1  0.308204  0.690409  0.998607  1
  Lu  Lu4  1  0.191261  0.443864  0.252603  1
  Lu  Lu5  1  0.808739  0.556136  0.747397  1
  Lu  Lu6  1  0.191265  0.938666  0.747401  1
  Lu  Lu7  1  0.952880  0.185969  0.766893  1
  Lu  Lu8  1  0.808735  0.061334  0.252599  1
  Lu  Lu9  1  0.047120  0.814031  0.233107  1
  Lu  Lu10  1  0.419076  0.185969  0.233088  1
  Lu  Lu11  1  0.580924  0.814031  0.766912  1
  Ga  Ga12  1  0.500000  0.000000  0.500000  1
  Fe  Fe13  1  0.380213  0.380207  0.999993  1
  Fe  Fe14  1  0.619787  0.619793  0.000007  1
  Fe  Fe15  1  0.000000  0.000000  0.000000  1
  Au  Au16  1  0.000000  0.500000  0.500000  1
