# generated using pymatgen
data_Sc2CoOs2Ru
_symmetry_space_group_name_H-M   'P 1'
_cell_length_a   5.07108955
_cell_length_b   5.07147241
_cell_length_c   8.64061400
_cell_angle_alpha   90.00000000
_cell_angle_beta   90.00000000
_cell_angle_gamma   120.00251619
_symmetry_Int_Tables_number   1
_chemical_formula_structural   Sc2CoOs2Ru
_chemical_formula_sum   'Sc4 Co2 Os4 Ru2'
_cell_volume   192.44187121
_cell_formula_units_Z   2
loop_
 _symmetry_equiv_pos_site_id
 _symmetry_equiv_pos_as_xyz
  1  'x, y, z'
loop_
 _atom_site_type_symbol
 _atom_site_label
 _atom_site_symmetry_multiplicity
 _atom_site_fract_x
 _atom_site_fract_y
 _atom_site_fract_z
 _atom_site_occupancy
  Sc  Sc0  1  0.333675  0.663629  0.066447  1
  Sc  Sc1  1  0.666325  0.329953  0.566447  1
  Sc  Sc2  1  0.333675  0.663629  0.433553  1
  Sc  Sc3  1  0.666325  0.329953  0.933553  1
  Co  Co4  1  0.832643  0.175864  0.250000  1
  Co  Co5  1  0.167357  0.343222  0.750000  1
  Os  Os6  1  0.833141  0.665279  0.250000  1
  Os  Os7  1  0.166859  0.832140  0.750000  1
  Os  Os8  1  0.651352  0.828939  0.750000  1
  Os  Os9  1  0.348648  0.177586  0.250000  1
  Ru  Ru10  1  0.000000  0.994904  0.500000  1
  Ru  Ru11  1  0.000000  0.994904  0.000000  1
