# generated using pymatgen
data_Tc3Pd4
_symmetry_space_group_name_H-M   'P 1'
_cell_length_a   7.43693583
_cell_length_b   7.42693010
_cell_length_c   4.38770700
_cell_angle_alpha   90.00000000
_cell_angle_beta   90.00000000
_cell_angle_gamma   59.95362255
_symmetry_Int_Tables_number   1
_chemical_formula_structural   Tc3Pd4
_chemical_formula_sum   'Tc6 Pd8'
_cell_volume   209.78212129
_cell_formula_units_Z   2
loop_
 _symmetry_equiv_pos_site_id
 _symmetry_equiv_pos_as_xyz
  1  'x, y, z'
loop_
 _atom_site_type_symbol
 _atom_site_label
 _atom_site_symmetry_multiplicity
 _atom_site_fract_x
 _atom_site_fract_y
 _atom_site_fract_z
 _atom_site_occupancy
  Tc  Tc0  1  0.700578  0.442391  0.000000  1
  Tc  Tc1  1  0.299507  0.570636  0.000000  1
  Tc  Tc2  1  0.428289  0.843500  0.000000  1
  Tc  Tc3  1  0.524101  0.394574  0.500000  1
  Tc  Tc4  1  0.652826  0.667462  0.500000  1
  Tc  Tc5  1  0.251769  0.795695  0.500000  1
  Pd  Pd6  1  0.570146  0.150348  0.000000  1
  Pd  Pd7  1  0.142343  0.285351  0.000000  1
  Pd  Pd8  1  0.851316  0.713728  0.000000  1
  Pd  Pd9  1  0.007767  0.993553  0.000000  1
  Pd  Pd10  1  0.382259  0.087758  0.500000  1
  Pd  Pd11  1  0.944598  0.244510  0.500000  1
  Pd  Pd12  1  0.101027  0.524341  0.500000  1
  Pd  Pd13  1  0.810035  0.952718  0.500000  1
