# generated using pymatgen
data_Dy3ErTm4(ReB6)4
_symmetry_space_group_name_H-M   'P 1'
_cell_length_a   3.65750700
_cell_length_b   9.12900900
_cell_length_c   11.51229100
_cell_angle_alpha   89.99750182
_cell_angle_beta   90.00000000
_cell_angle_gamma   90.00000000
_symmetry_Int_Tables_number   1
_chemical_formula_structural   Dy3ErTm4(ReB6)4
_chemical_formula_sum   'Dy3 Er1 Tm4 Re4 B24'
_cell_volume   384.38865380
_cell_formula_units_Z   1
loop_
 _symmetry_equiv_pos_site_id
 _symmetry_equiv_pos_as_xyz
  1  'x, y, z'
loop_
 _atom_site_type_symbol
 _atom_site_label
 _atom_site_symmetry_multiplicity
 _atom_site_fract_x
 _atom_site_fract_y
 _atom_site_fract_z
 _atom_site_occupancy
  Dy  Dy0  1  0.000000  0.323381  0.413823  1
  Dy  Dy1  1  0.000000  0.676602  0.586187  1
  Dy  Dy2  1  0.000000  0.823407  0.086138  1
  Er  Er3  1  0.000000  0.176491  0.913865  1
  Tm  Tm4  1  0.000000  0.943518  0.370205  1
  Tm  Tm5  1  0.000000  0.056535  0.629852  1
  Tm  Tm6  1  0.000000  0.443414  0.129669  1
  Tm  Tm7  1  0.000000  0.556427  0.870282  1
  Re  Re8  1  0.000000  0.639239  0.320424  1
  Re  Re9  1  0.000000  0.360622  0.679777  1
  Re  Re10  1  0.000000  0.139247  0.179286  1
  Re  Re11  1  0.000000  0.861062  0.820532  1
  B  B12  1  0.500000  0.553613  0.432836  1
  B  B13  1  0.500000  0.446360  0.567185  1
  B  B14  1  0.500000  0.053703  0.066898  1
  B  B15  1  0.500000  0.946684  0.932873  1
  B  B16  1  0.500000  0.750263  0.418772  1
  B  B17  1  0.500000  0.249743  0.581270  1
  B  B18  1  0.500000  0.250207  0.080879  1
  B  B19  1  0.500000  0.749791  0.918749  1
  B  B20  1  0.500000  0.792913  0.265657  1
  B  B21  1  0.500000  0.206943  0.734597  1
  B  B22  1  0.500000  0.292901  0.234291  1
  B  B23  1  0.500000  0.707084  0.765679  1
  B  B24  1  0.500000  0.630729  0.185278  1
  B  B25  1  0.500000  0.369018  0.814914  1
  B  B26  1  0.500000  0.130756  0.314685  1
  B  B27  1  0.500000  0.869304  0.685337  1
  B  B28  1  0.500000  0.982276  0.212341  1
  B  B29  1  0.500000  0.018114  0.787807  1
  B  B30  1  0.500000  0.482221  0.287604  1
  B  B31  1  0.500000  0.517742  0.712401  1
  B  B32  1  0.500000  0.599188  0.027697  1
  B  B33  1  0.500000  0.400477  0.972202  1
  B  B34  1  0.500000  0.099158  0.472311  1
  B  B35  1  0.500000  0.900868  0.527697  1
