# generated using pymatgen
data_Tb3MgIn2Ga2Pd
_symmetry_space_group_name_H-M   'P 1'
_cell_length_a   7.25344793
_cell_length_b   7.25344852
_cell_length_c   4.47477300
_cell_angle_alpha   90.00000000
_cell_angle_beta   90.00000000
_cell_angle_gamma   120.21635658
_symmetry_Int_Tables_number   1
_chemical_formula_structural   Tb3MgIn2Ga2Pd
_chemical_formula_sum   'Tb3 Mg1 In2 Ga2 Pd1'
_cell_volume   203.44157482
_cell_formula_units_Z   1
loop_
 _symmetry_equiv_pos_site_id
 _symmetry_equiv_pos_as_xyz
  1  'x, y, z'
loop_
 _atom_site_type_symbol
 _atom_site_label
 _atom_site_symmetry_multiplicity
 _atom_site_fract_x
 _atom_site_fract_y
 _atom_site_fract_z
 _atom_site_occupancy
  Tb  Tb0  1  0.586799  0.999391  0.500000  1
  Tb  Tb1  1  0.411423  0.411423  0.500000  1
  Tb  Tb2  1  0.999391  0.586799  0.500000  1
  Mg  Mg3  1  0.761119  0.761119  0.000000  1
  In  In4  1  0.243775  0.996713  0.000000  1
  In  In5  1  0.996713  0.243775  0.000000  1
  Ga  Ga6  1  0.665568  0.337108  0.000000  1
  Ga  Ga7  1  0.337108  0.665568  0.000000  1
  Pd  Pd8  1  0.998104  0.998104  0.500000  1
