# generated using pymatgen
data_Ho4Al3GaOsPd3
_symmetry_space_group_name_H-M   'P 1'
_cell_length_a   4.34443000
_cell_length_b   6.88522731
_cell_length_c   7.86240407
_cell_angle_alpha   89.92800691
_cell_angle_beta   90.00000000
_cell_angle_gamma   90.00000000
_symmetry_Int_Tables_number   1
_chemical_formula_structural   Ho4Al3GaOsPd3
_chemical_formula_sum   'Ho4 Al3 Ga1 Os1 Pd3'
_cell_volume   235.18309625
_cell_formula_units_Z   1
loop_
 _symmetry_equiv_pos_site_id
 _symmetry_equiv_pos_as_xyz
  1  'x, y, z'
loop_
 _atom_site_type_symbol
 _atom_site_label
 _atom_site_symmetry_multiplicity
 _atom_site_fract_x
 _atom_site_fract_y
 _atom_site_fract_z
 _atom_site_occupancy
  Ho  Ho0  1  0.250000  0.033995  0.680086  1
  Ho  Ho1  1  0.250000  0.532093  0.819983  1
  Ho  Ho2  1  0.750000  0.980172  0.318810  1
  Ho  Ho3  1  0.750000  0.465946  0.185710  1
  Al  Al4  1  0.250000  0.147759  0.064853  1
  Al  Al5  1  0.250000  0.638125  0.437282  1
  Al  Al6  1  0.750000  0.353141  0.558600  1
  Ga  Ga7  1  0.750000  0.852213  0.938305  1
  Os  Os8  1  0.250000  0.266267  0.378801  1
  Pd  Pd9  1  0.250000  0.772747  0.119794  1
  Pd  Pd10  1  0.750000  0.727700  0.617879  1
  Pd  Pd11  1  0.750000  0.229842  0.879898  1
