# generated using pymatgen
data_La3Si2Se8Br
_symmetry_space_group_name_H-M   'P 1'
_cell_length_a   9.33119645
_cell_length_b   9.33119679
_cell_length_c   11.63368422
_cell_angle_alpha   82.66390347
_cell_angle_beta   97.33609702
_cell_angle_gamma   127.94241978
_symmetry_Int_Tables_number   1
_chemical_formula_structural   La3Si2Se8Br
_chemical_formula_sum   'La6 Si4 Se16 Br2'
_cell_volume   790.74232262
_cell_formula_units_Z   2
loop_
 _symmetry_equiv_pos_site_id
 _symmetry_equiv_pos_as_xyz
  1  'x, y, z'
loop_
 _atom_site_type_symbol
 _atom_site_label
 _atom_site_symmetry_multiplicity
 _atom_site_fract_x
 _atom_site_fract_y
 _atom_site_fract_z
 _atom_site_occupancy
  La  La0  1  0.322280  0.924365  0.683435  1
  La  La1  1  0.924364  0.322280  0.816565  1
  La  La2  1  0.677719  0.075636  0.316566  1
  La  La3  1  0.075635  0.677721  0.183435  1
  La  La4  1  0.620612  0.620613  0.750000  1
  La  La5  1  0.379389  0.379389  0.250000  1
  Si  Si6  1  0.627388  0.307098  0.029143  1
  Si  Si7  1  0.307098  0.627388  0.470857  1
  Si  Si8  1  0.372612  0.692902  0.970857  1
  Si  Si9  1  0.692902  0.372612  0.529143  1
  Se  Se10  1  0.726740  0.596323  0.046980  1
  Se  Se11  1  0.596324  0.726739  0.453020  1
  Se  Se12  1  0.273260  0.403677  0.953021  1
  Se  Se13  1  0.403677  0.273260  0.546979  1
  Se  Se14  1  0.857858  0.284206  0.086013  1
  Se  Se15  1  0.284206  0.857858  0.413986  1
  Se  Se16  1  0.142144  0.715795  0.913987  1
  Se  Se17  1  0.715796  0.142143  0.586014  1
  Se  Se18  1  0.391855  0.101950  0.144258  1
  Se  Se19  1  0.101950  0.391856  0.355742  1
  Se  Se20  1  0.608146  0.898051  0.855742  1
  Se  Se21  1  0.898051  0.608146  0.644259  1
  Se  Se22  1  0.550567  0.258902  0.835912  1
  Se  Se23  1  0.258902  0.550567  0.664088  1
  Se  Se24  1  0.449433  0.741098  0.164087  1
  Se  Se25  1  0.741098  0.449433  0.335912  1
  Br  Br26  1  0.003094  0.003094  0.250000  1
  Br  Br27  1  0.996906  0.996906  0.750000  1
