# generated using pymatgen
data_Mg(Tc3P2)2
_symmetry_space_group_name_H-M   'P 1'
_cell_length_a   7.56333200
_cell_length_b   7.56333317
_cell_length_c   3.08970400
_cell_angle_alpha   90.00000000
_cell_angle_beta   90.00000000
_cell_angle_gamma   119.99999488
_symmetry_Int_Tables_number   1
_chemical_formula_structural   Mg(Tc3P2)2
_chemical_formula_sum   'Mg1 Tc6 P4'
_cell_volume   153.06430560
_cell_formula_units_Z   1
loop_
 _symmetry_equiv_pos_site_id
 _symmetry_equiv_pos_as_xyz
  1  'x, y, z'
loop_
 _atom_site_type_symbol
 _atom_site_label
 _atom_site_symmetry_multiplicity
 _atom_site_fract_x
 _atom_site_fract_y
 _atom_site_fract_z
 _atom_site_occupancy
  Mg  Mg0  1  0.000000  0.000000  0.000000  1
  Tc  Tc1  1  0.192993  0.807007  0.500000  1
  Tc  Tc2  1  0.192993  0.385987  0.500000  1
  Tc  Tc3  1  0.542002  0.084005  0.000000  1
  Tc  Tc4  1  0.915995  0.457998  0.000000  1
  Tc  Tc5  1  0.542002  0.457998  0.000000  1
  Tc  Tc6  1  0.614013  0.807007  0.500000  1
  P  P7  1  0.824892  0.175108  0.500000  1
  P  P8  1  0.350216  0.175108  0.500000  1
  P  P9  1  0.333333  0.666667  0.000000  1
  P  P10  1  0.824892  0.649784  0.500000  1
