# generated using pymatgen
data_YHoZrSnIr2
_symmetry_space_group_name_H-M   'P 1'
_cell_length_a   4.38694800
_cell_length_b   7.14949600
_cell_length_c   8.41324400
_cell_angle_alpha   90.00000000
_cell_angle_beta   90.00000000
_cell_angle_gamma   90.00000000
_symmetry_Int_Tables_number   1
_chemical_formula_structural   YHoZrSnIr2
_chemical_formula_sum   'Y2 Ho2 Zr2 Sn2 Ir4'
_cell_volume   263.87691530
_cell_formula_units_Z   2
loop_
 _symmetry_equiv_pos_site_id
 _symmetry_equiv_pos_as_xyz
  1  'x, y, z'
loop_
 _atom_site_type_symbol
 _atom_site_label
 _atom_site_symmetry_multiplicity
 _atom_site_fract_x
 _atom_site_fract_y
 _atom_site_fract_z
 _atom_site_occupancy
  Y  Y0  1  0.250000  0.033708  0.330624  1
  Y  Y1  1  0.250000  0.533708  0.169376  1
  Ho  Ho2  1  0.750000  0.971381  0.678106  1
  Ho  Ho3  1  0.750000  0.471381  0.821894  1
  Zr  Zr4  1  0.250000  0.129857  0.939261  1
  Zr  Zr5  1  0.250000  0.629857  0.560739  1
  Sn  Sn6  1  0.750000  0.855757  0.071334  1
  Sn  Sn7  1  0.750000  0.355757  0.428666  1
  Ir  Ir8  1  0.250000  0.260076  0.635618  1
  Ir  Ir9  1  0.250000  0.760076  0.864382  1
  Ir  Ir10  1  0.750000  0.749222  0.394606  1
  Ir  Ir11  1  0.750000  0.249222  0.105394  1
