# generated using pymatgen
data_Tm20Ir2Pt7Rh3
_symmetry_space_group_name_H-M   'P 1'
_cell_length_a   10.88632722
_cell_length_b   10.88752284
_cell_length_c   6.28679610
_cell_angle_alpha   90.02043768
_cell_angle_beta   90.00978435
_cell_angle_gamma   90.29152802
_symmetry_Int_Tables_number   1
_chemical_formula_structural   Tm20Ir2Pt7Rh3
_chemical_formula_sum   'Tm20 Ir2 Pt7 Rh3'
_cell_volume   745.13365938
_cell_formula_units_Z   1
loop_
 _symmetry_equiv_pos_site_id
 _symmetry_equiv_pos_as_xyz
  1  'x, y, z'
loop_
 _atom_site_type_symbol
 _atom_site_label
 _atom_site_symmetry_multiplicity
 _atom_site_fract_x
 _atom_site_fract_y
 _atom_site_fract_z
 _atom_site_occupancy
  Tm  Tm0  1  0.294460  0.086144  0.374782  1
  Tm  Tm1  1  0.294797  0.908126  0.875189  1
  Tm  Tm2  1  0.704636  0.086987  0.874428  1
  Tm  Tm3  1  0.704821  0.912285  0.373978  1
  Tm  Tm4  1  0.583799  0.792186  0.872778  1
  Tm  Tm5  1  0.587194  0.205645  0.376082  1
  Tm  Tm6  1  0.410677  0.791916  0.379499  1
  Tm  Tm7  1  0.411978  0.204250  0.875312  1
  Tm  Tm8  1  0.207143  0.416521  0.625903  1
  Tm  Tm9  1  0.207595  0.589384  0.122056  1
  Tm  Tm10  1  0.794774  0.412578  0.125414  1
  Tm  Tm11  1  0.796378  0.587693  0.623596  1
  Tm  Tm12  1  0.913630  0.705150  0.126553  1
  Tm  Tm13  1  0.913292  0.295911  0.624409  1
  Tm  Tm14  1  0.091547  0.704637  0.623704  1
  Tm  Tm15  1  0.088009  0.295485  0.127298  1
  Tm  Tm16  1  0.999250  0.999972  0.500853  1
  Tm  Tm17  1  0.000054  0.000758  0.999354  1
  Tm  Tm18  1  0.498040  0.500395  0.999460  1
  Tm  Tm19  1  0.499643  0.501957  0.500748  1
  Ir  Ir20  1  0.346564  0.653957  0.749947  1
  Ir  Ir21  1  0.000141  0.500173  0.378923  1
  Pt  Pt22  1  0.844849  0.153798  0.249545  1
  Pt  Pt23  1  0.843798  0.846366  0.750807  1
  Pt  Pt24  1  0.154206  0.155663  0.748914  1
  Pt  Pt25  1  0.153990  0.847422  0.249755  1
  Pt  Pt26  1  0.653898  0.345602  0.749919  1
  Pt  Pt27  1  0.655134  0.655257  0.248964  1
  Pt  Pt28  1  0.346165  0.343524  0.250168  1
  Rh  Rh29  1  0.499865  0.999958  0.121086  1
  Rh  Rh30  1  0.499699  0.000020  0.619656  1
  Rh  Rh31  1  0.999972  0.500280  0.880918  1
