# generated using pymatgen
data_CsRbGa13Sn
_symmetry_space_group_name_H-M   'P 1'
_cell_length_a   10.49485990
_cell_length_b   10.49486034
_cell_length_c   10.49486067
_cell_angle_alpha   38.29630467
_cell_angle_beta   38.29630084
_cell_angle_gamma   38.29631313
_symmetry_Int_Tables_number   1
_chemical_formula_structural   CsRbGa13Sn
_chemical_formula_sum   'Cs1 Rb1 Ga13 Sn1'
_cell_volume   398.72624876
_cell_formula_units_Z   1
loop_
 _symmetry_equiv_pos_site_id
 _symmetry_equiv_pos_as_xyz
  1  'x, y, z'
loop_
 _atom_site_type_symbol
 _atom_site_label
 _atom_site_symmetry_multiplicity
 _atom_site_fract_x
 _atom_site_fract_y
 _atom_site_fract_z
 _atom_site_occupancy
  Cs  Cs0  1  0.195726  0.195726  0.195726  1
  Rb  Rb1  1  0.803403  0.803403  0.803403  1
  Ga  Ga2  1  0.551917  0.551917  0.551917  1
  Ga  Ga3  1  0.578851  0.183879  0.183879  1
  Ga  Ga4  1  0.183879  0.183879  0.578851  1
  Ga  Ga5  1  0.183879  0.578851  0.183879  1
  Ga  Ga6  1  0.814703  0.422012  0.814703  1
  Ga  Ga7  1  0.422012  0.814703  0.814703  1
  Ga  Ga8  1  0.814703  0.814703  0.422012  1
  Ga  Ga9  1  0.804672  0.207256  0.207256  1
  Ga  Ga10  1  0.207256  0.207256  0.804672  1
  Ga  Ga11  1  0.207256  0.804672  0.207256  1
  Ga  Ga12  1  0.789198  0.197333  0.789198  1
  Ga  Ga13  1  0.197333  0.789198  0.789198  1
  Ga  Ga14  1  0.789198  0.789198  0.197333  1
  Sn  Sn15  1  0.456013  0.456013  0.456013  1
