# generated using pymatgen
data_YbSn6PdRu3
_symmetry_space_group_name_H-M   'P 1'
_cell_length_a   6.97141183
_cell_length_b   6.97141211
_cell_length_c   6.99526490
_cell_angle_alpha   120.24417240
_cell_angle_beta   120.24417591
_cell_angle_gamma   89.44800416
_symmetry_Int_Tables_number   1
_chemical_formula_structural   YbSn6PdRu3
_chemical_formula_sum   'Yb1 Sn6 Pd1 Ru3'
_cell_volume   239.77108657
_cell_formula_units_Z   1
loop_
 _symmetry_equiv_pos_site_id
 _symmetry_equiv_pos_as_xyz
  1  'x, y, z'
loop_
 _atom_site_type_symbol
 _atom_site_label
 _atom_site_symmetry_multiplicity
 _atom_site_fract_x
 _atom_site_fract_y
 _atom_site_fract_z
 _atom_site_occupancy
  Yb  Yb0  1  0.993155  0.993155  0.992201  1
  Sn  Sn1  1  0.988460  0.500762  0.503154  1
  Sn  Sn2  1  0.465842  0.465842  0.337306  1
  Sn  Sn3  1  0.536467  0.894544  0.015287  1
  Sn  Sn4  1  0.894544  0.536467  0.015287  1
  Sn  Sn5  1  0.118564  0.118564  0.662186  1
  Sn  Sn6  1  0.500762  0.988460  0.503154  1
  Pd  Pd7  1  0.406131  0.406131  0.645827  1
  Ru  Ru8  1  0.751645  0.751645  0.339900  1
  Ru  Ru9  1  0.251092  0.593338  0.992847  1
  Ru  Ru10  1  0.593338  0.251092  0.992847  1
