# generated using pymatgen
data_Nd2Fe5P6Ir5
_symmetry_space_group_name_H-M   'P 1'
_cell_length_a   3.86628000
_cell_length_b   10.45287000
_cell_length_c   12.34846300
_cell_angle_alpha   90.00000000
_cell_angle_beta   90.00000000
_cell_angle_gamma   90.00000000
_symmetry_Int_Tables_number   1
_chemical_formula_structural   Nd2Fe5P6Ir5
_chemical_formula_sum   'Nd4 Fe10 P12 Ir10'
_cell_volume   499.04735357
_cell_formula_units_Z   2
loop_
 _symmetry_equiv_pos_site_id
 _symmetry_equiv_pos_as_xyz
  1  'x, y, z'
loop_
 _atom_site_type_symbol
 _atom_site_label
 _atom_site_symmetry_multiplicity
 _atom_site_fract_x
 _atom_site_fract_y
 _atom_site_fract_z
 _atom_site_occupancy
  Nd  Nd0  1  0.250000  0.584537  0.714037  1
  Nd  Nd1  1  0.250000  0.915463  0.214037  1
  Nd  Nd2  1  0.750000  0.423192  0.289081  1
  Nd  Nd3  1  0.750000  0.076808  0.789081  1
  Fe  Fe4  1  0.750000  0.774873  0.829964  1
  Fe  Fe5  1  0.750000  0.725127  0.329964  1
  Fe  Fe6  1  0.250000  0.874200  0.695321  1
  Fe  Fe7  1  0.250000  0.625800  0.195321  1
  Fe  Fe8  1  0.750000  0.121103  0.303448  1
  Fe  Fe9  1  0.750000  0.378897  0.803448  1
  Fe  Fe10  1  0.250000  0.457785  0.937943  1
  Fe  Fe11  1  0.250000  0.042215  0.437943  1
  Fe  Fe12  1  0.750000  0.542049  0.062760  1
  Fe  Fe13  1  0.750000  0.957951  0.562760  1
  P  P14  1  0.250000  0.439964  0.110794  1
  P  P15  1  0.250000  0.060036  0.610794  1
  P  P16  1  0.750000  0.569541  0.889170  1
  P  P17  1  0.750000  0.930459  0.389170  1
  P  P18  1  0.250000  0.274152  0.862457  1
  P  P19  1  0.250000  0.225848  0.362457  1
  P  P20  1  0.750000  0.723592  0.146883  1
  P  P21  1  0.750000  0.776408  0.646883  1
  P  P22  1  0.250000  0.611101  0.375867  1
  P  P23  1  0.250000  0.888899  0.875867  1
  P  P24  1  0.750000  0.402248  0.618650  1
  P  P25  1  0.750000  0.097752  0.118650  1
  Ir  Ir26  1  0.250000  0.708169  0.983152  1
  Ir  Ir27  1  0.250000  0.791831  0.483152  1
  Ir  Ir28  1  0.750000  0.284373  0.010059  1
  Ir  Ir29  1  0.750000  0.215627  0.510059  1
  Ir  Ir30  1  0.250000  0.412117  0.477617  1
  Ir  Ir31  1  0.250000  0.087883  0.977617  1
  Ir  Ir32  1  0.750000  0.599643  0.520409  1
  Ir  Ir33  1  0.750000  0.900357  0.020409  1
  Ir  Ir34  1  0.250000  0.227996  0.172388  1
  Ir  Ir35  1  0.250000  0.272004  0.672388  1
