# generated using pymatgen
data_Y4Hf2ZrO12
_symmetry_space_group_name_H-M   'P 1'
_cell_length_a   6.35504084
_cell_length_b   6.40186001
_cell_length_c   6.59999158
_cell_angle_alpha   99.86689489
_cell_angle_beta   98.28336470
_cell_angle_gamma   99.69060622
_symmetry_Int_Tables_number   1
_chemical_formula_structural   Y4Hf2ZrO12
_chemical_formula_sum   'Y4 Hf2 Zr1 O12'
_cell_volume   256.60141722
_cell_formula_units_Z   1
loop_
 _symmetry_equiv_pos_site_id
 _symmetry_equiv_pos_as_xyz
  1  'x, y, z'
loop_
 _atom_site_type_symbol
 _atom_site_label
 _atom_site_symmetry_multiplicity
 _atom_site_fract_x
 _atom_site_fract_y
 _atom_site_fract_z
 _atom_site_occupancy
  Y  Y0  1  0.698511  0.866213  0.389240  1
  Y  Y1  1  0.385124  0.699477  0.866310  1
  Y  Y2  1  0.304243  0.135495  0.610975  1
  Y  Y3  1  0.614464  0.299136  0.132373  1
  Hf  Hf4  1  0.998822  0.999319  0.998102  1
  Hf  Hf5  1  0.848313  0.397920  0.667544  1
  Zr  Zr6  1  0.151469  0.602963  0.330284  1
  O  O7  1  0.588635  0.415559  0.818657  1
  O  O8  1  0.827823  0.570328  0.427881  1
  O  O9  1  0.410717  0.811145  0.565245  1
  O  O10  1  0.415159  0.583487  0.178823  1
  O  O11  1  0.168274  0.429095  0.576946  1
  O  O12  1  0.593291  0.190539  0.436030  1
  O  O13  1  0.017269  0.679036  0.879130  1
  O  O14  1  0.919502  0.090429  0.700721  1
  O  O15  1  0.687075  0.933285  0.057211  1
  O  O16  1  0.980351  0.316790  0.121961  1
  O  O17  1  0.078859  0.914303  0.300857  1
  O  O18  1  0.312099  0.065479  0.941711  1
