# generated using pymatgen
data_Pa4Al24Ir5Pt4
_symmetry_space_group_name_H-M   'P 1'
_cell_length_a   7.55439329
_cell_length_b   7.59604006
_cell_length_c   13.03000712
_cell_angle_alpha   84.12066229
_cell_angle_beta   78.72316320
_cell_angle_gamma   59.78641762
_symmetry_Int_Tables_number   1
_chemical_formula_structural   Pa4Al24Ir5Pt4
_chemical_formula_sum   'Pa4 Al24 Ir5 Pt4'
_cell_volume   633.65362871
_cell_formula_units_Z   1
loop_
 _symmetry_equiv_pos_site_id
 _symmetry_equiv_pos_as_xyz
  1  'x, y, z'
loop_
 _atom_site_type_symbol
 _atom_site_label
 _atom_site_symmetry_multiplicity
 _atom_site_fract_x
 _atom_site_fract_y
 _atom_site_fract_z
 _atom_site_occupancy
  Pa  Pa0  1  0.389657  0.173126  0.805609  1
  Pa  Pa1  1  0.610343  0.826874  0.194391  1
  Pa  Pa2  1  0.739750  0.498091  0.805037  1
  Pa  Pa3  1  0.260250  0.501909  0.194963  1
  Al  Al4  1  0.682849  0.835166  0.946031  1
  Al  Al5  1  0.317151  0.164834  0.053969  1
  Al  Al6  1  0.145733  0.827049  0.560597  1
  Al  Al7  1  0.854267  0.172951  0.439403  1
  Al  Al8  1  0.477334  0.170563  0.557495  1
  Al  Al9  1  0.522666  0.829437  0.442505  1
  Al  Al10  1  0.211731  0.166663  0.330924  1
  Al  Al11  1  0.788269  0.833337  0.669076  1
  Al  Al12  1  0.432989  0.510885  0.669197  1
  Al  Al13  1  0.567011  0.489115  0.330803  1
  Al  Al14  1  0.110864  0.154820  0.665554  1
  Al  Al15  1  0.889136  0.845180  0.334446  1
  Al  Al16  1  0.352993  0.500067  0.946116  1
  Al  Al17  1  0.647007  0.499933  0.053884  1
  Al  Al18  1  0.013708  0.167556  0.958143  1
  Al  Al19  1  0.986292  0.832444  0.041857  1
  Al  Al20  1  0.181119  0.500387  0.444589  1
  Al  Al21  1  0.818881  0.499613  0.555411  1
  Al  Al22  1  0.737213  0.161814  0.179324  1
  Al  Al23  1  0.262787  0.838186  0.820676  1
  Al  Al24  1  0.060287  0.635186  0.818463  1
  Al  Al25  1  0.939713  0.364814  0.181537  1
  Al  Al26  1  0.855467  0.042017  0.820223  1
  Al  Al27  1  0.144533  0.957983  0.179777  1
  Ir  Ir28  1  0.118864  0.486487  0.645120  1
  Ir  Ir29  1  0.881136  0.513513  0.354880  1
  Ir  Ir30  1  0.654384  0.172791  0.000009  1
  Ir  Ir31  1  0.345616  0.827209  0.999991  1
  Ir  Ir32  1  0.000000  0.500000  0.000000  1
  Pt  Pt33  1  0.536015  0.167455  0.358303  1
  Pt  Pt34  1  0.463985  0.832545  0.641697  1
  Pt  Pt35  1  0.775304  0.176189  0.640468  1
  Pt  Pt36  1  0.224696  0.823811  0.359532  1
