# generated using pymatgen
data_Th4Sc6Si5Ge3
_symmetry_space_group_name_H-M   'P 1'
_cell_length_a   7.39211563
_cell_length_b   7.50093318
_cell_length_c   14.18291131
_cell_angle_alpha   89.94271358
_cell_angle_beta   89.89013747
_cell_angle_gamma   89.97072678
_symmetry_Int_Tables_number   1
_chemical_formula_structural   Th4Sc6Si5Ge3
_chemical_formula_sum   'Th8 Sc12 Si10 Ge6'
_cell_volume   786.40879812
_cell_formula_units_Z   2
loop_
 _symmetry_equiv_pos_site_id
 _symmetry_equiv_pos_as_xyz
  1  'x, y, z'
loop_
 _atom_site_type_symbol
 _atom_site_label
 _atom_site_symmetry_multiplicity
 _atom_site_fract_x
 _atom_site_fract_y
 _atom_site_fract_z
 _atom_site_occupancy
  Th  Th0  1  0.007597  0.677723  0.598749  1
  Th  Th1  1  0.992403  0.322277  0.401251  1
  Th  Th2  1  0.492247  0.177946  0.401119  1
  Th  Th3  1  0.993220  0.324433  0.097229  1
  Th  Th4  1  0.507753  0.822054  0.598881  1
  Th  Th5  1  0.006780  0.675567  0.902771  1
  Th  Th6  1  0.507041  0.819528  0.902233  1
  Th  Th7  1  0.492959  0.180472  0.097767  1
  Sc  Sc8  1  0.180315  0.000123  0.750507  1
  Sc  Sc9  1  0.819685  0.999877  0.249493  1
  Sc  Sc10  1  0.319460  0.500672  0.248436  1
  Sc  Sc11  1  0.680540  0.499328  0.751564  1
  Sc  Sc12  1  0.353300  0.331778  0.626513  1
  Sc  Sc13  1  0.646700  0.668222  0.373487  1
  Sc  Sc14  1  0.146681  0.831875  0.373452  1
  Sc  Sc15  1  0.645881  0.667247  0.125470  1
  Sc  Sc16  1  0.853319  0.168125  0.626548  1
  Sc  Sc17  1  0.354119  0.332753  0.874530  1
  Sc  Sc18  1  0.851626  0.170159  0.874395  1
  Sc  Sc19  1  0.148374  0.829841  0.125605  1
  Si  Si20  1  0.056062  0.376740  0.750096  1
  Si  Si21  1  0.943938  0.623260  0.249904  1
  Si  Si22  1  0.444277  0.877309  0.249817  1
  Si  Si23  1  0.555723  0.122691  0.750183  1
  Si  Si24  1  0.308269  0.623356  0.750101  1
  Si  Si25  1  0.691731  0.376644  0.249899  1
  Si  Si26  1  0.190934  0.123324  0.249411  1
  Si  Si27  1  0.809066  0.876676  0.750589  1
  Si  Si28  1  0.684999  0.457814  0.957656  1
  Si  Si29  1  0.315001  0.542186  0.042344  1
  Ge  Ge30  1  0.187917  0.043725  0.543058  1
  Ge  Ge31  1  0.812083  0.956275  0.456942  1
  Ge  Ge32  1  0.312177  0.543581  0.456874  1
  Ge  Ge33  1  0.812671  0.956852  0.043137  1
  Ge  Ge34  1  0.687823  0.456419  0.543126  1
  Ge  Ge35  1  0.187329  0.043148  0.956863  1
