# generated using pymatgen
data_ErBi3(Rh2O7)2
_symmetry_space_group_name_H-M   'P 1'
_cell_length_a   7.27981498
_cell_length_b   7.33334829
_cell_length_c   7.33334800
_cell_angle_alpha   60.00000130
_cell_angle_beta   59.75644450
_cell_angle_gamma   59.75644819
_symmetry_Int_Tables_number   1
_chemical_formula_structural   ErBi3(Rh2O7)2
_chemical_formula_sum   'Er1 Bi3 Rh4 O14'
_cell_volume   275.80449067
_cell_formula_units_Z   1
loop_
 _symmetry_equiv_pos_site_id
 _symmetry_equiv_pos_as_xyz
  1  'x, y, z'
loop_
 _atom_site_type_symbol
 _atom_site_label
 _atom_site_symmetry_multiplicity
 _atom_site_fract_x
 _atom_site_fract_y
 _atom_site_fract_z
 _atom_site_occupancy
  Er  Er0  1  0.625000  0.125000  0.125000  1
  Bi  Bi1  1  0.125000  0.125000  0.125000  1
  Bi  Bi2  1  0.125000  0.625000  0.125000  1
  Bi  Bi3  1  0.125000  0.125000  0.625000  1
  Rh  Rh4  1  0.625000  0.625000  0.625000  1
  Rh  Rh5  1  0.625000  0.625000  0.125000  1
  Rh  Rh6  1  0.125000  0.625000  0.625000  1
  Rh  Rh7  1  0.625000  0.125000  0.625000  1
  O  O8  1  0.257946  0.247351  0.247351  1
  O  O9  1  0.291926  0.707955  0.292164  1
  O  O10  1  0.958074  0.957836  0.542045  1
  O  O11  1  0.544497  0.961627  0.532248  1
  O  O12  1  0.705503  0.717752  0.288373  1
  O  O13  1  0.958074  0.542045  0.542045  1
  O  O14  1  0.705503  0.288373  0.717752  1
  O  O15  1  0.291926  0.292164  0.707955  1
  O  O16  1  0.705503  0.288373  0.288373  1
  O  O17  1  0.291926  0.707955  0.707955  1
  O  O18  1  0.958074  0.542045  0.957836  1
  O  O19  1  0.544497  0.532248  0.961627  1
  O  O20  1  0.992054  0.002649  0.002649  1
  O  O21  1  0.544497  0.961627  0.961627  1
