# generated using pymatgen
data_Hf18ZnCuRe8
_symmetry_space_group_name_H-M   'P 1'
_cell_length_a   8.56797700
_cell_length_b   8.61371190
_cell_length_c   8.61371100
_cell_angle_alpha   119.99983806
_cell_angle_beta   90.00000000
_cell_angle_gamma   90.00000000
_symmetry_Int_Tables_number   1
_chemical_formula_structural   Hf18ZnCuRe8
_chemical_formula_sum   'Hf18 Zn1 Cu1 Re8'
_cell_volume   550.54176517
_cell_formula_units_Z   1
loop_
 _symmetry_equiv_pos_site_id
 _symmetry_equiv_pos_as_xyz
  1  'x, y, z'
loop_
 _atom_site_type_symbol
 _atom_site_label
 _atom_site_symmetry_multiplicity
 _atom_site_fract_x
 _atom_site_fract_y
 _atom_site_fract_z
 _atom_site_occupancy
  Hf  Hf0  1  0.550248  0.806090  0.612187  1
  Hf  Hf1  1  0.550238  0.806094  0.193906  1
  Hf  Hf2  1  0.550248  0.387813  0.193910  1
  Hf  Hf3  1  0.446890  0.195717  0.391441  1
  Hf  Hf4  1  0.446911  0.195727  0.804273  1
  Hf  Hf5  1  0.446890  0.608559  0.804283  1
  Hf  Hf6  1  0.053110  0.195717  0.391441  1
  Hf  Hf7  1  0.053089  0.195727  0.804273  1
  Hf  Hf8  1  0.053110  0.608559  0.804283  1
  Hf  Hf9  1  0.949752  0.806090  0.612187  1
  Hf  Hf10  1  0.949762  0.806094  0.193906  1
  Hf  Hf11  1  0.949752  0.387813  0.193910  1
  Hf  Hf12  1  0.750000  0.459179  0.918337  1
  Hf  Hf13  1  0.750000  0.459166  0.540834  1
  Hf  Hf14  1  0.750000  0.081663  0.540821  1
  Hf  Hf15  1  0.250000  0.540763  0.081544  1
  Hf  Hf16  1  0.250000  0.540778  0.459222  1
  Hf  Hf17  1  0.250000  0.918456  0.459237  1
  Zn  Zn18  1  0.750000  0.666667  0.333333  1
  Cu  Cu19  1  0.250000  0.333345  0.666655  1
  Re  Re20  1  0.750000  0.110378  0.220764  1
  Re  Re21  1  0.750000  0.110365  0.889635  1
  Re  Re22  1  0.750000  0.779236  0.889622  1
  Re  Re23  1  0.250000  0.889370  0.778743  1
  Re  Re24  1  0.250000  0.889366  0.110634  1
  Re  Re25  1  0.250000  0.221257  0.110630  1
  Re  Re26  1  0.499559  0.000007  0.999993  1
  Re  Re27  1  0.000441  0.000007  0.999993  1
