# generated using pymatgen
data_La3CeV4F28
_symmetry_space_group_name_H-M   'P 1'
_cell_length_a   5.66908317
_cell_length_b   9.22112252
_cell_length_c   12.26501300
_cell_angle_alpha   62.77525247
_cell_angle_beta   90.01400790
_cell_angle_gamma   90.01118036
_symmetry_Int_Tables_number   1
_chemical_formula_structural   La3CeV4F28
_chemical_formula_sum   'La3 Ce1 V4 F28'
_cell_volume   570.12919821
_cell_formula_units_Z   1
loop_
 _symmetry_equiv_pos_site_id
 _symmetry_equiv_pos_as_xyz
  1  'x, y, z'
loop_
 _atom_site_type_symbol
 _atom_site_label
 _atom_site_symmetry_multiplicity
 _atom_site_fract_x
 _atom_site_fract_y
 _atom_site_fract_z
 _atom_site_occupancy
  La  La0  1  0.756937  0.802317  0.772327  1
  La  La1  1  0.257184  0.188041  0.736071  1
  La  La2  1  0.242604  0.200200  0.230708  1
  Ce  Ce3  1  0.738586  0.804214  0.266547  1
  V  V4  1  0.753603  0.271282  0.957941  1
  V  V5  1  0.252567  0.726511  0.540236  1
  V  V6  1  0.243882  0.727675  0.045699  1
  V  V7  1  0.744665  0.275875  0.457021  1
  F  F8  1  0.444181  0.709090  0.926635  1
  F  F9  1  0.938952  0.293840  0.575112  1
  F  F10  1  0.562307  0.288140  0.078586  1
  F  F11  1  0.052698  0.710352  0.420667  1
  F  F12  1  0.468712  0.286645  0.541347  1
  F  F13  1  0.965197  0.713570  0.958489  1
  F  F14  1  0.531102  0.718069  0.449842  1
  F  F15  1  0.031132  0.281011  0.043478  1
  F  F16  1  0.764707  0.495223  0.868028  1
  F  F17  1  0.267301  0.503700  0.627329  1
  F  F18  1  0.234343  0.497053  0.140211  1
  F  F19  1  0.737403  0.502056  0.365480  1
  F  F20  1  0.758743  0.048517  0.046361  1
  F  F21  1  0.259544  0.949067  0.450928  1
  F  F22  1  0.239413  0.955924  0.953740  1
  F  F23  1  0.739441  0.054028  0.542765  1
  F  F24  1  0.985777  0.731839  0.629985  1
  F  F25  1  0.481616  0.269153  0.869202  1
  F  F26  1  0.014473  0.267693  0.367240  1
  F  F27  1  0.518436  0.733320  0.144325  1
  F  F28  1  0.039660  0.750916  0.168941  1
  F  F29  1  0.553855  0.258745  0.334173  1
  F  F30  1  0.944547  0.256557  0.835457  1
  F  F31  1  0.450433  0.743670  0.659425  1
  F  F32  1  0.426332  0.967782  0.230043  1
  F  F33  1  0.909485  0.017368  0.269544  1
  F  F34  1  0.597847  0.032707  0.770262  1
  F  F35  1  0.092335  0.967851  0.725859  1
