# generated using pymatgen
data_Ce4Tm12Tl3CdRu4
_symmetry_space_group_name_H-M   'P 1'
_cell_length_a   9.59188789
_cell_length_b   9.59188832
_cell_length_c   9.59188814
_cell_angle_alpha   59.92428326
_cell_angle_beta   59.92428214
_cell_angle_gamma   59.92427872
_symmetry_Int_Tables_number   1
_chemical_formula_structural   Ce4Tm12Tl3CdRu4
_chemical_formula_sum   'Ce4 Tm12 Tl3 Cd1 Ru4'
_cell_volume   622.94650376
_cell_formula_units_Z   1
loop_
 _symmetry_equiv_pos_site_id
 _symmetry_equiv_pos_as_xyz
  1  'x, y, z'
loop_
 _atom_site_type_symbol
 _atom_site_label
 _atom_site_symmetry_multiplicity
 _atom_site_fract_x
 _atom_site_fract_y
 _atom_site_fract_z
 _atom_site_occupancy
  Ce  Ce0  1  0.348291  0.348291  0.958473  1
  Ce  Ce1  1  0.348291  0.958473  0.348291  1
  Ce  Ce2  1  0.958473  0.348291  0.348291  1
  Ce  Ce3  1  0.346552  0.346552  0.346552  1
  Tm  Tm4  1  0.562267  0.562267  0.935025  1
  Tm  Tm5  1  0.939425  0.561268  0.939425  1
  Tm  Tm6  1  0.561268  0.939425  0.939425  1
  Tm  Tm7  1  0.939425  0.939425  0.561268  1
  Tm  Tm8  1  0.562267  0.935025  0.562267  1
  Tm  Tm9  1  0.935025  0.562267  0.562267  1
  Tm  Tm10  1  0.187720  0.187720  0.812141  1
  Tm  Tm11  1  0.813351  0.185778  0.813351  1
  Tm  Tm12  1  0.185777  0.813352  0.813351  1
  Tm  Tm13  1  0.813351  0.813352  0.185778  1
  Tm  Tm14  1  0.187719  0.812141  0.187719  1
  Tm  Tm15  1  0.812141  0.187720  0.187720  1
  Tl  Tl16  1  0.584916  0.584916  0.244222  1
  Tl  Tl17  1  0.584916  0.244222  0.584916  1
  Tl  Tl18  1  0.244222  0.584916  0.584916  1
  Cd  Cd19  1  0.583045  0.583045  0.583045  1
  Ru  Ru20  1  0.144821  0.144821  0.567452  1
  Ru  Ru21  1  0.144821  0.567452  0.144821  1
  Ru  Ru22  1  0.567452  0.144821  0.144821  1
  Ru  Ru23  1  0.144461  0.144461  0.144461  1
