# generated using pymatgen
data_Y2LuGa5
_symmetry_space_group_name_H-M   'P 1'
_cell_length_a   6.07997500
_cell_length_b   9.60219800
_cell_length_c   11.61228400
_cell_angle_alpha   90.00000000
_cell_angle_beta   90.00000000
_cell_angle_gamma   90.00000000
_symmetry_Int_Tables_number   1
_chemical_formula_structural   Y2LuGa5
_chemical_formula_sum   'Y8 Lu4 Ga20'
_cell_volume   677.93818963
_cell_formula_units_Z   4
loop_
 _symmetry_equiv_pos_site_id
 _symmetry_equiv_pos_as_xyz
  1  'x, y, z'
loop_
 _atom_site_type_symbol
 _atom_site_label
 _atom_site_symmetry_multiplicity
 _atom_site_fract_x
 _atom_site_fract_y
 _atom_site_fract_z
 _atom_site_occupancy
  Y  Y0  1  0.890357  0.506747  0.350601  1
  Y  Y1  1  0.609643  0.993253  0.850601  1
  Y  Y2  1  0.109643  0.006747  0.649399  1
  Y  Y3  1  0.390357  0.493253  0.149399  1
  Y  Y4  1  0.109643  0.493253  0.649399  1
  Y  Y5  1  0.390357  0.006747  0.149399  1
  Y  Y6  1  0.890357  0.993253  0.350601  1
  Y  Y7  1  0.609643  0.506747  0.850601  1
  Lu  Lu8  1  0.850446  0.750000  0.075499  1
  Lu  Lu9  1  0.649554  0.750000  0.575499  1
  Lu  Lu10  1  0.149554  0.250000  0.924501  1
  Lu  Lu11  1  0.350446  0.250000  0.424501  1
  Ga  Ga12  1  0.875551  0.053764  0.088923  1
  Ga  Ga13  1  0.624449  0.446236  0.588923  1
  Ga  Ga14  1  0.124449  0.553764  0.911077  1
  Ga  Ga15  1  0.375551  0.946236  0.411077  1
  Ga  Ga16  1  0.124449  0.946236  0.911077  1
  Ga  Ga17  1  0.375551  0.553764  0.411077  1
  Ga  Ga18  1  0.875551  0.446236  0.088923  1
  Ga  Ga19  1  0.624449  0.053764  0.588923  1
  Ga  Ga20  1  0.167124  0.750000  0.255013  1
  Ga  Ga21  1  0.332876  0.750000  0.755013  1
  Ga  Ga22  1  0.832876  0.250000  0.744987  1
  Ga  Ga23  1  0.667124  0.250000  0.244987  1
  Ga  Ga24  1  0.380659  0.750000  0.001867  1
  Ga  Ga25  1  0.119341  0.750000  0.501867  1
  Ga  Ga26  1  0.619341  0.250000  0.998133  1
  Ga  Ga27  1  0.880659  0.250000  0.498133  1
  Ga  Ga28  1  0.602844  0.750000  0.298824  1
  Ga  Ga29  1  0.897156  0.750000  0.798824  1
  Ga  Ga30  1  0.397156  0.250000  0.701176  1
  Ga  Ga31  1  0.102844  0.250000  0.201176  1
