# generated using pymatgen
data_Yb3Y2Ho(Si3Ru)8
_symmetry_space_group_name_H-M   'P 1'
_cell_length_a   10.16252254
_cell_length_b   10.16255134
_cell_length_c   8.14461832
_cell_angle_alpha   89.99616132
_cell_angle_beta   89.98797371
_cell_angle_gamma   132.75989031
_symmetry_Int_Tables_number   1
_chemical_formula_structural   Yb3Y2Ho(Si3Ru)8
_chemical_formula_sum   'Yb3 Y2 Ho1 Si24 Ru8'
_cell_volume   617.57899144
_cell_formula_units_Z   1
loop_
 _symmetry_equiv_pos_site_id
 _symmetry_equiv_pos_as_xyz
  1  'x, y, z'
loop_
 _atom_site_type_symbol
 _atom_site_label
 _atom_site_symmetry_multiplicity
 _atom_site_fract_x
 _atom_site_fract_y
 _atom_site_fract_z
 _atom_site_occupancy
  Yb  Yb0  1  0.499940  0.500064  0.500005  1
  Yb  Yb1  1  0.501000  0.000934  0.749766  1
  Yb  Yb2  1  0.999059  0.498992  0.250234  1
  Y  Y3  1  0.000076  0.999931  0.999999  1
  Y  Y4  1  0.498532  0.998547  0.250266  1
  Ho  Ho5  1  0.001403  0.501415  0.749722  1
  Si  Si6  1  0.795157  0.205272  0.500211  1
  Si  Si7  1  0.294215  0.705327  0.999775  1
  Si  Si8  1  0.205167  0.794379  0.500229  1
  Si  Si9  1  0.705477  0.294956  0.999785  1
  Si  Si10  1  0.332868  0.337819  0.831057  1
  Si  Si11  1  0.662199  0.667135  0.168933  1
  Si  Si12  1  0.169764  0.164926  0.333890  1
  Si  Si13  1  0.835094  0.830241  0.666123  1
  Si  Si14  1  0.123100  0.889255  0.728148  1
  Si  Si15  1  0.110560  0.876792  0.271803  1
  Si  Si16  1  0.609429  0.376573  0.229730  1
  Si  Si17  1  0.623626  0.390667  0.770322  1
  Si  Si18  1  0.875989  0.109685  0.271836  1
  Si  Si19  1  0.890413  0.124210  0.728114  1
  Si  Si20  1  0.389641  0.622828  0.770189  1
  Si  Si21  1  0.377073  0.610177  0.229860  1
  Si  Si22  1  0.346498  0.113178  0.505972  1
  Si  Si23  1  0.886918  0.653508  0.494181  1
  Si  Si24  1  0.389074  0.155038  0.006473  1
  Si  Si25  1  0.844968  0.610826  0.993364  1
  Si  Si26  1  0.653479  0.886466  0.493035  1
  Si  Si27  1  0.113435  0.346527  0.507132  1
  Si  Si28  1  0.610652  0.844869  0.994832  1
  Si  Si29  1  0.155132  0.389440  0.005016  1
  Ru  Ru30  1  0.671158  0.329379  0.500246  1
  Ru  Ru31  1  0.169223  0.830271  0.999730  1
  Ru  Ru32  1  0.329457  0.670030  0.500272  1
  Ru  Ru33  1  0.830184  0.170358  0.999753  1
  Ru  Ru34  1  0.125375  0.126383  0.626469  1
  Ru  Ru35  1  0.873603  0.874644  0.373501  1
  Ru  Ru36  1  0.372419  0.371352  0.124442  1
  Ru  Ru37  1  0.628646  0.627604  0.875584  1
