# generated using pymatgen
data_Dy2Nb3Si4
_symmetry_space_group_name_H-M   'P 1'
_cell_length_a   6.88488200
_cell_length_b   7.08222800
_cell_length_c   13.45501400
_cell_angle_alpha   90.00000000
_cell_angle_beta   90.00000000
_cell_angle_gamma   90.00000000
_symmetry_Int_Tables_number   1
_chemical_formula_structural   Dy2Nb3Si4
_chemical_formula_sum   'Dy8 Nb12 Si16'
_cell_volume   656.07057400
_cell_formula_units_Z   4
loop_
 _symmetry_equiv_pos_site_id
 _symmetry_equiv_pos_as_xyz
  1  'x, y, z'
loop_
 _atom_site_type_symbol
 _atom_site_label
 _atom_site_symmetry_multiplicity
 _atom_site_fract_x
 _atom_site_fract_y
 _atom_site_fract_z
 _atom_site_occupancy
  Dy  Dy0  1  0.502821  0.328655  0.095758  1
  Dy  Dy1  1  0.002821  0.171345  0.404242  1
  Dy  Dy2  1  0.497179  0.671345  0.595758  1
  Dy  Dy3  1  0.997179  0.828655  0.904242  1
  Dy  Dy4  1  0.497179  0.671345  0.904242  1
  Dy  Dy5  1  0.997179  0.828655  0.595758  1
  Dy  Dy6  1  0.502821  0.328655  0.404242  1
  Dy  Dy7  1  0.002821  0.171345  0.095758  1
  Nb  Nb8  1  0.664561  0.008530  0.750000  1
  Nb  Nb9  1  0.164561  0.491470  0.750000  1
  Nb  Nb10  1  0.335439  0.991470  0.250000  1
  Nb  Nb11  1  0.835439  0.508530  0.250000  1
  Nb  Nb12  1  0.838525  0.324705  0.625527  1
  Nb  Nb13  1  0.338525  0.175295  0.874473  1
  Nb  Nb14  1  0.161475  0.675295  0.125527  1
  Nb  Nb15  1  0.661475  0.824705  0.374473  1
  Nb  Nb16  1  0.161475  0.675295  0.374473  1
  Nb  Nb17  1  0.661475  0.824705  0.125527  1
  Nb  Nb18  1  0.838525  0.324705  0.874473  1
  Nb  Nb19  1  0.338525  0.175295  0.625527  1
  Si  Si20  1  0.796701  0.625998  0.750000  1
  Si  Si21  1  0.296701  0.874002  0.750000  1
  Si  Si22  1  0.203299  0.374002  0.250000  1
  Si  Si23  1  0.703299  0.125998  0.250000  1
  Si  Si24  1  0.543384  0.376179  0.750000  1
  Si  Si25  1  0.043384  0.123821  0.750000  1
  Si  Si26  1  0.456616  0.623821  0.250000  1
  Si  Si27  1  0.956616  0.876179  0.250000  1
  Si  Si28  1  0.663421  0.037290  0.540502  1
  Si  Si29  1  0.163421  0.462710  0.959498  1
  Si  Si30  1  0.336579  0.962710  0.040502  1
  Si  Si31  1  0.836579  0.537290  0.459498  1
  Si  Si32  1  0.336579  0.962710  0.459498  1
  Si  Si33  1  0.836579  0.537290  0.040502  1
  Si  Si34  1  0.663421  0.037290  0.959498  1
  Si  Si35  1  0.163421  0.462710  0.540502  1
