# generated using pymatgen
data_Hf4Pt2C
_symmetry_space_group_name_H-M   'P 1'
_cell_length_a   8.82350074
_cell_length_b   8.82350143
_cell_length_c   8.82350000
_cell_angle_alpha   60.00000537
_cell_angle_beta   60.00000276
_cell_angle_gamma   60.00000012
_symmetry_Int_Tables_number   1
_chemical_formula_structural   Hf4Pt2C
_chemical_formula_sum   'Hf16 Pt8 C4'
_cell_volume   485.74440401
_cell_formula_units_Z   4
loop_
 _symmetry_equiv_pos_site_id
 _symmetry_equiv_pos_as_xyz
  1  'x, y, z'
loop_
 _atom_site_type_symbol
 _atom_site_label
 _atom_site_symmetry_multiplicity
 _atom_site_fract_x
 _atom_site_fract_y
 _atom_site_fract_z
 _atom_site_occupancy
  Hf  Hf0  1  0.125000  0.625000  0.625000  1
  Hf  Hf1  1  0.625000  0.125000  0.625000  1
  Hf  Hf2  1  0.625000  0.625000  0.125000  1
  Hf  Hf3  1  0.625000  0.625000  0.625000  1
  Hf  Hf4  1  0.817787  0.817787  0.182213  1
  Hf  Hf5  1  0.182213  0.182213  0.817787  1
  Hf  Hf6  1  0.817787  0.182213  0.817787  1
  Hf  Hf7  1  0.182213  0.817787  0.182213  1
  Hf  Hf8  1  0.182213  0.817787  0.817787  1
  Hf  Hf9  1  0.817787  0.182213  0.182213  1
  Hf  Hf10  1  0.432213  0.432213  0.067787  1
  Hf  Hf11  1  0.067787  0.067787  0.432213  1
  Hf  Hf12  1  0.432213  0.067787  0.432213  1
  Hf  Hf13  1  0.067787  0.432213  0.067787  1
  Hf  Hf14  1  0.067787  0.432213  0.432213  1
  Hf  Hf15  1  0.432213  0.067787  0.067787  1
  Pt  Pt16  1  0.774346  0.408551  0.408551  1
  Pt  Pt17  1  0.408551  0.774346  0.408551  1
  Pt  Pt18  1  0.408551  0.408551  0.774346  1
  Pt  Pt19  1  0.408551  0.408551  0.408551  1
  Pt  Pt20  1  0.475654  0.841449  0.841449  1
  Pt  Pt21  1  0.841449  0.475654  0.841449  1
  Pt  Pt22  1  0.841449  0.841449  0.475654  1
  Pt  Pt23  1  0.841449  0.841449  0.841449  1
  C  C24  1  0.625000  0.125000  0.125000  1
  C  C25  1  0.125000  0.625000  0.125000  1
  C  C26  1  0.125000  0.125000  0.625000  1
  C  C27  1  0.125000  0.125000  0.125000  1
