# generated using pymatgen
data_La2Ga2PdRh
_symmetry_space_group_name_H-M   'P 1'
_cell_length_a   4.50122400
_cell_length_b   7.13330351
_cell_length_c   8.04433262
_cell_angle_alpha   89.96586066
_cell_angle_beta   90.00000000
_cell_angle_gamma   90.00000000
_symmetry_Int_Tables_number   1
_chemical_formula_structural   La2Ga2PdRh
_chemical_formula_sum   'La4 Ga4 Pd2 Rh2'
_cell_volume   258.29218803
_cell_formula_units_Z   2
loop_
 _symmetry_equiv_pos_site_id
 _symmetry_equiv_pos_as_xyz
  1  'x, y, z'
loop_
 _atom_site_type_symbol
 _atom_site_label
 _atom_site_symmetry_multiplicity
 _atom_site_fract_x
 _atom_site_fract_y
 _atom_site_fract_z
 _atom_site_occupancy
  La  La0  1  0.250000  0.540604  0.185566  1
  La  La1  1  0.750000  0.459396  0.814434  1
  La  La2  1  0.750000  0.963943  0.678064  1
  La  La3  1  0.250000  0.036057  0.321936  1
  Ga  Ga4  1  0.250000  0.636534  0.563167  1
  Ga  Ga5  1  0.750000  0.363466  0.436833  1
  Ga  Ga6  1  0.750000  0.855252  0.065709  1
  Ga  Ga7  1  0.250000  0.144748  0.934291  1
  Pd  Pd8  1  0.250000  0.775067  0.880793  1
  Pd  Pd9  1  0.750000  0.224933  0.119207  1
  Rh  Rh10  1  0.750000  0.732830  0.383820  1
  Rh  Rh11  1  0.250000  0.267170  0.616180  1
