# generated using pymatgen
data_Hf3Ti3AlP2
_symmetry_space_group_name_H-M   'P 1'
_cell_length_a   6.97455800
_cell_length_b   6.97455888
_cell_length_c   3.59190100
_cell_angle_alpha   90.00000000
_cell_angle_beta   90.00000000
_cell_angle_gamma   119.99998635
_symmetry_Int_Tables_number   1
_chemical_formula_structural   Hf3Ti3AlP2
_chemical_formula_sum   'Hf3 Ti3 Al1 P2'
_cell_volume   151.31726558
_cell_formula_units_Z   1
loop_
 _symmetry_equiv_pos_site_id
 _symmetry_equiv_pos_as_xyz
  1  'x, y, z'
loop_
 _atom_site_type_symbol
 _atom_site_label
 _atom_site_symmetry_multiplicity
 _atom_site_fract_x
 _atom_site_fract_y
 _atom_site_fract_z
 _atom_site_occupancy
  Hf  Hf0  1  0.592719  0.985982  0.000000  1
  Hf  Hf1  1  0.393264  0.407281  0.000000  1
  Hf  Hf2  1  0.014018  0.606736  0.000000  1
  Ti  Ti3  1  0.003285  0.249459  0.500000  1
  Ti  Ti4  1  0.246173  0.996715  0.500000  1
  Ti  Ti5  1  0.750541  0.753827  0.500000  1
  Al  Al6  1  0.666667  0.333333  0.500000  1
  P  P7  1  0.000000  0.000000  0.000000  1
  P  P8  1  0.333333  0.666667  0.500000  1
