# generated using pymatgen
data_Zr4Al6TcAu
_symmetry_space_group_name_H-M   'P 1'
_cell_length_a   5.35427100
_cell_length_b   5.35427051
_cell_length_c   8.58655300
_cell_angle_alpha   90.00000000
_cell_angle_beta   90.00000000
_cell_angle_gamma   119.99998452
_symmetry_Int_Tables_number   1
_chemical_formula_structural   Zr4Al6TcAu
_chemical_formula_sum   'Zr4 Al6 Tc1 Au1'
_cell_volume   213.18184262
_cell_formula_units_Z   1
loop_
 _symmetry_equiv_pos_site_id
 _symmetry_equiv_pos_as_xyz
  1  'x, y, z'
loop_
 _atom_site_type_symbol
 _atom_site_label
 _atom_site_symmetry_multiplicity
 _atom_site_fract_x
 _atom_site_fract_y
 _atom_site_fract_z
 _atom_site_occupancy
  Zr  Zr0  1  0.333333  0.666667  0.443986  1
  Zr  Zr1  1  0.666667  0.333333  0.932390  1
  Zr  Zr2  1  0.666667  0.333333  0.556014  1
  Zr  Zr3  1  0.333333  0.666667  0.067610  1
  Al  Al4  1  0.169207  0.338413  0.754882  1
  Al  Al5  1  0.830793  0.169207  0.245118  1
  Al  Al6  1  0.338413  0.169207  0.245118  1
  Al  Al7  1  0.661587  0.830793  0.754882  1
  Al  Al8  1  0.830793  0.661587  0.245118  1
  Al  Al9  1  0.169207  0.830793  0.754882  1
  Tc  Tc10  1  0.000000  0.000000  0.000000  1
  Au  Au11  1  0.000000  0.000000  0.500000  1
