# generated using pymatgen
data_Ho7Er(BBr6)2
_symmetry_space_group_name_H-M   'P 1'
_cell_length_a   3.94293700
_cell_length_b   13.11268212
_cell_length_c   13.57688413
_cell_angle_alpha   89.98444466
_cell_angle_beta   90.00000000
_cell_angle_gamma   90.00000000
_symmetry_Int_Tables_number   1
_chemical_formula_structural   Ho7Er(BBr6)2
_chemical_formula_sum   'Ho7 Er1 B2 Br12'
_cell_volume   701.95854733
_cell_formula_units_Z   1
loop_
 _symmetry_equiv_pos_site_id
 _symmetry_equiv_pos_as_xyz
  1  'x, y, z'
loop_
 _atom_site_type_symbol
 _atom_site_label
 _atom_site_symmetry_multiplicity
 _atom_site_fract_x
 _atom_site_fract_y
 _atom_site_fract_z
 _atom_site_occupancy
  Ho  Ho0  1  0.000000  0.101365  0.080482  1
  Ho  Ho1  1  0.000000  0.898636  0.919519  1
  Ho  Ho2  1  0.000000  0.601236  0.419616  1
  Ho  Ho3  1  0.500000  0.122344  0.856159  1
  Ho  Ho4  1  0.500000  0.877629  0.143875  1
  Ho  Ho5  1  0.500000  0.622280  0.643885  1
  Ho  Ho6  1  0.500000  0.377608  0.356201  1
  Er  Er7  1  0.000000  0.398856  0.580312  1
  B  B8  1  0.500000  0.000010  0.999987  1
  B  B9  1  0.500000  0.499757  0.500189  1
  Br  Br10  1  0.500000  0.268019  0.681795  1
  Br  Br11  1  0.500000  0.732313  0.317937  1
  Br  Br12  1  0.500000  0.767653  0.817906  1
  Br  Br13  1  0.500000  0.232351  0.182088  1
  Br  Br14  1  0.000000  0.260719  0.930772  1
  Br  Br15  1  0.000000  0.739297  0.069216  1
  Br  Br16  1  0.000000  0.480294  0.239605  1
  Br  Br17  1  0.000000  0.519517  0.760256  1
  Br  Br18  1  0.000000  0.980306  0.260418  1
  Br  Br19  1  0.000000  0.019708  0.739570  1
  Br  Br20  1  0.000000  0.239423  0.430986  1
  Br  Br21  1  0.000000  0.760679  0.569226  1
