# generated using pymatgen
data_Gd4Ho2Al24Os7Au
_symmetry_space_group_name_H-M   'P 1'
_cell_length_a   8.87455527
_cell_length_b   8.87455502
_cell_length_c   9.57976540
_cell_angle_alpha   89.92231798
_cell_angle_beta   90.07767973
_cell_angle_gamma   120.11130457
_symmetry_Int_Tables_number   1
_chemical_formula_structural   Gd4Ho2Al24Os7Au
_chemical_formula_sum   'Gd4 Ho2 Al24 Os7 Au1'
_cell_volume   652.66446783
_cell_formula_units_Z   1
loop_
 _symmetry_equiv_pos_site_id
 _symmetry_equiv_pos_as_xyz
  1  'x, y, z'
loop_
 _atom_site_type_symbol
 _atom_site_label
 _atom_site_symmetry_multiplicity
 _atom_site_fract_x
 _atom_site_fract_y
 _atom_site_fract_z
 _atom_site_occupancy
  Gd  Gd0  1  0.190732  0.385943  0.251365  1
  Gd  Gd1  1  0.809268  0.614057  0.748635  1
  Gd  Gd2  1  0.614057  0.809268  0.251365  1
  Gd  Gd3  1  0.385943  0.190732  0.748635  1
  Ho  Ho4  1  0.194385  0.805615  0.253640  1
  Ho  Ho5  1  0.805615  0.194385  0.746360  1
  Al  Al6  1  0.328156  0.671844  0.020298  1
  Al  Al7  1  0.671844  0.328156  0.979702  1
  Al  Al8  1  0.666450  0.333550  0.516614  1
  Al  Al9  1  0.333550  0.666450  0.483386  1
  Al  Al10  1  0.162432  0.325408  0.575383  1
  Al  Al11  1  0.837568  0.674592  0.424617  1
  Al  Al12  1  0.674592  0.837568  0.575383  1
  Al  Al13  1  0.849027  0.677705  0.079560  1
  Al  Al14  1  0.325408  0.162432  0.424617  1
  Al  Al15  1  0.150973  0.322295  0.920440  1
  Al  Al16  1  0.163144  0.836856  0.575020  1
  Al  Al17  1  0.322295  0.150973  0.079560  1
  Al  Al18  1  0.836856  0.163144  0.424980  1
  Al  Al19  1  0.677705  0.849027  0.920440  1
  Al  Al20  1  0.836778  0.163222  0.075356  1
  Al  Al21  1  0.163222  0.836778  0.924644  1
  Al  Al22  1  0.560724  0.122179  0.249159  1
  Al  Al23  1  0.439276  0.877821  0.750841  1
  Al  Al24  1  0.877821  0.439276  0.249159  1
  Al  Al25  1  0.122179  0.560724  0.750841  1
  Al  Al26  1  0.564183  0.435817  0.255825  1
  Al  Al27  1  0.435817  0.564183  0.744175  1
  Al  Al28  1  0.000194  0.999806  0.250352  1
  Al  Al29  1  0.999806  0.000194  0.749648  1
  Os  Os30  1  0.500000  0.000000  0.000000  1
  Os  Os31  1  0.000000  0.500000  0.000000  1
  Os  Os32  1  0.500000  0.000000  0.500000  1
  Os  Os33  1  0.000000  0.500000  0.500000  1
  Os  Os34  1  0.500000  0.500000  0.500000  1
  Os  Os35  1  0.000000  0.000000  0.000000  1
  Os  Os36  1  0.000000  0.000000  0.500000  1
  Au  Au37  1  0.500000  0.500000  0.000000  1
