# generated using pymatgen
data_Tb2MnCr3P7Rh8
_symmetry_space_group_name_H-M   'P 1'
_cell_length_a   3.79818371
_cell_length_b   9.53046671
_cell_length_c   9.64157956
_cell_angle_alpha   120.10515416
_cell_angle_beta   90.02843773
_cell_angle_gamma   89.98392211
_symmetry_Int_Tables_number   1
_chemical_formula_structural   Tb2MnCr3P7Rh8
_chemical_formula_sum   'Tb2 Mn1 Cr3 P7 Rh8'
_cell_volume   301.93102870
_cell_formula_units_Z   1
loop_
 _symmetry_equiv_pos_site_id
 _symmetry_equiv_pos_as_xyz
  1  'x, y, z'
loop_
 _atom_site_type_symbol
 _atom_site_label
 _atom_site_symmetry_multiplicity
 _atom_site_fract_x
 _atom_site_fract_y
 _atom_site_fract_z
 _atom_site_occupancy
  Tb  Tb0  1  0.261964  0.667467  0.331020  1
  Tb  Tb1  1  0.761686  0.332512  0.665693  1
  Mn  Mn2  1  0.263220  0.880579  0.158461  1
  Cr  Cr3  1  0.761652  0.107256  0.866771  1
  Cr  Cr4  1  0.761770  0.124657  0.228996  1
  Cr  Cr5  1  0.761795  0.766111  0.897957  1
  P  P6  1  0.263186  0.991631  0.008561  1
  P  P7  1  0.761641  0.883634  0.595014  1
  P  P8  1  0.761469  0.404678  0.287047  1
  P  P9  1  0.762689  0.724258  0.123789  1
  P  P10  1  0.262307  0.108073  0.401787  1
  P  P11  1  0.261408  0.587524  0.703390  1
  P  P12  1  0.261675  0.296900  0.883913  1
  Rh  Rh13  1  0.261165  0.847537  0.733970  1
  Rh  Rh14  1  0.261577  0.267333  0.112575  1
  Rh  Rh15  1  0.761181  0.614106  0.559070  1
  Rh  Rh16  1  0.761664  0.445171  0.056758  1
  Rh  Rh17  1  0.762662  0.947948  0.387357  1
  Rh  Rh18  1  0.261246  0.367303  0.435144  1
  Rh  Rh19  1  0.261813  0.566503  0.931533  1
  Rh  Rh20  1  0.262232  0.068818  0.631195  1
