# generated using pymatgen
data_Yb2Co5PtO12
_symmetry_space_group_name_H-M   'P 1'
_cell_length_a   4.99402635
_cell_length_b   5.57078633
_cell_length_c   8.66499300
_cell_angle_alpha   90.00004491
_cell_angle_beta   89.99996426
_cell_angle_gamma   72.37579950
_symmetry_Int_Tables_number   1
_chemical_formula_structural   Yb2Co5PtO12
_chemical_formula_sum   'Yb2 Co5 Pt1 O12'
_cell_volume   229.75083373
_cell_formula_units_Z   1
loop_
 _symmetry_equiv_pos_site_id
 _symmetry_equiv_pos_as_xyz
  1  'x, y, z'
loop_
 _atom_site_type_symbol
 _atom_site_label
 _atom_site_symmetry_multiplicity
 _atom_site_fract_x
 _atom_site_fract_y
 _atom_site_fract_z
 _atom_site_occupancy
  Yb  Yb0  1  0.000001  0.500000  0.169948  1
  Yb  Yb1  1  0.500001  0.500000  0.660186  1
  Co  Co2  1  0.500000  0.000000  0.172478  1
  Co  Co3  1  0.500000  0.000000  0.493997  1
  Co  Co4  1  0.000000  0.000000  0.661411  1
  Co  Co5  1  0.000001  0.000000  0.335763  1
  Co  Co6  1  0.000000  0.000000  0.004490  1
  Pt  Pt7  1  0.499998  0.999999  0.834056  1
  O  O8  1  0.776261  0.184586  0.172302  1
  O  O9  1  0.266077  0.191983  0.656504  1
  O  O10  1  0.223740  0.815415  0.172302  1
  O  O11  1  0.733921  0.808018  0.656504  1
  O  O12  1  0.263074  0.189849  0.011021  1
  O  O13  1  0.769582  0.186373  0.497191  1
  O  O14  1  0.263547  0.186033  0.332713  1
  O  O15  1  0.783556  0.194944  0.830772  1
  O  O16  1  0.736455  0.813967  0.332713  1
  O  O17  1  0.216442  0.805056  0.830772  1
  O  O18  1  0.736926  0.810150  0.011021  1
  O  O19  1  0.230419  0.813628  0.497191  1
