# generated using pymatgen
data_Ca2Dy2Co3Si12Ni17
_symmetry_space_group_name_H-M   'P 1'
_cell_length_a   3.75294900
_cell_length_b   6.69570668
_cell_length_c   18.71064343
_cell_angle_alpha   90.00016845
_cell_angle_beta   90.00000000
_cell_angle_gamma   90.00000000
_symmetry_Int_Tables_number   1
_chemical_formula_structural   Ca2Dy2Co3Si12Ni17
_chemical_formula_sum   'Ca2 Dy2 Co3 Si12 Ni17'
_cell_volume   470.17312927
_cell_formula_units_Z   1
loop_
 _symmetry_equiv_pos_site_id
 _symmetry_equiv_pos_as_xyz
  1  'x, y, z'
loop_
 _atom_site_type_symbol
 _atom_site_label
 _atom_site_symmetry_multiplicity
 _atom_site_fract_x
 _atom_site_fract_y
 _atom_site_fract_z
 _atom_site_occupancy
  Ca  Ca0  1  0.750000  0.124305  0.642396  1
  Ca  Ca1  1  0.750000  0.376425  0.142553  1
  Dy  Dy2  1  0.250000  0.874675  0.356700  1
  Dy  Dy3  1  0.250000  0.624356  0.857170  1
  Co  Co4  1  0.250000  0.058655  0.206468  1
  Co  Co5  1  0.750000  0.939494  0.794987  1
  Co  Co6  1  0.750000  0.561143  0.294489  1
  Si  Si7  1  0.250000  0.081600  0.086719  1
  Si  Si8  1  0.750000  0.918640  0.914380  1
  Si  Si9  1  0.750000  0.580781  0.413628  1
  Si  Si10  1  0.250000  0.420589  0.585988  1
  Si  Si11  1  0.250000  0.655812  0.075009  1
  Si  Si12  1  0.750000  0.344398  0.925452  1
  Si  Si13  1  0.750000  0.156144  0.424902  1
  Si  Si14  1  0.250000  0.845220  0.574233  1
  Si  Si15  1  0.250000  0.371458  0.260648  1
  Si  Si16  1  0.750000  0.630012  0.739294  1
  Si  Si17  1  0.750000  0.871772  0.238796  1
  Si  Si18  1  0.250000  0.123603  0.761850  1
  Ni  Ni19  1  0.250000  0.435859  0.706787  1
  Ni  Ni20  1  0.250000  0.616208  0.485171  1
  Ni  Ni21  1  0.750000  0.385759  0.514601  1
  Ni  Ni22  1  0.750000  0.115227  0.014678  1
  Ni  Ni23  1  0.250000  0.884590  0.985947  1
  Ni  Ni24  1  0.250000  0.681420  0.201175  1
  Ni  Ni25  1  0.750000  0.319113  0.800315  1
  Ni  Ni26  1  0.750000  0.181257  0.299257  1
  Ni  Ni27  1  0.250000  0.816081  0.700876  1
  Ni  Ni28  1  0.250000  0.361339  0.382841  1
  Ni  Ni29  1  0.750000  0.644277  0.616195  1
  Ni  Ni30  1  0.750000  0.861135  0.116802  1
  Ni  Ni31  1  0.250000  0.136868  0.883600  1
  Ni  Ni32  1  0.250000  0.366505  0.003622  1
  Ni  Ni33  1  0.750000  0.634702  0.994980  1
  Ni  Ni34  1  0.750000  0.866417  0.494260  1
  Ni  Ni35  1  0.250000  0.134162  0.503231  1
