# generated using pymatgen
data_Tm4Cu2MoRu5
_symmetry_space_group_name_H-M   'P 1'
_cell_length_a   5.43323161
_cell_length_b   5.11715856
_cell_length_c   8.83445900
_cell_angle_alpha   90.00000000
_cell_angle_beta   90.00000000
_cell_angle_gamma   120.93753847
_symmetry_Int_Tables_number   1
_chemical_formula_structural   Tm4Cu2MoRu5
_chemical_formula_sum   'Tm4 Cu2 Mo1 Ru5'
_cell_volume   210.67682958
_cell_formula_units_Z   1
loop_
 _symmetry_equiv_pos_site_id
 _symmetry_equiv_pos_as_xyz
  1  'x, y, z'
loop_
 _atom_site_type_symbol
 _atom_site_label
 _atom_site_symmetry_multiplicity
 _atom_site_fract_x
 _atom_site_fract_y
 _atom_site_fract_z
 _atom_site_occupancy
  Tm  Tm0  1  0.676760  0.347666  0.562135  1
  Tm  Tm1  1  0.339155  0.669927  0.434690  1
  Tm  Tm2  1  0.339155  0.669927  0.065310  1
  Tm  Tm3  1  0.676760  0.347666  0.937865  1
  Cu  Cu4  1  0.815526  0.650991  0.250000  1
  Cu  Cu5  1  0.819291  0.159660  0.250000  1
  Mo  Mo6  1  0.157961  0.318178  0.750000  1
  Ru  Ru7  1  0.019276  0.019430  0.496267  1
  Ru  Ru8  1  0.019276  0.019430  0.003733  1
  Ru  Ru9  1  0.173567  0.823110  0.750000  1
  Ru  Ru10  1  0.646792  0.818853  0.750000  1
  Ru  Ru11  1  0.316482  0.155161  0.250000  1
