# generated using pymatgen
data_Lu20SiBi8Te3
_symmetry_space_group_name_H-M   'P 1'
_cell_length_a   7.94700712
_cell_length_b   9.26998600
_cell_length_c   11.75859900
_cell_angle_alpha   90.00000000
_cell_angle_beta   90.62123139
_cell_angle_gamma   90.00000000
_symmetry_Int_Tables_number   1
_chemical_formula_structural   Lu20SiBi8Te3
_chemical_formula_sum   'Lu20 Si1 Bi8 Te3'
_cell_volume   866.18913538
_cell_formula_units_Z   1
loop_
 _symmetry_equiv_pos_site_id
 _symmetry_equiv_pos_as_xyz
  1  'x, y, z'
loop_
 _atom_site_type_symbol
 _atom_site_label
 _atom_site_symmetry_multiplicity
 _atom_site_fract_x
 _atom_site_fract_y
 _atom_site_fract_z
 _atom_site_occupancy
  Lu  Lu0  1  0.023048  0.250000  0.509918  1
  Lu  Lu1  1  0.981162  0.750000  0.487630  1
  Lu  Lu2  1  0.484417  0.750000  0.007633  1
  Lu  Lu3  1  0.535678  0.250000  0.991736  1
  Lu  Lu4  1  0.355294  0.250000  0.284715  1
  Lu  Lu5  1  0.641859  0.750000  0.718330  1
  Lu  Lu6  1  0.149265  0.750000  0.782434  1
  Lu  Lu7  1  0.853485  0.250000  0.207661  1
  Lu  Lu8  1  0.155127  0.250000  0.797120  1
  Lu  Lu9  1  0.823307  0.750000  0.213612  1
  Lu  Lu10  1  0.320779  0.750000  0.285680  1
  Lu  Lu11  1  0.685138  0.250000  0.721464  1
  Lu  Lu12  1  0.182831  0.071437  0.055975  1
  Lu  Lu13  1  0.813937  0.949709  0.939842  1
  Lu  Lu14  1  0.313649  0.933687  0.558470  1
  Lu  Lu15  1  0.813937  0.550291  0.939842  1
  Lu  Lu16  1  0.688449  0.066348  0.439791  1
  Lu  Lu17  1  0.182831  0.428563  0.055975  1
  Lu  Lu18  1  0.688449  0.433652  0.439791  1
  Lu  Lu19  1  0.313649  0.566313  0.558470  1
  Si  Si20  1  0.904652  0.250000  0.967958  1
  Bi  Bi21  1  0.067792  0.004171  0.323484  1
  Bi  Bi22  1  0.930322  0.995102  0.671833  1
  Bi  Bi23  1  0.428417  0.001541  0.826162  1
  Bi  Bi24  1  0.930322  0.504898  0.671833  1
  Bi  Bi25  1  0.565517  0.000795  0.176054  1
  Bi  Bi26  1  0.067792  0.495829  0.323484  1
  Bi  Bi27  1  0.565517  0.499205  0.176054  1
  Bi  Bi28  1  0.428417  0.498459  0.826162  1
  Te  Te29  1  0.403581  0.250000  0.542821  1
  Te  Te30  1  0.601370  0.750000  0.459353  1
  Te  Te31  1  0.100017  0.750000  0.038714  1
