# generated using pymatgen
data_NaHo(NbSe2)6
_symmetry_space_group_name_H-M   'P 1'
_cell_length_a   6.07698100
_cell_length_b   6.07698045
_cell_length_c   14.80065800
_cell_angle_alpha   90.00000000
_cell_angle_beta   90.00000000
_cell_angle_gamma   120.00000844
_symmetry_Int_Tables_number   1
_chemical_formula_structural   NaHo(NbSe2)6
_chemical_formula_sum   'Na1 Ho1 Nb6 Se12'
_cell_volume   473.35540002
_cell_formula_units_Z   1
loop_
 _symmetry_equiv_pos_site_id
 _symmetry_equiv_pos_as_xyz
  1  'x, y, z'
loop_
 _atom_site_type_symbol
 _atom_site_label
 _atom_site_symmetry_multiplicity
 _atom_site_fract_x
 _atom_site_fract_y
 _atom_site_fract_z
 _atom_site_occupancy
  Na  Na0  1  0.666667  0.333333  0.750000  1
  Ho  Ho1  1  0.333333  0.666667  0.250000  1
  Nb  Nb2  1  0.333333  0.666667  0.007181  1
  Nb  Nb3  1  0.000000  0.000000  0.005118  1
  Nb  Nb4  1  0.666667  0.333333  0.004511  1
  Nb  Nb5  1  0.333333  0.666667  0.492819  1
  Nb  Nb6  1  0.000000  0.000000  0.494882  1
  Nb  Nb7  1  0.666667  0.333333  0.495489  1
  Se  Se8  1  0.672879  0.665956  0.380605  1
  Se  Se9  1  0.665588  0.670699  0.606992  1
  Se  Se10  1  0.005112  0.670699  0.893008  1
  Se  Se11  1  0.665588  0.994888  0.893008  1
  Se  Se12  1  0.672879  0.006924  0.119395  1
  Se  Se13  1  0.334044  0.006924  0.380605  1
  Se  Se14  1  0.005112  0.334412  0.606992  1
  Se  Se15  1  0.329301  0.994888  0.606992  1
  Se  Se16  1  0.993076  0.665956  0.119395  1
  Se  Se17  1  0.329301  0.334412  0.893008  1
  Se  Se18  1  0.993076  0.327121  0.380605  1
  Se  Se19  1  0.334044  0.327121  0.119395  1
