# generated using pymatgen
data_DyEr3(Zn4Ru)2
_symmetry_space_group_name_H-M   'P 1'
_cell_length_a   6.95004300
_cell_length_b   6.95004300
_cell_length_c   5.26786700
_cell_angle_alpha   90.00000000
_cell_angle_beta   90.00000000
_cell_angle_gamma   90.00000000
_symmetry_Int_Tables_number   1
_chemical_formula_structural   DyEr3(Zn4Ru)2
_chemical_formula_sum   'Dy1 Er3 Zn8 Ru2'
_cell_volume   254.45429438
_cell_formula_units_Z   1
loop_
 _symmetry_equiv_pos_site_id
 _symmetry_equiv_pos_as_xyz
  1  'x, y, z'
loop_
 _atom_site_type_symbol
 _atom_site_label
 _atom_site_symmetry_multiplicity
 _atom_site_fract_x
 _atom_site_fract_y
 _atom_site_fract_z
 _atom_site_occupancy
  Dy  Dy0  1  0.000000  0.500000  0.766169  1
  Er  Er1  1  0.000000  0.000000  0.000186  1
  Er  Er2  1  0.500000  0.000000  0.234938  1
  Er  Er3  1  0.500000  0.500000  0.000186  1
  Zn  Zn4  1  0.188321  0.688321  0.287558  1
  Zn  Zn5  1  0.811679  0.688321  0.287558  1
  Zn  Zn6  1  0.811679  0.311679  0.287558  1
  Zn  Zn7  1  0.312704  0.187296  0.711987  1
  Zn  Zn8  1  0.188321  0.311679  0.287558  1
  Zn  Zn9  1  0.687296  0.187296  0.711987  1
  Zn  Zn10  1  0.687296  0.812704  0.711987  1
  Zn  Zn11  1  0.312704  0.812704  0.711987  1
  Ru  Ru12  1  0.500000  0.500000  0.500170  1
  Ru  Ru13  1  0.000000  0.000000  0.500170  1
