# generated using pymatgen
data_Li3In2SnPd6
_symmetry_space_group_name_H-M   'P 1'
_cell_length_a   4.27817600
_cell_length_b   7.05296000
_cell_length_c   12.77730900
_cell_angle_alpha   89.99969942
_cell_angle_beta   90.00029464
_cell_angle_gamma   90.00059303
_symmetry_Int_Tables_number   1
_chemical_formula_structural   Li3In2SnPd6
_chemical_formula_sum   'Li6 In4 Sn2 Pd12'
_cell_volume   385.54001998
_cell_formula_units_Z   2
loop_
 _symmetry_equiv_pos_site_id
 _symmetry_equiv_pos_as_xyz
  1  'x, y, z'
loop_
 _atom_site_type_symbol
 _atom_site_label
 _atom_site_symmetry_multiplicity
 _atom_site_fract_x
 _atom_site_fract_y
 _atom_site_fract_z
 _atom_site_occupancy
  Li  Li0  1  0.000001  0.499994  0.998147  1
  Li  Li1  1  0.499991  0.999998  0.168526  1
  Li  Li2  1  0.999985  0.500007  0.335819  1
  Li  Li3  1  0.499999  0.000005  0.500563  1
  Li  Li4  1  0.000013  0.500006  0.666107  1
  Li  Li5  1  0.500010  0.999997  0.830841  1
  In  In6  1  0.999988  0.999999  0.335703  1
  In  In7  1  0.499998  0.499994  0.501351  1
  In  In8  1  0.000015  0.000019  0.665317  1
  In  In9  1  0.500002  0.499999  0.830967  1
  Sn  Sn10  1  0.000001  0.999991  0.998584  1
  Sn  Sn11  1  0.499998  0.499995  0.168081  1
  Pd  Pd12  1  0.500003  0.245514  0.001859  1
  Pd  Pd13  1  0.499999  0.754464  0.001858  1
  Pd  Pd14  1  0.999994  0.254442  0.164811  1
  Pd  Pd15  1  0.999996  0.745546  0.164815  1
  Pd  Pd16  1  0.499983  0.250089  0.330757  1
  Pd  Pd17  1  0.499979  0.749910  0.330762  1
  Pd  Pd18  1  0.999999  0.254022  0.499275  1
  Pd  Pd19  1  0.000002  0.745996  0.499287  1
  Pd  Pd20  1  0.500015  0.246010  0.667383  1
  Pd  Pd21  1  0.500014  0.754007  0.667384  1
  Pd  Pd22  1  0.000004  0.249896  0.835908  1
  Pd  Pd23  1  0.000007  0.750097  0.835894  1
