# generated using pymatgen
data_Nb3Al2B4Ru10W
_symmetry_space_group_name_H-M   'P 1'
_cell_length_a   9.31427123
_cell_length_b   9.31427123
_cell_length_c   2.97419900
_cell_angle_alpha   90.00000000
_cell_angle_beta   90.00000000
_cell_angle_gamma   90.05881966
_symmetry_Int_Tables_number   1
_chemical_formula_structural   Nb3Al2B4Ru10W
_chemical_formula_sum   'Nb3 Al2 B4 Ru10 W1'
_cell_volume   258.02842702
_cell_formula_units_Z   1
loop_
 _symmetry_equiv_pos_site_id
 _symmetry_equiv_pos_as_xyz
  1  'x, y, z'
loop_
 _atom_site_type_symbol
 _atom_site_label
 _atom_site_symmetry_multiplicity
 _atom_site_fract_x
 _atom_site_fract_y
 _atom_site_fract_z
 _atom_site_occupancy
  Nb  Nb0  1  0.177483  0.322517  0.000000  1
  Nb  Nb1  1  0.322199  0.823105  0.000000  1
  Nb  Nb2  1  0.676895  0.177801  0.000000  1
  Al  Al3  1  0.498997  0.499318  0.000000  1
  Al  Al4  1  0.000682  0.001003  0.000000  1
  B  B5  1  0.625085  0.874915  0.000000  1
  B  B6  1  0.375382  0.124618  0.000000  1
  B  B7  1  0.125468  0.624517  0.000000  1
  B  B8  1  0.875483  0.374532  0.000000  1
  Ru  Ru9  1  0.572592  0.713421  0.500000  1
  Ru  Ru10  1  0.432816  0.284347  0.500000  1
  Ru  Ru11  1  0.062779  0.783601  0.500000  1
  Ru  Ru12  1  0.931154  0.215618  0.500000  1
  Ru  Ru13  1  0.284382  0.568846  0.500000  1
  Ru  Ru14  1  0.716399  0.437221  0.500000  1
  Ru  Ru15  1  0.215653  0.067184  0.500000  1
  Ru  Ru16  1  0.786579  0.927408  0.500000  1
  Ru  Ru17  1  0.500897  0.999103  0.500000  1
  Ru  Ru18  1  0.997115  0.502885  0.500000  1
  W  W19  1  0.821961  0.678039  0.000000  1
