# generated using pymatgen
data_Ta2Ni4Mo(P2Ru)2
_symmetry_space_group_name_H-M   'P 1'
_cell_length_a   7.00381308
_cell_length_b   7.00381166
_cell_length_c   6.88799315
_cell_angle_alpha   93.99328075
_cell_angle_beta   94.13509147
_cell_angle_gamma   149.38360961
_symmetry_Int_Tables_number   1
_chemical_formula_structural   Ta2Ni4Mo(P2Ru)2
_chemical_formula_sum   'Ta2 Ni4 Mo1 P4 Ru2'
_cell_volume   165.76126966
_cell_formula_units_Z   1
loop_
 _symmetry_equiv_pos_site_id
 _symmetry_equiv_pos_as_xyz
  1  'x, y, z'
loop_
 _atom_site_type_symbol
 _atom_site_label
 _atom_site_symmetry_multiplicity
 _atom_site_fract_x
 _atom_site_fract_y
 _atom_site_fract_z
 _atom_site_occupancy
  Ta  Ta0  1  0.192011  0.124022  0.316034  1
  Ta  Ta1  1  0.809635  0.876493  0.686127  1
  Ni  Ni2  1  0.608156  0.090835  0.698992  1
  Ni  Ni3  1  0.391540  0.913842  0.305381  1
  Ni  Ni4  1  0.093267  0.393588  0.486854  1
  Ni  Ni5  1  0.907912  0.604922  0.512834  1
  Mo  Mo6  1  0.873404  0.196182  0.069586  1
  P  P7  1  0.748437  0.425606  0.174044  1
  P  P8  1  0.248456  0.571298  0.819754  1
  P  P9  1  0.443475  0.246947  0.690423  1
  P  P10  1  0.555406  0.752492  0.307896  1
  Ru  Ru11  1  0.127705  0.807375  0.935080  1
  Ru  Ru12  1  0.500596  0.496399  0.996995  1
