# generated using pymatgen
data_Ho6ScCo17(SiP)6
_symmetry_space_group_name_H-M   'P 1'
_cell_length_a   3.73729600
_cell_length_b   10.68741800
_cell_length_c   12.33556400
_cell_angle_alpha   90.00000000
_cell_angle_beta   90.00000000
_cell_angle_gamma   90.00000000
_symmetry_Int_Tables_number   1
_chemical_formula_structural   Ho6ScCo17(SiP)6
_chemical_formula_sum   'Ho6 Sc1 Co17 Si6 P6'
_cell_volume   492.70764674
_cell_formula_units_Z   1
loop_
 _symmetry_equiv_pos_site_id
 _symmetry_equiv_pos_as_xyz
  1  'x, y, z'
loop_
 _atom_site_type_symbol
 _atom_site_label
 _atom_site_symmetry_multiplicity
 _atom_site_fract_x
 _atom_site_fract_y
 _atom_site_fract_z
 _atom_site_occupancy
  Ho  Ho0  1  0.000000  0.500000  0.526682  1
  Ho  Ho1  1  0.500000  0.000000  0.473095  1
  Ho  Ho2  1  0.500000  0.820424  0.207452  1
  Ho  Ho3  1  0.500000  0.179576  0.207452  1
  Ho  Ho4  1  0.000000  0.679836  0.796653  1
  Ho  Ho5  1  0.000000  0.320164  0.796653  1
  Sc  Sc6  1  0.500000  0.500000  0.152398  1
  Co  Co7  1  0.000000  0.500000  0.985143  1
  Co  Co8  1  0.500000  0.000000  0.015737  1
  Co  Co9  1  0.500000  0.295343  0.429471  1
  Co  Co10  1  0.500000  0.704657  0.429471  1
  Co  Co11  1  0.000000  0.199519  0.566571  1
  Co  Co12  1  0.000000  0.800481  0.566571  1
  Co  Co13  1  0.500000  0.882216  0.704510  1
  Co  Co14  1  0.500000  0.117784  0.704510  1
  Co  Co15  1  0.000000  0.621824  0.296111  1
  Co  Co16  1  0.000000  0.378176  0.296111  1
  Co  Co17  1  0.500000  0.328646  0.992210  1
  Co  Co18  1  0.500000  0.671354  0.992210  1
  Co  Co19  1  0.000000  0.165982  0.003357  1
  Co  Co20  1  0.000000  0.834018  0.003357  1
  Co  Co21  1  0.000000  0.000000  0.845758  1
  Co  Co22  1  0.500000  0.500000  0.705595  1
  Co  Co23  1  0.000000  0.000000  0.303651  1
  Si  Si24  1  0.500000  0.307674  0.616064  1
  Si  Si25  1  0.500000  0.692326  0.616064  1
  Si  Si26  1  0.000000  0.000000  0.117080  1
  Si  Si27  1  0.500000  0.854819  0.888811  1
  Si  Si28  1  0.500000  0.145181  0.888811  1
  Si  Si29  1  0.000000  0.000000  0.657685  1
  P  P30  1  0.000000  0.191948  0.385500  1
  P  P31  1  0.000000  0.808052  0.385500  1
  P  P32  1  0.500000  0.500000  0.885395  1
  P  P33  1  0.000000  0.662668  0.100971  1
  P  P34  1  0.000000  0.337332  0.100971  1
  P  P35  1  0.500000  0.500000  0.356413  1
