# generated using pymatgen
data_NdEu3(Co5P3)4
_symmetry_space_group_name_H-M   'P 1'
_cell_length_a   11.84481207
_cell_length_b   3.67236000
_cell_length_c   10.39803806
_cell_angle_alpha   90.00000000
_cell_angle_beta   89.98743962
_cell_angle_gamma   90.00000000
_symmetry_Int_Tables_number   1
_chemical_formula_structural   NdEu3(Co5P3)4
_chemical_formula_sum   'Nd1 Eu3 Co20 P12'
_cell_volume   452.29815416
_cell_formula_units_Z   1
loop_
 _symmetry_equiv_pos_site_id
 _symmetry_equiv_pos_as_xyz
  1  'x, y, z'
loop_
 _atom_site_type_symbol
 _atom_site_label
 _atom_site_symmetry_multiplicity
 _atom_site_fract_x
 _atom_site_fract_y
 _atom_site_fract_z
 _atom_site_occupancy
  Nd  Nd0  1  0.202534  0.249999  0.916310  1
  Eu  Eu1  1  0.797506  0.750001  0.084203  1
  Eu  Eu2  1  0.297212  0.750001  0.415896  1
  Eu  Eu3  1  0.702665  0.249999  0.584216  1
  Co  Co4  1  0.433347  0.249999  0.032793  1
  Co  Co5  1  0.990043  0.249999  0.094046  1
  Co  Co6  1  0.302837  0.750001  0.117926  1
  Co  Co7  1  0.509950  0.750001  0.214350  1
  Co  Co8  1  0.175636  0.249999  0.220078  1
  Co  Co9  1  0.674875  0.249999  0.280161  1
  Co  Co10  1  0.009795  0.750001  0.286785  1
  Co  Co11  1  0.802403  0.750001  0.381460  1
  Co  Co12  1  0.490305  0.249999  0.405768  1
  Co  Co13  1  0.933155  0.249999  0.467349  1
  Co  Co14  1  0.066486  0.750001  0.531451  1
  Co  Co15  1  0.509471  0.750001  0.594086  1
  Co  Co16  1  0.197281  0.249999  0.618344  1
  Co  Co17  1  0.989606  0.249999  0.713915  1
  Co  Co18  1  0.324523  0.750001  0.720685  1
  Co  Co19  1  0.824923  0.750001  0.780340  1
  Co  Co20  1  0.489648  0.249999  0.785694  1
  Co  Co21  1  0.697355  0.249999  0.881597  1
  Co  Co22  1  0.010580  0.750001  0.905489  1
  Co  Co23  1  0.567685  0.750001  0.967913  1
  P  P24  1  0.611688  0.249999  0.081383  1
  P  P25  1  0.106803  0.750001  0.105714  1
  P  P26  1  0.370044  0.249999  0.227008  1
  P  P27  1  0.869607  0.249999  0.273191  1
  P  P28  1  0.607768  0.750001  0.396214  1
  P  P29  1  0.111408  0.249999  0.418503  1
  P  P30  1  0.888364  0.750001  0.581205  1
  P  P31  1  0.392135  0.249999  0.603648  1
  P  P32  1  0.129360  0.750001  0.724503  1
  P  P33  1  0.630278  0.750001  0.773280  1
  P  P34  1  0.891921  0.249999  0.896248  1
  P  P35  1  0.390800  0.750001  0.918251  1
