# generated using pymatgen
data_K2RbHg11
_symmetry_space_group_name_H-M   'P 1'
_cell_length_a   10.28316209
_cell_length_b   10.28316168
_cell_length_c   10.28316108
_cell_angle_alpha   152.17740245
_cell_angle_beta   111.84769316
_cell_angle_gamma   75.13529375
_symmetry_Int_Tables_number   1
_chemical_formula_structural   K2RbHg11
_chemical_formula_sum   'K2 Rb1 Hg11'
_cell_volume   464.40675982
_cell_formula_units_Z   1
loop_
 _symmetry_equiv_pos_site_id
 _symmetry_equiv_pos_as_xyz
  1  'x, y, z'
loop_
 _atom_site_type_symbol
 _atom_site_label
 _atom_site_symmetry_multiplicity
 _atom_site_fract_x
 _atom_site_fract_y
 _atom_site_fract_z
 _atom_site_occupancy
  K  K0  1  0.309197  0.309197  0.000000  1
  K  K1  1  0.690803  0.690803  0.000000  1
  Rb  Rb2  1  0.000000  0.000000  0.000000  1
  Hg  Hg3  1  0.439775  0.141984  0.297791  1
  Hg  Hg4  1  0.970520  0.332490  0.638030  1
  Hg  Hg5  1  0.029480  0.667510  0.361970  1
  Hg  Hg6  1  0.305540  0.667510  0.638030  1
  Hg  Hg7  1  0.694460  0.332490  0.361970  1
  Hg  Hg8  1  0.711964  0.500000  0.211964  1
  Hg  Hg9  1  0.288036  0.500000  0.788036  1
  Hg  Hg10  1  0.500000  0.000000  0.500000  1
  Hg  Hg11  1  0.560225  0.858016  0.702209  1
  Hg  Hg12  1  0.155807  0.858016  0.297791  1
  Hg  Hg13  1  0.844193  0.141984  0.702209  1
