# generated using pymatgen
data_KRb7S24
_symmetry_space_group_name_H-M   'P 1'
_cell_length_a   12.58346989
_cell_length_b   6.84029887
_cell_length_c   12.68113107
_cell_angle_alpha   72.70253331
_cell_angle_beta   89.75640083
_cell_angle_gamma   90.03864234
_symmetry_Int_Tables_number   1
_chemical_formula_structural   KRb7S24
_chemical_formula_sum   'K1 Rb7 S24'
_cell_volume   1042.14757664
_cell_formula_units_Z   1
loop_
 _symmetry_equiv_pos_site_id
 _symmetry_equiv_pos_as_xyz
  1  'x, y, z'
loop_
 _atom_site_type_symbol
 _atom_site_label
 _atom_site_symmetry_multiplicity
 _atom_site_fract_x
 _atom_site_fract_y
 _atom_site_fract_z
 _atom_site_occupancy
  K  K0  1  0.111704  0.304632  0.915021  1
  Rb  Rb1  1  0.639523  0.213240  0.977955  1
  Rb  Rb2  1  0.860842  0.212968  0.477988  1
  Rb  Rb3  1  0.360264  0.786983  0.021983  1
  Rb  Rb4  1  0.139200  0.786852  0.522395  1
  Rb  Rb5  1  0.610732  0.692244  0.589908  1
  Rb  Rb6  1  0.889608  0.692251  0.089539  1
  Rb  Rb7  1  0.389291  0.307753  0.410115  1
  S  S8  1  0.368836  0.303545  0.996743  1
  S  S9  1  0.127906  0.303438  0.497093  1
  S  S10  1  0.628012  0.696502  0.002831  1
  S  S11  1  0.872127  0.696425  0.502842  1
  S  S12  1  0.414157  0.464557  0.839229  1
  S  S13  1  0.085082  0.465179  0.339405  1
  S  S14  1  0.584889  0.534763  0.160919  1
  S  S15  1  0.915219  0.534760  0.660583  1
  S  S16  1  0.331144  0.377598  0.723035  1
  S  S17  1  0.167724  0.377872  0.222030  1
  S  S18  1  0.667591  0.622279  0.277521  1
  S  S19  1  0.832770  0.622465  0.777893  1
  S  S20  1  0.388776  0.071289  0.726552  1
  S  S21  1  0.110939  0.072010  0.226301  1
  S  S22  1  0.610864  0.928355  0.273498  1
  S  S23  1  0.889200  0.928259  0.774214  1
  S  S24  1  0.550398  0.076710  0.723475  1
  S  S25  1  0.949325  0.076883  0.221777  1
  S  S26  1  0.449124  0.924151  0.276545  1
  S  S27  1  0.051024  0.927076  0.776473  1
  S  S28  1  0.608854  0.208629  0.567386  1
  S  S29  1  0.894769  0.210208  0.064566  1
  S  S30  1  0.391047  0.791348  0.432633  1
  S  S31  1  0.109058  0.788779  0.931552  1
