# generated using pymatgen
data_Th3ZnPd11Pt
_symmetry_space_group_name_H-M   'P 1'
_cell_length_a   5.87325200
_cell_length_b   5.86960084
_cell_length_c   9.62777300
_cell_angle_alpha   90.00000000
_cell_angle_beta   90.00000000
_cell_angle_gamma   120.02057925
_symmetry_Int_Tables_number   1
_chemical_formula_structural   Th3ZnPd11Pt
_chemical_formula_sum   'Th3 Zn1 Pd11 Pt1'
_cell_volume   287.37804111
_cell_formula_units_Z   1
loop_
 _symmetry_equiv_pos_site_id
 _symmetry_equiv_pos_as_xyz
  1  'x, y, z'
loop_
 _atom_site_type_symbol
 _atom_site_label
 _atom_site_symmetry_multiplicity
 _atom_site_fract_x
 _atom_site_fract_y
 _atom_site_fract_z
 _atom_site_occupancy
  Th  Th0  1  0.000279  0.000558  0.492440  1
  Th  Th1  1  0.000279  0.000558  0.007560  1
  Th  Th2  1  0.666301  0.332600  0.750000  1
  Zn  Zn3  1  0.333279  0.666560  0.250000  1
  Pd  Pd4  1  0.497455  0.503030  0.493468  1
  Pd  Pd5  1  0.497215  0.994429  0.493240  1
  Pd  Pd6  1  0.005575  0.503030  0.493468  1
  Pd  Pd7  1  0.497455  0.503030  0.006532  1
  Pd  Pd8  1  0.497215  0.994429  0.006760  1
  Pd  Pd9  1  0.005575  0.503030  0.006532  1
  Pd  Pd10  1  0.825374  0.650746  0.250000  1
  Pd  Pd11  1  0.348585  0.174339  0.250000  1
  Pd  Pd12  1  0.825755  0.174339  0.250000  1
  Pd  Pd13  1  0.654609  0.827399  0.750000  1
  Pd  Pd14  1  0.172791  0.827399  0.750000  1
  Pt  Pt15  1  0.172261  0.344522  0.750000  1
