# generated using pymatgen
data_Ho5Er5Zn3Bi2Au
_symmetry_space_group_name_H-M   'P 1'
_cell_length_a   8.61652594
_cell_length_b   8.61513875
_cell_length_c   8.61766811
_cell_angle_alpha   123.92943259
_cell_angle_beta   123.93384166
_cell_angle_gamma   83.30160282
_symmetry_Int_Tables_number   1
_chemical_formula_structural   Ho5Er5Zn3Bi2Au
_chemical_formula_sum   'Ho5 Er5 Zn3 Bi2 Au1'
_cell_volume   422.35613737
_cell_formula_units_Z   1
loop_
 _symmetry_equiv_pos_site_id
 _symmetry_equiv_pos_as_xyz
  1  'x, y, z'
loop_
 _atom_site_type_symbol
 _atom_site_label
 _atom_site_symmetry_multiplicity
 _atom_site_fract_x
 _atom_site_fract_y
 _atom_site_fract_z
 _atom_site_occupancy
  Ho  Ho0  1  0.205776  0.010794  0.499998  1
  Ho  Ho1  1  0.989428  0.490871  0.195357  1
  Ho  Ho2  1  0.294067  0.795516  0.804639  1
  Ho  Ho3  1  0.489322  0.294549  0.500000  1
  Ho  Ho4  1  0.794687  0.988529  0.500008  1
  Er  Er5  1  0.999513  0.999440  0.999166  1
  Er  Er6  1  0.500395  0.500292  0.000864  1
  Er  Er7  1  0.009138  0.510626  0.804330  1
  Er  Er8  1  0.704821  0.206279  0.195651  1
  Er  Er9  1  0.511556  0.705543  0.499972  1
  Zn  Zn10  1  0.638627  0.140130  0.778962  1
  Zn  Zn11  1  0.359662  0.861175  0.221048  1
  Zn  Zn12  1  0.140229  0.359498  0.500002  1
  Bi  Bi13  1  0.748993  0.750998  0.999911  1
  Bi  Bi14  1  0.249084  0.251083  0.000093  1
  Au  Au15  1  0.864702  0.634678  0.499999  1
