# generated using pymatgen
data_Hf18NbVFe2Re5Pt
_symmetry_space_group_name_H-M   'P 1'
_cell_length_a   8.49076000
_cell_length_b   8.62973300
_cell_length_c   8.64271300
_cell_angle_alpha   119.95065946
_cell_angle_beta   90.00000000
_cell_angle_gamma   90.00000000
_symmetry_Int_Tables_number   1
_chemical_formula_structural   Hf18NbVFe2Re5Pt
_chemical_formula_sum   'Hf18 Nb1 V1 Fe2 Re5 Pt1'
_cell_volume   548.70682078
_cell_formula_units_Z   1
loop_
 _symmetry_equiv_pos_site_id
 _symmetry_equiv_pos_as_xyz
  1  'x, y, z'
loop_
 _atom_site_type_symbol
 _atom_site_label
 _atom_site_symmetry_multiplicity
 _atom_site_fract_x
 _atom_site_fract_y
 _atom_site_fract_z
 _atom_site_occupancy
  Hf  Hf0  1  0.559260  0.800465  0.600939  1
  Hf  Hf1  1  0.558356  0.798600  0.198557  1
  Hf  Hf2  1  0.558352  0.399949  0.198555  1
  Hf  Hf3  1  0.435586  0.200986  0.401965  1
  Hf  Hf4  1  0.441313  0.199298  0.800542  1
  Hf  Hf5  1  0.441319  0.601251  0.800548  1
  Hf  Hf6  1  0.065121  0.204084  0.408163  1
  Hf  Hf7  1  0.059880  0.201852  0.797984  1
  Hf  Hf8  1  0.059870  0.596137  0.797989  1
  Hf  Hf9  1  0.940119  0.798082  0.596168  1
  Hf  Hf10  1  0.940699  0.795408  0.201062  1
  Hf  Hf11  1  0.940700  0.405649  0.201060  1
  Hf  Hf12  1  0.748927  0.459451  0.918905  1
  Hf  Hf13  1  0.749410  0.463027  0.545152  1
  Hf  Hf14  1  0.749411  0.082114  0.545152  1
  Hf  Hf15  1  0.250760  0.540260  0.080517  1
  Hf  Hf16  1  0.250918  0.539908  0.457981  1
  Hf  Hf17  1  0.250920  0.918082  0.457981  1
  Nb  Nb18  1  0.002664  0.000083  0.000178  1
  V  V19  1  0.494869  0.999239  0.998462  1
  Fe  Fe20  1  0.749339  0.665608  0.331197  1
  Fe  Fe21  1  0.251008  0.332581  0.665157  1
  Re  Re22  1  0.745754  0.109014  0.884536  1
  Re  Re23  1  0.745740  0.775519  0.884542  1
  Re  Re24  1  0.255046  0.886717  0.773423  1
  Re  Re25  1  0.254841  0.888484  0.112983  1
  Re  Re26  1  0.254837  0.224496  0.112976  1
  Pt  Pt27  1  0.744978  0.113656  0.227324  1
