# generated using pymatgen
data_Tb5Ho3Hf9Si16W3
_symmetry_space_group_name_H-M   'P 1'
_cell_length_a   7.19019307
_cell_length_b   7.18985747
_cell_length_c   13.16329038
_cell_angle_alpha   90.11294907
_cell_angle_beta   90.08684630
_cell_angle_gamma   90.08580976
_symmetry_Int_Tables_number   1
_chemical_formula_structural   Tb5Ho3Hf9Si16W3
_chemical_formula_sum   'Tb5 Ho3 Hf9 Si16 W3'
_cell_volume   680.49268892
_cell_formula_units_Z   1
loop_
 _symmetry_equiv_pos_site_id
 _symmetry_equiv_pos_as_xyz
  1  'x, y, z'
loop_
 _atom_site_type_symbol
 _atom_site_label
 _atom_site_symmetry_multiplicity
 _atom_site_fract_x
 _atom_site_fract_y
 _atom_site_fract_z
 _atom_site_occupancy
  Tb  Tb0  1  0.500501  0.845037  0.035936  1
  Tb  Tb1  1  0.846189  0.502240  0.967787  1
  Tb  Tb2  1  0.497781  0.154034  0.532180  1
  Tb  Tb3  1  0.343226  0.996288  0.785105  1
  Tb  Tb4  1  0.655926  0.001109  0.284542  1
  Ho  Ho5  1  0.999734  0.344546  0.215434  1
  Ho  Ho6  1  0.003160  0.656285  0.714505  1
  Ho  Ho7  1  0.154471  0.500219  0.463877  1
  Hf  Hf8  1  0.675561  0.324897  0.749901  1
  Hf  Hf9  1  0.146724  0.992901  0.373447  1
  Hf  Hf10  1  0.854875  0.004660  0.876435  1
  Hf  Hf11  1  0.505696  0.649338  0.621172  1
  Hf  Hf12  1  0.350193  0.494401  0.878622  1
  Hf  Hf13  1  0.492869  0.352259  0.125567  1
  Hf  Hf14  1  0.647702  0.506824  0.374525  1
  Hf  Hf15  1  0.995647  0.145207  0.623390  1
  Hf  Hf16  1  0.007013  0.853240  0.126613  1
  Si  Si17  1  0.359682  0.298712  0.316736  1
  Si  Si18  1  0.638553  0.705000  0.816991  1
  Si  Si19  1  0.202440  0.860270  0.565765  1
  Si  Si20  1  0.138500  0.796732  0.934298  1
  Si  Si21  1  0.798128  0.138900  0.067424  1
  Si  Si22  1  0.862123  0.202975  0.432814  1
  Si  Si23  1  0.294360  0.362497  0.682607  1
  Si  Si24  1  0.702372  0.638740  0.183509  1
  Si  Si25  1  0.295506  0.051015  0.184164  1
  Si  Si26  1  0.705279  0.947130  0.682040  1
  Si  Si27  1  0.448654  0.794982  0.432238  1
  Si  Si28  1  0.204229  0.550411  0.068045  1
  Si  Si29  1  0.547217  0.202976  0.936170  1
  Si  Si30  1  0.798137  0.453471  0.563869  1
  Si  Si31  1  0.052396  0.295654  0.817714  1
  Si  Si32  1  0.950088  0.703068  0.315992  1
  W  W33  1  0.176594  0.175680  0.001708  1
  W  W34  1  0.825035  0.822716  0.498622  1
  W  W35  1  0.323439  0.675586  0.250259  1
