# generated using pymatgen
data_Sc6Ta3TiAl12Fe7
_symmetry_space_group_name_H-M   'P 1'
_cell_length_a   8.62998240
_cell_length_b   8.62998299
_cell_length_c   8.63341645
_cell_angle_alpha   60.01315857
_cell_angle_beta   60.01315926
_cell_angle_gamma   60.00000329
_symmetry_Int_Tables_number   1
_chemical_formula_structural   Sc6Ta3TiAl12Fe7
_chemical_formula_sum   'Sc6 Ta3 Ti1 Al12 Fe7'
_cell_volume   454.75125325
_cell_formula_units_Z   1
loop_
 _symmetry_equiv_pos_site_id
 _symmetry_equiv_pos_as_xyz
  1  'x, y, z'
loop_
 _atom_site_type_symbol
 _atom_site_label
 _atom_site_symmetry_multiplicity
 _atom_site_fract_x
 _atom_site_fract_y
 _atom_site_fract_z
 _atom_site_occupancy
  Sc  Sc0  1  0.708094  0.708094  0.293985  1
  Sc  Sc1  1  0.289826  0.708094  0.293985  1
  Sc  Sc2  1  0.708094  0.289826  0.293985  1
  Sc  Sc3  1  0.293151  0.293151  0.706758  1
  Sc  Sc4  1  0.706941  0.293151  0.706758  1
  Sc  Sc5  1  0.293151  0.706941  0.706758  1
  Ta  Ta6  1  0.880428  0.357948  0.881193  1
  Ta  Ta7  1  0.357948  0.880428  0.881193  1
  Ta  Ta8  1  0.880428  0.880428  0.881193  1
  Ti  Ti9  1  0.881889  0.881889  0.354332  1
  Al  Al10  1  0.119855  0.119855  0.640435  1
  Al  Al11  1  0.119036  0.640218  0.121712  1
  Al  Al12  1  0.640218  0.119036  0.121712  1
  Al  Al13  1  0.119036  0.119036  0.121712  1
  Al  Al14  1  0.664140  0.664140  0.007582  1
  Al  Al15  1  0.667466  0.003142  0.661929  1
  Al  Al16  1  0.003142  0.667466  0.661929  1
  Al  Al17  1  0.667466  0.667466  0.661929  1
  Al  Al18  1  0.334228  0.334228  0.997315  1
  Al  Al19  1  0.334058  0.997960  0.333923  1
  Al  Al20  1  0.997960  0.334058  0.333923  1
  Al  Al21  1  0.334058  0.334058  0.333923  1
  Fe  Fe22  1  0.999941  0.999941  0.000177  1
  Fe  Fe23  1  0.996771  0.996771  0.505720  1
  Fe  Fe24  1  0.500739  0.996771  0.505720  1
  Fe  Fe25  1  0.996771  0.500739  0.505720  1
  Fe  Fe26  1  0.504689  0.504689  0.994834  1
  Fe  Fe27  1  0.995788  0.504689  0.994834  1
  Fe  Fe28  1  0.504689  0.995788  0.994834  1
