# generated using pymatgen
data_Ni4Bi7Pb5
_symmetry_space_group_name_H-M   'P 1'
_cell_length_a   9.03863677
_cell_length_b   4.08530100
_cell_length_c   11.72428649
_cell_angle_alpha   90.00000000
_cell_angle_beta   90.15646373
_cell_angle_gamma   90.00000000
_symmetry_Int_Tables_number   1
_chemical_formula_structural   Ni4Bi7Pb5
_chemical_formula_sum   'Ni4 Bi7 Pb5'
_cell_volume   432.92413433
_cell_formula_units_Z   1
loop_
 _symmetry_equiv_pos_site_id
 _symmetry_equiv_pos_as_xyz
  1  'x, y, z'
loop_
 _atom_site_type_symbol
 _atom_site_label
 _atom_site_symmetry_multiplicity
 _atom_site_fract_x
 _atom_site_fract_y
 _atom_site_fract_z
 _atom_site_occupancy
  Ni  Ni0  1  0.086133  0.250002  0.518715  1
  Ni  Ni1  1  0.415403  0.750001  0.016248  1
  Ni  Ni2  1  0.587553  0.250002  0.978887  1
  Ni  Ni3  1  0.914168  0.750001  0.480129  1
  Bi  Bi4  1  0.086861  0.750001  0.675060  1
  Bi  Bi5  1  0.913503  0.250002  0.323327  1
  Bi  Bi6  1  0.587962  0.750001  0.823794  1
  Bi  Bi7  1  0.298272  0.250002  0.897633  1
  Bi  Bi8  1  0.202010  0.750001  0.394054  1
  Bi  Bi9  1  0.798758  0.250002  0.604329  1
  Bi  Bi10  1  0.698420  0.750001  0.105863  1
  Pb  Pb11  1  0.382386  0.250002  0.594522  1
  Pb  Pb12  1  0.116884  0.750001  0.090569  1
  Pb  Pb13  1  0.883856  0.250002  0.908401  1
  Pb  Pb14  1  0.616701  0.750001  0.405444  1
  Pb  Pb15  1  0.411133  0.250002  0.183031  1
