# generated using pymatgen
data_Pr3NdAl3(Ga5Ir2)3
_symmetry_space_group_name_H-M   'P 1'
_cell_length_a   7.65264456
_cell_length_b   7.65446694
_cell_length_c   9.61854801
_cell_angle_alpha   89.99977730
_cell_angle_beta   90.00144745
_cell_angle_gamma   119.55518308
_symmetry_Int_Tables_number   1
_chemical_formula_structural   Pr3NdAl3(Ga5Ir2)3
_chemical_formula_sum   'Pr3 Nd1 Al3 Ga15 Ir6'
_cell_volume   490.11260206
_cell_formula_units_Z   1
loop_
 _symmetry_equiv_pos_site_id
 _symmetry_equiv_pos_as_xyz
  1  'x, y, z'
loop_
 _atom_site_type_symbol
 _atom_site_label
 _atom_site_symmetry_multiplicity
 _atom_site_fract_x
 _atom_site_fract_y
 _atom_site_fract_z
 _atom_site_occupancy
  Pr  Pr0  1  0.999913  0.670004  0.250060  1
  Pr  Pr1  1  0.999863  0.330417  0.748993  1
  Pr  Pr2  1  0.670055  0.999930  0.250056  1
  Nd  Nd3  1  0.330400  0.999634  0.748967  1
  Al  Al4  1  0.663451  0.663454  0.454624  1
  Al  Al5  1  0.667558  0.667560  0.045187  1
  Al  Al6  1  0.332413  0.332110  0.952906  1
  Ga  Ga7  1  0.127716  0.127698  0.249474  1
  Ga  Ga8  1  0.873103  0.872761  0.749335  1
  Ga  Ga9  1  0.002750  0.335571  0.077482  1
  Ga  Ga10  1  0.998706  0.665552  0.921279  1
  Ga  Ga11  1  0.997682  0.665101  0.578137  1
  Ga  Ga12  1  0.335984  0.004466  0.420964  1
  Ga  Ga13  1  0.004548  0.336014  0.420602  1
  Ga  Ga14  1  0.664055  0.997171  0.578164  1
  Ga  Ga15  1  0.664517  0.998203  0.921260  1
  Ga  Ga16  1  0.335549  0.002672  0.077128  1
  Ga  Ga17  1  0.329802  0.329375  0.560324  1
  Ga  Ga18  1  0.348366  0.548865  0.249897  1
  Ga  Ga19  1  0.654552  0.451535  0.750205  1
  Ga  Ga20  1  0.548828  0.348348  0.249896  1
  Ga  Ga21  1  0.451996  0.655323  0.750204  1
  Ir  Ir22  1  0.668012  0.331978  0.999557  1
  Ir  Ir23  1  0.332075  0.668254  0.999562  1
  Ir  Ir24  1  0.331707  0.671348  0.499258  1
  Ir  Ir25  1  0.671119  0.331634  0.499243  1
  Ir  Ir26  1  0.999956  0.999812  0.999158  1
  Ir  Ir27  1  0.995324  0.995210  0.498075  1
