# generated using pymatgen
data_Nd10Sn2Bi4S
_symmetry_space_group_name_H-M   'P 1'
_cell_length_a   6.51512594
_cell_length_b   9.60958889
_cell_length_c   9.58741100
_cell_angle_alpha   120.07681903
_cell_angle_beta   90.03075357
_cell_angle_gamma   89.93837331
_symmetry_Int_Tables_number   1
_chemical_formula_structural   Nd10Sn2Bi4S
_chemical_formula_sum   'Nd10 Sn2 Bi4 S1'
_cell_volume   519.42476269
_cell_formula_units_Z   1
loop_
 _symmetry_equiv_pos_site_id
 _symmetry_equiv_pos_as_xyz
  1  'x, y, z'
loop_
 _atom_site_type_symbol
 _atom_site_label
 _atom_site_symmetry_multiplicity
 _atom_site_fract_x
 _atom_site_fract_y
 _atom_site_fract_z
 _atom_site_occupancy
  Nd  Nd0  1  0.498378  0.332620  0.663301  1
  Nd  Nd1  1  0.498367  0.669314  0.336697  1
  Nd  Nd2  1  0.001849  0.669384  0.336678  1
  Nd  Nd3  1  0.001857  0.332750  0.663332  1
  Nd  Nd4  1  0.752170  0.247122  0.000009  1
  Nd  Nd5  1  0.751856  0.753390  0.752750  1
  Nd  Nd6  1  0.751874  0.000631  0.247248  1
  Nd  Nd7  1  0.248265  0.755880  0.000003  1
  Nd  Nd8  1  0.248070  0.244794  0.250879  1
  Nd  Nd9  1  0.248080  0.993903  0.749106  1
  Sn  Sn10  1  0.248475  0.610721  0.612178  1
  Sn  Sn11  1  0.248421  0.998457  0.387789  1
  Bi  Bi12  1  0.750389  0.611429  0.000039  1
  Bi  Bi13  1  0.751208  0.389673  0.388332  1
  Bi  Bi14  1  0.751217  0.001273  0.611636  1
  Bi  Bi15  1  0.248963  0.387081  0.000030  1
  S  S16  1  0.500562  0.001581  0.999991  1
