# generated using pymatgen
data_Hf2V3Sb
_symmetry_space_group_name_H-M   'P 1'
_cell_length_a   5.34535300
_cell_length_b   5.34535369
_cell_length_c   8.62059900
_cell_angle_alpha   90.00000000
_cell_angle_beta   90.00000000
_cell_angle_gamma   120.00000191
_symmetry_Int_Tables_number   1
_chemical_formula_structural   Hf2V3Sb
_chemical_formula_sum   'Hf4 V6 Sb2'
_cell_volume   213.31475893
_cell_formula_units_Z   2
loop_
 _symmetry_equiv_pos_site_id
 _symmetry_equiv_pos_as_xyz
  1  'x, y, z'
loop_
 _atom_site_type_symbol
 _atom_site_label
 _atom_site_symmetry_multiplicity
 _atom_site_fract_x
 _atom_site_fract_y
 _atom_site_fract_z
 _atom_site_occupancy
  Hf  Hf0  1  0.333333  0.666667  0.437820  1
  Hf  Hf1  1  0.666667  0.333333  0.562180  1
  Hf  Hf2  1  0.666667  0.333333  0.937820  1
  Hf  Hf3  1  0.333333  0.666667  0.062180  1
  V  V4  1  0.815620  0.184380  0.250000  1
  V  V5  1  0.815620  0.631240  0.250000  1
  V  V6  1  0.368760  0.184380  0.250000  1
  V  V7  1  0.184380  0.815620  0.750000  1
  V  V8  1  0.184380  0.368760  0.750000  1
  V  V9  1  0.631240  0.815620  0.750000  1
  Sb  Sb10  1  0.000000  0.000000  0.500000  1
  Sb  Sb11  1  0.000000  0.000000  0.000000  1
