# generated using pymatgen
data_Hf4Nb5ReN12
_symmetry_space_group_name_H-M   'P 1'
_cell_length_a   5.28705100
_cell_length_b   5.26557763
_cell_length_c   10.64455100
_cell_angle_alpha   90.00000000
_cell_angle_beta   90.00000000
_cell_angle_gamma   120.13499954
_symmetry_Int_Tables_number   1
_chemical_formula_structural   Hf4Nb5ReN12
_chemical_formula_sum   'Hf4 Nb5 Re1 N12'
_cell_volume   256.28612778
_cell_formula_units_Z   1
loop_
 _symmetry_equiv_pos_site_id
 _symmetry_equiv_pos_as_xyz
  1  'x, y, z'
loop_
 _atom_site_type_symbol
 _atom_site_label
 _atom_site_symmetry_multiplicity
 _atom_site_fract_x
 _atom_site_fract_y
 _atom_site_fract_z
 _atom_site_occupancy
  Hf  Hf0  1  0.332161  0.665283  0.495359  1
  Hf  Hf1  1  0.666879  0.334717  0.004641  1
  Hf  Hf2  1  0.666879  0.334717  0.495359  1
  Hf  Hf3  1  0.332161  0.665283  0.004641  1
  Nb  Nb4  1  0.674762  0.674950  0.250000  1
  Nb  Nb5  1  0.999812  0.325050  0.250000  1
  Nb  Nb6  1  0.999716  0.674252  0.750000  1
  Nb  Nb7  1  0.325464  0.325748  0.750000  1
  Nb  Nb8  1  0.324989  0.000000  0.250000  1
  Re  Re9  1  0.675286  0.000000  0.750000  1
  N  N10  1  0.341873  0.341645  0.376624  1
  N  N11  1  0.656430  0.000000  0.377337  1
  N  N12  1  0.000228  0.658355  0.376624  1
  N  N13  1  0.996171  0.340416  0.872020  1
  N  N14  1  0.656430  0.000000  0.122663  1
  N  N15  1  0.655755  0.659584  0.872020  1
  N  N16  1  0.350489  0.000000  0.871572  1
  N  N17  1  0.655755  0.659584  0.627980  1
  N  N18  1  0.996171  0.340416  0.627980  1
  N  N19  1  0.000228  0.658355  0.123376  1
  N  N20  1  0.350489  0.000000  0.628428  1
  N  N21  1  0.341873  0.341645  0.123376  1
