# generated using pymatgen
data_NdYFe2Br
_symmetry_space_group_name_H-M   'P 1'
_cell_length_a   3.94687200
_cell_length_b   3.94687027
_cell_length_c   16.92770900
_cell_angle_alpha   90.00000000
_cell_angle_beta   90.00000000
_cell_angle_gamma   119.99999772
_symmetry_Int_Tables_number   1
_chemical_formula_structural   NdYFe2Br
_chemical_formula_sum   'Nd2 Y2 Fe4 Br2'
_cell_volume   228.36772235
_cell_formula_units_Z   2
loop_
 _symmetry_equiv_pos_site_id
 _symmetry_equiv_pos_as_xyz
  1  'x, y, z'
loop_
 _atom_site_type_symbol
 _atom_site_label
 _atom_site_symmetry_multiplicity
 _atom_site_fract_x
 _atom_site_fract_y
 _atom_site_fract_z
 _atom_site_occupancy
  Nd  Nd0  1  0.000000  0.000000  0.613673  1
  Nd  Nd1  1  0.000000  0.000000  0.386327  1
  Y  Y2  1  0.000000  0.000000  0.106844  1
  Y  Y3  1  0.000000  0.000000  0.893156  1
  Fe  Fe4  1  0.333333  0.666667  0.503830  1
  Fe  Fe5  1  0.666667  0.333333  0.496170  1
  Fe  Fe6  1  0.666667  0.333333  0.006198  1
  Fe  Fe7  1  0.333333  0.666667  0.993802  1
  Br  Br8  1  0.333333  0.666667  0.242374  1
  Br  Br9  1  0.666667  0.333333  0.757626  1
