# generated using pymatgen
data_Ti3Mn4MoP4
_symmetry_space_group_name_H-M   'P 1'
_cell_length_a   3.47143400
_cell_length_b   6.14134029
_cell_length_c   7.16670763
_cell_angle_alpha   90.41182205
_cell_angle_beta   90.00000000
_cell_angle_gamma   90.00000000
_symmetry_Int_Tables_number   1
_chemical_formula_structural   Ti3Mn4MoP4
_chemical_formula_sum   'Ti3 Mn4 Mo1 P4'
_cell_volume   152.78493849
_cell_formula_units_Z   1
loop_
 _symmetry_equiv_pos_site_id
 _symmetry_equiv_pos_as_xyz
  1  'x, y, z'
loop_
 _atom_site_type_symbol
 _atom_site_label
 _atom_site_symmetry_multiplicity
 _atom_site_fract_x
 _atom_site_fract_y
 _atom_site_fract_z
 _atom_site_occupancy
  Ti  Ti0  1  0.250000  0.466220  0.172433  1
  Ti  Ti1  1  0.750000  0.031596  0.671573  1
  Ti  Ti2  1  0.750000  0.532872  0.827815  1
  Mn  Mn3  1  0.250000  0.863399  0.940436  1
  Mn  Mn4  1  0.250000  0.359476  0.559266  1
  Mn  Mn5  1  0.750000  0.140979  0.058820  1
  Mn  Mn6  1  0.750000  0.637624  0.440002  1
  Mo  Mo7  1  0.250000  0.966012  0.332724  1
  P  P8  1  0.250000  0.237536  0.866149  1
  P  P9  1  0.250000  0.734295  0.633530  1
  P  P10  1  0.750000  0.764090  0.130261  1
  P  P11  1  0.750000  0.265903  0.366991  1
