# generated using pymatgen
data_Tb8Lu4ZnCo4Sn
_symmetry_space_group_name_H-M   'P 1'
_cell_length_a   8.29043342
_cell_length_b   8.29043265
_cell_length_c   8.29043290
_cell_angle_alpha   111.77142726
_cell_angle_beta   109.61584002
_cell_angle_gamma   107.06061511
_symmetry_Int_Tables_number   1
_chemical_formula_structural   Tb8Lu4ZnCo4Sn
_chemical_formula_sum   'Tb8 Lu4 Zn1 Co4 Sn1'
_cell_volume   437.90006021
_cell_formula_units_Z   1
loop_
 _symmetry_equiv_pos_site_id
 _symmetry_equiv_pos_as_xyz
  1  'x, y, z'
loop_
 _atom_site_type_symbol
 _atom_site_label
 _atom_site_symmetry_multiplicity
 _atom_site_fract_x
 _atom_site_fract_y
 _atom_site_fract_z
 _atom_site_occupancy
  Tb  Tb0  1  0.430237  0.227547  0.202687  1
  Tb  Tb1  1  0.569763  0.772453  0.797313  1
  Tb  Tb2  1  0.024860  0.227547  0.797313  1
  Tb  Tb3  1  0.975140  0.772453  0.202687  1
  Tb  Tb4  1  0.182964  0.283972  0.466937  1
  Tb  Tb5  1  0.817036  0.716028  0.533063  1
  Tb  Tb6  1  0.182964  0.716028  0.898992  1
  Tb  Tb7  1  0.817036  0.283972  0.101008  1
  Lu  Lu8  1  0.320270  0.630493  0.310223  1
  Lu  Lu9  1  0.679730  0.369507  0.689777  1
  Lu  Lu10  1  0.320270  0.010047  0.689777  1
  Lu  Lu11  1  0.679730  0.989953  0.310223  1
  Zn  Zn12  1  0.000000  0.000000  0.000000  1
  Co  Co13  1  0.367368  0.000000  0.367368  1
  Co  Co14  1  0.632632  0.000000  0.632632  1
  Co  Co15  1  0.114396  0.614396  0.500000  1
  Co  Co16  1  0.885604  0.385604  0.500000  1
  Sn  Sn17  1  0.500000  0.500000  0.000000  1
