# generated using pymatgen
data_Zr3Al2O
_symmetry_space_group_name_H-M   'P 1'
_cell_length_a   7.40256600
_cell_length_b   7.40256600
_cell_length_c   7.40256600
_cell_angle_alpha   90.00000000
_cell_angle_beta   90.00000000
_cell_angle_gamma   90.00000000
_symmetry_Int_Tables_number   1
_chemical_formula_structural   Zr3Al2O
_chemical_formula_sum   'Zr12 Al8 O4'
_cell_volume   405.64568867
_cell_formula_units_Z   4
loop_
 _symmetry_equiv_pos_site_id
 _symmetry_equiv_pos_as_xyz
  1  'x, y, z'
loop_
 _atom_site_type_symbol
 _atom_site_label
 _atom_site_symmetry_multiplicity
 _atom_site_fract_x
 _atom_site_fract_y
 _atom_site_fract_z
 _atom_site_occupancy
  Zr  Zr0  1  0.794810  0.955190  0.375000  1
  Zr  Zr1  1  0.705190  0.044810  0.875000  1
  Zr  Zr2  1  0.205190  0.455190  0.125000  1
  Zr  Zr3  1  0.294810  0.544810  0.625000  1
  Zr  Zr4  1  0.955190  0.375000  0.794810  1
  Zr  Zr5  1  0.044810  0.875000  0.705190  1
  Zr  Zr6  1  0.455190  0.125000  0.205190  1
  Zr  Zr7  1  0.544810  0.625000  0.294810  1
  Zr  Zr8  1  0.375000  0.794810  0.955190  1
  Zr  Zr9  1  0.875000  0.705190  0.044810  1
  Zr  Zr10  1  0.125000  0.205190  0.455190  1
  Zr  Zr11  1  0.625000  0.294810  0.544810  1
  Al  Al12  1  0.179093  0.820907  0.320907  1
  Al  Al13  1  0.320907  0.179093  0.820907  1
  Al  Al14  1  0.820907  0.320907  0.179093  1
  Al  Al15  1  0.679093  0.679093  0.679093  1
  Al  Al16  1  0.570907  0.429093  0.929093  1
  Al  Al17  1  0.429093  0.929093  0.570907  1
  Al  Al18  1  0.929093  0.570907  0.429093  1
  Al  Al19  1  0.070907  0.070907  0.070907  1
  O  O20  1  0.875000  0.125000  0.625000  1
  O  O21  1  0.625000  0.875000  0.125000  1
  O  O22  1  0.125000  0.625000  0.875000  1
  O  O23  1  0.375000  0.375000  0.375000  1
