# generated using pymatgen
data_NdYHf2(Al3Rh)6
_symmetry_space_group_name_H-M   'P 1'
_cell_length_a   7.51101067
_cell_length_b   7.50379219
_cell_length_c   9.39345900
_cell_angle_alpha   90.00000000
_cell_angle_beta   90.00000000
_cell_angle_gamma   119.55579019
_symmetry_Int_Tables_number   1
_chemical_formula_structural   NdYHf2(Al3Rh)6
_chemical_formula_sum   'Nd1 Y1 Hf2 Al18 Rh6'
_cell_volume   460.53428755
_cell_formula_units_Z   1
loop_
 _symmetry_equiv_pos_site_id
 _symmetry_equiv_pos_as_xyz
  1  'x, y, z'
loop_
 _atom_site_type_symbol
 _atom_site_label
 _atom_site_symmetry_multiplicity
 _atom_site_fract_x
 _atom_site_fract_y
 _atom_site_fract_z
 _atom_site_occupancy
  Nd  Nd0  1  0.329490  0.007174  0.250000  1
  Y  Y1  1  0.006845  0.328974  0.250000  1
  Hf  Hf2  1  0.993875  0.672037  0.750000  1
  Hf  Hf3  1  0.673257  0.995084  0.750000  1
  Al  Al4  1  0.120088  0.120790  0.750000  1
  Al  Al5  1  0.866715  0.868608  0.250000  1
  Al  Al6  1  0.995978  0.335142  0.584677  1
  Al  Al7  1  0.997410  0.663927  0.433824  1
  Al  Al8  1  0.997410  0.663927  0.066176  1
  Al  Al9  1  0.335172  0.995801  0.913804  1
  Al  Al10  1  0.995978  0.335142  0.915323  1
  Al  Al11  1  0.666443  0.998602  0.066176  1
  Al  Al12  1  0.666443  0.998602  0.433824  1
  Al  Al13  1  0.335172  0.995801  0.586196  1
  Al  Al14  1  0.334674  0.335930  0.043625  1
  Al  Al15  1  0.669873  0.669973  0.933908  1
  Al  Al16  1  0.669873  0.669973  0.566092  1
  Al  Al17  1  0.334674  0.335930  0.456375  1
  Al  Al18  1  0.338417  0.556462  0.750000  1
  Al  Al19  1  0.664526  0.455431  0.250000  1
  Al  Al20  1  0.556501  0.339065  0.750000  1
  Al  Al21  1  0.452693  0.658901  0.250000  1
  Rh  Rh22  1  0.673408  0.328610  0.504518  1
  Rh  Rh23  1  0.328476  0.673322  0.504315  1
  Rh  Rh24  1  0.328476  0.673322  0.995685  1
  Rh  Rh25  1  0.673408  0.328610  0.995482  1
  Rh  Rh26  1  0.997364  0.997429  0.504446  1
  Rh  Rh27  1  0.997364  0.997429  0.995554  1
