# generated using pymatgen
data_Sr2Hf3Si7Pt9
_symmetry_space_group_name_H-M   'P 1'
_cell_length_a   10.14360700
_cell_length_b   10.14360645
_cell_length_c   4.02706500
_cell_angle_alpha   90.00000000
_cell_angle_beta   90.00000000
_cell_angle_gamma   119.99999854
_symmetry_Int_Tables_number   1
_chemical_formula_structural   Sr2Hf3Si7Pt9
_chemical_formula_sum   'Sr2 Hf3 Si7 Pt9'
_cell_volume   358.84267334
_cell_formula_units_Z   1
loop_
 _symmetry_equiv_pos_site_id
 _symmetry_equiv_pos_as_xyz
  1  'x, y, z'
loop_
 _atom_site_type_symbol
 _atom_site_label
 _atom_site_symmetry_multiplicity
 _atom_site_fract_x
 _atom_site_fract_y
 _atom_site_fract_z
 _atom_site_occupancy
  Sr  Sr0  1  0.000000  0.000000  0.000000  1
  Sr  Sr1  1  0.333333  0.666667  0.500000  1
  Hf  Hf2  1  0.892994  0.455468  0.500000  1
  Hf  Hf3  1  0.562474  0.107006  0.500000  1
  Hf  Hf4  1  0.544532  0.437526  0.500000  1
  Si  Si5  1  0.247685  0.200983  0.500000  1
  Si  Si6  1  0.799017  0.046703  0.500000  1
  Si  Si7  1  0.953297  0.752315  0.500000  1
  Si  Si8  1  0.559126  0.648019  0.000000  1
  Si  Si9  1  0.351981  0.911106  0.000000  1
  Si  Si10  1  0.088894  0.440874  0.000000  1
  Si  Si11  1  0.666667  0.333333  0.000000  1
  Pt  Pt12  1  0.225027  0.940512  0.500000  1
  Pt  Pt13  1  0.059488  0.284516  0.500000  1
  Pt  Pt14  1  0.715484  0.774973  0.500000  1
  Pt  Pt15  1  0.313637  0.406107  0.000000  1
  Pt  Pt16  1  0.593893  0.907530  0.000000  1
  Pt  Pt17  1  0.092470  0.686363  0.000000  1
  Pt  Pt18  1  0.392786  0.175159  0.000000  1
  Pt  Pt19  1  0.824841  0.217626  0.000000  1
  Pt  Pt20  1  0.782374  0.607214  0.000000  1
