# generated using pymatgen
data_Tb3Ho3Co16(TcP6)2
_symmetry_space_group_name_H-M   'P 1'
_cell_length_a   3.71705300
_cell_length_b   10.53363303
_cell_length_c   12.23711703
_cell_angle_alpha   89.99200356
_cell_angle_beta   90.00000000
_cell_angle_gamma   90.00000000
_symmetry_Int_Tables_number   1
_chemical_formula_structural   Tb3Ho3Co16(TcP6)2
_chemical_formula_sum   'Tb3 Ho3 Co16 Tc2 P12'
_cell_volume   479.13295951
_cell_formula_units_Z   1
loop_
 _symmetry_equiv_pos_site_id
 _symmetry_equiv_pos_as_xyz
  1  'x, y, z'
loop_
 _atom_site_type_symbol
 _atom_site_label
 _atom_site_symmetry_multiplicity
 _atom_site_fract_x
 _atom_site_fract_y
 _atom_site_fract_z
 _atom_site_occupancy
  Tb  Tb0  1  0.000000  0.500070  0.523807  1
  Tb  Tb1  1  0.500000  0.000002  0.476044  1
  Tb  Tb2  1  0.000000  0.317585  0.794085  1
  Ho  Ho3  1  0.500000  0.817516  0.206032  1
  Ho  Ho4  1  0.500000  0.182392  0.205776  1
  Ho  Ho5  1  0.000000  0.682674  0.794126  1
  Co  Co6  1  0.500000  0.500629  0.703312  1
  Co  Co7  1  0.000000  0.999913  0.296466  1
  Co  Co8  1  0.000000  0.500315  0.987807  1
  Co  Co9  1  0.500000  0.999742  0.012760  1
  Co  Co10  1  0.500000  0.332221  0.990665  1
  Co  Co11  1  0.500000  0.668091  0.990231  1
  Co  Co12  1  0.000000  0.167505  0.010234  1
  Co  Co13  1  0.000000  0.832142  0.010092  1
  Co  Co14  1  0.500000  0.296272  0.430264  1
  Co  Co15  1  0.500000  0.703813  0.430627  1
  Co  Co16  1  0.000000  0.203650  0.568795  1
  Co  Co17  1  0.000000  0.796322  0.569317  1
  Co  Co18  1  0.500000  0.878857  0.708453  1
  Co  Co19  1  0.500000  0.120349  0.708036  1
  Co  Co20  1  0.000000  0.620998  0.291639  1
  Co  Co21  1  0.000000  0.379000  0.291411  1
  Tc  Tc22  1  0.500000  0.500153  0.156043  1
  Tc  Tc23  1  0.000000  0.999775  0.844025  1
  P  P24  1  0.500000  0.500585  0.881652  1
  P  P25  1  0.000000  0.999864  0.118907  1
  P  P26  1  0.500000  0.500006  0.348159  1
  P  P27  1  0.000000  0.000063  0.651787  1
  P  P28  1  0.500000  0.311127  0.615711  1
  P  P29  1  0.500000  0.688929  0.616508  1
  P  P30  1  0.000000  0.188624  0.383133  1
  P  P31  1  0.000000  0.811249  0.383423  1
  P  P32  1  0.500000  0.846012  0.892775  1
  P  P33  1  0.500000  0.153447  0.893290  1
  P  P34  1  0.000000  0.654169  0.107460  1
  P  P35  1  0.000000  0.345939  0.107145  1
