# generated using pymatgen
data_Ho3Lu2Tl3S
_symmetry_space_group_name_H-M   'P 1'
_cell_length_a   9.03434200
_cell_length_b   9.03434278
_cell_length_c   6.62841800
_cell_angle_alpha   90.00000000
_cell_angle_beta   90.00000000
_cell_angle_gamma   120.00000447
_symmetry_Int_Tables_number   1
_chemical_formula_structural   Ho3Lu2Tl3S
_chemical_formula_sum   'Ho6 Lu4 Tl6 S2'
_cell_volume   468.52588700
_cell_formula_units_Z   2
loop_
 _symmetry_equiv_pos_site_id
 _symmetry_equiv_pos_as_xyz
  1  'x, y, z'
loop_
 _atom_site_type_symbol
 _atom_site_label
 _atom_site_symmetry_multiplicity
 _atom_site_fract_x
 _atom_site_fract_y
 _atom_site_fract_z
 _atom_site_occupancy
  Ho  Ho0  1  0.756709  0.756709  0.750000  1
  Ho  Ho1  1  0.243291  0.000000  0.750000  1
  Ho  Ho2  1  0.000000  0.243291  0.750000  1
  Ho  Ho3  1  0.243291  0.243291  0.250000  1
  Ho  Ho4  1  0.756709  0.000000  0.250000  1
  Ho  Ho5  1  0.000000  0.756709  0.250000  1
  Lu  Lu6  1  0.666667  0.333333  0.000000  1
  Lu  Lu7  1  0.333333  0.666667  0.000000  1
  Lu  Lu8  1  0.333333  0.666667  0.500000  1
  Lu  Lu9  1  0.666667  0.333333  0.500000  1
  Tl  Tl10  1  0.402071  0.402071  0.750000  1
  Tl  Tl11  1  0.597929  0.000000  0.750000  1
  Tl  Tl12  1  0.000000  0.597929  0.750000  1
  Tl  Tl13  1  0.597929  0.597929  0.250000  1
  Tl  Tl14  1  0.402071  0.000000  0.250000  1
  Tl  Tl15  1  0.000000  0.402071  0.250000  1
  S  S16  1  0.000000  0.000000  0.000000  1
  S  S17  1  0.000000  0.000000  0.500000  1
