# generated using pymatgen
data_Dy3Ho3ScCo17P12
_symmetry_space_group_name_H-M   'P 1'
_cell_length_a   3.70248200
_cell_length_b   10.56702600
_cell_length_c   12.25603700
_cell_angle_alpha   89.99807651
_cell_angle_beta   90.00000000
_cell_angle_gamma   90.00000000
_symmetry_Int_Tables_number   1
_chemical_formula_structural   Dy3Ho3ScCo17P12
_chemical_formula_sum   'Dy3 Ho3 Sc1 Co17 P12'
_cell_volume   479.50793139
_cell_formula_units_Z   1
loop_
 _symmetry_equiv_pos_site_id
 _symmetry_equiv_pos_as_xyz
  1  'x, y, z'
loop_
 _atom_site_type_symbol
 _atom_site_label
 _atom_site_symmetry_multiplicity
 _atom_site_fract_x
 _atom_site_fract_y
 _atom_site_fract_z
 _atom_site_occupancy
  Dy  Dy0  1  0.000000  0.499962  0.527736  1
  Dy  Dy1  1  0.500000  0.000063  0.477849  1
  Dy  Dy2  1  0.500000  0.821612  0.207279  1
  Ho  Ho3  1  0.500000  0.178486  0.207247  1
  Ho  Ho4  1  0.000000  0.682375  0.795681  1
  Ho  Ho5  1  0.000000  0.317613  0.795627  1
  Sc  Sc6  1  0.500000  0.499856  0.152532  1
  Co  Co7  1  0.000000  0.499842  0.984328  1
  Co  Co8  1  0.500000  0.000139  0.013086  1
  Co  Co9  1  0.500000  0.294592  0.433972  1
  Co  Co10  1  0.500000  0.705355  0.434154  1
  Co  Co11  1  0.000000  0.202057  0.570662  1
  Co  Co12  1  0.000000  0.797972  0.570791  1
  Co  Co13  1  0.500000  0.880205  0.708006  1
  Co  Co14  1  0.500000  0.119806  0.707974  1
  Co  Co15  1  0.000000  0.622533  0.296315  1
  Co  Co16  1  0.000000  0.377096  0.296067  1
  Co  Co17  1  0.500000  0.326784  0.989728  1
  Co  Co18  1  0.500000  0.673077  0.989611  1
  Co  Co19  1  0.000000  0.162316  0.001562  1
  Co  Co20  1  0.000000  0.837863  0.001506  1
  Co  Co21  1  0.000000  0.000026  0.837457  1
  Co  Co22  1  0.500000  0.499964  0.703432  1
  Co  Co23  1  0.000000  0.000360  0.295965  1
  P  P24  1  0.500000  0.309149  0.617964  1
  P  P25  1  0.500000  0.690814  0.618062  1
  P  P26  1  0.000000  0.188896  0.385979  1
  P  P27  1  0.000000  0.811142  0.386287  1
  P  P28  1  0.500000  0.499945  0.882861  1
  P  P29  1  0.000000  0.000278  0.116111  1
  P  P30  1  0.500000  0.851296  0.888867  1
  P  P31  1  0.500000  0.148756  0.888795  1
  P  P32  1  0.000000  0.663260  0.101465  1
  P  P33  1  0.000000  0.336475  0.101790  1
  P  P34  1  0.500000  0.500033  0.358135  1
  P  P35  1  0.000000  0.000005  0.655114  1
