# generated using pymatgen
data_Zr6Co12Ge4C
_symmetry_space_group_name_H-M   'P 1'
_cell_length_a   7.39777990
_cell_length_b   7.39778056
_cell_length_c   7.39778000
_cell_angle_alpha   109.47121362
_cell_angle_beta   109.47121544
_cell_angle_gamma   109.47122402
_symmetry_Int_Tables_number   1
_chemical_formula_structural   Zr6Co12Ge4C
_chemical_formula_sum   'Zr6 Co12 Ge4 C1'
_cell_volume   311.66097082
_cell_formula_units_Z   1
loop_
 _symmetry_equiv_pos_site_id
 _symmetry_equiv_pos_as_xyz
  1  'x, y, z'
loop_
 _atom_site_type_symbol
 _atom_site_label
 _atom_site_symmetry_multiplicity
 _atom_site_fract_x
 _atom_site_fract_y
 _atom_site_fract_z
 _atom_site_occupancy
  Zr  Zr0  1  0.275301  0.275301  0.000000  1
  Zr  Zr1  1  0.724700  0.724700  0.000000  1
  Zr  Zr2  1  0.275301  0.000000  0.275301  1
  Zr  Zr3  1  0.000000  0.275301  0.275301  1
  Zr  Zr4  1  0.724700  0.000000  0.724700  1
  Zr  Zr5  1  0.000000  0.724700  0.724700  1
  Co  Co6  1  0.652433  0.347568  0.000000  1
  Co  Co7  1  0.347568  0.652433  0.000000  1
  Co  Co8  1  0.652433  0.652433  0.304864  1
  Co  Co9  1  0.695134  0.347566  0.347566  1
  Co  Co10  1  0.347566  0.695134  0.347566  1
  Co  Co11  1  0.652433  0.000000  0.347568  1
  Co  Co12  1  0.000000  0.652433  0.347568  1
  Co  Co13  1  0.347568  0.000000  0.652433  1
  Co  Co14  1  0.652433  0.304864  0.652433  1
  Co  Co15  1  0.000000  0.347568  0.652433  1
  Co  Co16  1  0.304864  0.652433  0.652433  1
  Co  Co17  1  0.347566  0.347566  0.695134  1
  Ge  Ge18  1  0.500000  0.000000  0.000000  1
  Ge  Ge19  1  0.000000  0.500000  0.000000  1
  Ge  Ge20  1  0.000000  0.000000  0.500000  1
  Ge  Ge21  1  0.500000  0.500000  0.500000  1
  C  C22  1  0.000000  0.000000  0.000000  1
