# generated using pymatgen
data_Nb12Cr4Co8CN3
_symmetry_space_group_name_H-M   'P 1'
_cell_length_a   8.03248660
_cell_length_b   8.03268623
_cell_length_c   8.04263296
_cell_angle_alpha   60.04071374
_cell_angle_beta   60.04050225
_cell_angle_gamma   59.99927849
_symmetry_Int_Tables_number   1
_chemical_formula_structural   Nb12Cr4Co8CN3
_chemical_formula_sum   'Nb12 Cr4 Co8 C1 N3'
_cell_volume   367.16221913
_cell_formula_units_Z   1
loop_
 _symmetry_equiv_pos_site_id
 _symmetry_equiv_pos_as_xyz
  1  'x, y, z'
loop_
 _atom_site_type_symbol
 _atom_site_label
 _atom_site_symmetry_multiplicity
 _atom_site_fract_x
 _atom_site_fract_y
 _atom_site_fract_z
 _atom_site_occupancy
  Nb  Nb0  1  0.804383  0.804355  0.195032  1
  Nb  Nb1  1  0.196551  0.196679  0.803773  1
  Nb  Nb2  1  0.803045  0.196623  0.803816  1
  Nb  Nb3  1  0.196259  0.804314  0.195086  1
  Nb  Nb4  1  0.196655  0.802927  0.803731  1
  Nb  Nb5  1  0.804437  0.196210  0.194922  1
  Nb  Nb6  1  0.445607  0.445613  0.055060  1
  Nb  Nb7  1  0.053456  0.053329  0.446211  1
  Nb  Nb8  1  0.446964  0.053393  0.446180  1
  Nb  Nb9  1  0.053723  0.445628  0.055011  1
  Nb  Nb10  1  0.053371  0.447044  0.446261  1
  Nb  Nb11  1  0.445553  0.053727  0.055152  1
  Cr  Cr12  1  0.124860  0.625088  0.624947  1
  Cr  Cr13  1  0.625077  0.124953  0.624934  1
  Cr  Cr14  1  0.625041  0.624934  0.124978  1
  Cr  Cr15  1  0.625068  0.625074  0.624953  1
  Co  Co16  1  0.726728  0.424587  0.424196  1
  Co  Co17  1  0.424519  0.726676  0.424244  1
  Co  Co18  1  0.424558  0.424674  0.726179  1
  Co  Co19  1  0.424487  0.424611  0.424232  1
  Co  Co20  1  0.523264  0.825443  0.825802  1
  Co  Co21  1  0.825479  0.523337  0.825729  1
  Co  Co22  1  0.825449  0.825371  0.523751  1
  Co  Co23  1  0.825488  0.825406  0.825774  1
  C  C24  1  0.124993  0.125005  0.625013  1
  N  N25  1  0.625001  0.124994  0.125014  1
  N  N26  1  0.124989  0.625015  0.125004  1
  N  N27  1  0.124993  0.124992  0.125015  1
