# generated using pymatgen
data_Pa4Mn(Al3Pt)8
_symmetry_space_group_name_H-M   'P 1'
_cell_length_a   7.55950358
_cell_length_b   7.58770410
_cell_length_c   13.04843177
_cell_angle_alpha   84.63754708
_cell_angle_beta   78.97211709
_cell_angle_gamma   59.85925815
_symmetry_Int_Tables_number   1
_chemical_formula_structural   Pa4Mn(Al3Pt)8
_chemical_formula_sum   'Pa4 Mn1 Al24 Pt8'
_cell_volume   635.29927218
_cell_formula_units_Z   1
loop_
 _symmetry_equiv_pos_site_id
 _symmetry_equiv_pos_as_xyz
  1  'x, y, z'
loop_
 _atom_site_type_symbol
 _atom_site_label
 _atom_site_symmetry_multiplicity
 _atom_site_fract_x
 _atom_site_fract_y
 _atom_site_fract_z
 _atom_site_occupancy
  Pa  Pa0  1  0.390451  0.171564  0.808650  1
  Pa  Pa1  1  0.609549  0.828436  0.191350  1
  Pa  Pa2  1  0.737054  0.498307  0.808597  1
  Pa  Pa3  1  0.262946  0.501693  0.191403  1
  Mn  Mn4  1  0.000000  0.500000  0.000000  1
  Al  Al5  1  0.691286  0.826449  0.947306  1
  Al  Al6  1  0.308714  0.173551  0.052694  1
  Al  Al7  1  0.145719  0.832934  0.561052  1
  Al  Al8  1  0.854281  0.167066  0.438948  1
  Al  Al9  1  0.481726  0.166397  0.558705  1
  Al  Al10  1  0.518274  0.833603  0.441295  1
  Al  Al11  1  0.215245  0.164741  0.329192  1
  Al  Al12  1  0.784755  0.835259  0.670808  1
  Al  Al13  1  0.434963  0.509666  0.671102  1
  Al  Al14  1  0.565037  0.490334  0.328898  1
  Al  Al15  1  0.110414  0.156598  0.668308  1
  Al  Al16  1  0.889586  0.843402  0.331692  1
  Al  Al17  1  0.343665  0.500170  0.947362  1
  Al  Al18  1  0.656335  0.499830  0.052638  1
  Al  Al19  1  0.014259  0.175930  0.957026  1
  Al  Al20  1  0.985741  0.824070  0.042974  1
  Al  Al21  1  0.186905  0.499749  0.442057  1
  Al  Al22  1  0.813095  0.500251  0.557943  1
  Al  Al23  1  0.737388  0.162389  0.181700  1
  Al  Al24  1  0.262612  0.837611  0.818300  1
  Al  Al25  1  0.058941  0.629463  0.822550  1
  Al  Al26  1  0.941059  0.370537  0.177450  1
  Al  Al27  1  0.857472  0.040422  0.818087  1
  Al  Al28  1  0.142528  0.959578  0.181913  1
  Pt  Pt29  1  0.119416  0.491188  0.641287  1
  Pt  Pt30  1  0.880584  0.508812  0.358713  1
  Pt  Pt31  1  0.655543  0.172353  0.000003  1
  Pt  Pt32  1  0.344457  0.827647  0.999997  1
  Pt  Pt33  1  0.536762  0.167092  0.360476  1
  Pt  Pt34  1  0.463238  0.832908  0.639524  1
  Pt  Pt35  1  0.777951  0.175718  0.638681  1
  Pt  Pt36  1  0.222049  0.824282  0.361319  1
