# generated using pymatgen
data_Dy3Sc7In8Pd2PtRh
_symmetry_space_group_name_H-M   'P 1'
_cell_length_a   3.52896800
_cell_length_b   7.83505473
_cell_length_c   17.68250400
_cell_angle_alpha   90.09031247
_cell_angle_beta   90.00000000
_cell_angle_gamma   90.00000000
_symmetry_Int_Tables_number   1
_chemical_formula_structural   Dy3Sc7In8Pd2PtRh
_chemical_formula_sum   'Dy3 Sc7 In8 Pd2 Pt1 Rh1'
_cell_volume   488.91457077
_cell_formula_units_Z   1
loop_
 _symmetry_equiv_pos_site_id
 _symmetry_equiv_pos_as_xyz
  1  'x, y, z'
loop_
 _atom_site_type_symbol
 _atom_site_label
 _atom_site_symmetry_multiplicity
 _atom_site_fract_x
 _atom_site_fract_y
 _atom_site_fract_z
 _atom_site_occupancy
  Dy  Dy0  1  0.000000  0.749274  0.782307  1
  Dy  Dy1  1  0.000000  0.257111  0.218998  1
  Dy  Dy2  1  0.000000  0.252853  0.717638  1
  Sc  Sc3  1  0.000000  0.002291  0.002241  1
  Sc  Sc4  1  0.000000  0.498205  0.498832  1
  Sc  Sc5  1  0.000000  0.744333  0.278876  1
  Sc  Sc6  1  0.000000  0.877336  0.580872  1
  Sc  Sc7  1  0.000000  0.119473  0.413305  1
  Sc  Sc8  1  0.000000  0.379331  0.917233  1
  Sc  Sc9  1  0.000000  0.621622  0.089012  1
  In  In10  1  0.500000  0.794779  0.435385  1
  In  In11  1  0.500000  0.199275  0.557931  1
  In  In12  1  0.500000  0.303216  0.063254  1
  In  In13  1  0.500000  0.701528  0.942595  1
  In  In14  1  0.500000  0.919734  0.148140  1
  In  In15  1  0.500000  0.075511  0.856079  1
  In  In16  1  0.500000  0.432409  0.353551  1
  In  In17  1  0.500000  0.577515  0.643340  1
  Pd  Pd18  1  0.500000  0.962374  0.690503  1
  Pd  Pd19  1  0.500000  0.024084  0.305898  1
  Pt  Pt20  1  0.500000  0.462870  0.808594  1
  Rh  Rh21  1  0.500000  0.544877  0.195414  1
