# generated using pymatgen
data_Nd2Ag(SeO3)4
_symmetry_space_group_name_H-M   'P 1'
_cell_length_a   7.10158300
_cell_length_b   8.30826280
_cell_length_c   11.02825200
_cell_angle_alpha   70.85020039
_cell_angle_beta   90.00000000
_cell_angle_gamma   90.00000000
_symmetry_Int_Tables_number   1
_chemical_formula_structural   Nd2Ag(SeO3)4
_chemical_formula_sum   'Nd4 Ag2 Se8 O24'
_cell_volume   614.68060100
_cell_formula_units_Z   2
loop_
 _symmetry_equiv_pos_site_id
 _symmetry_equiv_pos_as_xyz
  1  'x, y, z'
loop_
 _atom_site_type_symbol
 _atom_site_label
 _atom_site_symmetry_multiplicity
 _atom_site_fract_x
 _atom_site_fract_y
 _atom_site_fract_z
 _atom_site_occupancy
  Nd  Nd0  1  0.661613  0.765345  0.079687  1
  Nd  Nd1  1  0.161613  0.734655  0.920313  1
  Nd  Nd2  1  0.338387  0.234655  0.920313  1
  Nd  Nd3  1  0.838387  0.265345  0.079687  1
  Ag  Ag4  1  0.500000  0.500000  0.500000  1
  Ag  Ag5  1  0.000000  0.000000  0.500000  1
  Se  Se6  1  0.677532  0.631167  0.819643  1
  Se  Se7  1  0.177532  0.868833  0.180357  1
  Se  Se8  1  0.322468  0.368833  0.180357  1
  Se  Se9  1  0.822468  0.131167  0.819643  1
  Se  Se10  1  0.327593  0.118319  0.644614  1
  Se  Se11  1  0.827593  0.381681  0.355386  1
  Se  Se12  1  0.672407  0.881681  0.355386  1
  Se  Se13  1  0.172407  0.618319  0.644614  1
  O  O14  1  0.401731  0.305337  0.670929  1
  O  O15  1  0.901731  0.194663  0.329071  1
  O  O16  1  0.598269  0.694663  0.329071  1
  O  O17  1  0.098269  0.805337  0.670929  1
  O  O18  1  0.617411  0.423417  0.848391  1
  O  O19  1  0.117411  0.076583  0.151609  1
  O  O20  1  0.382589  0.576583  0.151609  1
  O  O21  1  0.882589  0.923417  0.848391  1
  O  O22  1  0.844296  0.590569  0.944382  1
  O  O23  1  0.344296  0.909431  0.055618  1
  O  O24  1  0.155704  0.409431  0.055618  1
  O  O25  1  0.655704  0.090569  0.944382  1
  O  O26  1  0.112843  0.191006  0.572520  1
  O  O27  1  0.612843  0.308994  0.427480  1
  O  O28  1  0.887157  0.808994  0.427480  1
  O  O29  1  0.387157  0.691006  0.572520  1
  O  O30  1  0.506440  0.716609  0.893194  1
  O  O31  1  0.006440  0.783391  0.106806  1
  O  O32  1  0.493560  0.283391  0.106806  1
  O  O33  1  0.993560  0.216609  0.893194  1
  O  O34  1  0.277713  0.022199  0.804186  1
  O  O35  1  0.777713  0.477801  0.195814  1
  O  O36  1  0.722287  0.977801  0.195814  1
  O  O37  1  0.222287  0.522199  0.804186  1
