# generated using pymatgen
data_Ca4TaOs3O16
_symmetry_space_group_name_H-M   'P 1'
_cell_length_a   5.05624430
_cell_length_b   5.26448695
_cell_length_c   12.66905800
_cell_angle_alpha   90.00000000
_cell_angle_beta   90.00000000
_cell_angle_gamma   90.33176495
_symmetry_Int_Tables_number   1
_chemical_formula_structural   Ca4TaOs3O16
_chemical_formula_sum   'Ca4 Ta1 Os3 O16'
_cell_volume   337.22607408
_cell_formula_units_Z   1
loop_
 _symmetry_equiv_pos_site_id
 _symmetry_equiv_pos_as_xyz
  1  'x, y, z'
loop_
 _atom_site_type_symbol
 _atom_site_label
 _atom_site_symmetry_multiplicity
 _atom_site_fract_x
 _atom_site_fract_y
 _atom_site_fract_z
 _atom_site_occupancy
  Ca  Ca0  1  0.750000  0.000000  0.658076  1
  Ca  Ca1  1  0.250000  0.500000  0.838798  1
  Ca  Ca2  1  0.250000  0.000000  0.344499  1
  Ca  Ca3  1  0.750000  0.500000  0.164496  1
  Ta  Ta4  1  0.750000  0.500000  0.416706  1
  Os  Os5  1  0.250000  0.000000  0.076115  1
  Os  Os6  1  0.250000  0.500000  0.578533  1
  Os  Os7  1  0.750000  0.000000  0.920435  1
  O  O8  1  0.103950  0.294683  0.681786  1
  O  O9  1  0.610308  0.211603  0.818587  1
  O  O10  1  0.889692  0.788397  0.818587  1
  O  O11  1  0.396050  0.705317  0.681786  1
  O  O12  1  0.899096  0.716049  0.317145  1
  O  O13  1  0.387376  0.786234  0.175545  1
  O  O14  1  0.112624  0.213766  0.175545  1
  O  O15  1  0.600904  0.283951  0.317145  1
  O  O16  1  0.537037  0.292709  0.548922  1
  O  O17  1  0.050071  0.199609  0.956297  1
  O  O18  1  0.449929  0.800391  0.956297  1
  O  O19  1  0.962963  0.707291  0.548922  1
  O  O20  1  0.445281  0.710188  0.463292  1
  O  O21  1  0.949768  0.800594  0.039597  1
  O  O22  1  0.550232  0.199406  0.039597  1
  O  O23  1  0.054719  0.289812  0.463292  1
