# generated using pymatgen
data_Tb2AlGaIrPt
_symmetry_space_group_name_H-M   'P 1'
_cell_length_a   4.38318200
_cell_length_b   6.84888345
_cell_length_c   7.85004452
_cell_angle_alpha   89.61722331
_cell_angle_beta   90.00000000
_cell_angle_gamma   90.00000000
_symmetry_Int_Tables_number   1
_chemical_formula_structural   Tb2AlGaIrPt
_chemical_formula_sum   'Tb4 Al2 Ga2 Ir2 Pt2'
_cell_volume   235.65231347
_cell_formula_units_Z   2
loop_
 _symmetry_equiv_pos_site_id
 _symmetry_equiv_pos_as_xyz
  1  'x, y, z'
loop_
 _atom_site_type_symbol
 _atom_site_label
 _atom_site_symmetry_multiplicity
 _atom_site_fract_x
 _atom_site_fract_y
 _atom_site_fract_z
 _atom_site_occupancy
  Tb  Tb0  1  0.250000  0.032689  0.683956  1
  Tb  Tb1  1  0.250000  0.531631  0.822179  1
  Tb  Tb2  1  0.750000  0.972250  0.311998  1
  Tb  Tb3  1  0.750000  0.474595  0.181257  1
  Al  Al4  1  0.250000  0.640531  0.435226  1
  Al  Al5  1  0.750000  0.355531  0.559870  1
  Ga  Ga6  1  0.250000  0.148512  0.067756  1
  Ga  Ga7  1  0.750000  0.847809  0.937757  1
  Ir  Ir8  1  0.250000  0.269449  0.386912  1
  Ir  Ir9  1  0.250000  0.767238  0.121168  1
  Pt  Pt10  1  0.750000  0.728123  0.614739  1
  Pt  Pt11  1  0.750000  0.231642  0.877181  1
