# generated using pymatgen
data_Pr4Co17(TcAs4)3
_symmetry_space_group_name_H-M   'P 1'
_cell_length_a   3.89254500
_cell_length_b   10.87230238
_cell_length_c   12.35823010
_cell_angle_alpha   89.77827055
_cell_angle_beta   90.00000000
_cell_angle_gamma   90.00000000
_symmetry_Int_Tables_number   1
_chemical_formula_structural   Pr4Co17(TcAs4)3
_chemical_formula_sum   'Pr4 Co17 Tc3 As12'
_cell_volume   523.00782869
_cell_formula_units_Z   1
loop_
 _symmetry_equiv_pos_site_id
 _symmetry_equiv_pos_as_xyz
  1  'x, y, z'
loop_
 _atom_site_type_symbol
 _atom_site_label
 _atom_site_symmetry_multiplicity
 _atom_site_fract_x
 _atom_site_fract_y
 _atom_site_fract_z
 _atom_site_occupancy
  Pr  Pr0  1  0.250000  0.581028  0.701166  1
  Pr  Pr1  1  0.250000  0.915451  0.202857  1
  Pr  Pr2  1  0.750000  0.415337  0.297581  1
  Pr  Pr3  1  0.750000  0.083753  0.796042  1
  Co  Co4  1  0.750000  0.208456  0.510295  1
  Co  Co5  1  0.250000  0.404951  0.490114  1
  Co  Co6  1  0.250000  0.096118  0.990531  1
  Co  Co7  1  0.750000  0.596580  0.509454  1
  Co  Co8  1  0.750000  0.903815  0.009186  1
  Co  Co9  1  0.250000  0.216029  0.175429  1
  Co  Co10  1  0.250000  0.283407  0.675492  1
  Co  Co11  1  0.750000  0.782811  0.824740  1
  Co  Co12  1  0.750000  0.717128  0.325533  1
  Co  Co13  1  0.250000  0.886628  0.698078  1
  Co  Co14  1  0.250000  0.614321  0.199389  1
  Co  Co15  1  0.750000  0.116011  0.303667  1
  Co  Co16  1  0.750000  0.385276  0.800961  1
  Co  Co17  1  0.250000  0.466883  0.933156  1
  Co  Co18  1  0.250000  0.031149  0.432251  1
  Co  Co19  1  0.750000  0.533575  0.067589  1
  Co  Co20  1  0.750000  0.969274  0.566502  1
  Tc  Tc21  1  0.250000  0.705993  0.990169  1
  Tc  Tc22  1  0.250000  0.794330  0.490143  1
  Tc  Tc23  1  0.750000  0.293984  0.010202  1
  As  As24  1  0.250000  0.416947  0.113009  1
  As  As25  1  0.250000  0.085173  0.609975  1
  As  As26  1  0.750000  0.582152  0.887151  1
  As  As27  1  0.750000  0.917343  0.387315  1
  As  As28  1  0.250000  0.273163  0.866393  1
  As  As29  1  0.250000  0.226374  0.369557  1
  As  As30  1  0.750000  0.726598  0.133963  1
  As  As31  1  0.750000  0.773989  0.632964  1
  As  As32  1  0.250000  0.599268  0.392813  1
  As  As33  1  0.250000  0.901073  0.892180  1
  As  As34  1  0.750000  0.395960  0.605524  1
  As  As35  1  0.750000  0.099673  0.108629  1
