# generated using pymatgen
data_Lu17Sc3Si15Au
_symmetry_space_group_name_H-M   'P 1'
_cell_length_a   7.20388139
_cell_length_b   7.45300973
_cell_length_c   14.24271773
_cell_angle_alpha   90.19452156
_cell_angle_beta   89.20055784
_cell_angle_gamma   90.19638755
_symmetry_Int_Tables_number   1
_chemical_formula_structural   Lu17Sc3Si15Au
_chemical_formula_sum   'Lu17 Sc3 Si15 Au1'
_cell_volume   764.61682172
_cell_formula_units_Z   1
loop_
 _symmetry_equiv_pos_site_id
 _symmetry_equiv_pos_as_xyz
  1  'x, y, z'
loop_
 _atom_site_type_symbol
 _atom_site_label
 _atom_site_symmetry_multiplicity
 _atom_site_fract_x
 _atom_site_fract_y
 _atom_site_fract_z
 _atom_site_occupancy
  Lu  Lu0  1  0.174478  0.990175  0.754458  1
  Lu  Lu1  1  0.826931  0.008474  0.249063  1
  Lu  Lu2  1  0.321938  0.496583  0.247486  1
  Lu  Lu3  1  0.678449  0.506138  0.752583  1
  Lu  Lu4  1  0.999927  0.669802  0.600242  1
  Lu  Lu5  1  0.998318  0.328607  0.398465  1
  Lu  Lu6  1  0.503787  0.184425  0.400005  1
  Lu  Lu7  1  0.006187  0.325487  0.094940  1
  Lu  Lu8  1  0.498380  0.816690  0.601638  1
  Lu  Lu9  1  0.994712  0.673318  0.906862  1
  Lu  Lu10  1  0.490995  0.819110  0.905102  1
  Lu  Lu11  1  0.506922  0.181634  0.093444  1
  Lu  Lu12  1  0.351273  0.323240  0.622802  1
  Lu  Lu13  1  0.649648  0.678217  0.376816  1
  Lu  Lu14  1  0.156168  0.829173  0.372324  1
  Lu  Lu15  1  0.660166  0.678158  0.119508  1
  Lu  Lu16  1  0.844763  0.171382  0.626275  1
  Sc  Sc17  1  0.340087  0.321097  0.878640  1
  Sc  Sc18  1  0.839065  0.177308  0.877143  1
  Sc  Sc19  1  0.159768  0.822639  0.123255  1
  Si  Si20  1  0.052778  0.381738  0.756252  1
  Si  Si21  1  0.950200  0.613734  0.246463  1
  Si  Si22  1  0.453685  0.895333  0.244684  1
  Si  Si23  1  0.546665  0.107612  0.756116  1
  Si  Si24  1  0.294488  0.622076  0.755178  1
  Si  Si25  1  0.704545  0.373357  0.246170  1
  Si  Si26  1  0.208245  0.133598  0.243647  1
  Si  Si27  1  0.793456  0.869401  0.757521  1
  Si  Si28  1  0.825626  0.971804  0.459154  1
  Si  Si29  1  0.312534  0.535707  0.459492  1
  Si  Si30  1  0.842511  0.970745  0.036076  1
  Si  Si31  1  0.684977  0.464950  0.539304  1
  Si  Si32  1  0.161543  0.034762  0.963892  1
  Si  Si33  1  0.667734  0.460958  0.959000  1
  Si  Si34  1  0.323728  0.537080  0.035899  1
  Au  Au35  1  0.175319  0.025488  0.540101  1
