# generated using pymatgen
data_TbSc4Bi2Sb
_symmetry_space_group_name_H-M   'P 1'
_cell_length_a   7.81876500
_cell_length_b   9.00735800
_cell_length_c   11.50836000
_cell_angle_alpha   90.00000000
_cell_angle_beta   90.00000000
_cell_angle_gamma   90.00000000
_symmetry_Int_Tables_number   1
_chemical_formula_structural   TbSc4Bi2Sb
_chemical_formula_sum   'Tb4 Sc16 Bi8 Sb4'
_cell_volume   810.49254277
_cell_formula_units_Z   4
loop_
 _symmetry_equiv_pos_site_id
 _symmetry_equiv_pos_as_xyz
  1  'x, y, z'
loop_
 _atom_site_type_symbol
 _atom_site_label
 _atom_site_symmetry_multiplicity
 _atom_site_fract_x
 _atom_site_fract_y
 _atom_site_fract_z
 _atom_site_occupancy
  Tb  Tb0  1  0.318594  0.250000  0.218289  1
  Tb  Tb1  1  0.818594  0.250000  0.281711  1
  Tb  Tb2  1  0.681406  0.750000  0.781711  1
  Tb  Tb3  1  0.181406  0.750000  0.718289  1
  Sc  Sc4  1  0.348708  0.750000  0.217925  1
  Sc  Sc5  1  0.848708  0.750000  0.282075  1
  Sc  Sc6  1  0.651292  0.250000  0.782075  1
  Sc  Sc7  1  0.151292  0.250000  0.717925  1
  Sc  Sc8  1  0.688764  0.565363  0.061453  1
  Sc  Sc9  1  0.188764  0.934637  0.438547  1
  Sc  Sc10  1  0.311236  0.065363  0.938547  1
  Sc  Sc11  1  0.811236  0.434637  0.561453  1
  Sc  Sc12  1  0.311236  0.434637  0.938547  1
  Sc  Sc13  1  0.811236  0.065363  0.561453  1
  Sc  Sc14  1  0.688764  0.934637  0.061453  1
  Sc  Sc15  1  0.188764  0.565363  0.438547  1
  Sc  Sc16  1  0.478560  0.250000  0.488401  1
  Sc  Sc17  1  0.978560  0.250000  0.011599  1
  Sc  Sc18  1  0.521440  0.750000  0.511599  1
  Sc  Sc19  1  0.021440  0.750000  0.988401  1
  Bi  Bi20  1  0.563914  0.989311  0.328869  1
  Bi  Bi21  1  0.063914  0.510689  0.171131  1
  Bi  Bi22  1  0.436086  0.489311  0.671131  1
  Bi  Bi23  1  0.936086  0.010689  0.828869  1
  Bi  Bi24  1  0.436086  0.010689  0.671131  1
  Bi  Bi25  1  0.936086  0.489311  0.828869  1
  Bi  Bi26  1  0.563914  0.510689  0.328869  1
  Bi  Bi27  1  0.063914  0.989311  0.171131  1
  Sb  Sb28  1  0.402690  0.750000  0.968012  1
  Sb  Sb29  1  0.902690  0.750000  0.531988  1
  Sb  Sb30  1  0.597310  0.250000  0.031988  1
  Sb  Sb31  1  0.097310  0.250000  0.468012  1
