# generated using pymatgen
data_Ti2Nb4Al4FePtC2
_symmetry_space_group_name_H-M   'P 1'
_cell_length_a   8.18844624
_cell_length_b   8.19435076
_cell_length_c   8.21269700
_cell_angle_alpha   59.88433505
_cell_angle_beta   59.87443699
_cell_angle_gamma   60.17179284
_symmetry_Int_Tables_number   1
_chemical_formula_structural   Ti2Nb4Al4FePtC2
_chemical_formula_sum   'Ti4 Nb8 Al8 Fe2 Pt2 C4'
_cell_volume   389.44962983
_cell_formula_units_Z   2
loop_
 _symmetry_equiv_pos_site_id
 _symmetry_equiv_pos_as_xyz
  1  'x, y, z'
loop_
 _atom_site_type_symbol
 _atom_site_label
 _atom_site_symmetry_multiplicity
 _atom_site_fract_x
 _atom_site_fract_y
 _atom_site_fract_z
 _atom_site_occupancy
  Ti  Ti0  1  0.692503  0.310415  0.686937  1
  Ti  Ti1  1  0.940468  0.558937  0.558574  1
  Ti  Ti2  1  0.561913  0.937613  0.937011  1
  Ti  Ti3  1  0.939979  0.561659  0.940784  1
  Nb  Nb4  1  0.557059  0.562966  0.940381  1
  Nb  Nb5  1  0.939842  0.942244  0.561774  1
  Nb  Nb6  1  0.695025  0.686991  0.308250  1
  Nb  Nb7  1  0.305807  0.693387  0.693785  1
  Nb  Nb8  1  0.686200  0.313332  0.313115  1
  Nb  Nb9  1  0.309606  0.310317  0.685935  1
  Nb  Nb10  1  0.557621  0.940221  0.562831  1
  Nb  Nb11  1  0.310562  0.685761  0.310797  1
  Al  Al12  1  0.323405  0.336209  0.336572  1
  Al  Al13  1  0.247678  0.914292  0.914822  1
  Al  Al14  1  0.921737  0.252811  0.903411  1
  Al  Al15  1  0.921461  0.905103  0.251955  1
  Al  Al16  1  0.329876  0.999153  0.340809  1
  Al  Al17  1  0.329465  0.342399  0.998430  1
  Al  Al18  1  0.001492  0.335954  0.339719  1
  Al  Al19  1  0.924134  0.911935  0.914476  1
  Fe  Fe20  1  0.125683  0.624308  0.124385  1
  Fe  Fe21  1  0.126696  0.121982  0.625404  1
  Pt  Pt22  1  0.124108  0.127460  0.123905  1
  Pt  Pt23  1  0.625517  0.125797  0.121999  1
  C  C24  1  0.629735  0.618952  0.625168  1
  C  C25  1  0.117810  0.623647  0.630136  1
  C  C26  1  0.624474  0.126232  0.631595  1
  C  C27  1  0.630144  0.629924  0.117040  1
