# generated using pymatgen
data_CsMnF5
_symmetry_space_group_name_H-M   'P 1'
_cell_length_a   5.52728600
_cell_length_b   8.16078200
_cell_length_c   11.45700800
_cell_angle_alpha   90.00000000
_cell_angle_beta   90.00000000
_cell_angle_gamma   90.00000000
_symmetry_Int_Tables_number   1
_chemical_formula_structural   CsMnF5
_chemical_formula_sum   'Cs4 Mn4 F20'
_cell_volume   516.79098601
_cell_formula_units_Z   4
loop_
 _symmetry_equiv_pos_site_id
 _symmetry_equiv_pos_as_xyz
  1  'x, y, z'
loop_
 _atom_site_type_symbol
 _atom_site_label
 _atom_site_symmetry_multiplicity
 _atom_site_fract_x
 _atom_site_fract_y
 _atom_site_fract_z
 _atom_site_occupancy
  Cs  Cs0  1  0.500000  0.888340  0.973282  1
  Cs  Cs1  1  0.500000  0.111660  0.473282  1
  Cs  Cs2  1  0.000000  0.353298  0.115165  1
  Cs  Cs3  1  0.000000  0.646702  0.615165  1
  Mn  Mn4  1  0.000000  0.870764  0.245870  1
  Mn  Mn5  1  0.500000  0.581617  0.336860  1
  Mn  Mn6  1  0.500000  0.418383  0.836860  1
  Mn  Mn7  1  0.000000  0.129236  0.745870  1
  F  F8  1  0.266835  0.534380  0.908200  1
  F  F9  1  0.749841  0.701138  0.250029  1
  F  F10  1  0.232770  0.024084  0.233510  1
  F  F11  1  0.749841  0.298862  0.750029  1
  F  F12  1  0.500000  0.263750  0.950812  1
  F  F13  1  0.767230  0.975916  0.733510  1
  F  F14  1  0.500000  0.560910  0.713992  1
  F  F15  1  0.232770  0.975916  0.733510  1
  F  F16  1  0.000000  0.838321  0.088259  1
  F  F17  1  0.767230  0.024084  0.233510  1
  F  F18  1  0.500000  0.439090  0.213992  1
  F  F19  1  0.733165  0.465620  0.408200  1
  F  F20  1  0.250159  0.701138  0.250029  1
  F  F21  1  0.000000  0.883346  0.403791  1
  F  F22  1  0.000000  0.161679  0.588259  1
  F  F23  1  0.250159  0.298862  0.750029  1
  F  F24  1  0.000000  0.116654  0.903791  1
  F  F25  1  0.266835  0.465620  0.408200  1
  F  F26  1  0.500000  0.736250  0.450812  1
  F  F27  1  0.733165  0.534380  0.908200  1
