# generated using pymatgen
data_Hf3Zr7ZnGaSnSb5
_symmetry_space_group_name_H-M   'P 1'
_cell_length_a   8.68460807
_cell_length_b   8.67287969
_cell_length_c   5.84220600
_cell_angle_alpha   89.99932616
_cell_angle_beta   89.99252515
_cell_angle_gamma   119.95992970
_symmetry_Int_Tables_number   1
_chemical_formula_structural   Hf3Zr7ZnGaSnSb5
_chemical_formula_sum   'Hf3 Zr7 Zn1 Ga1 Sn1 Sb5'
_cell_volume   381.23806320
_cell_formula_units_Z   1
loop_
 _symmetry_equiv_pos_site_id
 _symmetry_equiv_pos_as_xyz
  1  'x, y, z'
loop_
 _atom_site_type_symbol
 _atom_site_label
 _atom_site_symmetry_multiplicity
 _atom_site_fract_x
 _atom_site_fract_y
 _atom_site_fract_z
 _atom_site_occupancy
  Hf  Hf0  1  0.333932  0.667201  0.000723  1
  Hf  Hf1  1  0.333807  0.667127  0.499344  1
  Hf  Hf2  1  0.666239  0.333270  0.499263  1
  Zr  Zr3  1  0.731968  0.731990  0.749781  1
  Zr  Zr4  1  0.267626  0.999217  0.749699  1
  Zr  Zr5  1  0.000338  0.267526  0.750011  1
  Zr  Zr6  1  0.269984  0.269758  0.250079  1
  Zr  Zr7  1  0.729757  0.999185  0.250128  1
  Zr  Zr8  1  0.000301  0.731681  0.250330  1
  Zr  Zr9  1  0.665970  0.333296  0.000500  1
  Zn  Zn10  1  0.999947  0.000868  0.001910  1
  Ga  Ga11  1  0.999980  0.000736  0.498089  1
  Sn  Sn12  1  0.000741  0.386434  0.250015  1
  Sb  Sb13  1  0.387042  0.388117  0.750035  1
  Sb  Sb14  1  0.612372  0.999983  0.750115  1
  Sb  Sb15  1  0.000556  0.610851  0.749887  1
  Sb  Sb16  1  0.612527  0.613195  0.250064  1
  Sb  Sb17  1  0.386912  0.999564  0.250027  1
