# generated using pymatgen
data_Dy3YTm4(B6Rh)4
_symmetry_space_group_name_H-M   'P 1'
_cell_length_a   3.64047400
_cell_length_b   9.13546600
_cell_length_c   11.47819600
_cell_angle_alpha   89.99758782
_cell_angle_beta   90.00000000
_cell_angle_gamma   90.00000000
_symmetry_Int_Tables_number   1
_chemical_formula_structural   Dy3YTm4(B6Rh)4
_chemical_formula_sum   'Dy3 Y1 Tm4 B24 Rh4'
_cell_volume   381.73525909
_cell_formula_units_Z   1
loop_
 _symmetry_equiv_pos_site_id
 _symmetry_equiv_pos_as_xyz
  1  'x, y, z'
loop_
 _atom_site_type_symbol
 _atom_site_label
 _atom_site_symmetry_multiplicity
 _atom_site_fract_x
 _atom_site_fract_y
 _atom_site_fract_z
 _atom_site_occupancy
  Dy  Dy0  1  0.500000  0.677983  0.586347  1
  Dy  Dy1  1  0.500000  0.177975  0.913666  1
  Dy  Dy2  1  0.500000  0.822045  0.086324  1
  Y  Y3  1  0.500000  0.321892  0.413660  1
  Tm  Tm4  1  0.500000  0.444344  0.126735  1
  Tm  Tm5  1  0.500000  0.555698  0.873222  1
  Tm  Tm6  1  0.500000  0.055625  0.626856  1
  Tm  Tm7  1  0.500000  0.944291  0.373190  1
  B  B8  1  0.000000  0.107527  0.470906  1
  B  B9  1  0.000000  0.892335  0.529150  1
  B  B10  1  0.000000  0.392291  0.970842  1
  B  B11  1  0.000000  0.607746  0.029139  1
  B  B12  1  0.000000  0.132502  0.316318  1
  B  B13  1  0.000000  0.867326  0.683581  1
  B  B14  1  0.000000  0.367356  0.816452  1
  B  B15  1  0.000000  0.632687  0.183527  1
  B  B16  1  0.000000  0.054200  0.065648  1
  B  B17  1  0.000000  0.945791  0.934322  1
  B  B18  1  0.000000  0.445868  0.565799  1
  B  B19  1  0.000000  0.554407  0.434368  1
  B  B20  1  0.000000  0.483102  0.286135  1
  B  B21  1  0.000000  0.517051  0.713759  1
  B  B22  1  0.000000  0.017025  0.786295  1
  B  B23  1  0.000000  0.982929  0.213701  1
  B  B24  1  0.000000  0.250322  0.079751  1
  B  B25  1  0.000000  0.749697  0.920208  1
  B  B26  1  0.000000  0.249626  0.579972  1
  B  B27  1  0.000000  0.750348  0.420225  1
  B  B28  1  0.000000  0.294453  0.235509  1
  B  B29  1  0.000000  0.705538  0.764356  1
  B  B30  1  0.000000  0.205504  0.735693  1
  B  B31  1  0.000000  0.794488  0.264340  1
  Rh  Rh32  1  0.500000  0.139898  0.179345  1
  Rh  Rh33  1  0.500000  0.860013  0.820531  1
  Rh  Rh34  1  0.500000  0.359944  0.679688  1
  Rh  Rh35  1  0.500000  0.640176  0.320441  1
