# generated using pymatgen
data_Sm2Er2TcB12Ru
_symmetry_space_group_name_H-M   'P 1'
_cell_length_a   3.69378300
_cell_length_b   9.17663265
_cell_length_c   11.60313500
_cell_angle_alpha   89.86085863
_cell_angle_beta   90.00000000
_cell_angle_gamma   90.00000000
_symmetry_Int_Tables_number   1
_chemical_formula_structural   Sm2Er2TcB12Ru
_chemical_formula_sum   'Sm4 Er4 Tc2 B24 Ru2'
_cell_volume   393.30438626
_cell_formula_units_Z   2
loop_
 _symmetry_equiv_pos_site_id
 _symmetry_equiv_pos_as_xyz
  1  'x, y, z'
loop_
 _atom_site_type_symbol
 _atom_site_label
 _atom_site_symmetry_multiplicity
 _atom_site_fract_x
 _atom_site_fract_y
 _atom_site_fract_z
 _atom_site_occupancy
  Sm  Sm0  1  0.000000  0.324292  0.415330  1
  Sm  Sm1  1  0.000000  0.675708  0.584670  1
  Sm  Sm2  1  0.000000  0.821555  0.086816  1
  Sm  Sm3  1  0.000000  0.178445  0.913184  1
  Er  Er4  1  0.000000  0.942172  0.370213  1
  Er  Er5  1  0.000000  0.057828  0.629787  1
  Er  Er6  1  0.000000  0.443402  0.130327  1
  Er  Er7  1  0.000000  0.556598  0.869673  1
  Tc  Tc8  1  0.000000  0.639594  0.318870  1
  Tc  Tc9  1  0.000000  0.360406  0.681130  1
  B  B10  1  0.500000  0.554553  0.431465  1
  B  B11  1  0.500000  0.445447  0.568535  1
  B  B12  1  0.500000  0.055329  0.068686  1
  B  B13  1  0.500000  0.944671  0.931314  1
  B  B14  1  0.500000  0.749807  0.417253  1
  B  B15  1  0.500000  0.250193  0.582747  1
  B  B16  1  0.500000  0.249809  0.082876  1
  B  B17  1  0.500000  0.750191  0.917124  1
  B  B18  1  0.500000  0.791449  0.265464  1
  B  B19  1  0.500000  0.208551  0.734536  1
  B  B20  1  0.500000  0.290567  0.234126  1
  B  B21  1  0.500000  0.709433  0.765874  1
  B  B22  1  0.500000  0.630324  0.185089  1
  B  B23  1  0.500000  0.369676  0.814911  1
  B  B24  1  0.500000  0.129866  0.314126  1
  B  B25  1  0.500000  0.870134  0.685874  1
  B  B26  1  0.500000  0.984267  0.212741  1
  B  B27  1  0.500000  0.015733  0.787259  1
  B  B28  1  0.500000  0.483973  0.286770  1
  B  B29  1  0.500000  0.516027  0.713230  1
  B  B30  1  0.500000  0.600017  0.027172  1
  B  B31  1  0.500000  0.399983  0.972828  1
  B  B32  1  0.500000  0.099448  0.472524  1
  B  B33  1  0.500000  0.900552  0.527476  1
  Ru  Ru34  1  0.000000  0.138837  0.180037  1
  Ru  Ru35  1  0.000000  0.861163  0.819963  1
