# generated using pymatgen
data_EuCo4ReP3
_symmetry_space_group_name_H-M   'P 1'
_cell_length_a   3.74350800
_cell_length_b   10.50776200
_cell_length_c   11.94723600
_cell_angle_alpha   90.00000000
_cell_angle_beta   90.00000000
_cell_angle_gamma   90.00000000
_symmetry_Int_Tables_number   1
_chemical_formula_structural   EuCo4ReP3
_chemical_formula_sum   'Eu4 Co16 Re4 P12'
_cell_volume   469.95517435
_cell_formula_units_Z   4
loop_
 _symmetry_equiv_pos_site_id
 _symmetry_equiv_pos_as_xyz
  1  'x, y, z'
loop_
 _atom_site_type_symbol
 _atom_site_label
 _atom_site_symmetry_multiplicity
 _atom_site_fract_x
 _atom_site_fract_y
 _atom_site_fract_z
 _atom_site_occupancy
  Eu  Eu0  1  0.250000  0.584834  0.703911  1
  Eu  Eu1  1  0.250000  0.915166  0.203911  1
  Eu  Eu2  1  0.750000  0.415166  0.296089  1
  Eu  Eu3  1  0.750000  0.084834  0.796089  1
  Co  Co4  1  0.250000  0.404286  0.491381  1
  Co  Co5  1  0.250000  0.095714  0.991381  1
  Co  Co6  1  0.750000  0.595714  0.508619  1
  Co  Co7  1  0.750000  0.904286  0.008619  1
  Co  Co8  1  0.250000  0.219787  0.176115  1
  Co  Co9  1  0.250000  0.280213  0.676115  1
  Co  Co10  1  0.750000  0.780213  0.823885  1
  Co  Co11  1  0.750000  0.719787  0.323885  1
  Co  Co12  1  0.250000  0.886240  0.698243  1
  Co  Co13  1  0.250000  0.613760  0.198243  1
  Co  Co14  1  0.750000  0.113760  0.301757  1
  Co  Co15  1  0.750000  0.386240  0.801757  1
  Co  Co16  1  0.250000  0.464343  0.935829  1
  Co  Co17  1  0.250000  0.035657  0.435829  1
  Co  Co18  1  0.750000  0.535657  0.064171  1
  Co  Co19  1  0.750000  0.964343  0.564171  1
  Re  Re20  1  0.250000  0.707884  0.986873  1
  Re  Re21  1  0.250000  0.792116  0.486873  1
  Re  Re22  1  0.750000  0.292116  0.013127  1
  Re  Re23  1  0.750000  0.207884  0.513127  1
  P  P24  1  0.250000  0.418144  0.114319  1
  P  P25  1  0.250000  0.081856  0.614319  1
  P  P26  1  0.750000  0.581856  0.885681  1
  P  P27  1  0.750000  0.918144  0.385681  1
  P  P28  1  0.250000  0.272009  0.866053  1
  P  P29  1  0.250000  0.227991  0.366053  1
  P  P30  1  0.750000  0.727991  0.133947  1
  P  P31  1  0.750000  0.772009  0.633947  1
  P  P32  1  0.250000  0.597601  0.391544  1
  P  P33  1  0.250000  0.902399  0.891544  1
  P  P34  1  0.750000  0.402399  0.608456  1
  P  P35  1  0.750000  0.097601  0.108456  1
