# generated using pymatgen
data_Li15Si3Bi
_symmetry_space_group_name_H-M   'P 1'
_cell_length_a   9.38815279
_cell_length_b   9.35611348
_cell_length_c   9.38815318
_cell_angle_alpha   109.64691218
_cell_angle_beta   109.51085735
_cell_angle_gamma   109.39461112
_symmetry_Int_Tables_number   1
_chemical_formula_structural   Li15Si3Bi
_chemical_formula_sum   'Li30 Si6 Bi2'
_cell_volume   633.70420588
_cell_formula_units_Z   2
loop_
 _symmetry_equiv_pos_site_id
 _symmetry_equiv_pos_as_xyz
  1  'x, y, z'
loop_
 _atom_site_type_symbol
 _atom_site_label
 _atom_site_symmetry_multiplicity
 _atom_site_fract_x
 _atom_site_fract_y
 _atom_site_fract_z
 _atom_site_occupancy
  Li  Li0  1  0.331439  0.800131  0.729645  1
  Li  Li1  1  0.119785  0.750000  0.869785  1
  Li  Li2  1  0.743363  0.352566  0.814515  1
  Li  Li3  1  0.624858  0.767862  0.584920  1
  Li  Li4  1  0.029030  0.914527  0.693273  1
  Li  Li5  1  0.085373  0.271147  0.110381  1
  Li  Li6  1  0.929513  0.699869  0.031308  1
  Li  Li7  1  0.273066  0.110661  0.087895  1
  Li  Li8  1  0.184461  0.411529  0.521775  1
  Li  Li9  1  0.778746  0.585473  0.614503  1
  Li  Li10  1  0.694617  0.026410  0.924979  1
  Li  Li11  1  0.527369  0.193396  0.402933  1
  Li  Li12  1  0.630513  0.375973  0.260804  1
  Li  Li13  1  0.461949  0.147434  0.890797  1
  Li  Li14  1  0.884831  0.124027  0.754540  1
  Li  Li15  1  0.977234  0.389339  0.662405  1
  Li  Li16  1  0.400296  0.525597  0.193399  1
  Li  Li17  1  0.110246  0.088471  0.272932  1
  Li  Li18  1  0.305853  0.835375  0.209253  1
  Li  Li19  1  0.759364  0.886320  0.128581  1
  Li  Li20  1  0.898568  0.473590  0.168207  1
  Li  Li21  1  0.589821  0.622627  0.767764  1
  Li  Li22  1  0.373878  0.664625  0.970478  1
  Li  Li23  1  0.817059  0.732138  0.356996  1
  Li  Li24  1  0.667802  0.974403  0.374699  1
  Li  Li25  1  0.145137  0.877373  0.467194  1
  Li  Li26  1  0.209536  0.306604  0.833973  1
  Li  Li27  1  0.362901  0.250000  0.612901  1
  Li  Li28  1  0.839234  0.228853  0.314226  1
  Li  Li29  1  0.242261  0.613680  0.373044  1
  Si  Si30  1  0.501366  0.000711  0.086769  1
  Si  Si31  1  0.001098  0.084741  0.499620  1
  Si  Si32  1  0.999395  0.585297  0.500542  1
  Si  Si33  1  0.086058  0.499289  0.000655  1
  Si  Si34  1  0.414878  0.415259  0.416357  1
  Si  Si35  1  0.915245  0.914703  0.914098  1
  Bi  Bi36  1  0.499788  0.998908  0.582975  1
  Bi  Bi37  1  0.584066  0.501092  0.000880  1
