# generated using pymatgen
data_LaHo6P12Pd17
_symmetry_space_group_name_H-M   'P 1'
_cell_length_a   12.33071356
_cell_length_b   12.33071382
_cell_length_c   13.61736326
_cell_angle_alpha   68.34069779
_cell_angle_beta   68.34069719
_cell_angle_gamma   18.67598269
_symmetry_Int_Tables_number   1
_chemical_formula_structural   LaHo6P12Pd17
_chemical_formula_sum   'La1 Ho6 P12 Pd17'
_cell_volume   614.87196970
_cell_formula_units_Z   1
loop_
 _symmetry_equiv_pos_site_id
 _symmetry_equiv_pos_as_xyz
  1  'x, y, z'
loop_
 _atom_site_type_symbol
 _atom_site_label
 _atom_site_symmetry_multiplicity
 _atom_site_fract_x
 _atom_site_fract_y
 _atom_site_fract_z
 _atom_site_occupancy
  La  La0  1  0.500000  0.500000  0.500000  1
  Ho  Ho1  1  0.364860  0.364860  0.001233  1
  Ho  Ho2  1  0.635140  0.635140  0.998767  1
  Ho  Ho3  1  0.234432  0.234432  0.312982  1
  Ho  Ho4  1  0.765568  0.765568  0.687018  1
  Ho  Ho5  1  0.418399  0.418399  0.260209  1
  Ho  Ho6  1  0.581601  0.581601  0.739791  1
  P  P7  1  0.062438  0.062438  0.923501  1
  P  P8  1  0.937562  0.937562  0.076499  1
  P  P9  1  0.886842  0.886842  0.831936  1
  P  P10  1  0.113158  0.113158  0.168064  1
  P  P11  1  0.188689  0.188689  0.622905  1
  P  P12  1  0.811311  0.811311  0.377095  1
  P  P13  1  0.361900  0.361900  0.583059  1
  P  P14  1  0.638100  0.638100  0.416941  1
  P  P15  1  0.013030  0.013030  0.672426  1
  P  P16  1  0.986970  0.986970  0.327574  1
  P  P17  1  0.230707  0.230707  0.882751  1
  P  P18  1  0.769293  0.769293  0.117249  1
  Pd  Pd19  1  0.839182  0.839182  0.193985  1
  Pd  Pd20  1  0.160818  0.160818  0.806015  1
  Pd  Pd21  1  0.026210  0.026210  0.122564  1
  Pd  Pd22  1  0.973790  0.973790  0.877436  1
  Pd  Pd23  1  0.888567  0.888567  0.455007  1
  Pd  Pd24  1  0.111433  0.111433  0.544993  1
  Pd  Pd25  1  0.500000  0.500000  0.000000  1
  Pd  Pd26  1  0.546790  0.546790  0.250195  1
  Pd  Pd27  1  0.453210  0.453210  0.749805  1
  Pd  Pd28  1  0.295528  0.295528  0.489625  1
  Pd  Pd29  1  0.704472  0.704472  0.510375  1
  Pd  Pd30  1  0.669009  0.669009  0.224351  1
  Pd  Pd31  1  0.330991  0.330991  0.775649  1
  Pd  Pd32  1  0.905601  0.905601  0.645750  1
  Pd  Pd33  1  0.094399  0.094399  0.354250  1
  Pd  Pd34  1  0.216419  0.216419  0.068164  1
  Pd  Pd35  1  0.783581  0.783581  0.931836  1
