# generated using pymatgen
data_Ho10InSi4Pd
_symmetry_space_group_name_H-M   'P 1'
_cell_length_a   7.41552300
_cell_length_b   8.85180868
_cell_length_c   7.41552300
_cell_angle_alpha   114.76330131
_cell_angle_beta   90.00000000
_cell_angle_gamma   114.76330131
_symmetry_Int_Tables_number   1
_chemical_formula_structural   Ho10InSi4Pd
_chemical_formula_sum   'Ho10 In1 Si4 Pd1'
_cell_volume   392.16578123
_cell_formula_units_Z   1
loop_
 _symmetry_equiv_pos_site_id
 _symmetry_equiv_pos_as_xyz
  1  'x, y, z'
loop_
 _atom_site_type_symbol
 _atom_site_label
 _atom_site_symmetry_multiplicity
 _atom_site_fract_x
 _atom_site_fract_y
 _atom_site_fract_z
 _atom_site_occupancy
  Ho  Ho0  1  0.979839  0.959695  0.979877  1
  Ho  Ho1  1  0.520127  0.040300  0.520156  1
  Ho  Ho2  1  0.516202  0.718727  0.670921  1
  Ho  Ho3  1  0.202504  0.718712  0.047783  1
  Ho  Ho4  1  0.670931  0.718732  0.202539  1
  Ho  Ho5  1  0.047811  0.718731  0.516254  1
  Ho  Ho6  1  0.452199  0.281228  0.297475  1
  Ho  Ho7  1  0.829052  0.281214  0.983765  1
  Ho  Ho8  1  0.297436  0.281203  0.829040  1
  Ho  Ho9  1  0.983715  0.281218  0.452173  1
  In  In10  1  0.750209  0.500079  0.749867  1
  Si  Si11  1  0.877989  0.000037  0.622038  1
  Si  Si12  1  0.121999  0.000037  0.378032  1
  Si  Si13  1  0.622003  0.000002  0.122033  1
  Si  Si14  1  0.377997  0.000074  0.878026  1
  Pd  Pd15  1  0.249988  0.500011  0.250020  1
