# generated using pymatgen
data_Ho8Zr3Si16W9
_symmetry_space_group_name_H-M   'P 1'
_cell_length_a   6.78064253
_cell_length_b   6.99951643
_cell_length_c   13.25156100
_cell_angle_alpha   90.12630162
_cell_angle_beta   89.75757948
_cell_angle_gamma   89.89199904
_symmetry_Int_Tables_number   1
_chemical_formula_structural   Ho8Zr3Si16W9
_chemical_formula_sum   'Ho8 Zr3 Si16 W9'
_cell_volume   628.92694955
_cell_formula_units_Z   1
loop_
 _symmetry_equiv_pos_site_id
 _symmetry_equiv_pos_as_xyz
  1  'x, y, z'
loop_
 _atom_site_type_symbol
 _atom_site_label
 _atom_site_symmetry_multiplicity
 _atom_site_fract_x
 _atom_site_fract_y
 _atom_site_fract_z
 _atom_site_occupancy
  Ho  Ho0  1  0.503545  0.328710  0.098512  1
  Ho  Ho1  1  0.997737  0.170353  0.405580  1
  Ho  Ho2  1  0.499452  0.673146  0.592523  1
  Ho  Ho3  1  0.996316  0.828228  0.903088  1
  Ho  Ho4  1  0.496505  0.671200  0.906097  1
  Ho  Ho5  1  0.000993  0.827735  0.593334  1
  Ho  Ho6  1  0.501523  0.329655  0.406194  1
  Ho  Ho7  1  0.001145  0.168844  0.095294  1
  Zr  Zr8  1  0.833531  0.331029  0.621743  1
  Zr  Zr9  1  0.333627  0.167806  0.876251  1
  Zr  Zr10  1  0.166082  0.669933  0.126504  1
  Si  Si11  1  0.796194  0.634518  0.749753  1
  Si  Si12  1  0.298559  0.863854  0.748980  1
  Si  Si13  1  0.202050  0.364644  0.252154  1
  Si  Si14  1  0.699670  0.130665  0.250567  1
  Si  Si15  1  0.531838  0.379253  0.747582  1
  Si  Si16  1  0.033388  0.120331  0.749227  1
  Si  Si17  1  0.471644  0.626086  0.253296  1
  Si  Si18  1  0.961992  0.876574  0.255273  1
  Si  Si19  1  0.658044  0.035139  0.540418  1
  Si  Si20  1  0.149306  0.465916  0.953007  1
  Si  Si21  1  0.350517  0.966385  0.049680  1
  Si  Si22  1  0.839144  0.548140  0.450148  1
  Si  Si23  1  0.334895  0.958487  0.456627  1
  Si  Si24  1  0.828943  0.538773  0.040253  1
  Si  Si25  1  0.671402  0.040541  0.961245  1
  Si  Si26  1  0.173391  0.457485  0.539961  1
  W  W27  1  0.660803  0.003791  0.749522  1
  W  W28  1  0.160438  0.493866  0.749001  1
  W  W29  1  0.338902  0.993831  0.253715  1
  W  W30  1  0.839184  0.506365  0.251616  1
  W  W31  1  0.662658  0.837495  0.372840  1
  W  W32  1  0.172122  0.666379  0.376000  1
  W  W33  1  0.676282  0.830896  0.127033  1
  W  W34  1  0.826899  0.328515  0.873548  1
  W  W35  1  0.331278  0.165434  0.623431  1
