# generated using pymatgen
data_Zr6Ti15ZnIr7
_symmetry_space_group_name_H-M   'P 1'
_cell_length_a   8.96303834
_cell_length_b   8.96303722
_cell_length_c   8.95073523
_cell_angle_alpha   59.95452151
_cell_angle_beta   59.95452569
_cell_angle_gamma   59.99999884
_symmetry_Int_Tables_number   1
_chemical_formula_structural   Zr6Ti15ZnIr7
_chemical_formula_sum   'Zr6 Ti15 Zn1 Ir7'
_cell_volume   508.10713977
_cell_formula_units_Z   1
loop_
 _symmetry_equiv_pos_site_id
 _symmetry_equiv_pos_as_xyz
  1  'x, y, z'
loop_
 _atom_site_type_symbol
 _atom_site_label
 _atom_site_symmetry_multiplicity
 _atom_site_fract_x
 _atom_site_fract_y
 _atom_site_fract_z
 _atom_site_occupancy
  Zr  Zr0  1  0.688996  0.688996  0.311284  1
  Zr  Zr1  1  0.310724  0.688996  0.311284  1
  Zr  Zr2  1  0.688996  0.310724  0.311284  1
  Zr  Zr3  1  0.314192  0.314192  0.687838  1
  Zr  Zr4  1  0.683777  0.314192  0.687838  1
  Zr  Zr5  1  0.314192  0.683777  0.687838  1
  Ti  Ti6  1  0.881769  0.354330  0.882133  1
  Ti  Ti7  1  0.354330  0.881769  0.882133  1
  Ti  Ti8  1  0.881769  0.881769  0.882133  1
  Ti  Ti9  1  0.117864  0.117864  0.646408  1
  Ti  Ti10  1  0.113873  0.648163  0.124089  1
  Ti  Ti11  1  0.648163  0.113873  0.124089  1
  Ti  Ti12  1  0.113873  0.113873  0.124089  1
  Ti  Ti13  1  0.671149  0.671149  0.986552  1
  Ti  Ti14  1  0.669066  0.996347  0.665519  1
  Ti  Ti15  1  0.996347  0.669066  0.665519  1
  Ti  Ti16  1  0.669066  0.669066  0.665519  1
  Ti  Ti17  1  0.330320  0.330320  0.009041  1
  Ti  Ti18  1  0.331321  0.007677  0.329683  1
  Ti  Ti19  1  0.007677  0.331321  0.329683  1
  Ti  Ti20  1  0.331321  0.331321  0.329683  1
  Zn  Zn21  1  0.879476  0.879476  0.361573  1
  Ir  Ir22  1  0.001846  0.001846  0.994461  1
  Ir  Ir23  1  0.000963  0.000963  0.500416  1
  Ir  Ir24  1  0.497658  0.000963  0.500416  1
  Ir  Ir25  1  0.000963  0.497658  0.500416  1
  Ir  Ir26  1  0.500331  0.500331  0.999693  1
  Ir  Ir27  1  0.999644  0.500331  0.999693  1
  Ir  Ir28  1  0.500331  0.999644  0.999693  1
