# generated using pymatgen
data_Ba3NaTcO6
_symmetry_space_group_name_H-M   'P 1'
_cell_length_a   7.17676015
_cell_length_b   7.17675938
_cell_length_c   7.17675962
_cell_angle_alpha   91.62444362
_cell_angle_beta   91.62444664
_cell_angle_gamma   91.62443383
_symmetry_Int_Tables_number   1
_chemical_formula_structural   Ba3NaTcO6
_chemical_formula_sum   'Ba6 Na2 Tc2 O12'
_cell_volume   369.19104764
_cell_formula_units_Z   2
loop_
 _symmetry_equiv_pos_site_id
 _symmetry_equiv_pos_as_xyz
  1  'x, y, z'
loop_
 _atom_site_type_symbol
 _atom_site_label
 _atom_site_symmetry_multiplicity
 _atom_site_fract_x
 _atom_site_fract_y
 _atom_site_fract_z
 _atom_site_occupancy
  Ba  Ba0  1  0.894448  0.250000  0.605552  1
  Ba  Ba1  1  0.605552  0.894448  0.250000  1
  Ba  Ba2  1  0.750000  0.394448  0.105552  1
  Ba  Ba3  1  0.105552  0.750000  0.394448  1
  Ba  Ba4  1  0.394448  0.105552  0.750000  1
  Ba  Ba5  1  0.250000  0.605552  0.894448  1
  Na  Na6  1  0.250000  0.250000  0.250000  1
  Na  Na7  1  0.750000  0.750000  0.750000  1
  Tc  Tc8  1  0.000000  0.000000  0.000000  1
  Tc  Tc9  1  0.500000  0.500000  0.500000  1
  O  O10  1  0.551160  0.234685  0.420886  1
  O  O11  1  0.420886  0.551160  0.234685  1
  O  O12  1  0.234685  0.420886  0.551160  1
  O  O13  1  0.948840  0.079114  0.265315  1
  O  O14  1  0.265315  0.948840  0.079114  1
  O  O15  1  0.079114  0.265315  0.948840  1
  O  O16  1  0.448840  0.765315  0.579114  1
  O  O17  1  0.579114  0.448840  0.765315  1
  O  O18  1  0.765315  0.579114  0.448840  1
  O  O19  1  0.051160  0.920886  0.734685  1
  O  O20  1  0.920886  0.734685  0.051160  1
  O  O21  1  0.734685  0.051160  0.920886  1
