# generated using pymatgen
data_Sc10BeCd3
_symmetry_space_group_name_H-M   'P 1'
_cell_length_a   8.90730800
_cell_length_b   8.90730749
_cell_length_c   9.22159300
_cell_angle_alpha   90.00000000
_cell_angle_beta   90.00000000
_cell_angle_gamma   119.99999445
_symmetry_Int_Tables_number   1
_chemical_formula_structural   Sc10BeCd3
_chemical_formula_sum   'Sc20 Be2 Cd6'
_cell_volume   633.62093977
_cell_formula_units_Z   2
loop_
 _symmetry_equiv_pos_site_id
 _symmetry_equiv_pos_as_xyz
  1  'x, y, z'
loop_
 _atom_site_type_symbol
 _atom_site_label
 _atom_site_symmetry_multiplicity
 _atom_site_fract_x
 _atom_site_fract_y
 _atom_site_fract_z
 _atom_site_occupancy
  Sc  Sc0  1  0.000000  0.000000  0.500000  1
  Sc  Sc1  1  0.000000  0.000000  0.000000  1
  Sc  Sc2  1  0.543296  0.456704  0.250000  1
  Sc  Sc3  1  0.543296  0.086591  0.250000  1
  Sc  Sc4  1  0.913409  0.456704  0.250000  1
  Sc  Sc5  1  0.456704  0.543296  0.750000  1
  Sc  Sc6  1  0.456704  0.913409  0.750000  1
  Sc  Sc7  1  0.086591  0.543296  0.750000  1
  Sc  Sc8  1  0.212839  0.787161  0.444705  1
  Sc  Sc9  1  0.212839  0.425679  0.444705  1
  Sc  Sc10  1  0.574321  0.787161  0.444705  1
  Sc  Sc11  1  0.787161  0.212839  0.555295  1
  Sc  Sc12  1  0.787161  0.574321  0.555295  1
  Sc  Sc13  1  0.425679  0.212839  0.555295  1
  Sc  Sc14  1  0.787161  0.212839  0.944705  1
  Sc  Sc15  1  0.787161  0.574321  0.944705  1
  Sc  Sc16  1  0.425679  0.212839  0.944705  1
  Sc  Sc17  1  0.212839  0.787161  0.055295  1
  Sc  Sc18  1  0.212839  0.425679  0.055295  1
  Sc  Sc19  1  0.574321  0.787161  0.055295  1
  Be  Be20  1  0.333333  0.666667  0.250000  1
  Be  Be21  1  0.666667  0.333333  0.750000  1
  Cd  Cd22  1  0.884684  0.115316  0.250000  1
  Cd  Cd23  1  0.884684  0.769369  0.250000  1
  Cd  Cd24  1  0.230631  0.115316  0.250000  1
  Cd  Cd25  1  0.115316  0.884684  0.750000  1
  Cd  Cd26  1  0.115316  0.230631  0.750000  1
  Cd  Cd27  1  0.769369  0.884684  0.750000  1
