# generated using pymatgen
data_Be6Co2MoRu3
_symmetry_space_group_name_H-M   'P 1'
_cell_length_a   4.48458500
_cell_length_b   4.48458429
_cell_length_c   7.00855000
_cell_angle_alpha   90.00000000
_cell_angle_beta   90.00000000
_cell_angle_gamma   119.99999789
_symmetry_Int_Tables_number   1
_chemical_formula_structural   Be6Co2MoRu3
_chemical_formula_sum   'Be6 Co2 Mo1 Ru3'
_cell_volume   122.06840439
_cell_formula_units_Z   1
loop_
 _symmetry_equiv_pos_site_id
 _symmetry_equiv_pos_as_xyz
  1  'x, y, z'
loop_
 _atom_site_type_symbol
 _atom_site_label
 _atom_site_symmetry_multiplicity
 _atom_site_fract_x
 _atom_site_fract_y
 _atom_site_fract_z
 _atom_site_occupancy
  Be  Be0  1  0.828616  0.171384  0.254859  1
  Be  Be1  1  0.828616  0.657231  0.254859  1
  Be  Be2  1  0.342769  0.171384  0.254859  1
  Be  Be3  1  0.169079  0.830921  0.747246  1
  Be  Be4  1  0.169079  0.338159  0.747246  1
  Be  Be5  1  0.661841  0.830921  0.747246  1
  Co  Co6  1  0.000000  0.000000  0.502321  1
  Co  Co7  1  0.000000  0.000000  0.003403  1
  Mo  Mo8  1  0.333333  0.666667  0.062022  1
  Ru  Ru9  1  0.333333  0.666667  0.427939  1
  Ru  Ru10  1  0.666667  0.333333  0.558200  1
  Ru  Ru11  1  0.666667  0.333333  0.939799  1
