# generated using pymatgen
data_Y6Er2Re(B8Os)3
_symmetry_space_group_name_H-M   'P 1'
_cell_length_a   3.66030400
_cell_length_b   9.15496229
_cell_length_c   11.54556854
_cell_angle_alpha   90.11885135
_cell_angle_beta   90.00000000
_cell_angle_gamma   90.00000000
_symmetry_Int_Tables_number   1
_chemical_formula_structural   Y6Er2Re(B8Os)3
_chemical_formula_sum   'Y6 Er2 Re1 B24 Os3'
_cell_volume   386.89053577
_cell_formula_units_Z   1
loop_
 _symmetry_equiv_pos_site_id
 _symmetry_equiv_pos_as_xyz
  1  'x, y, z'
loop_
 _atom_site_type_symbol
 _atom_site_label
 _atom_site_symmetry_multiplicity
 _atom_site_fract_x
 _atom_site_fract_y
 _atom_site_fract_z
 _atom_site_occupancy
  Y  Y0  1  0.000000  0.322629  0.414603  1
  Y  Y1  1  0.000000  0.679809  0.588282  1
  Y  Y2  1  0.000000  0.822001  0.083611  1
  Y  Y3  1  0.000000  0.176984  0.913302  1
  Y  Y4  1  0.000000  0.943317  0.371899  1
  Y  Y5  1  0.000000  0.055918  0.627745  1
  Er  Er6  1  0.000000  0.442873  0.127597  1
  Er  Er7  1  0.000000  0.556628  0.872864  1
  Re  Re8  1  0.000000  0.861867  0.821666  1
  B  B9  1  0.500000  0.553600  0.432847  1
  B  B10  1  0.500000  0.446561  0.567491  1
  B  B11  1  0.500000  0.053946  0.067363  1
  B  B12  1  0.500000  0.946798  0.933119  1
  B  B13  1  0.500000  0.747680  0.419081  1
  B  B14  1  0.500000  0.252433  0.580738  1
  B  B15  1  0.500000  0.248696  0.080878  1
  B  B16  1  0.500000  0.750907  0.919129  1
  B  B17  1  0.500000  0.789681  0.265898  1
  B  B18  1  0.500000  0.209902  0.733398  1
  B  B19  1  0.500000  0.291365  0.233448  1
  B  B20  1  0.500000  0.708059  0.766567  1
  B  B21  1  0.500000  0.630154  0.185209  1
  B  B22  1  0.500000  0.369343  0.814407  1
  B  B23  1  0.500000  0.132084  0.314250  1
  B  B24  1  0.500000  0.868256  0.686095  1
  B  B25  1  0.500000  0.983723  0.212383  1
  B  B26  1  0.500000  0.017337  0.787530  1
  B  B27  1  0.500000  0.482748  0.287178  1
  B  B28  1  0.500000  0.517219  0.713369  1
  B  B29  1  0.500000  0.604125  0.029614  1
  B  B30  1  0.500000  0.394251  0.970983  1
  B  B31  1  0.500000  0.108001  0.469768  1
  B  B32  1  0.500000  0.892587  0.529195  1
  Os  Os33  1  0.000000  0.636573  0.320867  1
  Os  Os34  1  0.000000  0.363393  0.678641  1
  Os  Os35  1  0.000000  0.138551  0.178980  1
