# generated using pymatgen
data_Tm3Sc7Zn3Ir
_symmetry_space_group_name_H-M   'P 1'
_cell_length_a   8.90559800
_cell_length_b   8.90559791
_cell_length_c   9.04507000
_cell_angle_alpha   90.00000000
_cell_angle_beta   90.00000000
_cell_angle_gamma   120.00000033
_symmetry_Int_Tables_number   1
_chemical_formula_structural   Tm3Sc7Zn3Ir
_chemical_formula_sum   'Tm6 Sc14 Zn6 Ir2'
_cell_volume   621.25333384
_cell_formula_units_Z   2
loop_
 _symmetry_equiv_pos_site_id
 _symmetry_equiv_pos_as_xyz
  1  'x, y, z'
loop_
 _atom_site_type_symbol
 _atom_site_label
 _atom_site_symmetry_multiplicity
 _atom_site_fract_x
 _atom_site_fract_y
 _atom_site_fract_z
 _atom_site_occupancy
  Tm  Tm0  1  0.538878  0.461122  0.250000  1
  Tm  Tm1  1  0.538878  0.077757  0.250000  1
  Tm  Tm2  1  0.922243  0.461122  0.250000  1
  Tm  Tm3  1  0.461122  0.538878  0.750000  1
  Tm  Tm4  1  0.461122  0.922243  0.750000  1
  Tm  Tm5  1  0.077757  0.538878  0.750000  1
  Sc  Sc6  1  0.000000  0.000000  0.500000  1
  Sc  Sc7  1  0.000000  0.000000  0.000000  1
  Sc  Sc8  1  0.206169  0.793831  0.444100  1
  Sc  Sc9  1  0.206169  0.412340  0.444100  1
  Sc  Sc10  1  0.587660  0.793831  0.444100  1
  Sc  Sc11  1  0.793831  0.206169  0.555900  1
  Sc  Sc12  1  0.793831  0.587660  0.555900  1
  Sc  Sc13  1  0.412340  0.206169  0.555900  1
  Sc  Sc14  1  0.793831  0.206169  0.944100  1
  Sc  Sc15  1  0.793831  0.587660  0.944100  1
  Sc  Sc16  1  0.412340  0.206169  0.944100  1
  Sc  Sc17  1  0.206169  0.793831  0.055900  1
  Sc  Sc18  1  0.206169  0.412340  0.055900  1
  Sc  Sc19  1  0.587660  0.793831  0.055900  1
  Zn  Zn20  1  0.889649  0.110351  0.250000  1
  Zn  Zn21  1  0.889649  0.779298  0.250000  1
  Zn  Zn22  1  0.220702  0.110351  0.250000  1
  Zn  Zn23  1  0.110351  0.889649  0.750000  1
  Zn  Zn24  1  0.110351  0.220702  0.750000  1
  Zn  Zn25  1  0.779298  0.889649  0.750000  1
  Ir  Ir26  1  0.333333  0.666667  0.250000  1
  Ir  Ir27  1  0.666667  0.333333  0.750000  1
