# generated using pymatgen
data_Hf7Zr6Ta3(Rh2N)4
_symmetry_space_group_name_H-M   'P 1'
_cell_length_a   8.66614711
_cell_length_b   8.66614681
_cell_length_c   8.66614777
_cell_angle_alpha   60.41865114
_cell_angle_beta   60.41864912
_cell_angle_gamma   60.41865535
_symmetry_Int_Tables_number   1
_chemical_formula_structural   Hf7Zr6Ta3(Rh2N)4
_chemical_formula_sum   'Hf7 Zr6 Ta3 Rh8 N4'
_cell_volume   464.57421567
_cell_formula_units_Z   1
loop_
 _symmetry_equiv_pos_site_id
 _symmetry_equiv_pos_as_xyz
  1  'x, y, z'
loop_
 _atom_site_type_symbol
 _atom_site_label
 _atom_site_symmetry_multiplicity
 _atom_site_fract_x
 _atom_site_fract_y
 _atom_site_fract_z
 _atom_site_occupancy
  Hf  Hf0  1  0.625306  0.625306  0.625306  1
  Hf  Hf1  1  0.816853  0.816853  0.182529  1
  Hf  Hf2  1  0.184956  0.184956  0.814961  1
  Hf  Hf3  1  0.816853  0.182529  0.816853  1
  Hf  Hf4  1  0.184956  0.814961  0.184956  1
  Hf  Hf5  1  0.182529  0.816853  0.816853  1
  Hf  Hf6  1  0.814961  0.184956  0.184956  1
  Zr  Zr7  1  0.434926  0.434926  0.065599  1
  Zr  Zr8  1  0.063295  0.063295  0.437014  1
  Zr  Zr9  1  0.434926  0.065599  0.434926  1
  Zr  Zr10  1  0.063295  0.437014  0.063295  1
  Zr  Zr11  1  0.065599  0.434926  0.434926  1
  Zr  Zr12  1  0.437014  0.063295  0.063295  1
  Ta  Ta13  1  0.124021  0.625341  0.625341  1
  Ta  Ta14  1  0.625341  0.124021  0.625341  1
  Ta  Ta15  1  0.625341  0.625341  0.124021  1
  Rh  Rh16  1  0.762421  0.409497  0.409497  1
  Rh  Rh17  1  0.409497  0.762421  0.409497  1
  Rh  Rh18  1  0.409497  0.409497  0.762421  1
  Rh  Rh19  1  0.415026  0.415026  0.415026  1
  Rh  Rh20  1  0.482444  0.842039  0.842039  1
  Rh  Rh21  1  0.842039  0.482444  0.842039  1
  Rh  Rh22  1  0.842039  0.842039  0.482444  1
  Rh  Rh23  1  0.836822  0.836822  0.836822  1
  N  N24  1  0.631399  0.122840  0.122840  1
  N  N25  1  0.122840  0.631399  0.122840  1
  N  N26  1  0.122840  0.122840  0.631399  1
  N  N27  1  0.122963  0.122963  0.122963  1
