# generated using pymatgen
data_Dy12Y8Sn15Sb
_symmetry_space_group_name_H-M   'P 1'
_cell_length_a   8.07108010
_cell_length_b   8.17937701
_cell_length_c   15.44755693
_cell_angle_alpha   90.07865176
_cell_angle_beta   90.43713265
_cell_angle_gamma   90.00366299
_symmetry_Int_Tables_number   1
_chemical_formula_structural   Dy12Y8Sn15Sb
_chemical_formula_sum   'Dy12 Y8 Sn15 Sb1'
_cell_volume   1019.76156265
_cell_formula_units_Z   1
loop_
 _symmetry_equiv_pos_site_id
 _symmetry_equiv_pos_as_xyz
  1  'x, y, z'
loop_
 _atom_site_type_symbol
 _atom_site_label
 _atom_site_symmetry_multiplicity
 _atom_site_fract_x
 _atom_site_fract_y
 _atom_site_fract_z
 _atom_site_occupancy
  Dy  Dy0  1  0.371058  0.837927  0.879453  1
  Dy  Dy1  1  0.868033  0.663217  0.622434  1
  Dy  Dy2  1  0.632299  0.162767  0.377278  1
  Dy  Dy3  1  0.129540  0.338532  0.121818  1
  Dy  Dy4  1  0.630369  0.162385  0.120753  1
  Dy  Dy5  1  0.132836  0.337152  0.377258  1
  Dy  Dy6  1  0.367542  0.837262  0.622223  1
  Dy  Dy7  1  0.869557  0.662350  0.878225  1
  Dy  Dy8  1  0.526217  0.325605  0.900571  1
  Dy  Dy9  1  0.021286  0.178005  0.597548  1
  Dy  Dy10  1  0.478662  0.677701  0.402210  1
  Dy  Dy11  1  0.972514  0.821821  0.099669  1
  Y  Y12  1  0.476641  0.675594  0.098401  1
  Y  Y13  1  0.978497  0.821968  0.402178  1
  Y  Y14  1  0.521579  0.321696  0.597580  1
  Y  Y15  1  0.022965  0.178707  0.901026  1
  Y  Y16  1  0.199407  0.501961  0.749746  1
  Y  Y17  1  0.699295  0.997798  0.750413  1
  Y  Y18  1  0.800608  0.497843  0.250484  1
  Y  Y19  1  0.300632  0.001507  0.251235  1
  Sn  Sn20  1  0.793009  0.463359  0.458249  1
  Sn  Sn21  1  0.707254  0.963237  0.541495  1
  Sn  Sn22  1  0.210774  0.534689  0.957988  1
  Sn  Sn23  1  0.713666  0.965623  0.957783  1
  Sn  Sn24  1  0.207156  0.536383  0.541542  1
  Sn  Sn25  1  0.293319  0.036738  0.458268  1
  Sn  Sn26  1  0.790412  0.464995  0.042231  1
  Sn  Sn27  1  0.566064  0.620071  0.750214  1
  Sn  Sn28  1  0.067089  0.880827  0.751322  1
  Sn  Sn29  1  0.434247  0.379808  0.248796  1
  Sn  Sn30  1  0.933688  0.119362  0.248746  1
  Sn  Sn31  1  0.332081  0.146999  0.749921  1
  Sn  Sn32  1  0.831650  0.353119  0.749333  1
  Sn  Sn33  1  0.666872  0.852691  0.250090  1
  Sn  Sn34  1  0.167959  0.647213  0.250048  1
  Sb  Sb35  1  0.285220  0.033087  0.043471  1
