# generated using pymatgen
data_Dy(Zr3Sn2)3
_symmetry_space_group_name_H-M   'P 1'
_cell_length_a   8.54425900
_cell_length_b   8.63988753
_cell_length_c   5.86211500
_cell_angle_alpha   90.00000000
_cell_angle_beta   90.00000000
_cell_angle_gamma   119.63453152
_symmetry_Int_Tables_number   1
_chemical_formula_structural   Dy(Zr3Sn2)3
_chemical_formula_sum   'Dy1 Zr9 Sn6'
_cell_volume   376.14482010
_cell_formula_units_Z   1
loop_
 _symmetry_equiv_pos_site_id
 _symmetry_equiv_pos_as_xyz
  1  'x, y, z'
loop_
 _atom_site_type_symbol
 _atom_site_label
 _atom_site_symmetry_multiplicity
 _atom_site_fract_x
 _atom_site_fract_y
 _atom_site_fract_z
 _atom_site_occupancy
  Dy  Dy0  1  0.234745  0.000000  0.250000  1
  Zr  Zr1  1  0.999420  0.748387  0.750000  1
  Zr  Zr2  1  0.999423  0.251273  0.250000  1
  Zr  Zr3  1  0.748149  0.748727  0.250000  1
  Zr  Zr4  1  0.759667  0.000000  0.750000  1
  Zr  Zr5  1  0.251033  0.251613  0.750000  1
  Zr  Zr6  1  0.334596  0.667846  0.500747  1
  Zr  Zr7  1  0.666751  0.332154  0.999253  1
  Zr  Zr8  1  0.666751  0.332154  0.500747  1
  Zr  Zr9  1  0.334596  0.667846  0.999253  1
  Sn  Sn10  1  0.392470  0.000000  0.750000  1
  Sn  Sn11  1  0.393821  0.396800  0.250000  1
  Sn  Sn12  1  0.997021  0.603200  0.250000  1
  Sn  Sn13  1  0.000359  0.390335  0.750000  1
  Sn  Sn14  1  0.610024  0.609665  0.750000  1
  Sn  Sn15  1  0.611177  0.000000  0.250000  1
