# generated using pymatgen
data_TbYbEr4(Si3Ru)8
_symmetry_space_group_name_H-M   'P 1'
_cell_length_a   10.12745827
_cell_length_b   10.12745706
_cell_length_c   8.13027210
_cell_angle_alpha   89.91903165
_cell_angle_beta   90.08096964
_cell_angle_gamma   132.65643374
_symmetry_Int_Tables_number   1
_chemical_formula_structural   TbYbEr4(Si3Ru)8
_chemical_formula_sum   'Tb1 Yb1 Er4 Si24 Ru8'
_cell_volume   613.26305342
_cell_formula_units_Z   1
loop_
 _symmetry_equiv_pos_site_id
 _symmetry_equiv_pos_as_xyz
  1  'x, y, z'
loop_
 _atom_site_type_symbol
 _atom_site_label
 _atom_site_symmetry_multiplicity
 _atom_site_fract_x
 _atom_site_fract_y
 _atom_site_fract_z
 _atom_site_occupancy
  Tb  Tb0  1  0.001451  0.501451  0.750000  1
  Yb  Yb1  1  0.497984  0.997984  0.250000  1
  Er  Er2  1  0.502501  0.002501  0.750000  1
  Er  Er3  1  0.997463  0.497463  0.250000  1
  Er  Er4  1  0.499770  0.499692  0.499562  1
  Er  Er5  1  0.999692  0.999770  0.000438  1
  Si  Si6  1  0.388510  0.155105  0.003153  1
  Si  Si7  1  0.655105  0.888510  0.496847  1
  Si  Si8  1  0.111766  0.344764  0.505216  1
  Si  Si9  1  0.844764  0.611766  0.994784  1
  Si  Si10  1  0.611722  0.845701  0.994038  1
  Si  Si11  1  0.345701  0.111722  0.505962  1
  Si  Si12  1  0.888106  0.655366  0.494618  1
  Si  Si13  1  0.155366  0.388106  0.005382  1
  Si  Si14  1  0.613720  0.379301  0.228344  1
  Si  Si15  1  0.879301  0.113720  0.271656  1
  Si  Si16  1  0.888360  0.121745  0.727838  1
  Si  Si17  1  0.621745  0.388360  0.772162  1
  Si  Si18  1  0.388417  0.621854  0.771488  1
  Si  Si19  1  0.121854  0.888417  0.728512  1
  Si  Si20  1  0.704533  0.293928  0.001125  1
  Si  Si21  1  0.793928  0.204533  0.498875  1
  Si  Si22  1  0.295527  0.706000  0.000206  1
  Si  Si23  1  0.206000  0.795527  0.499794  1
  Si  Si24  1  0.166205  0.167485  0.333027  1
  Si  Si25  1  0.667485  0.666205  0.166973  1
  Si  Si26  1  0.332851  0.331709  0.833169  1
  Si  Si27  1  0.831709  0.832851  0.666831  1
  Si  Si28  1  0.376674  0.610960  0.228310  1
  Si  Si29  1  0.110960  0.876674  0.271690  1
  Ru  Ru30  1  0.625886  0.626677  0.873062  1
  Ru  Ru31  1  0.126677  0.125886  0.626938  1
  Ru  Ru32  1  0.873342  0.873293  0.372770  1
  Ru  Ru33  1  0.373293  0.373342  0.127230  1
  Ru  Ru34  1  0.329825  0.669250  0.500428  1
  Ru  Ru35  1  0.169250  0.829825  0.999572  1
  Ru  Ru36  1  0.670759  0.331796  0.501336  1
  Ru  Ru37  1  0.831796  0.170759  0.998664  1
