# generated using pymatgen
data_NdY2In2(GaO4)3
_symmetry_space_group_name_H-M   'P 1'
_cell_length_a   11.08626778
_cell_length_b   11.09978597
_cell_length_c   11.09375077
_cell_angle_alpha   109.53927502
_cell_angle_beta   109.49015718
_cell_angle_gamma   109.38171211
_symmetry_Int_Tables_number   1
_chemical_formula_structural   NdY2In2(GaO4)3
_chemical_formula_sum   'Nd4 Y8 In8 Ga12 O48'
_cell_volume   1050.91921190
_cell_formula_units_Z   4
loop_
 _symmetry_equiv_pos_site_id
 _symmetry_equiv_pos_as_xyz
  1  'x, y, z'
loop_
 _atom_site_type_symbol
 _atom_site_label
 _atom_site_symmetry_multiplicity
 _atom_site_fract_x
 _atom_site_fract_y
 _atom_site_fract_z
 _atom_site_occupancy
  Nd  Nd0  1  0.375275  0.750095  0.124620  1
  Nd  Nd1  1  0.249341  0.374522  0.124619  1
  Nd  Nd2  1  0.875093  0.625094  0.250187  1
  Nd  Nd3  1  0.375230  0.125232  0.250465  1
  Y  Y4  1  0.124042  0.250154  0.376346  1
  Y  Y5  1  0.752301  0.126192  0.376345  1
  Y  Y6  1  0.874834  0.750164  0.625702  1
  Y  Y7  1  0.250864  0.875534  0.625702  1
  Y  Y8  1  0.123760  0.373759  0.747516  1
  Y  Y9  1  0.625113  0.875115  0.750227  1
  Y  Y10  1  0.624393  0.248745  0.873976  1
  Y  Y11  1  0.749579  0.625229  0.873976  1
  In  In12  1  0.998229  0.998529  0.998900  1
  In  In13  1  0.500670  0.000371  0.998901  1
  In  In14  1  0.998226  0.499237  0.997812  1
  In  In15  1  0.499587  0.498576  0.997813  1
  In  In16  1  0.000916  0.001214  0.501230  1
  In  In17  1  0.500930  0.501286  0.502121  1
  In  In18  1  0.501191  0.000835  0.502122  1
  In  In19  1  0.000315  0.500016  0.501230  1
  Ga  Ga20  1  0.751304  0.876716  0.124598  1
  Ga  Ga21  1  0.873296  0.247883  0.124599  1
  Ga  Ga22  1  0.626310  0.374662  0.250526  1
  Ga  Ga23  1  0.124215  0.875864  0.250525  1
  Ga  Ga24  1  0.627106  0.752119  0.378257  1
  Ga  Ga25  1  0.251147  0.626132  0.378252  1
  Ga  Ga26  1  0.751687  0.375905  0.626300  1
  Ga  Ga27  1  0.374613  0.250394  0.626300  1
  Ga  Ga28  1  0.374526  0.624086  0.748255  1
  Ga  Ga29  1  0.873731  0.124171  0.748255  1
  Ga  Ga30  1  0.122569  0.748408  0.872100  1
  Ga  Ga31  1  0.249532  0.123694  0.872101  1
  O  O32  1  0.214412  0.125110  0.026639  1
  O  O33  1  0.312226  0.901528  0.026639  1
  O  O34  1  0.715099  0.685685  0.084000  1
  O  O35  1  0.868900  0.398314  0.083999  1
  O  O36  1  0.969073  0.687630  0.093891  1
  O  O37  1  0.624817  0.406263  0.093893  1
  O  O38  1  0.030024  0.214522  0.131167  1
  O  O39  1  0.601140  0.916642  0.131164  1
  O  O40  1  0.214069  0.589326  0.187781  1
  O  O41  1  0.473711  0.598456  0.187782  1
  O  O42  1  0.124215  0.031168  0.217692  1
  O  O43  1  0.593474  0.186523  0.217692  1
  O  O44  1  0.313667  0.911392  0.285699  1
  O  O45  1  0.472032  0.374306  0.285698  1
  O  O46  1  0.913386  0.283324  0.315563  1
  O  O47  1  0.902176  0.032240  0.315564  1
  O  O48  1  0.282611  0.469667  0.376261  1
  O  O49  1  0.593654  0.906596  0.376263  1
  O  O50  1  0.813331  0.531148  0.406168  1
  O  O51  1  0.092837  0.875019  0.406168  1
  O  O52  1  0.100549  0.631726  0.417156  1
  O  O53  1  0.816607  0.785430  0.417155  1
  O  O54  1  0.601585  0.185360  0.470517  1
  O  O55  1  0.368931  0.285156  0.470516  1
  O  O56  1  0.403792  0.816022  0.533993  1
  O  O57  1  0.630203  0.717968  0.533992  1
  O  O58  1  0.184480  0.217604  0.586970  1
  O  O59  1  0.902491  0.369366  0.586970  1
  O  O60  1  0.913392  0.130729  0.597763  1
  O  O61  1  0.184376  0.467036  0.597760  1
  O  O62  1  0.413609  0.099056  0.631208  1
  O  O63  1  0.717598  0.532150  0.631208  1
  O  O64  1  0.097383  0.966139  0.683795  1
  O  O65  1  0.086415  0.717658  0.683798  1
  O  O66  1  0.685210  0.087450  0.718634  1
  O  O67  1  0.533424  0.631184  0.718634  1
  O  O68  1  0.412504  0.813942  0.781918  1
  O  O69  1  0.869417  0.967977  0.781918  1
  O  O70  1  0.533524  0.402312  0.814869  1
  O  O71  1  0.781344  0.412555  0.814867  1
  O  O72  1  0.402044  0.086121  0.868281  1
  O  O73  1  0.966238  0.782159  0.868279  1
  O  O74  1  0.029912  0.314770  0.898414  1
  O  O75  1  0.368505  0.583646  0.898414  1
  O  O76  1  0.281630  0.312037  0.905514  1
  O  O77  1  0.123888  0.593481  0.905517  1
  O  O78  1  0.684482  0.096490  0.966176  1
  O  O79  1  0.781692  0.869687  0.966175  1
