# generated using pymatgen
data_Er3TmPdPt3O14
_symmetry_space_group_name_H-M   'P 1'
_cell_length_a   7.22859200
_cell_length_b   7.21834024
_cell_length_c   7.21762902
_cell_angle_alpha   59.99674010
_cell_angle_beta   60.04208651
_cell_angle_gamma   60.04688723
_symmetry_Int_Tables_number   1
_chemical_formula_structural   Er3TmPdPt3O14
_chemical_formula_sum   'Er3 Tm1 Pd1 Pt3 O14'
_cell_volume   266.47201385
_cell_formula_units_Z   1
loop_
 _symmetry_equiv_pos_site_id
 _symmetry_equiv_pos_as_xyz
  1  'x, y, z'
loop_
 _atom_site_type_symbol
 _atom_site_label
 _atom_site_symmetry_multiplicity
 _atom_site_fract_x
 _atom_site_fract_y
 _atom_site_fract_z
 _atom_site_occupancy
  Er  Er0  1  0.625000  0.625000  0.625000  1
  Er  Er1  1  0.625000  0.125000  0.625000  1
  Er  Er2  1  0.125000  0.625000  0.625000  1
  Tm  Tm3  1  0.625000  0.625000  0.125000  1
  Pd  Pd4  1  0.625000  0.125000  0.125000  1
  Pt  Pt5  1  0.125000  0.125000  0.125000  1
  Pt  Pt6  1  0.125000  0.625000  0.125000  1
  Pt  Pt7  1  0.125000  0.125000  0.625000  1
  O  O8  1  0.032534  0.467703  0.467705  1
  O  O9  1  0.783959  0.781384  0.216748  1
  O  O10  1  0.783959  0.217909  0.216748  1
  O  O11  1  0.465865  0.032880  0.468375  1
  O  O12  1  0.032534  0.032057  0.467705  1
  O  O13  1  0.031757  0.467899  0.032445  1
  O  O14  1  0.749682  0.749385  0.751548  1
  O  O15  1  0.500318  0.500615  0.498452  1
  O  O16  1  0.784135  0.217120  0.781625  1
  O  O17  1  0.218243  0.782101  0.217555  1
  O  O18  1  0.217466  0.217943  0.782295  1
  O  O19  1  0.466041  0.032091  0.033252  1
  O  O20  1  0.466041  0.468616  0.033252  1
  O  O21  1  0.217466  0.782297  0.782295  1
