# generated using pymatgen
data_Pr8Dy3Er9Sn16
_symmetry_space_group_name_H-M   'P 1'
_cell_length_a   8.09829693
_cell_length_b   8.29449714
_cell_length_c   15.62336582
_cell_angle_alpha   89.96962027
_cell_angle_beta   89.89799428
_cell_angle_gamma   90.05079763
_symmetry_Int_Tables_number   1
_chemical_formula_structural   Pr8Dy3Er9Sn16
_chemical_formula_sum   'Pr8 Dy3 Er9 Sn16'
_cell_volume   1049.43958021
_cell_formula_units_Z   1
loop_
 _symmetry_equiv_pos_site_id
 _symmetry_equiv_pos_as_xyz
  1  'x, y, z'
loop_
 _atom_site_type_symbol
 _atom_site_label
 _atom_site_symmetry_multiplicity
 _atom_site_fract_x
 _atom_site_fract_y
 _atom_site_fract_z
 _atom_site_occupancy
  Pr  Pr0  1  0.511540  0.321851  0.903722  1
  Pr  Pr1  1  0.011383  0.177627  0.596365  1
  Pr  Pr2  1  0.488413  0.677591  0.403439  1
  Pr  Pr3  1  0.988324  0.822284  0.096504  1
  Pr  Pr4  1  0.488276  0.677478  0.096522  1
  Pr  Pr5  1  0.988138  0.822529  0.403279  1
  Pr  Pr6  1  0.511736  0.322233  0.596602  1
  Pr  Pr7  1  0.011858  0.177446  0.903910  1
  Dy  Dy8  1  0.356085  0.835272  0.877081  1
  Dy  Dy9  1  0.856091  0.664665  0.623556  1
  Dy  Dy10  1  0.644000  0.164910  0.376240  1
  Er  Er11  1  0.143936  0.335726  0.124009  1
  Er  Er12  1  0.643984  0.164328  0.123507  1
  Er  Er13  1  0.144204  0.335590  0.375840  1
  Er  Er14  1  0.355549  0.835520  0.623713  1
  Er  Er15  1  0.855727  0.664253  0.876119  1
  Er  Er16  1  0.189323  0.502443  0.749903  1
  Er  Er17  1  0.689323  0.997412  0.750350  1
  Er  Er18  1  0.810861  0.497493  0.249407  1
  Er  Er19  1  0.310532  0.002710  0.249940  1
  Sn  Sn20  1  0.307929  0.042056  0.042896  1
  Sn  Sn21  1  0.808932  0.459532  0.457177  1
  Sn  Sn22  1  0.691020  0.959297  0.542479  1
  Sn  Sn23  1  0.190697  0.540167  0.958173  1
  Sn  Sn24  1  0.693450  0.958523  0.958323  1
  Sn  Sn25  1  0.193218  0.540958  0.541741  1
  Sn  Sn26  1  0.306826  0.041322  0.458124  1
  Sn  Sn27  1  0.808518  0.458648  0.041837  1
  Sn  Sn28  1  0.554626  0.624432  0.750179  1
  Sn  Sn29  1  0.055016  0.875884  0.750230  1
  Sn  Sn30  1  0.445001  0.375634  0.249542  1
  Sn  Sn31  1  0.945375  0.124849  0.249632  1
  Sn  Sn32  1  0.320392  0.142931  0.749867  1
  Sn  Sn33  1  0.820505  0.356936  0.750237  1
  Sn  Sn34  1  0.679573  0.856938  0.249753  1
  Sn  Sn35  1  0.179637  0.642530  0.249803  1
