# generated using pymatgen
data_Lu20FeBi8Te3
_symmetry_space_group_name_H-M   'P 1'
_cell_length_a   7.94700703
_cell_length_b   9.26998600
_cell_length_c   11.75859897
_cell_angle_alpha   90.00000000
_cell_angle_beta   90.62123064
_cell_angle_gamma   90.00000000
_symmetry_Int_Tables_number   1
_chemical_formula_structural   Lu20FeBi8Te3
_chemical_formula_sum   'Lu20 Fe1 Bi8 Te3'
_cell_volume   866.18912391
_cell_formula_units_Z   1
loop_
 _symmetry_equiv_pos_site_id
 _symmetry_equiv_pos_as_xyz
  1  'x, y, z'
loop_
 _atom_site_type_symbol
 _atom_site_label
 _atom_site_symmetry_multiplicity
 _atom_site_fract_x
 _atom_site_fract_y
 _atom_site_fract_z
 _atom_site_occupancy
  Lu  Lu0  1  0.025045  0.250000  0.508602  1
  Lu  Lu1  1  0.980162  0.750000  0.486728  1
  Lu  Lu2  1  0.488672  0.750000  0.007769  1
  Lu  Lu3  1  0.552849  0.250000  0.992721  1
  Lu  Lu4  1  0.352209  0.250000  0.286434  1
  Lu  Lu5  1  0.645775  0.750000  0.716866  1
  Lu  Lu6  1  0.150921  0.750000  0.782922  1
  Lu  Lu7  1  0.857972  0.250000  0.191217  1
  Lu  Lu8  1  0.131525  0.250000  0.804293  1
  Lu  Lu9  1  0.821617  0.750000  0.216400  1
  Lu  Lu10  1  0.317355  0.750000  0.286906  1
  Lu  Lu11  1  0.693524  0.250000  0.724063  1
  Lu  Lu12  1  0.175992  0.074627  0.054718  1
  Lu  Lu13  1  0.818428  0.974750  0.941320  1
  Lu  Lu14  1  0.313102  0.933401  0.558687  1
  Lu  Lu15  1  0.818428  0.525250  0.941320  1
  Lu  Lu16  1  0.688611  0.065766  0.438128  1
  Lu  Lu17  1  0.175992  0.425373  0.054718  1
  Lu  Lu18  1  0.688611  0.434234  0.438128  1
  Lu  Lu19  1  0.313102  0.566599  0.558687  1
  Fe  Fe20  1  0.914450  0.250000  0.970914  1
  Bi  Bi21  1  0.066095  0.004759  0.324308  1
  Bi  Bi22  1  0.931134  0.992358  0.668671  1
  Bi  Bi23  1  0.427348  0.000487  0.825438  1
  Bi  Bi24  1  0.931134  0.507642  0.668671  1
  Bi  Bi25  1  0.560796  0.999224  0.178431  1
  Bi  Bi26  1  0.066095  0.495241  0.324308  1
  Bi  Bi27  1  0.560796  0.500776  0.178431  1
  Bi  Bi28  1  0.427348  0.499513  0.825438  1
  Te  Te29  1  0.404818  0.250000  0.544955  1
  Te  Te30  1  0.602223  0.750000  0.459300  1
  Te  Te31  1  0.097876  0.750000  0.040512  1
