# generated using pymatgen
data_DyLu4ZrFeTe2
_symmetry_space_group_name_H-M   'P 1'
_cell_length_a   8.08629902
_cell_length_b   8.23087452
_cell_length_c   3.89030300
_cell_angle_alpha   90.00000000
_cell_angle_beta   90.00000000
_cell_angle_gamma   120.59322780
_symmetry_Int_Tables_number   1
_chemical_formula_structural   DyLu4ZrFeTe2
_chemical_formula_sum   'Dy1 Lu4 Zr1 Fe1 Te2'
_cell_volume   222.88588616
_cell_formula_units_Z   1
loop_
 _symmetry_equiv_pos_site_id
 _symmetry_equiv_pos_as_xyz
  1  'x, y, z'
loop_
 _atom_site_type_symbol
 _atom_site_label
 _atom_site_symmetry_multiplicity
 _atom_site_fract_x
 _atom_site_fract_y
 _atom_site_fract_z
 _atom_site_occupancy
  Dy  Dy0  1  0.000000  0.590778  0.000000  1
  Lu  Lu1  1  0.772242  0.766735  0.500000  1
  Lu  Lu2  1  0.227758  0.994494  0.500000  1
  Lu  Lu3  1  0.620784  0.002535  0.000000  1
  Lu  Lu4  1  0.379216  0.381750  0.000000  1
  Zr  Zr5  1  0.000000  0.233459  0.500000  1
  Fe  Fe6  1  0.000000  0.037908  0.000000  1
  Te  Te7  1  0.663315  0.327828  0.500000  1
  Te  Te8  1  0.336685  0.664514  0.500000  1
