# generated using pymatgen
data_Zr7ScSi16(Mo2W)4
_symmetry_space_group_name_H-M   'P 1'
_cell_length_a   6.61714923
_cell_length_b   6.77488849
_cell_length_c   12.68240114
_cell_angle_alpha   90.00143514
_cell_angle_beta   90.00289248
_cell_angle_gamma   89.96739913
_symmetry_Int_Tables_number   1
_chemical_formula_structural   Zr7ScSi16(Mo2W)4
_chemical_formula_sum   'Zr7 Sc1 Si16 Mo8 W4'
_cell_volume   568.55763430
_cell_formula_units_Z   1
loop_
 _symmetry_equiv_pos_site_id
 _symmetry_equiv_pos_as_xyz
  1  'x, y, z'
loop_
 _atom_site_type_symbol
 _atom_site_label
 _atom_site_symmetry_multiplicity
 _atom_site_fract_x
 _atom_site_fract_y
 _atom_site_fract_z
 _atom_site_occupancy
  Zr  Zr0  1  0.497307  0.671550  0.593777  1
  Zr  Zr1  1  0.996803  0.827768  0.906730  1
  Zr  Zr2  1  0.503890  0.327728  0.093859  1
  Zr  Zr3  1  0.004213  0.173396  0.405825  1
  Zr  Zr4  1  0.503748  0.327919  0.406342  1
  Zr  Zr5  1  0.003585  0.171530  0.094193  1
  Zr  Zr6  1  0.495704  0.672293  0.906271  1
  Sc  Sc7  1  0.994997  0.829692  0.592215  1
  Si  Si8  1  0.667091  0.958508  0.457492  1
  Si  Si9  1  0.166813  0.541888  0.042895  1
  Si  Si10  1  0.332916  0.042549  0.957463  1
  Si  Si11  1  0.834187  0.459725  0.543486  1
  Si  Si12  1  0.331353  0.040077  0.543064  1
  Si  Si13  1  0.832934  0.457603  0.957615  1
  Si  Si14  1  0.666919  0.957723  0.042594  1
  Si  Si15  1  0.166643  0.542902  0.457387  1
  Si  Si16  1  0.465400  0.376695  0.750302  1
  Si  Si17  1  0.966444  0.122116  0.749285  1
  Si  Si18  1  0.534252  0.622698  0.249726  1
  Si  Si19  1  0.034451  0.876142  0.250766  1
  Si  Si20  1  0.701782  0.861226  0.749094  1
  Si  Si21  1  0.197833  0.640141  0.748661  1
  Si  Si22  1  0.299925  0.137397  0.249914  1
  Si  Si23  1  0.799513  0.362327  0.250228  1
  Mo  Mo24  1  0.666323  0.164629  0.624467  1
  Mo  Mo25  1  0.167180  0.336559  0.875525  1
  Mo  Mo26  1  0.332576  0.835953  0.124140  1
  Mo  Mo27  1  0.831969  0.664062  0.375944  1
  Mo  Mo28  1  0.334329  0.835556  0.375525  1
  Mo  Mo29  1  0.832514  0.664261  0.124453  1
  Mo  Mo30  1  0.667153  0.163570  0.875697  1
  Mo  Mo31  1  0.167813  0.336152  0.624396  1
  W  W32  1  0.833721  0.507428  0.750498  1
  W  W33  1  0.333735  0.991086  0.750070  1
  W  W34  1  0.166832  0.489805  0.250353  1
  W  W35  1  0.667156  0.009346  0.249746  1
