# generated using pymatgen
data_NdY3CdNi
_symmetry_space_group_name_H-M   'P 1'
_cell_length_a   9.65400785
_cell_length_b   9.65400837
_cell_length_c   9.65400800
_cell_angle_alpha   60.00000127
_cell_angle_beta   59.99999948
_cell_angle_gamma   60.00000145
_symmetry_Int_Tables_number   1
_chemical_formula_structural   NdY3CdNi
_chemical_formula_sum   'Nd4 Y12 Cd4 Ni4'
_cell_volume   636.22097421
_cell_formula_units_Z   4
loop_
 _symmetry_equiv_pos_site_id
 _symmetry_equiv_pos_as_xyz
  1  'x, y, z'
loop_
 _atom_site_type_symbol
 _atom_site_label
 _atom_site_symmetry_multiplicity
 _atom_site_fract_x
 _atom_site_fract_y
 _atom_site_fract_z
 _atom_site_occupancy
  Nd  Nd0  1  0.600295  0.600295  0.600295  1
  Nd  Nd1  1  0.600295  0.600295  0.199114  1
  Nd  Nd2  1  0.600295  0.199114  0.600295  1
  Nd  Nd3  1  0.199114  0.600295  0.600295  1
  Y  Y4  1  0.063236  0.436764  0.436764  1
  Y  Y5  1  0.436764  0.063236  0.063236  1
  Y  Y6  1  0.436764  0.063236  0.436764  1
  Y  Y7  1  0.063236  0.436764  0.063236  1
  Y  Y8  1  0.436764  0.436764  0.063236  1
  Y  Y9  1  0.063236  0.063236  0.436764  1
  Y  Y10  1  0.185096  0.814904  0.814904  1
  Y  Y11  1  0.814904  0.185096  0.185096  1
  Y  Y12  1  0.814904  0.185096  0.814904  1
  Y  Y13  1  0.185096  0.814904  0.185096  1
  Y  Y14  1  0.814904  0.814904  0.185096  1
  Y  Y15  1  0.185096  0.185096  0.814904  1
  Cd  Cd16  1  0.831841  0.831841  0.831841  1
  Cd  Cd17  1  0.831841  0.831841  0.504476  1
  Cd  Cd18  1  0.831841  0.504476  0.831841  1
  Cd  Cd19  1  0.504476  0.831841  0.831841  1
  Ni  Ni20  1  0.391591  0.391591  0.391591  1
  Ni  Ni21  1  0.391591  0.391591  0.825229  1
  Ni  Ni22  1  0.391591  0.825229  0.391591  1
  Ni  Ni23  1  0.825229  0.391591  0.391591  1
