# generated using pymatgen
data_Ga11Cu(IrRh)6
_symmetry_space_group_name_H-M   'P 1'
_cell_length_a   4.29496800
_cell_length_b   6.05469200
_cell_length_c   13.00712200
_cell_angle_alpha   89.99996345
_cell_angle_beta   89.99976100
_cell_angle_gamma   90.00002280
_symmetry_Int_Tables_number   1
_chemical_formula_structural   Ga11Cu(IrRh)6
_chemical_formula_sum   'Ga11 Cu1 Ir6 Rh6'
_cell_volume   338.24641460
_cell_formula_units_Z   1
loop_
 _symmetry_equiv_pos_site_id
 _symmetry_equiv_pos_as_xyz
  1  'x, y, z'
loop_
 _atom_site_type_symbol
 _atom_site_label
 _atom_site_symmetry_multiplicity
 _atom_site_fract_x
 _atom_site_fract_y
 _atom_site_fract_z
 _atom_site_occupancy
  Ga  Ga0  1  0.500000  0.750263  0.000000  1
  Ga  Ga1  1  0.000018  0.249827  0.160201  1
  Ga  Ga2  1  0.000017  0.750167  0.164597  1
  Ga  Ga3  1  0.500012  0.250457  0.331830  1
  Ga  Ga4  1  0.500012  0.749309  0.331220  1
  Ga  Ga5  1  0.000000  0.249588  0.500000  1
  Ga  Ga6  1  0.000000  0.750517  0.500000  1
  Ga  Ga7  1  0.499990  0.250457  0.668170  1
  Ga  Ga8  1  0.499989  0.749309  0.668780  1
  Ga  Ga9  1  0.999981  0.249828  0.839799  1
  Ga  Ga10  1  0.999983  0.750167  0.835403  1
  Cu  Cu11  1  0.500000  0.250117  0.000000  1
  Ir  Ir12  1  0.000000  0.994902  0.000000  1
  Ir  Ir13  1  0.500003  0.501218  0.169904  1
  Ir  Ir14  1  0.000022  0.000580  0.334145  1
  Ir  Ir15  1  0.500000  0.500407  0.500000  1
  Ir  Ir16  1  0.999977  0.000580  0.665856  1
  Ir  Ir17  1  0.499998  0.501218  0.830097  1
  Rh  Rh18  1  0.999999  0.504169  0.000000  1
  Rh  Rh19  1  0.500020  0.998871  0.169894  1
  Rh  Rh20  1  0.000011  0.499662  0.334437  1
  Rh  Rh21  1  0.500000  0.999852  0.500000  1
  Rh  Rh22  1  0.999989  0.499662  0.665563  1
  Rh  Rh23  1  0.499980  0.998870  0.830105  1
