# generated using pymatgen
data_YbDy3(ReB2)6
_symmetry_space_group_name_H-M   'P 1'
_cell_length_a   6.21188004
_cell_length_b   6.19865684
_cell_length_c   7.50911777
_cell_angle_alpha   89.31874152
_cell_angle_beta   89.76204647
_cell_angle_gamma   113.58906941
_symmetry_Int_Tables_number   1
_chemical_formula_structural   YbDy3(ReB2)6
_chemical_formula_sum   'Yb1 Dy3 Re6 B12'
_cell_volume   264.94878986
_cell_formula_units_Z   1
loop_
 _symmetry_equiv_pos_site_id
 _symmetry_equiv_pos_as_xyz
  1  'x, y, z'
loop_
 _atom_site_type_symbol
 _atom_site_label
 _atom_site_symmetry_multiplicity
 _atom_site_fract_x
 _atom_site_fract_y
 _atom_site_fract_z
 _atom_site_occupancy
  Yb  Yb0  1  0.903345  0.558755  0.322893  1
  Dy  Dy1  1  0.449038  0.104417  0.178295  1
  Dy  Dy2  1  0.096741  0.444481  0.673997  1
  Dy  Dy3  1  0.554667  0.898072  0.822617  1
  Re  Re4  1  0.413867  0.588966  0.248434  1
  Re  Re5  1  0.586149  0.411307  0.750848  1
  Re  Re6  1  0.009162  0.191442  0.090888  1
  Re  Re7  1  0.806556  0.988355  0.412417  1
  Re  Re8  1  0.989541  0.808804  0.910617  1
  Re  Re9  1  0.191721  0.009297  0.589626  1
  B  B10  1  0.748244  0.846994  0.130273  1
  B  B11  1  0.154086  0.245483  0.368566  1
  B  B12  1  0.249548  0.153199  0.869768  1
  B  B13  1  0.846287  0.749890  0.630402  1
  B  B14  1  0.412671  0.841013  0.479813  1
  B  B15  1  0.158672  0.587431  0.020205  1
  B  B16  1  0.589031  0.159261  0.521566  1
  B  B17  1  0.841171  0.414071  0.979898  1
  B  B18  1  0.556553  0.648644  0.534487  1
  B  B19  1  0.349208  0.443442  0.964135  1
  B  B20  1  0.444293  0.349806  0.464473  1
  B  B21  1  0.649453  0.556870  0.035782  1
