# generated using pymatgen
data_Rb3NaOs2O9
_symmetry_space_group_name_H-M   'P 1'
_cell_length_a   6.23990300
_cell_length_b   6.23990280
_cell_length_c   14.66029800
_cell_angle_alpha   90.00000000
_cell_angle_beta   90.00000000
_cell_angle_gamma   120.00000634
_symmetry_Int_Tables_number   1
_chemical_formula_structural   Rb3NaOs2O9
_chemical_formula_sum   'Rb6 Na2 Os4 O18'
_cell_volume   494.34377051
_cell_formula_units_Z   2
loop_
 _symmetry_equiv_pos_site_id
 _symmetry_equiv_pos_as_xyz
  1  'x, y, z'
loop_
 _atom_site_type_symbol
 _atom_site_label
 _atom_site_symmetry_multiplicity
 _atom_site_fract_x
 _atom_site_fract_y
 _atom_site_fract_z
 _atom_site_occupancy
  Rb  Rb0  1  0.333333  0.666667  0.103983  1
  Rb  Rb1  1  0.666667  0.333333  0.896017  1
  Rb  Rb2  1  0.666667  0.333333  0.603983  1
  Rb  Rb3  1  0.333333  0.666667  0.396017  1
  Rb  Rb4  1  0.000000  0.000000  0.250000  1
  Rb  Rb5  1  0.000000  0.000000  0.750000  1
  Na  Na6  1  0.000000  0.000000  0.000000  1
  Na  Na7  1  0.000000  0.000000  0.500000  1
  Os  Os8  1  0.333333  0.666667  0.650514  1
  Os  Os9  1  0.666667  0.333333  0.349486  1
  Os  Os10  1  0.666667  0.333333  0.150514  1
  Os  Os11  1  0.333333  0.666667  0.849486  1
  O  O12  1  0.535556  0.071112  0.250000  1
  O  O13  1  0.464444  0.928888  0.750000  1
  O  O14  1  0.928888  0.464444  0.250000  1
  O  O15  1  0.071112  0.535556  0.750000  1
  O  O16  1  0.535556  0.464444  0.250000  1
  O  O17  1  0.464444  0.535556  0.750000  1
  O  O18  1  0.185431  0.370862  0.591931  1
  O  O19  1  0.814569  0.629138  0.408069  1
  O  O20  1  0.629138  0.814569  0.591931  1
  O  O21  1  0.814569  0.629138  0.091931  1
  O  O22  1  0.370862  0.185431  0.408069  1
  O  O23  1  0.185431  0.370862  0.908069  1
  O  O24  1  0.185431  0.814569  0.591931  1
  O  O25  1  0.370862  0.185431  0.091931  1
  O  O26  1  0.814569  0.185431  0.408069  1
  O  O27  1  0.629138  0.814569  0.908069  1
  O  O28  1  0.814569  0.185431  0.091931  1
  O  O29  1  0.185431  0.814569  0.908069  1
