# generated using pymatgen
data_Sr(ZrS2)8
_symmetry_space_group_name_H-M   'P 1'
_cell_length_a   7.33676200
_cell_length_b   7.33676076
_cell_length_c   14.20221200
_cell_angle_alpha   90.00000000
_cell_angle_beta   90.00000000
_cell_angle_gamma   119.99998754
_symmetry_Int_Tables_number   1
_chemical_formula_structural   Sr(ZrS2)8
_chemical_formula_sum   'Sr1 Zr8 S16'
_cell_volume   662.05712888
_cell_formula_units_Z   1
loop_
 _symmetry_equiv_pos_site_id
 _symmetry_equiv_pos_as_xyz
  1  'x, y, z'
loop_
 _atom_site_type_symbol
 _atom_site_label
 _atom_site_symmetry_multiplicity
 _atom_site_fract_x
 _atom_site_fract_y
 _atom_site_fract_z
 _atom_site_occupancy
  Sr  Sr0  1  0.000000  0.000000  0.000000  1
  Zr  Zr1  1  0.501338  0.498662  0.742344  1
  Zr  Zr2  1  0.498662  0.501338  0.257656  1
  Zr  Zr3  1  0.501338  0.002674  0.742344  1
  Zr  Zr4  1  0.498662  0.997326  0.257656  1
  Zr  Zr5  1  0.997326  0.498662  0.742344  1
  Zr  Zr6  1  0.002674  0.501338  0.257656  1
  Zr  Zr7  1  0.000000  0.000000  0.733123  1
  Zr  Zr8  1  0.000000  0.000000  0.266877  1
  S  S9  1  0.835568  0.671137  0.151871  1
  S  S10  1  0.831504  0.663009  0.636842  1
  S  S11  1  0.835568  0.164432  0.151871  1
  S  S12  1  0.831504  0.168496  0.636842  1
  S  S13  1  0.333333  0.666667  0.151701  1
  S  S14  1  0.333333  0.666667  0.641277  1
  S  S15  1  0.328863  0.164432  0.151871  1
  S  S16  1  0.336991  0.168496  0.636842  1
  S  S17  1  0.671137  0.835568  0.848129  1
  S  S18  1  0.663009  0.831504  0.363158  1
  S  S19  1  0.666667  0.333333  0.848299  1
  S  S20  1  0.666667  0.333333  0.358723  1
  S  S21  1  0.164432  0.835568  0.848129  1
  S  S22  1  0.168496  0.831504  0.363158  1
  S  S23  1  0.164432  0.328863  0.848129  1
  S  S24  1  0.168496  0.336991  0.363158  1
