# generated using pymatgen
data_Dy3YSc4(ReB6)4
_symmetry_space_group_name_H-M   'P 1'
_cell_length_a   3.58653900
_cell_length_b   9.01135900
_cell_length_c   11.39333100
_cell_angle_alpha   90.00231383
_cell_angle_beta   90.00000000
_cell_angle_gamma   90.00000000
_symmetry_Int_Tables_number   1
_chemical_formula_structural   Dy3YSc4(ReB6)4
_chemical_formula_sum   'Dy3 Y1 Sc4 Re4 B24'
_cell_volume   368.22779216
_cell_formula_units_Z   1
loop_
 _symmetry_equiv_pos_site_id
 _symmetry_equiv_pos_as_xyz
  1  'x, y, z'
loop_
 _atom_site_type_symbol
 _atom_site_label
 _atom_site_symmetry_multiplicity
 _atom_site_fract_x
 _atom_site_fract_y
 _atom_site_fract_z
 _atom_site_occupancy
  Dy  Dy0  1  0.000000  0.678295  0.586071  1
  Dy  Dy1  1  0.000000  0.821721  0.086092  1
  Dy  Dy2  1  0.000000  0.178273  0.913921  1
  Y  Y3  1  0.000000  0.321661  0.413953  1
  Sc  Sc4  1  0.000000  0.944185  0.370238  1
  Sc  Sc5  1  0.000000  0.055784  0.629776  1
  Sc  Sc6  1  0.000000  0.444177  0.129803  1
  Sc  Sc7  1  0.000000  0.555837  0.870195  1
  Re  Re8  1  0.000000  0.640893  0.318403  1
  Re  Re9  1  0.000000  0.359201  0.681636  1
  Re  Re10  1  0.000000  0.140773  0.181543  1
  Re  Re11  1  0.000000  0.859189  0.818417  1
  B  B12  1  0.500000  0.554503  0.432547  1
  B  B13  1  0.500000  0.445655  0.567524  1
  B  B14  1  0.500000  0.054404  0.067456  1
  B  B15  1  0.500000  0.945599  0.932547  1
  B  B16  1  0.500000  0.754712  0.418491  1
  B  B17  1  0.500000  0.245250  0.581584  1
  B  B18  1  0.500000  0.254738  0.081483  1
  B  B19  1  0.500000  0.745264  0.918511  1
  B  B20  1  0.500000  0.795306  0.264881  1
  B  B21  1  0.500000  0.204681  0.735118  1
  B  B22  1  0.500000  0.295304  0.235024  1
  B  B23  1  0.500000  0.704698  0.764890  1
  B  B24  1  0.500000  0.629177  0.183018  1
  B  B25  1  0.500000  0.370834  0.816986  1
  B  B26  1  0.500000  0.129070  0.316931  1
  B  B27  1  0.500000  0.870828  0.683016  1
  B  B28  1  0.500000  0.981518  0.213806  1
  B  B29  1  0.500000  0.018484  0.786189  1
  B  B30  1  0.500000  0.481606  0.286138  1
  B  B31  1  0.500000  0.518467  0.713803  1
  B  B32  1  0.500000  0.595330  0.026059  1
  B  B33  1  0.500000  0.404668  0.973937  1
  B  B34  1  0.500000  0.095258  0.473949  1
  B  B35  1  0.500000  0.904655  0.526065  1
