# generated using pymatgen
data_Ho2Er(AgGe)3
_symmetry_space_group_name_H-M   'P 1'
_cell_length_a   7.16785318
_cell_length_b   7.17061683
_cell_length_c   4.19544400
_cell_angle_alpha   90.00000000
_cell_angle_beta   90.00000000
_cell_angle_gamma   120.01275492
_symmetry_Int_Tables_number   1
_chemical_formula_structural   Ho2Er(AgGe)3
_chemical_formula_sum   'Ho2 Er1 Ag3 Ge3'
_cell_volume   186.72322704
_cell_formula_units_Z   1
loop_
 _symmetry_equiv_pos_site_id
 _symmetry_equiv_pos_as_xyz
  1  'x, y, z'
loop_
 _atom_site_type_symbol
 _atom_site_label
 _atom_site_symmetry_multiplicity
 _atom_site_fract_x
 _atom_site_fract_y
 _atom_site_fract_z
 _atom_site_occupancy
  Ho  Ho0  1  0.583847  0.000072  0.000000  1
  Ho  Ho1  1  0.416153  0.416224  0.000000  1
  Er  Er2  1  0.000000  0.583803  0.000000  1
  Ag  Ag3  1  0.748208  0.748069  0.500000  1
  Ag  Ag4  1  0.251792  0.999861  0.500000  1
  Ag  Ag5  1  0.000000  0.252095  0.500000  1
  Ge  Ge6  1  0.000000  0.999772  0.000000  1
  Ge  Ge7  1  0.667047  0.333576  0.500000  1
  Ge  Ge8  1  0.332953  0.666530  0.500000  1
