# generated using pymatgen
data_La7Pr3(SiC)4
_symmetry_space_group_name_H-M   'P 1'
_cell_length_a   8.15334402
_cell_length_b   12.91141713
_cell_length_c   4.27855500
_cell_angle_alpha   90.00000000
_cell_angle_beta   90.00000000
_cell_angle_gamma   89.84955706
_symmetry_Int_Tables_number   1
_chemical_formula_structural   La7Pr3(SiC)4
_chemical_formula_sum   'La7 Pr3 Si4 C4'
_cell_volume   450.40717645
_cell_formula_units_Z   1
loop_
 _symmetry_equiv_pos_site_id
 _symmetry_equiv_pos_as_xyz
  1  'x, y, z'
loop_
 _atom_site_type_symbol
 _atom_site_label
 _atom_site_symmetry_multiplicity
 _atom_site_fract_x
 _atom_site_fract_y
 _atom_site_fract_z
 _atom_site_occupancy
  La  La0  1  0.677245  0.286656  0.000000  1
  La  La1  1  0.321850  0.712886  0.000000  1
  La  La2  1  0.822689  0.787548  0.000000  1
  La  La3  1  0.832546  0.062683  0.499998  1
  La  La4  1  0.331738  0.438206  0.499998  1
  La  La5  1  0.668498  0.560930  0.499998  1
  La  La6  1  0.169033  0.939981  0.499998  1
  Pr  Pr7  1  0.499390  0.001296  0.000000  1
  Pr  Pr8  1  0.176492  0.212243  0.000000  1
  Pr  Pr9  1  0.000505  0.498555  0.000000  1
  Si  Si10  1  0.452676  0.170062  0.499998  1
  Si  Si11  1  0.960488  0.328552  0.499998  1
  Si  Si12  1  0.042332  0.667691  0.499998  1
  Si  Si13  1  0.541414  0.831740  0.499998  1
  C  C14  1  0.041283  0.046905  0.000000  1
  C  C15  1  0.542252  0.453604  0.000000  1
  C  C16  1  0.459690  0.546764  0.000000  1
  C  C17  1  0.959882  0.953699  0.000000  1
