# generated using pymatgen
data_Ce4Ga4TcPd3
_symmetry_space_group_name_H-M   'P 1'
_cell_length_a   4.57014400
_cell_length_b   6.98143049
_cell_length_c   7.74554529
_cell_angle_alpha   91.50563340
_cell_angle_beta   90.00000000
_cell_angle_gamma   90.00000000
_symmetry_Int_Tables_number   1
_chemical_formula_structural   Ce4Ga4TcPd3
_chemical_formula_sum   'Ce4 Ga4 Tc1 Pd3'
_cell_volume   247.04515059
_cell_formula_units_Z   1
loop_
 _symmetry_equiv_pos_site_id
 _symmetry_equiv_pos_as_xyz
  1  'x, y, z'
loop_
 _atom_site_type_symbol
 _atom_site_label
 _atom_site_symmetry_multiplicity
 _atom_site_fract_x
 _atom_site_fract_y
 _atom_site_fract_z
 _atom_site_occupancy
  Ce  Ce0  1  0.250000  0.971199  0.300725  1
  Ce  Ce1  1  0.250000  0.462511  0.175481  1
  Ce  Ce2  1  0.750000  0.023661  0.705069  1
  Ce  Ce3  1  0.750000  0.518877  0.798751  1
  Ga  Ga4  1  0.250000  0.322547  0.581069  1
  Ga  Ga5  1  0.250000  0.841652  0.920342  1
  Ga  Ga6  1  0.750000  0.667255  0.417480  1
  Ga  Ga7  1  0.750000  0.168407  0.080133  1
  Tc  Tc8  1  0.250000  0.256169  0.927363  1
  Pd  Pd9  1  0.250000  0.716369  0.591866  1
  Pd  Pd10  1  0.750000  0.775451  0.092024  1
  Pd  Pd11  1  0.750000  0.275904  0.409696  1
