# generated using pymatgen
data_Tb4Re(Si2Pt)5
_symmetry_space_group_name_H-M   'P 1'
_cell_length_a   8.17783163
_cell_length_b   8.17783103
_cell_length_c   8.17783200
_cell_angle_alpha   137.16704505
_cell_angle_beta   104.43008592
_cell_angle_gamma   91.00058085
_symmetry_Int_Tables_number   1
_chemical_formula_structural   Tb4Re(Si2Pt)5
_chemical_formula_sum   'Tb4 Re1 Si10 Pt5'
_cell_volume   343.04130170
_cell_formula_units_Z   1
loop_
 _symmetry_equiv_pos_site_id
 _symmetry_equiv_pos_as_xyz
  1  'x, y, z'
loop_
 _atom_site_type_symbol
 _atom_site_label
 _atom_site_symmetry_multiplicity
 _atom_site_fract_x
 _atom_site_fract_y
 _atom_site_fract_z
 _atom_site_occupancy
  Tb  Tb0  1  0.101783  0.867743  0.228634  1
  Tb  Tb1  1  0.898223  0.126854  0.765959  1
  Tb  Tb2  1  0.360907  0.632304  0.734088  1
  Tb  Tb3  1  0.639099  0.373187  0.271399  1
  Re  Re4  1  0.499974  0.749791  0.249854  1
  Si  Si5  1  0.000003  0.750022  0.750017  1
  Si  Si6  1  0.999997  0.250032  0.250025  1
  Si  Si7  1  0.272165  0.022197  0.750028  1
  Si  Si8  1  0.727841  0.477860  0.750025  1
  Si  Si9  1  0.723863  0.973884  0.250005  1
  Si  Si10  1  0.276140  0.526156  0.250020  1
  Si  Si11  1  0.760352  0.612750  0.158917  1
  Si  Si12  1  0.453844  0.101462  0.341121  1
  Si  Si13  1  0.546161  0.887286  0.647615  1
  Si  Si14  1  0.239651  0.398560  0.852388  1
  Pt  Pt15  1  0.250790  0.141342  0.115436  1
  Pt  Pt16  1  0.500001  0.249903  0.749901  1
  Pt  Pt17  1  0.025888  0.635375  0.384572  1
  Pt  Pt18  1  0.974114  0.358679  0.609482  1
  Pt  Pt19  1  0.749205  0.864614  0.890516  1
