# generated using pymatgen
data_Yb5CrN5
_symmetry_space_group_name_H-M   'P 1'
_cell_length_a   6.69506122
_cell_length_b   6.69506121
_cell_length_c   8.67397687
_cell_angle_alpha   80.84038695
_cell_angle_beta   80.84036886
_cell_angle_gamma   59.46808783
_symmetry_Int_Tables_number   1
_chemical_formula_structural   Yb5CrN5
_chemical_formula_sum   'Yb10 Cr2 N10'
_cell_volume   329.21684966
_cell_formula_units_Z   2
loop_
 _symmetry_equiv_pos_site_id
 _symmetry_equiv_pos_as_xyz
  1  'x, y, z'
loop_
 _atom_site_type_symbol
 _atom_site_label
 _atom_site_symmetry_multiplicity
 _atom_site_fract_x
 _atom_site_fract_y
 _atom_site_fract_z
 _atom_site_occupancy
  Yb  Yb0  1  0.880002  0.353314  0.840420  1
  Yb  Yb1  1  0.875323  0.875323  0.824404  1
  Yb  Yb2  1  0.735981  0.735981  0.523345  1
  Yb  Yb3  1  0.748552  0.251919  0.504441  1
  Yb  Yb4  1  0.628169  0.128807  0.148827  1
  Yb  Yb5  1  0.353314  0.880002  0.840420  1
  Yb  Yb6  1  0.251919  0.748552  0.504441  1
  Yb  Yb7  1  0.246481  0.246481  0.490987  1
  Yb  Yb8  1  0.139343  0.139343  0.166190  1
  Yb  Yb9  1  0.128807  0.628169  0.148827  1
  Cr  Cr10  1  0.632823  0.632823  0.225981  1
  Cr  Cr11  1  0.367634  0.367634  0.770655  1
  N  N12  1  0.902414  0.474418  0.321960  1
  N  N13  1  0.998180  0.998180  0.014750  1
  N  N14  1  0.687078  0.687078  0.025424  1
  N  N15  1  0.525053  0.525053  0.701176  1
  N  N16  1  0.474418  0.902414  0.321960  1
  N  N17  1  0.527261  0.099564  0.680774  1
  N  N18  1  0.477576  0.477576  0.287995  1
  N  N19  1  0.317390  0.317390  0.974083  1
  N  N20  1  0.065008  0.065008  0.647976  1
  N  N21  1  0.099564  0.527261  0.680774  1
