# generated using pymatgen
data_Dy2Tm6In3Pt
_symmetry_space_group_name_H-M   'P 1'
_cell_length_a   10.38026200
_cell_length_b   10.38486927
_cell_length_c   6.96206837
_cell_angle_alpha   89.97323192
_cell_angle_beta   90.00000000
_cell_angle_gamma   119.98532520
_symmetry_Int_Tables_number   1
_chemical_formula_structural   Dy2Tm6In3Pt
_chemical_formula_sum   'Dy4 Tm12 In6 Pt2'
_cell_volume   650.04347382
_cell_formula_units_Z   2
loop_
 _symmetry_equiv_pos_site_id
 _symmetry_equiv_pos_as_xyz
  1  'x, y, z'
loop_
 _atom_site_type_symbol
 _atom_site_label
 _atom_site_symmetry_multiplicity
 _atom_site_fract_x
 _atom_site_fract_y
 _atom_site_fract_z
 _atom_site_occupancy
  Dy  Dy0  1  0.531297  0.062596  0.516563  1
  Dy  Dy1  1  0.937925  0.469277  0.517537  1
  Dy  Dy2  1  0.531350  0.469277  0.517537  1
  Dy  Dy3  1  0.468646  0.937291  0.016911  1
  Tm  Tm4  1  0.063992  0.531847  0.017451  1
  Tm  Tm5  1  0.467856  0.531847  0.017451  1
  Tm  Tm6  1  0.174960  0.349920  0.724119  1
  Tm  Tm7  1  0.649727  0.824676  0.723421  1
  Tm  Tm8  1  0.174949  0.824676  0.723421  1
  Tm  Tm9  1  0.824564  0.649128  0.220793  1
  Tm  Tm10  1  0.350028  0.175697  0.221555  1
  Tm  Tm11  1  0.825669  0.175697  0.221555  1
  Tm  Tm12  1  0.667059  0.334117  0.892797  1
  Tm  Tm13  1  0.332983  0.665967  0.392392  1
  Tm  Tm14  1  0.999992  0.999986  0.496756  1
  Tm  Tm15  1  0.999859  0.999716  0.997496  1
  In  In16  1  0.837835  0.675670  0.761470  1
  In  In17  1  0.325196  0.162197  0.760895  1
  In  In18  1  0.837001  0.162197  0.760895  1
  In  In19  1  0.163042  0.326085  0.260869  1
  In  In20  1  0.674342  0.836829  0.261153  1
  In  In21  1  0.162486  0.836829  0.261153  1
  Pt  Pt22  1  0.666696  0.333391  0.286220  1
  Pt  Pt23  1  0.332543  0.665088  0.787593  1
