# generated using pymatgen
data_Dy7Lu(Ta3Ge4)4
_symmetry_space_group_name_H-M   'P 1'
_cell_length_a   6.99289003
_cell_length_b   7.15364703
_cell_length_c   13.54787902
_cell_angle_alpha   90.00501037
_cell_angle_beta   90.00461125
_cell_angle_gamma   90.00961485
_symmetry_Int_Tables_number   1
_chemical_formula_structural   Dy7Lu(Ta3Ge4)4
_chemical_formula_sum   'Dy7 Lu1 Ta12 Ge16'
_cell_volume   677.72812254
_cell_formula_units_Z   1
loop_
 _symmetry_equiv_pos_site_id
 _symmetry_equiv_pos_as_xyz
  1  'x, y, z'
loop_
 _atom_site_type_symbol
 _atom_site_label
 _atom_site_symmetry_multiplicity
 _atom_site_fract_x
 _atom_site_fract_y
 _atom_site_fract_z
 _atom_site_occupancy
  Dy  Dy0  1  0.494734  0.674471  0.593988  1
  Dy  Dy1  1  0.994711  0.825803  0.906106  1
  Dy  Dy2  1  0.505330  0.325977  0.094009  1
  Dy  Dy3  1  0.005309  0.174006  0.406316  1
  Dy  Dy4  1  0.505318  0.325563  0.406304  1
  Dy  Dy5  1  0.005333  0.174226  0.093948  1
  Dy  Dy6  1  0.494635  0.674175  0.905540  1
  Lu  Lu7  1  0.993763  0.825059  0.594193  1
  Ta  Ta8  1  0.659492  0.169106  0.626052  1
  Ta  Ta9  1  0.158870  0.330663  0.873441  1
  Ta  Ta10  1  0.341019  0.830573  0.126336  1
  Ta  Ta11  1  0.841698  0.670010  0.374085  1
  Ta  Ta12  1  0.340862  0.830586  0.373866  1
  Ta  Ta13  1  0.840908  0.669491  0.126386  1
  Ta  Ta14  1  0.659310  0.169016  0.873448  1
  Ta  Ta15  1  0.159081  0.330310  0.626237  1
  Ta  Ta16  1  0.835797  0.485350  0.749790  1
  Ta  Ta17  1  0.335365  0.014428  0.749689  1
  Ta  Ta18  1  0.164509  0.514942  0.250167  1
  Ta  Ta19  1  0.664544  0.985283  0.250205  1
  Ge  Ge20  1  0.678208  0.961020  0.458737  1
  Ge  Ge21  1  0.177206  0.538804  0.041803  1
  Ge  Ge22  1  0.322849  0.039029  0.958084  1
  Ge  Ge23  1  0.823502  0.462722  0.542203  1
  Ge  Ge24  1  0.320338  0.037229  0.542248  1
  Ge  Ge25  1  0.822756  0.461094  0.958037  1
  Ge  Ge26  1  0.677166  0.961095  0.041791  1
  Ge  Ge27  1  0.177004  0.539479  0.458777  1
  Ge  Ge28  1  0.459540  0.379746  0.749808  1
  Ge  Ge29  1  0.959770  0.119300  0.749593  1
  Ge  Ge30  1  0.540608  0.620212  0.250210  1
  Ge  Ge31  1  0.040562  0.879982  0.249984  1
  Ge  Ge32  1  0.695490  0.858283  0.749345  1
  Ge  Ge33  1  0.193220  0.642859  0.749032  1
  Ge  Ge34  1  0.305553  0.141609  0.250092  1
  Ge  Ge35  1  0.805639  0.358500  0.250152  1
