# generated using pymatgen
data_Pa12Al9Re13Ag2
_symmetry_space_group_name_H-M   'P 1'
_cell_length_a   9.48394600
_cell_length_b   9.48394486
_cell_length_c   8.55991800
_cell_angle_alpha   90.00000000
_cell_angle_beta   90.00000000
_cell_angle_gamma   119.99999003
_symmetry_Int_Tables_number   1
_chemical_formula_structural   Pa12Al9Re13Ag2
_chemical_formula_sum   'Pa12 Al9 Re13 Ag2'
_cell_volume   666.77356348
_cell_formula_units_Z   1
loop_
 _symmetry_equiv_pos_site_id
 _symmetry_equiv_pos_as_xyz
  1  'x, y, z'
loop_
 _atom_site_type_symbol
 _atom_site_label
 _atom_site_symmetry_multiplicity
 _atom_site_fract_x
 _atom_site_fract_y
 _atom_site_fract_z
 _atom_site_occupancy
  Pa  Pa0  1  0.338110  0.997085  0.072008  1
  Pa  Pa1  1  0.658975  0.997085  0.927992  1
  Pa  Pa2  1  0.002915  0.341025  0.072008  1
  Pa  Pa3  1  0.661216  0.999794  0.571080  1
  Pa  Pa4  1  0.000206  0.338784  0.428920  1
  Pa  Pa5  1  0.002915  0.661890  0.927992  1
  Pa  Pa6  1  0.338577  0.999794  0.428920  1
  Pa  Pa7  1  0.000206  0.661423  0.571080  1
  Pa  Pa8  1  0.658975  0.661890  0.072008  1
  Pa  Pa9  1  0.338110  0.341025  0.927992  1
  Pa  Pa10  1  0.338577  0.338784  0.571080  1
  Pa  Pa11  1  0.661216  0.661423  0.428920  1
  Al  Al12  1  0.666667  0.333333  0.500000  1
  Al  Al13  1  0.666667  0.333333  0.000000  1
  Al  Al14  1  0.333333  0.666667  0.000000  1
  Al  Al15  1  0.172670  0.003453  0.750018  1
  Al  Al16  1  0.830783  0.003453  0.249982  1
  Al  Al17  1  0.996547  0.169217  0.750018  1
  Al  Al18  1  0.996547  0.827330  0.249982  1
  Al  Al19  1  0.830783  0.827330  0.750018  1
  Al  Al20  1  0.172670  0.169217  0.249982  1
  Re  Re21  1  0.168944  0.488085  0.753633  1
  Re  Re22  1  0.850318  0.502432  0.251202  1
  Re  Re23  1  0.511915  0.680860  0.753633  1
  Re  Re24  1  0.497568  0.149682  0.748798  1
  Re  Re25  1  0.497568  0.347884  0.251202  1
  Re  Re26  1  0.511915  0.831056  0.246367  1
  Re  Re27  1  0.319140  0.831056  0.753633  1
  Re  Re28  1  0.652116  0.502432  0.748798  1
  Re  Re29  1  0.652116  0.149682  0.251202  1
  Re  Re30  1  0.319140  0.488085  0.246367  1
  Re  Re31  1  0.850318  0.347884  0.748798  1
  Re  Re32  1  0.168944  0.680860  0.246367  1
  Re  Re33  1  0.333333  0.666667  0.500000  1
  Ag  Ag34  1  0.000000  0.000000  0.500000  1
  Ag  Ag35  1  0.000000  0.000000  0.000000  1
