# generated using pymatgen
data_Hf6Nb5AgSn10
_symmetry_space_group_name_H-M   'P 1'
_cell_length_a   9.59100500
_cell_length_b   9.58609071
_cell_length_c   5.81021900
_cell_angle_alpha   90.23641973
_cell_angle_beta   90.00000000
_cell_angle_gamma   120.01695625
_symmetry_Int_Tables_number   1
_chemical_formula_structural   Hf6Nb5AgSn10
_chemical_formula_sum   'Hf6 Nb5 Ag1 Sn10'
_cell_volume   462.54034955
_cell_formula_units_Z   1
loop_
 _symmetry_equiv_pos_site_id
 _symmetry_equiv_pos_as_xyz
  1  'x, y, z'
loop_
 _atom_site_type_symbol
 _atom_site_label
 _atom_site_symmetry_multiplicity
 _atom_site_fract_x
 _atom_site_fract_y
 _atom_site_fract_z
 _atom_site_occupancy
  Hf  Hf0  1  0.846625  0.693250  0.747101  1
  Hf  Hf1  1  0.156514  0.845411  0.258717  1
  Hf  Hf2  1  0.688896  0.845411  0.258717  1
  Hf  Hf3  1  0.311104  0.154589  0.741283  1
  Hf  Hf4  1  0.843486  0.154589  0.741283  1
  Hf  Hf5  1  0.153375  0.306750  0.252899  1
  Nb  Nb6  1  0.500000  0.000000  0.500000  1
  Nb  Nb7  1  0.500000  0.500000  0.000000  1
  Nb  Nb8  1  0.000000  0.500000  0.000000  1
  Nb  Nb9  1  0.000000  0.500000  0.500000  1
  Nb  Nb10  1  0.500000  0.500000  0.500000  1
  Ag  Ag11  1  0.500000  0.000000  0.000000  1
  Sn  Sn12  1  0.208973  0.417947  0.752073  1
  Sn  Sn13  1  0.790459  0.209094  0.247408  1
  Sn  Sn14  1  0.418635  0.209094  0.247408  1
  Sn  Sn15  1  0.581365  0.790906  0.752592  1
  Sn  Sn16  1  0.209541  0.790906  0.752592  1
  Sn  Sn17  1  0.791027  0.582053  0.247927  1
  Sn  Sn18  1  0.668776  0.337550  0.740411  1
  Sn  Sn19  1  0.331224  0.662450  0.259589  1
  Sn  Sn20  1  0.000000  0.000000  0.500000  1
  Sn  Sn21  1  0.000000  0.000000  0.000000  1
