# generated using pymatgen
data_Cs4Cd3Si4HgAs8
_symmetry_space_group_name_H-M   'P 1'
_cell_length_a   8.84020516
_cell_length_b   8.67771582
_cell_length_c   8.80212652
_cell_angle_alpha   70.65042922
_cell_angle_beta   76.13054801
_cell_angle_gamma   73.03460256
_symmetry_Int_Tables_number   1
_chemical_formula_structural   Cs4Cd3Si4HgAs8
_chemical_formula_sum   'Cs4 Cd3 Si4 Hg1 As8'
_cell_volume   601.66702656
_cell_formula_units_Z   1
loop_
 _symmetry_equiv_pos_site_id
 _symmetry_equiv_pos_as_xyz
  1  'x, y, z'
loop_
 _atom_site_type_symbol
 _atom_site_label
 _atom_site_symmetry_multiplicity
 _atom_site_fract_x
 _atom_site_fract_y
 _atom_site_fract_z
 _atom_site_occupancy
  Cs  Cs0  1  0.444061  0.765661  0.322792  1
  Cs  Cs1  1  0.556831  0.232950  0.678234  1
  Cs  Cs2  1  0.429715  0.800224  0.815740  1
  Cs  Cs3  1  0.569131  0.199680  0.183166  1
  Cd  Cd4  1  0.002317  0.101404  0.313326  1
  Cd  Cd5  1  0.965088  0.812756  0.172998  1
  Cd  Cd6  1  0.035891  0.187221  0.825839  1
  Si  Si7  1  0.962128  0.585204  0.595208  1
  Si  Si8  1  0.035523  0.417913  0.403622  1
  Si  Si9  1  0.139597  0.448471  0.979098  1
  Si  Si10  1  0.861289  0.548176  0.020331  1
  Hg  Hg11  1  0.999421  0.903344  0.696622  1
  As  As12  1  0.818272  0.861567  0.464154  1
  As  As13  1  0.183231  0.140474  0.529880  1
  As  As14  1  0.798262  0.413603  0.308367  1
  As  As15  1  0.200273  0.586335  0.690933  1
  As  As16  1  0.776488  0.848735  0.961994  1
  As  As17  1  0.222479  0.147307  0.038929  1
  As  As18  1  0.782441  0.455636  0.824228  1
  As  As19  1  0.217562  0.543339  0.174539  1
