# generated using pymatgen
data_CaYbYGa9Pd2
_symmetry_space_group_name_H-M   'P 1'
_cell_length_a   8.18026631
_cell_length_b   8.18026516
_cell_length_c   8.18026564
_cell_angle_alpha   149.05742696
_cell_angle_beta   108.57163580
_cell_angle_gamma   79.85306710
_symmetry_Int_Tables_number   1
_chemical_formula_structural   CaYbYGa9Pd2
_chemical_formula_sum   'Ca1 Yb1 Y1 Ga9 Pd2'
_cell_volume   261.46718965
_cell_formula_units_Z   1
loop_
 _symmetry_equiv_pos_site_id
 _symmetry_equiv_pos_as_xyz
  1  'x, y, z'
loop_
 _atom_site_type_symbol
 _atom_site_label
 _atom_site_symmetry_multiplicity
 _atom_site_fract_x
 _atom_site_fract_y
 _atom_site_fract_z
 _atom_site_occupancy
  Ca  Ca0  1  0.500482  0.500482  0.000000  1
  Yb  Yb1  1  0.799516  0.799516  0.000000  1
  Y  Y2  1  0.202235  0.202235  0.000000  1
  Ga  Ga3  1  0.077250  0.360132  0.717118  1
  Ga  Ga4  1  0.919851  0.637831  0.282020  1
  Ga  Ga5  1  0.643015  0.360132  0.282882  1
  Ga  Ga6  1  0.355811  0.637831  0.717980  1
  Ga  Ga7  1  0.795409  0.158720  0.636688  1
  Ga  Ga8  1  0.208237  0.843394  0.364843  1
  Ga  Ga9  1  0.522031  0.158720  0.363312  1
  Ga  Ga10  1  0.478552  0.843394  0.635157  1
  Ga  Ga11  1  0.999728  0.499728  0.500000  1
  Pd  Pd12  1  0.817740  0.998941  0.818799  1
  Pd  Pd13  1  0.180144  0.998941  0.181201  1
