# generated using pymatgen
data_CaDyInS4
_symmetry_space_group_name_H-M   'P 1'
_cell_length_a   13.93502300
_cell_length_b   8.13884300
_cell_length_c   6.59359100
_cell_angle_alpha   90.00000000
_cell_angle_beta   90.00000000
_cell_angle_gamma   90.00000000
_symmetry_Int_Tables_number   1
_chemical_formula_structural   CaDyInS4
_chemical_formula_sum   'Ca4 Dy4 In4 S16'
_cell_volume   747.81188852
_cell_formula_units_Z   4
loop_
 _symmetry_equiv_pos_site_id
 _symmetry_equiv_pos_as_xyz
  1  'x, y, z'
loop_
 _atom_site_type_symbol
 _atom_site_label
 _atom_site_symmetry_multiplicity
 _atom_site_fract_x
 _atom_site_fract_y
 _atom_site_fract_z
 _atom_site_occupancy
  Ca  Ca0  1  0.730824  0.750000  0.008251  1
  Ca  Ca1  1  0.230824  0.750000  0.491748  1
  Ca  Ca2  1  0.769177  0.250000  0.508252  1
  Ca  Ca3  1  0.269176  0.250000  0.991749  1
  Dy  Dy4  1  0.000000  0.000000  0.000000  1
  Dy  Dy5  1  0.000000  0.499999  0.000000  1
  Dy  Dy6  1  0.500000  0.000000  0.500001  1
  Dy  Dy7  1  0.500000  0.499999  0.500001  1
  In  In8  1  0.592973  0.250000  0.087223  1
  In  In9  1  0.092973  0.250000  0.412776  1
  In  In10  1  0.907028  0.750000  0.587224  1
  In  In11  1  0.407027  0.750000  0.912775  1
  S  S12  1  0.913223  0.750000  0.215580  1
  S  S13  1  0.164358  0.010411  0.235402  1
  S  S14  1  0.164358  0.489589  0.235402  1
  S  S15  1  0.929791  0.250000  0.239450  1
  S  S16  1  0.429791  0.250000  0.260551  1
  S  S17  1  0.664358  0.010411  0.264599  1
  S  S18  1  0.664358  0.489589  0.264599  1
  S  S19  1  0.413224  0.750000  0.284420  1
  S  S20  1  0.586777  0.250000  0.715581  1
  S  S21  1  0.335641  0.510412  0.735402  1
  S  S22  1  0.335641  0.989588  0.735402  1
  S  S23  1  0.570210  0.750000  0.739451  1
  S  S24  1  0.070210  0.750000  0.760551  1
  S  S25  1  0.835642  0.510412  0.764598  1
  S  S26  1  0.835642  0.989588  0.764598  1
  S  S27  1  0.086777  0.250000  0.784420  1
