# generated using pymatgen
data_Nd18Dy2Si15Os
_symmetry_space_group_name_H-M   'P 1'
_cell_length_a   7.67732781
_cell_length_b   7.99611170
_cell_length_c   15.12493500
_cell_angle_alpha   90.00000000
_cell_angle_beta   90.00000000
_cell_angle_gamma   89.91249647
_symmetry_Int_Tables_number   1
_chemical_formula_structural   Nd18Dy2Si15Os
_chemical_formula_sum   'Nd18 Dy2 Si15 Os1'
_cell_volume   928.50008435
_cell_formula_units_Z   1
loop_
 _symmetry_equiv_pos_site_id
 _symmetry_equiv_pos_as_xyz
  1  'x, y, z'
loop_
 _atom_site_type_symbol
 _atom_site_label
 _atom_site_symmetry_multiplicity
 _atom_site_fract_x
 _atom_site_fract_y
 _atom_site_fract_z
 _atom_site_occupancy
  Nd  Nd0  1  0.139434  0.516788  0.750000  1
  Nd  Nd1  1  0.811526  0.320687  0.621021  1
  Nd  Nd2  1  0.461638  0.689607  0.900307  1
  Nd  Nd3  1  0.963310  0.812980  0.902042  1
  Nd  Nd4  1  0.198492  0.675818  0.127448  1
  Nd  Nd5  1  0.681556  0.813865  0.124904  1
  Nd  Nd6  1  0.311839  0.181931  0.878058  1
  Nd  Nd7  1  0.198492  0.675818  0.372552  1
  Nd  Nd8  1  0.035845  0.184972  0.099703  1
  Nd  Nd9  1  0.311839  0.181931  0.621942  1
  Nd  Nd10  1  0.531069  0.323398  0.399637  1
  Nd  Nd11  1  0.811526  0.320687  0.878979  1
  Nd  Nd12  1  0.963310  0.812980  0.597958  1
  Nd  Nd13  1  0.461638  0.689607  0.599693  1
  Nd  Nd14  1  0.035845  0.184972  0.400297  1
  Nd  Nd15  1  0.681556  0.813865  0.375096  1
  Nd  Nd16  1  0.637765  0.986348  0.750000  1
  Nd  Nd17  1  0.531069  0.323398  0.100363  1
  Dy  Dy18  1  0.845745  0.485019  0.250000  1
  Dy  Dy19  1  0.363673  0.015982  0.250000  1
  Si  Si20  1  0.245991  0.366079  0.250000  1
  Si  Si21  1  0.868587  0.524294  0.457129  1
  Si  Si22  1  0.519094  0.402386  0.750000  1
  Si  Si23  1  0.635650  0.027265  0.960673  1
  Si  Si24  1  0.015790  0.098909  0.750000  1
  Si  Si25  1  0.751757  0.621276  0.750000  1
  Si  Si26  1  0.751127  0.122256  0.250000  1
  Si  Si27  1  0.359986  0.976869  0.457825  1
  Si  Si28  1  0.987706  0.904012  0.250000  1
  Si  Si29  1  0.359986  0.976869  0.042175  1
  Si  Si30  1  0.635650  0.027265  0.539327  1
  Si  Si31  1  0.140711  0.473367  0.962009  1
  Si  Si32  1  0.140711  0.473367  0.537991  1
  Si  Si33  1  0.868587  0.524294  0.042871  1
  Si  Si34  1  0.249909  0.879582  0.750000  1
  Os  Os35  1  0.491591  0.591255  0.250000  1
