# generated using pymatgen
data_Ho3Lu3C2I7
_symmetry_space_group_name_H-M   'P 1'
_cell_length_a   10.89689462
_cell_length_b   10.89689444
_cell_length_c   12.72543549
_cell_angle_alpha   58.27330228
_cell_angle_beta   58.27330281
_cell_angle_gamma   20.71120838
_symmetry_Int_Tables_number   1
_chemical_formula_structural   Ho3Lu3C2I7
_chemical_formula_sum   'Ho3 Lu3 C2 I7'
_cell_volume   451.62722077
_cell_formula_units_Z   1
loop_
 _symmetry_equiv_pos_site_id
 _symmetry_equiv_pos_as_xyz
  1  'x, y, z'
loop_
 _atom_site_type_symbol
 _atom_site_label
 _atom_site_symmetry_multiplicity
 _atom_site_fract_x
 _atom_site_fract_y
 _atom_site_fract_z
 _atom_site_occupancy
  Ho  Ho0  1  0.237705  0.237705  0.805594  1
  Ho  Ho1  1  0.307641  0.307641  0.376405  1
  Ho  Ho2  1  0.136446  0.136446  0.446219  1
  Lu  Lu3  1  0.861537  0.861537  0.554034  1
  Lu  Lu4  1  0.694192  0.694192  0.620446  1
  Lu  Lu5  1  0.761912  0.761912  0.197229  1
  C  C6  1  0.280940  0.280940  0.594042  1
  C  C7  1  0.719460  0.719460  0.405281  1
  I  I8  1  0.160713  0.160713  0.178138  1
  I  I9  1  0.841161  0.841161  0.820297  1
  I  I10  1  0.059530  0.059530  0.720577  1
  I  I11  1  0.941582  0.941582  0.280684  1
  I  I12  1  0.499018  0.499018  0.500452  1
  I  I13  1  0.385116  0.385116  0.074223  1
  I  I14  1  0.613048  0.613048  0.926380  1
