# generated using pymatgen
data_K6GaP3
_symmetry_space_group_name_H-M   'P 1'
_cell_length_a   8.81504662
_cell_length_b   8.81477463
_cell_length_c   10.05312020
_cell_angle_alpha   81.63471924
_cell_angle_beta   106.86114916
_cell_angle_gamma   119.48656311
_symmetry_Int_Tables_number   1
_chemical_formula_structural   K6GaP3
_chemical_formula_sum   'K12 Ga2 P6'
_cell_volume   650.73696348
_cell_formula_units_Z   2
loop_
 _symmetry_equiv_pos_site_id
 _symmetry_equiv_pos_as_xyz
  1  'x, y, z'
loop_
 _atom_site_type_symbol
 _atom_site_label
 _atom_site_symmetry_multiplicity
 _atom_site_fract_x
 _atom_site_fract_y
 _atom_site_fract_z
 _atom_site_occupancy
  K  K0  1  0.735000  0.127947  0.616598  1
  K  K1  1  0.257046  0.856680  0.392186  1
  K  K2  1  0.967823  0.815240  0.625660  1
  K  K3  1  0.023267  0.194105  0.392270  1
  K  K4  1  0.620795  0.447191  0.398999  1
  K  K5  1  0.396842  0.562456  0.594781  1
  K  K6  1  0.871468  0.486205  0.140849  1
  K  K7  1  0.113243  0.503754  0.849039  1
  K  K8  1  0.747241  0.091606  0.985931  1
  K  K9  1  0.241581  0.878824  0.003268  1
  K  K10  1  0.573278  0.626094  0.944479  1
  K  K11  1  0.247474  0.209714  0.110612  1
  Ga  Ga12  1  0.585885  0.829099  0.253471  1
  Ga  Ga13  1  0.418806  0.175108  0.750904  1
  P  P14  1  0.303733  0.567086  0.232709  1
  P  P15  1  0.701115  0.429375  0.762138  1
  P  P16  1  0.598714  0.104644  0.260576  1
  P  P17  1  0.387862  0.889105  0.739063  1
  P  P18  1  0.850552  0.822108  0.244597  1
  P  P19  1  0.167657  0.200400  0.763252  1
