# generated using pymatgen
data_BaNaFeO3
_symmetry_space_group_name_H-M   'P 1'
_cell_length_a   6.31118149
_cell_length_b   6.31121565
_cell_length_c   5.59200265
_cell_angle_alpha   95.11247262
_cell_angle_beta   95.11316313
_cell_angle_gamma   125.33933474
_symmetry_Int_Tables_number   1
_chemical_formula_structural   BaNaFeO3
_chemical_formula_sum   'Ba2 Na2 Fe2 O6'
_cell_volume   178.23941071
_cell_formula_units_Z   2
loop_
 _symmetry_equiv_pos_site_id
 _symmetry_equiv_pos_as_xyz
  1  'x, y, z'
loop_
 _atom_site_type_symbol
 _atom_site_label
 _atom_site_symmetry_multiplicity
 _atom_site_fract_x
 _atom_site_fract_y
 _atom_site_fract_z
 _atom_site_occupancy
  Ba  Ba0  1  0.743097  0.256902  0.249998  1
  Ba  Ba1  1  0.256900  0.743097  0.749999  1
  Na  Na2  1  0.433918  0.566083  0.249999  1
  Na  Na3  1  0.566084  0.433916  0.750000  1
  Fe  Fe4  1  0.051717  0.948290  0.250001  1
  Fe  Fe5  1  0.948284  0.051712  0.749996  1
  O  O6  1  0.737005  0.833092  0.011081  1
  O  O7  1  0.224520  0.775479  0.250000  1
  O  O8  1  0.166911  0.262998  0.488920  1
  O  O9  1  0.833090  0.737003  0.511080  1
  O  O10  1  0.775480  0.224520  0.749999  1
  O  O11  1  0.262995  0.166908  0.988918  1
