# generated using pymatgen
data_Th7CoRe2
_symmetry_space_group_name_H-M   'P 1'
_cell_length_a   9.83938602
_cell_length_b   9.96457510
_cell_length_c   6.32522205
_cell_angle_alpha   90.19975919
_cell_angle_beta   89.59539589
_cell_angle_gamma   119.58526529
_symmetry_Int_Tables_number   1
_chemical_formula_structural   Th7CoRe2
_chemical_formula_sum   'Th14 Co2 Re4'
_cell_volume   539.28980791
_cell_formula_units_Z   2
loop_
 _symmetry_equiv_pos_site_id
 _symmetry_equiv_pos_as_xyz
  1  'x, y, z'
loop_
 _atom_site_type_symbol
 _atom_site_label
 _atom_site_symmetry_multiplicity
 _atom_site_fract_x
 _atom_site_fract_y
 _atom_site_fract_z
 _atom_site_occupancy
  Th  Th0  1  0.331120  0.668813  0.032338  1
  Th  Th1  1  0.662306  0.331187  0.532338  1
  Th  Th2  1  0.130181  0.876428  0.243336  1
  Th  Th3  1  0.253754  0.123572  0.743336  1
  Th  Th4  1  0.878995  0.748651  0.756689  1
  Th  Th5  1  0.130343  0.251349  0.256689  1
  Th  Th6  1  0.750777  0.874702  0.257494  1
  Th  Th7  1  0.876076  0.125298  0.757494  1
  Th  Th8  1  0.533545  0.455038  0.045715  1
  Th  Th9  1  0.078505  0.544962  0.545715  1
  Th  Th10  1  0.455343  0.918482  0.551154  1
  Th  Th11  1  0.536862  0.081518  0.051154  1
  Th  Th12  1  0.920717  0.456317  0.047568  1
  Th  Th13  1  0.464398  0.543683  0.547568  1
  Co  Co14  1  0.370237  0.182650  0.294651  1
  Co  Co15  1  0.187587  0.817350  0.794651  1
  Re  Re16  1  0.809984  0.182953  0.301771  1
  Re  Re17  1  0.627034  0.817047  0.801771  1
  Re  Re18  1  0.187461  0.372682  0.799282  1
  Re  Re19  1  0.814779  0.627318  0.299282  1
