# generated using pymatgen
data_Ac(Pr2Ag3)2
_symmetry_space_group_name_H-M   'P 1'
_cell_length_a   17.56129990
_cell_length_b   17.56130018
_cell_length_c   4.22994300
_cell_angle_alpha   90.00000000
_cell_angle_beta   90.00000000
_cell_angle_gamma   166.36601819
_symmetry_Int_Tables_number   1
_chemical_formula_structural   Ac(Pr2Ag3)2
_chemical_formula_sum   'Ac1 Pr4 Ag6'
_cell_volume   307.49749147
_cell_formula_units_Z   1
loop_
 _symmetry_equiv_pos_site_id
 _symmetry_equiv_pos_as_xyz
  1  'x, y, z'
loop_
 _atom_site_type_symbol
 _atom_site_label
 _atom_site_symmetry_multiplicity
 _atom_site_fract_x
 _atom_site_fract_y
 _atom_site_fract_z
 _atom_site_occupancy
  Ac  Ac0  1  0.000000  0.000000  0.000000  1
  Pr  Pr1  1  0.623105  0.376893  0.000000  1
  Pr  Pr2  1  0.376893  0.623105  0.000000  1
  Pr  Pr3  1  0.807563  0.192435  0.500001  1
  Pr  Pr4  1  0.192435  0.807563  0.500001  1
  Ag  Ag5  1  0.722693  0.277305  0.000000  1
  Ag  Ag6  1  0.277305  0.722693  0.000000  1
  Ag  Ag7  1  0.905948  0.094051  0.500001  1
  Ag  Ag8  1  0.541258  0.458740  0.500001  1
  Ag  Ag9  1  0.458740  0.541258  0.500001  1
  Ag  Ag10  1  0.094051  0.905948  0.500001  1
