# generated using pymatgen
data_Ta2ZnSnRu4
_symmetry_space_group_name_H-M   'P 1'
_cell_length_a   4.45925700
_cell_length_b   6.20126500
_cell_length_c   13.58061500
_cell_angle_alpha   90.00038308
_cell_angle_beta   90.00105838
_cell_angle_gamma   90.00015101
_symmetry_Int_Tables_number   1
_chemical_formula_structural   Ta2ZnSnRu4
_chemical_formula_sum   'Ta6 Zn3 Sn3 Ru12'
_cell_volume   375.54521319
_cell_formula_units_Z   3
loop_
 _symmetry_equiv_pos_site_id
 _symmetry_equiv_pos_as_xyz
  1  'x, y, z'
loop_
 _atom_site_type_symbol
 _atom_site_label
 _atom_site_symmetry_multiplicity
 _atom_site_fract_x
 _atom_site_fract_y
 _atom_site_fract_z
 _atom_site_occupancy
  Ta  Ta0  1  0.999995  0.000028  0.989132  1
  Ta  Ta1  1  0.499909  0.499934  0.166671  1
  Ta  Ta2  1  0.999904  0.000028  0.344204  1
  Ta  Ta3  1  0.499999  0.500014  0.509744  1
  Ta  Ta4  1  0.000103  0.000000  0.666666  1
  Ta  Ta5  1  0.500078  0.500015  0.823589  1
  Zn  Zn6  1  0.500002  0.999996  0.502200  1
  Zn  Zn7  1  0.000143  0.499996  0.666665  1
  Zn  Zn8  1  0.500101  0.999992  0.831133  1
  Sn  Sn9  1  0.999995  0.500045  0.996421  1
  Sn  Sn10  1  0.499867  0.999859  0.166663  1
  Sn  Sn11  1  0.999900  0.500047  0.336910  1
  Ru  Ru12  1  0.499996  0.247558  0.997719  1
  Ru  Ru13  1  0.499996  0.752557  0.997685  1
  Ru  Ru14  1  0.999888  0.251115  0.166668  1
  Ru  Ru15  1  0.999873  0.748717  0.166669  1
  Ru  Ru16  1  0.499904  0.247556  0.335614  1
  Ru  Ru17  1  0.499915  0.752565  0.335650  1
  Ru  Ru18  1  0.000006  0.249394  0.503188  1
  Ru  Ru19  1  0.000006  0.750543  0.503208  1
  Ru  Ru20  1  0.500117  0.247154  0.666667  1
  Ru  Ru21  1  0.500117  0.752939  0.666667  1
  Ru  Ru22  1  0.000097  0.249400  0.830145  1
  Ru  Ru23  1  0.000087  0.750551  0.830126  1
