# generated using pymatgen
data_Sc3AlGa4Pt
_symmetry_space_group_name_H-M   'P 1'
_cell_length_a   6.66027200
_cell_length_b   6.70557170
_cell_length_c   4.13607200
_cell_angle_alpha   90.00000000
_cell_angle_beta   90.00000000
_cell_angle_gamma   119.77678915
_symmetry_Int_Tables_number   1
_chemical_formula_structural   Sc3AlGa4Pt
_chemical_formula_sum   'Sc3 Al1 Ga4 Pt1'
_cell_volume   160.33152916
_cell_formula_units_Z   1
loop_
 _symmetry_equiv_pos_site_id
 _symmetry_equiv_pos_as_xyz
  1  'x, y, z'
loop_
 _atom_site_type_symbol
 _atom_site_label
 _atom_site_symmetry_multiplicity
 _atom_site_fract_x
 _atom_site_fract_y
 _atom_site_fract_z
 _atom_site_occupancy
  Sc  Sc0  1  0.582703  0.000000  0.500000  1
  Sc  Sc1  1  0.419250  0.419501  0.500000  1
  Sc  Sc2  1  0.999750  0.580499  0.500000  1
  Al  Al3  1  0.237766  0.000000  0.000000  1
  Ga  Ga4  1  0.003044  0.249915  0.000000  1
  Ga  Ga5  1  0.663555  0.329298  0.000000  1
  Ga  Ga6  1  0.334257  0.670702  0.000000  1
  Ga  Ga7  1  0.753127  0.750085  0.000000  1
  Pt  Pt8  1  0.006549  0.000000  0.500000  1
