# generated using pymatgen
data_Pr4AlZn3I2
_symmetry_space_group_name_H-M   'P 1'
_cell_length_a   4.37389500
_cell_length_b   4.37389323
_cell_length_c   16.81242700
_cell_angle_alpha   90.00000000
_cell_angle_beta   90.00000000
_cell_angle_gamma   119.99999073
_symmetry_Int_Tables_number   1
_chemical_formula_structural   Pr4AlZn3I2
_chemical_formula_sum   'Pr4 Al1 Zn3 I2'
_cell_volume   278.54644104
_cell_formula_units_Z   1
loop_
 _symmetry_equiv_pos_site_id
 _symmetry_equiv_pos_as_xyz
  1  'x, y, z'
loop_
 _atom_site_type_symbol
 _atom_site_label
 _atom_site_symmetry_multiplicity
 _atom_site_fract_x
 _atom_site_fract_y
 _atom_site_fract_z
 _atom_site_occupancy
  Pr  Pr0  1  0.000000  0.000000  0.121290  1
  Pr  Pr1  1  0.000000  0.000000  0.388129  1
  Pr  Pr2  1  0.000000  0.000000  0.880907  1
  Pr  Pr3  1  0.000000  0.000000  0.611951  1
  Al  Al4  1  0.333333  0.666667  0.007418  1
  Zn  Zn5  1  0.666667  0.333333  0.990218  1
  Zn  Zn6  1  0.333333  0.666667  0.494071  1
  Zn  Zn7  1  0.666667  0.333333  0.505641  1
  I  I8  1  0.333333  0.666667  0.748178  1
  I  I9  1  0.666667  0.333333  0.252195  1
