# generated using pymatgen
data_MnAlPO5
_symmetry_space_group_name_H-M   'P 1'
_cell_length_a   5.61404959
_cell_length_b   7.30233615
_cell_length_c   10.71256100
_cell_angle_alpha   89.99992546
_cell_angle_beta   90.00040677
_cell_angle_gamma   97.87635077
_symmetry_Int_Tables_number   1
_chemical_formula_structural   MnAlPO5
_chemical_formula_sum   'Mn4 Al4 P4 O20'
_cell_volume   435.02562394
_cell_formula_units_Z   4
loop_
 _symmetry_equiv_pos_site_id
 _symmetry_equiv_pos_as_xyz
  1  'x, y, z'
loop_
 _atom_site_type_symbol
 _atom_site_label
 _atom_site_symmetry_multiplicity
 _atom_site_fract_x
 _atom_site_fract_y
 _atom_site_fract_z
 _atom_site_occupancy
  Mn  Mn0  1  0.615327  0.016116  0.355682  1
  Mn  Mn1  1  0.884715  0.983893  0.855708  1
  Mn  Mn2  1  0.384613  0.983860  0.644318  1
  Mn  Mn3  1  0.115329  0.016123  0.144302  1
  Al  Al4  1  0.557432  0.360623  0.174724  1
  Al  Al5  1  0.942579  0.639379  0.674722  1
  Al  Al6  1  0.442581  0.639378  0.825272  1
  Al  Al7  1  0.057433  0.360622  0.325279  1
  P  P8  1  0.070331  0.775207  0.405532  1
  P  P9  1  0.429659  0.224792  0.905535  1
  P  P10  1  0.929662  0.224794  0.594469  1
  P  P11  1  0.570338  0.775210  0.094463  1
  O  O12  1  0.766021  0.273676  0.273121  1
  O  O13  1  0.734003  0.726321  0.773124  1
  O  O14  1  0.234002  0.726318  0.726867  1
  O  O15  1  0.266021  0.273677  0.226885  1
  O  O16  1  0.112160  0.604101  0.328240  1
  O  O17  1  0.387839  0.395900  0.828242  1
  O  O18  1  0.887832  0.395898  0.671762  1
  O  O19  1  0.612159  0.604101  0.171756  1
  O  O20  1  0.594849  0.283655  0.018754  1
  O  O21  1  0.905142  0.716339  0.518749  1
  O  O22  1  0.405153  0.716347  0.981242  1
  O  O23  1  0.094852  0.283663  0.481254  1
  O  O24  1  0.945815  0.907129  0.321569  1
  O  O25  1  0.554176  0.092864  0.821573  1
  O  O26  1  0.054175  0.092870  0.678430  1
  O  O27  1  0.445814  0.907133  0.178425  1
  O  O28  1  0.685574  0.123346  0.546299  1
  O  O29  1  0.814425  0.876659  0.046302  1
  O  O30  1  0.314420  0.876658  0.453698  1
  O  O31  1  0.185571  0.123350  0.953702  1
