# generated using pymatgen
data_Sc(AlB14)2
_symmetry_space_group_name_H-M   'P 1'
_cell_length_a   7.16569592
_cell_length_b   7.16569501
_cell_length_c   5.84113961
_cell_angle_alpha   66.21842985
_cell_angle_beta   66.21844311
_cell_angle_gamma   92.20986546
_symmetry_Int_Tables_number   1
_chemical_formula_structural   Sc(AlB14)2
_chemical_formula_sum   'Sc1 Al2 B28'
_cell_volume   243.79954689
_cell_formula_units_Z   1
loop_
 _symmetry_equiv_pos_site_id
 _symmetry_equiv_pos_as_xyz
  1  'x, y, z'
loop_
 _atom_site_type_symbol
 _atom_site_label
 _atom_site_symmetry_multiplicity
 _atom_site_fract_x
 _atom_site_fract_y
 _atom_site_fract_z
 _atom_site_occupancy
  Sc  Sc0  1  0.883910  0.883910  0.382926  1
  Al  Al1  1  0.498310  0.498310  0.504267  1
  Al  Al2  1  0.153750  0.153750  0.481145  1
  B  B3  1  0.415738  0.734613  0.172215  1
  B  B4  1  0.587392  0.260633  0.832414  1
  B  B5  1  0.260633  0.587392  0.832414  1
  B  B6  1  0.734613  0.415738  0.172215  1
  B  B7  1  0.694454  0.859833  0.971835  1
  B  B8  1  0.305474  0.135727  0.035723  1
  B  B9  1  0.135727  0.305474  0.035723  1
  B  B10  1  0.859833  0.694454  0.971835  1
  B  B11  1  0.537505  0.871773  0.297034  1
  B  B12  1  0.471917  0.123842  0.204016  1
  B  B13  1  0.123842  0.471917  0.204016  1
  B  B14  1  0.871773  0.537505  0.297034  1
  B  B15  1  0.461519  0.122917  0.713153  1
  B  B16  1  0.532592  0.871249  0.800922  1
  B  B17  1  0.871249  0.532592  0.800922  1
  B  B18  1  0.122917  0.461519  0.713153  1
  B  B19  1  0.727091  0.098502  0.999226  1
  B  B20  1  0.277695  0.893096  0.324813  1
  B  B21  1  0.893096  0.277695  0.324813  1
  B  B22  1  0.098502  0.727091  0.999226  1
  B  B23  1  0.272623  0.896888  0.012129  1
  B  B24  1  0.723083  0.100911  0.684329  1
  B  B25  1  0.100911  0.723083  0.684329  1
  B  B26  1  0.896888  0.272623  0.012129  1
  B  B27  1  0.268953  0.469074  0.383153  1
  B  B28  1  0.720413  0.528524  0.634868  1
  B  B29  1  0.528524  0.720413  0.634868  1
  B  B30  1  0.469074  0.268953  0.383153  1
