# generated using pymatgen
data_Pr5Zn2Ru3
_symmetry_space_group_name_H-M   'P 1'
_cell_length_a   8.54848155
_cell_length_b   8.54848137
_cell_length_c   8.54848100
_cell_angle_alpha   109.47121501
_cell_angle_beta   109.47121459
_cell_angle_gamma   109.47122711
_symmetry_Int_Tables_number   1
_chemical_formula_structural   Pr5Zn2Ru3
_chemical_formula_sum   'Pr10 Zn4 Ru6'
_cell_volume   480.88921411
_cell_formula_units_Z   2
loop_
 _symmetry_equiv_pos_site_id
 _symmetry_equiv_pos_as_xyz
  1  'x, y, z'
loop_
 _atom_site_type_symbol
 _atom_site_label
 _atom_site_symmetry_multiplicity
 _atom_site_fract_x
 _atom_site_fract_y
 _atom_site_fract_z
 _atom_site_occupancy
  Pr  Pr0  1  0.250000  0.685122  0.435122  1
  Pr  Pr1  1  0.750000  0.814878  0.064878  1
  Pr  Pr2  1  0.435122  0.250000  0.685122  1
  Pr  Pr3  1  0.685122  0.435122  0.250000  1
  Pr  Pr4  1  0.064878  0.750000  0.814878  1
  Pr  Pr5  1  0.814878  0.064878  0.750000  1
  Pr  Pr6  1  0.220939  0.220939  0.220939  1
  Pr  Pr7  1  0.500000  0.000000  0.279061  1
  Pr  Pr8  1  0.279061  0.500000  0.000000  1
  Pr  Pr9  1  0.000000  0.279061  0.500000  1
  Zn  Zn10  1  0.588908  0.588908  0.588908  1
  Zn  Zn11  1  0.500000  0.000000  0.911092  1
  Zn  Zn12  1  0.911092  0.500000  0.000000  1
  Zn  Zn13  1  0.000000  0.911092  0.500000  1
  Ru  Ru14  1  0.250000  0.126437  0.876437  1
  Ru  Ru15  1  0.750000  0.373563  0.623563  1
  Ru  Ru16  1  0.876436  0.250000  0.126437  1
  Ru  Ru17  1  0.126437  0.876436  0.250000  1
  Ru  Ru18  1  0.623563  0.750000  0.373563  1
  Ru  Ru19  1  0.373563  0.623563  0.750000  1
