# generated using pymatgen
data_Eu2Ga3Rh
_symmetry_space_group_name_H-M   'P 1'
_cell_length_a   5.67866500
_cell_length_b   5.67866425
_cell_length_c   8.78705600
_cell_angle_alpha   90.00000000
_cell_angle_beta   90.00000000
_cell_angle_gamma   120.00001017
_symmetry_Int_Tables_number   1
_chemical_formula_structural   Eu2Ga3Rh
_chemical_formula_sum   'Eu4 Ga6 Rh2'
_cell_volume   245.39540298
_cell_formula_units_Z   2
loop_
 _symmetry_equiv_pos_site_id
 _symmetry_equiv_pos_as_xyz
  1  'x, y, z'
loop_
 _atom_site_type_symbol
 _atom_site_label
 _atom_site_symmetry_multiplicity
 _atom_site_fract_x
 _atom_site_fract_y
 _atom_site_fract_z
 _atom_site_occupancy
  Eu  Eu0  1  0.333333  0.666667  0.447143  1
  Eu  Eu1  1  0.666667  0.333333  0.947143  1
  Eu  Eu2  1  0.333333  0.666667  0.052857  1
  Eu  Eu3  1  0.666667  0.333333  0.552857  1
  Ga  Ga4  1  0.839505  0.679010  0.250000  1
  Ga  Ga5  1  0.839505  0.160495  0.250000  1
  Ga  Ga6  1  0.160495  0.839505  0.750000  1
  Ga  Ga7  1  0.320990  0.160495  0.250000  1
  Ga  Ga8  1  0.679010  0.839505  0.750000  1
  Ga  Ga9  1  0.160495  0.320990  0.750000  1
  Rh  Rh10  1  0.000000  0.000000  0.000000  1
  Rh  Rh11  1  0.000000  0.000000  0.500000  1
