# generated using pymatgen
data_Y20Ir10PdAu
_symmetry_space_group_name_H-M   'P 1'
_cell_length_a   11.06775972
_cell_length_b   11.02341834
_cell_length_c   6.36447041
_cell_angle_alpha   90.03354503
_cell_angle_beta   89.87684053
_cell_angle_gamma   90.11847147
_symmetry_Int_Tables_number   1
_chemical_formula_structural   Y20Ir10PdAu
_chemical_formula_sum   'Y20 Ir10 Pd1 Au1'
_cell_volume   776.49073506
_cell_formula_units_Z   1
loop_
 _symmetry_equiv_pos_site_id
 _symmetry_equiv_pos_as_xyz
  1  'x, y, z'
loop_
 _atom_site_type_symbol
 _atom_site_label
 _atom_site_symmetry_multiplicity
 _atom_site_fract_x
 _atom_site_fract_y
 _atom_site_fract_z
 _atom_site_occupancy
  Y  Y0  1  0.290976  0.088460  0.372673  1
  Y  Y1  1  0.289874  0.911912  0.872246  1
  Y  Y2  1  0.699991  0.094037  0.870988  1
  Y  Y3  1  0.699144  0.909053  0.365759  1
  Y  Y4  1  0.577951  0.789818  0.876751  1
  Y  Y5  1  0.580365  0.210038  0.376769  1
  Y  Y6  1  0.407724  0.791451  0.375934  1
  Y  Y7  1  0.408196  0.208630  0.875465  1
  Y  Y8  1  0.210119  0.411292  0.622115  1
  Y  Y9  1  0.210502  0.588308  0.121892  1
  Y  Y10  1  0.791362  0.416277  0.125051  1
  Y  Y11  1  0.790916  0.580375  0.624503  1
  Y  Y12  1  0.918022  0.705302  0.136628  1
  Y  Y13  1  0.916049  0.292465  0.633353  1
  Y  Y14  1  0.096268  0.703902  0.623741  1
  Y  Y15  1  0.094633  0.296043  0.124855  1
  Y  Y16  1  0.005913  0.998763  0.499355  1
  Y  Y17  1  0.005586  0.004579  0.000285  1
  Y  Y18  1  0.501467  0.497609  0.000859  1
  Y  Y19  1  0.500544  0.502177  0.499957  1
  Ir  Ir20  1  0.153224  0.155027  0.749898  1
  Ir  Ir21  1  0.152517  0.845865  0.249969  1
  Ir  Ir22  1  0.657344  0.346534  0.746840  1
  Ir  Ir23  1  0.657376  0.653747  0.247508  1
  Ir  Ir24  1  0.348067  0.345739  0.251963  1
  Ir  Ir25  1  0.348288  0.654024  0.752457  1
  Ir  Ir26  1  0.498909  0.999809  0.120637  1
  Ir  Ir27  1  0.499064  0.000276  0.621985  1
  Ir  Ir28  1  0.000725  0.500199  0.878013  1
  Ir  Ir29  1  0.000548  0.498981  0.379691  1
  Pd  Pd30  1  0.844748  0.154149  0.250712  1
  Au  Au31  1  0.843585  0.845159  0.751150  1
