# generated using pymatgen
data_NaSr4Mn2(Co4As5)2
_symmetry_space_group_name_H-M   'P 1'
_cell_length_a   8.68836214
_cell_length_b   8.65399117
_cell_length_c   8.69935317
_cell_angle_alpha   59.80525488
_cell_angle_beta   89.99668325
_cell_angle_gamma   59.84981844
_symmetry_Int_Tables_number   1
_chemical_formula_structural   NaSr4Mn2(Co4As5)2
_chemical_formula_sum   'Na1 Sr4 Mn2 Co8 As10'
_cell_volume   460.10719291
_cell_formula_units_Z   1
loop_
 _symmetry_equiv_pos_site_id
 _symmetry_equiv_pos_as_xyz
  1  'x, y, z'
loop_
 _atom_site_type_symbol
 _atom_site_label
 _atom_site_symmetry_multiplicity
 _atom_site_fract_x
 _atom_site_fract_y
 _atom_site_fract_z
 _atom_site_occupancy
  Na  Na0  1  0.999832  0.000277  0.999936  1
  Sr  Sr1  1  0.194883  0.003143  0.603841  1
  Sr  Sr2  1  0.393134  0.003217  0.196221  1
  Sr  Sr3  1  0.606822  0.999534  0.803621  1
  Sr  Sr4  1  0.805216  0.995016  0.396418  1
  Mn  Mn5  1  0.450086  0.497410  0.349709  1
  Mn  Mn6  1  0.652672  0.497050  0.951843  1
  Co  Co7  1  0.950234  0.500244  0.849505  1
  Co  Co8  1  0.150125  0.498902  0.450298  1
  Co  Co9  1  0.349603  0.499645  0.049867  1
  Co  Co10  1  0.550184  0.500750  0.650194  1
  Co  Co11  1  0.749680  0.500300  0.250135  1
  Co  Co12  1  0.850039  0.500225  0.550786  1
  Co  Co13  1  0.048053  0.504682  0.147971  1
  Co  Co14  1  0.249451  0.499972  0.749593  1
  As  As15  1  0.153418  0.292795  0.753884  1
  As  As16  1  0.355591  0.283330  0.356924  1
  As  As17  1  0.556293  0.285122  0.956133  1
  As  As18  1  0.758297  0.285690  0.558838  1
  As  As19  1  0.960369  0.285241  0.159087  1
  As  As20  1  0.642180  0.716597  0.640545  1
  As  As21  1  0.845502  0.707894  0.246507  1
  As  As22  1  0.046256  0.708498  0.845173  1
  As  As23  1  0.243422  0.712936  0.443922  1
  As  As24  1  0.438659  0.721530  0.039045  1
