# generated using pymatgen
data_TmPdF7
_symmetry_space_group_name_H-M   'P 1'
_cell_length_a   5.55809200
_cell_length_b   5.87772257
_cell_length_c   8.04062337
_cell_angle_alpha   102.24151036
_cell_angle_beta   90.00000000
_cell_angle_gamma   90.00000000
_symmetry_Int_Tables_number   1
_chemical_formula_structural   TmPdF7
_chemical_formula_sum   'Tm2 Pd2 F14'
_cell_volume   256.70586076
_cell_formula_units_Z   2
loop_
 _symmetry_equiv_pos_site_id
 _symmetry_equiv_pos_as_xyz
  1  'x, y, z'
loop_
 _atom_site_type_symbol
 _atom_site_label
 _atom_site_symmetry_multiplicity
 _atom_site_fract_x
 _atom_site_fract_y
 _atom_site_fract_z
 _atom_site_occupancy
  Tm  Tm0  1  0.698193  0.656248  0.685103  1
  Tm  Tm1  1  0.198193  0.343752  0.314897  1
  Pd  Pd2  1  0.709381  0.811831  0.224691  1
  Pd  Pd3  1  0.209381  0.188169  0.775309  1
  F  F4  1  0.895737  0.456908  0.479154  1
  F  F5  1  0.395737  0.543092  0.520846  1
  F  F6  1  0.420927  0.925165  0.773225  1
  F  F7  1  0.920927  0.074835  0.226775  1
  F  F8  1  0.935930  0.975986  0.764482  1
  F  F9  1  0.435930  0.024014  0.235518  1
  F  F10  1  0.998925  0.457761  0.794281  1
  F  F11  1  0.498925  0.542239  0.205719  1
  F  F12  1  0.705174  0.762238  0.977322  1
  F  F13  1  0.205174  0.237762  0.022678  1
  F  F14  1  0.716858  0.878007  0.472503  1
  F  F15  1  0.216858  0.121993  0.527497  1
  F  F16  1  0.495236  0.384377  0.792768  1
  F  F17  1  0.995236  0.615623  0.207232  1
