# generated using pymatgen
data_Dy2HoTm(Al3Ir)6
_symmetry_space_group_name_H-M   'P 1'
_cell_length_a   7.54606712
_cell_length_b   7.54736385
_cell_length_c   9.46598900
_cell_angle_alpha   90.00000000
_cell_angle_beta   90.00000000
_cell_angle_gamma   119.51011979
_symmetry_Int_Tables_number   1
_chemical_formula_structural   Dy2HoTm(Al3Ir)6
_chemical_formula_sum   'Dy2 Ho1 Tm1 Al18 Ir6'
_cell_volume   469.17548877
_cell_formula_units_Z   1
loop_
 _symmetry_equiv_pos_site_id
 _symmetry_equiv_pos_as_xyz
  1  'x, y, z'
loop_
 _atom_site_type_symbol
 _atom_site_label
 _atom_site_symmetry_multiplicity
 _atom_site_fract_x
 _atom_site_fract_y
 _atom_site_fract_z
 _atom_site_occupancy
  Dy  Dy0  1  0.005349  0.328699  0.750000  1
  Dy  Dy1  1  0.671211  0.994701  0.250000  1
  Ho  Ho2  1  0.994786  0.671267  0.250000  1
  Tm  Tm3  1  0.328654  0.005331  0.750000  1
  Al  Al4  1  0.129150  0.128985  0.250000  1
  Al  Al5  1  0.871352  0.871050  0.750000  1
  Al  Al6  1  0.001115  0.335252  0.074073  1
  Al  Al7  1  0.999380  0.665371  0.925527  1
  Al  Al8  1  0.999380  0.665371  0.574473  1
  Al  Al9  1  0.334897  0.000935  0.426428  1
  Al  Al10  1  0.001115  0.335252  0.425927  1
  Al  Al11  1  0.664364  0.998940  0.574573  1
  Al  Al12  1  0.664364  0.998940  0.925427  1
  Al  Al13  1  0.334897  0.000935  0.073572  1
  Al  Al14  1  0.333487  0.333066  0.552496  1
  Al  Al15  1  0.666691  0.666513  0.448175  1
  Al  Al16  1  0.666691  0.666513  0.051825  1
  Al  Al17  1  0.333487  0.333066  0.947504  1
  Al  Al18  1  0.339245  0.548215  0.250000  1
  Al  Al19  1  0.660118  0.451192  0.750000  1
  Al  Al20  1  0.548210  0.339305  0.250000  1
  Al  Al21  1  0.451709  0.661150  0.750000  1
  Ir  Ir22  1  0.671785  0.327904  0.999755  1
  Ir  Ir23  1  0.327931  0.672113  0.999775  1
  Ir  Ir24  1  0.327931  0.672113  0.500225  1
  Ir  Ir25  1  0.671785  0.327904  0.500245  1
  Ir  Ir26  1  0.000458  0.999958  0.999683  1
  Ir  Ir27  1  0.000458  0.999958  0.500317  1
