# generated using pymatgen
data_Y8BOs3WC7
_symmetry_space_group_name_H-M   'P 1'
_cell_length_a   5.13918300
_cell_length_b   6.59372372
_cell_length_c   9.90465483
_cell_angle_alpha   89.81828706
_cell_angle_beta   90.00000000
_cell_angle_gamma   90.00000000
_symmetry_Int_Tables_number   1
_chemical_formula_structural   Y8BOs3WC7
_chemical_formula_sum   'Y8 B1 Os3 W1 C7'
_cell_volume   335.63094022
_cell_formula_units_Z   1
loop_
 _symmetry_equiv_pos_site_id
 _symmetry_equiv_pos_as_xyz
  1  'x, y, z'
loop_
 _atom_site_type_symbol
 _atom_site_label
 _atom_site_symmetry_multiplicity
 _atom_site_fract_x
 _atom_site_fract_y
 _atom_site_fract_z
 _atom_site_occupancy
  Y  Y0  1  0.250000  0.677496  0.554122  1
  Y  Y1  1  0.750000  0.317854  0.447646  1
  Y  Y2  1  0.750000  0.825894  0.053554  1
  Y  Y3  1  0.250000  0.180492  0.942464  1
  Y  Y4  1  0.250000  0.528791  0.212415  1
  Y  Y5  1  0.750000  0.466191  0.781504  1
  Y  Y6  1  0.750000  0.969245  0.716186  1
  Y  Y7  1  0.250000  0.028285  0.283103  1
  B  B8  1  0.750000  0.547839  0.242556  1
  Os  Os9  1  0.750000  0.274308  0.136194  1
  Os  Os10  1  0.750000  0.785699  0.368510  1
  Os  Os11  1  0.250000  0.223135  0.633931  1
  W  W12  1  0.250000  0.721906  0.864830  1
  C  C13  1  0.250000  0.453434  0.759137  1
  C  C14  1  0.750000  0.044885  0.259786  1
  C  C15  1  0.250000  0.958636  0.739110  1
  C  C16  1  0.250000  0.823081  0.052213  1
  C  C17  1  0.750000  0.178974  0.952184  1
  C  C18  1  0.750000  0.674466  0.549058  1
  C  C19  1  0.250000  0.319386  0.451496  1
