# generated using pymatgen
data_SmY(GaPt3)3
_symmetry_space_group_name_H-M   'P 1'
_cell_length_a   7.80717408
_cell_length_b   7.80397497
_cell_length_c   10.21369921
_cell_angle_alpha   67.70483797
_cell_angle_beta   67.68753226
_cell_angle_gamma   59.99145776
_symmetry_Int_Tables_number   1
_chemical_formula_structural   SmY(GaPt3)3
_chemical_formula_sum   'Sm2 Y2 Ga6 Pt18'
_cell_volume   484.37760177
_cell_formula_units_Z   2
loop_
 _symmetry_equiv_pos_site_id
 _symmetry_equiv_pos_as_xyz
  1  'x, y, z'
loop_
 _atom_site_type_symbol
 _atom_site_label
 _atom_site_symmetry_multiplicity
 _atom_site_fract_x
 _atom_site_fract_y
 _atom_site_fract_z
 _atom_site_occupancy
  Sm  Sm0  1  0.414102  0.246281  0.250201  1
  Sm  Sm1  1  0.585898  0.753719  0.749799  1
  Y  Y2  1  0.754247  0.585482  0.249543  1
  Y  Y3  1  0.245753  0.414518  0.750457  1
  Ga  Ga4  1  0.500000  0.000000  0.000000  1
  Ga  Ga5  1  0.000000  0.500000  0.500000  1
  Ga  Ga6  1  0.639060  0.180539  0.499575  1
  Ga  Ga7  1  0.360940  0.819461  0.500425  1
  Ga  Ga8  1  0.818506  0.360360  0.001076  1
  Ga  Ga9  1  0.181494  0.639640  0.998924  1
  Pt  Pt10  1  0.291589  0.917828  0.253922  1
  Pt  Pt11  1  0.708411  0.082172  0.746078  1
  Pt  Pt12  1  0.082842  0.707285  0.246134  1
  Pt  Pt13  1  0.917158  0.292715  0.753866  1
  Pt  Pt14  1  0.470297  0.646277  0.079677  1
  Pt  Pt15  1  0.529703  0.353723  0.920323  1
  Pt  Pt16  1  0.353497  0.530671  0.423382  1
  Pt  Pt17  1  0.646503  0.469329  0.576618  1
  Pt  Pt18  1  0.867042  0.133303  0.250271  1
  Pt  Pt19  1  0.132958  0.866697  0.749729  1
  Pt  Pt20  1  0.810346  0.976781  0.072823  1
  Pt  Pt21  1  0.189654  0.023219  0.927177  1
  Pt  Pt22  1  0.020265  0.191258  0.427042  1
  Pt  Pt23  1  0.979735  0.808742  0.572958  1
  Pt  Pt24  1  0.699387  0.858596  0.421283  1
  Pt  Pt25  1  0.300613  0.141404  0.578717  1
  Pt  Pt26  1  0.138951  0.302809  0.075779  1
  Pt  Pt27  1  0.861049  0.697191  0.924221  1
