# generated using pymatgen
data_Y2Tm3Sn4
_symmetry_space_group_name_H-M   'P 1'
_cell_length_a   7.98879000
_cell_length_b   8.11828600
_cell_length_c   15.34641300
_cell_angle_alpha   90.00000000
_cell_angle_beta   90.00000000
_cell_angle_gamma   90.00000000
_symmetry_Int_Tables_number   1
_chemical_formula_structural   Y2Tm3Sn4
_chemical_formula_sum   'Y8 Tm12 Sn16'
_cell_volume   995.29594302
_cell_formula_units_Z   4
loop_
 _symmetry_equiv_pos_site_id
 _symmetry_equiv_pos_as_xyz
  1  'x, y, z'
loop_
 _atom_site_type_symbol
 _atom_site_label
 _atom_site_symmetry_multiplicity
 _atom_site_fract_x
 _atom_site_fract_y
 _atom_site_fract_z
 _atom_site_occupancy
  Y  Y0  1  0.522472  0.320931  0.902526  1
  Y  Y1  1  0.022472  0.179069  0.597474  1
  Y  Y2  1  0.477528  0.679069  0.402526  1
  Y  Y3  1  0.977528  0.820931  0.097474  1
  Y  Y4  1  0.477528  0.679069  0.097474  1
  Y  Y5  1  0.977528  0.820931  0.402526  1
  Y  Y6  1  0.522472  0.320931  0.597474  1
  Y  Y7  1  0.022472  0.179069  0.902526  1
  Tm  Tm8  1  0.367423  0.836379  0.877339  1
  Tm  Tm9  1  0.867423  0.663621  0.622661  1
  Tm  Tm10  1  0.632577  0.163621  0.377339  1
  Tm  Tm11  1  0.132577  0.336379  0.122661  1
  Tm  Tm12  1  0.632577  0.163621  0.122661  1
  Tm  Tm13  1  0.132577  0.336379  0.377339  1
  Tm  Tm14  1  0.367423  0.836379  0.622661  1
  Tm  Tm15  1  0.867423  0.663621  0.877339  1
  Tm  Tm16  1  0.198106  0.504207  0.750000  1
  Tm  Tm17  1  0.698106  0.995793  0.750000  1
  Tm  Tm18  1  0.801894  0.495793  0.250000  1
  Tm  Tm19  1  0.301894  0.004207  0.250000  1
  Sn  Sn20  1  0.293736  0.036301  0.041887  1
  Sn  Sn21  1  0.793736  0.463699  0.458113  1
  Sn  Sn22  1  0.706264  0.963699  0.541887  1
  Sn  Sn23  1  0.206264  0.536301  0.958113  1
  Sn  Sn24  1  0.706264  0.963699  0.958113  1
  Sn  Sn25  1  0.206264  0.536301  0.541887  1
  Sn  Sn26  1  0.293736  0.036301  0.458113  1
  Sn  Sn27  1  0.793736  0.463699  0.041887  1
  Sn  Sn28  1  0.564493  0.620984  0.750000  1
  Sn  Sn29  1  0.064493  0.879016  0.750000  1
  Sn  Sn30  1  0.435507  0.379016  0.250000  1
  Sn  Sn31  1  0.935507  0.120984  0.250000  1
  Sn  Sn32  1  0.331015  0.147362  0.750000  1
  Sn  Sn33  1  0.831015  0.352638  0.750000  1
  Sn  Sn34  1  0.668985  0.852638  0.250000  1
  Sn  Sn35  1  0.168985  0.647362  0.250000  1
