# generated using pymatgen
data_Mg4ZnSiPd10
_symmetry_space_group_name_H-M   'P 1'
_cell_length_a   4.14725000
_cell_length_b   5.49943518
_cell_length_c   10.69759477
_cell_angle_alpha   90.14395584
_cell_angle_beta   90.00000000
_cell_angle_gamma   90.00000000
_symmetry_Int_Tables_number   1
_chemical_formula_structural   Mg4ZnSiPd10
_chemical_formula_sum   'Mg4 Zn1 Si1 Pd10'
_cell_volume   243.98497055
_cell_formula_units_Z   1
loop_
 _symmetry_equiv_pos_site_id
 _symmetry_equiv_pos_as_xyz
  1  'x, y, z'
loop_
 _atom_site_type_symbol
 _atom_site_label
 _atom_site_symmetry_multiplicity
 _atom_site_fract_x
 _atom_site_fract_y
 _atom_site_fract_z
 _atom_site_occupancy
  Mg  Mg0  1  0.500000  0.159112  0.142278  1
  Mg  Mg1  1  0.500000  0.840888  0.857722  1
  Mg  Mg2  1  0.500000  0.329207  0.639212  1
  Mg  Mg3  1  0.500000  0.670793  0.360788  1
  Zn  Zn4  1  0.000000  0.000000  0.500000  1
  Si  Si5  1  0.000000  0.500000  0.000000  1
  Pd  Pd6  1  0.500000  0.185594  0.390201  1
  Pd  Pd7  1  0.500000  0.814406  0.609799  1
  Pd  Pd8  1  0.500000  0.326317  0.899949  1
  Pd  Pd9  1  0.500000  0.673683  0.100051  1
  Pd  Pd10  1  0.000000  0.417340  0.229672  1
  Pd  Pd11  1  0.000000  0.582660  0.770328  1
  Pd  Pd12  1  0.000000  0.086221  0.740355  1
  Pd  Pd13  1  0.000000  0.913779  0.259645  1
  Pd  Pd14  1  0.000000  0.000000  0.000000  1
  Pd  Pd15  1  0.000000  0.500000  0.500000  1
