# generated using pymatgen
data_Tb3Tm(Al3Ir)6
_symmetry_space_group_name_H-M   'P 1'
_cell_length_a   7.55221881
_cell_length_b   7.54920951
_cell_length_c   9.47326400
_cell_angle_alpha   90.00000000
_cell_angle_beta   90.00000000
_cell_angle_gamma   119.45071288
_symmetry_Int_Tables_number   1
_chemical_formula_structural   Tb3Tm(Al3Ir)6
_chemical_formula_sum   'Tb3 Tm1 Al18 Ir6'
_cell_volume   470.30935087
_cell_formula_units_Z   1
loop_
 _symmetry_equiv_pos_site_id
 _symmetry_equiv_pos_as_xyz
  1  'x, y, z'
loop_
 _atom_site_type_symbol
 _atom_site_label
 _atom_site_symmetry_multiplicity
 _atom_site_fract_x
 _atom_site_fract_y
 _atom_site_fract_z
 _atom_site_occupancy
  Tb  Tb0  1  0.005586  0.328084  0.750000  1
  Tb  Tb1  1  0.671301  0.994721  0.250000  1
  Tb  Tb2  1  0.328509  0.005729  0.750000  1
  Tm  Tm3  1  0.995162  0.672294  0.250000  1
  Al  Al4  1  0.129052  0.128705  0.250000  1
  Al  Al5  1  0.870178  0.869368  0.750000  1
  Al  Al6  1  0.000826  0.335936  0.075306  1
  Al  Al7  1  0.998732  0.664636  0.927697  1
  Al  Al8  1  0.998732  0.664636  0.572303  1
  Al  Al9  1  0.334887  0.000790  0.424716  1
  Al  Al10  1  0.000826  0.335936  0.424694  1
  Al  Al11  1  0.664536  0.998235  0.573794  1
  Al  Al12  1  0.664536  0.998235  0.926206  1
  Al  Al13  1  0.334887  0.000790  0.075284  1
  Al  Al14  1  0.333656  0.333707  0.548665  1
  Al  Al15  1  0.667335  0.666844  0.447097  1
  Al  Al16  1  0.667335  0.666844  0.052903  1
  Al  Al17  1  0.333656  0.333707  0.951335  1
  Al  Al18  1  0.338681  0.548365  0.250000  1
  Al  Al19  1  0.660826  0.451984  0.750000  1
  Al  Al20  1  0.549735  0.340953  0.250000  1
  Al  Al21  1  0.451319  0.659733  0.750000  1
  Ir  Ir22  1  0.672242  0.328327  0.000624  1
  Ir  Ir23  1  0.327882  0.672078  0.000830  1
  Ir  Ir24  1  0.327882  0.672078  0.499170  1
  Ir  Ir25  1  0.672242  0.328327  0.499376  1
  Ir  Ir26  1  0.999730  0.999479  0.000702  1
  Ir  Ir27  1  0.999730  0.999479  0.499298  1
