# generated using pymatgen
data_Ho5Ga6P6Ir19
_symmetry_space_group_name_H-M   'P 1'
_cell_length_a   12.95429000
_cell_length_b   12.95428980
_cell_length_c   3.97647800
_cell_angle_alpha   90.00000000
_cell_angle_beta   90.00000000
_cell_angle_gamma   120.00000050
_symmetry_Int_Tables_number   1
_chemical_formula_structural   Ho5Ga6P6Ir19
_chemical_formula_sum   'Ho5 Ga6 P6 Ir19'
_cell_volume   577.90498028
_cell_formula_units_Z   1
loop_
 _symmetry_equiv_pos_site_id
 _symmetry_equiv_pos_as_xyz
  1  'x, y, z'
loop_
 _atom_site_type_symbol
 _atom_site_label
 _atom_site_symmetry_multiplicity
 _atom_site_fract_x
 _atom_site_fract_y
 _atom_site_fract_z
 _atom_site_occupancy
  Ho  Ho0  1  0.666667  0.333333  0.000000  1
  Ho  Ho1  1  0.333333  0.666667  0.000000  1
  Ho  Ho2  1  0.816695  0.812255  0.500000  1
  Ho  Ho3  1  0.187745  0.004440  0.500000  1
  Ho  Ho4  1  0.995560  0.183305  0.500000  1
  Ga  Ga5  1  0.677151  0.158647  0.500000  1
  Ga  Ga6  1  0.841353  0.518504  0.500000  1
  Ga  Ga7  1  0.481496  0.322849  0.500000  1
  Ga  Ga8  1  0.635425  0.637109  0.000000  1
  Ga  Ga9  1  0.362891  0.998317  0.000000  1
  Ga  Ga10  1  0.001683  0.364575  0.000000  1
  P  P11  1  0.180196  0.697318  0.500000  1
  P  P12  1  0.517121  0.819804  0.500000  1
  P  P13  1  0.302682  0.482879  0.500000  1
  P  P14  1  0.175454  0.181146  0.000000  1
  P  P15  1  0.818854  0.994307  0.000000  1
  P  P16  1  0.005693  0.824546  0.000000  1
  Ir  Ir17  1  0.809197  0.169223  0.000000  1
  Ir  Ir18  1  0.830777  0.639974  0.000000  1
  Ir  Ir19  1  0.360026  0.190803  0.000000  1
  Ir  Ir20  1  0.182172  0.793823  0.000000  1
  Ir  Ir21  1  0.611652  0.817828  0.000000  1
  Ir  Ir22  1  0.206177  0.388348  0.000000  1
  Ir  Ir23  1  0.446441  0.440515  0.000000  1
  Ir  Ir24  1  0.559485  0.005926  0.000000  1
  Ir  Ir25  1  0.994074  0.553559  0.000000  1
  Ir  Ir26  1  0.267860  0.280621  0.500000  1
  Ir  Ir27  1  0.719379  0.987239  0.500000  1
  Ir  Ir28  1  0.012761  0.732140  0.500000  1
  Ir  Ir29  1  0.872853  0.348643  0.500000  1
  Ir  Ir30  1  0.651357  0.524211  0.500000  1
  Ir  Ir31  1  0.475789  0.127147  0.500000  1
  Ir  Ir32  1  0.371381  0.868751  0.500000  1
  Ir  Ir33  1  0.497372  0.628619  0.500000  1
  Ir  Ir34  1  0.131249  0.502628  0.500000  1
  Ir  Ir35  1  0.000000  0.000000  0.000000  1
