# generated using pymatgen
data_Hf12Ti4Re8O
_symmetry_space_group_name_H-M   'P 1'
_cell_length_a   8.61824931
_cell_length_b   8.61824857
_cell_length_c   8.61824977
_cell_angle_alpha   60.10631745
_cell_angle_beta   60.10631542
_cell_angle_gamma   60.10632583
_symmetry_Int_Tables_number   1
_chemical_formula_structural   Hf12Ti4Re8O
_chemical_formula_sum   'Hf12 Ti4 Re8 O1'
_cell_volume   453.71910424
_cell_formula_units_Z   1
loop_
 _symmetry_equiv_pos_site_id
 _symmetry_equiv_pos_as_xyz
  1  'x, y, z'
loop_
 _atom_site_type_symbol
 _atom_site_label
 _atom_site_symmetry_multiplicity
 _atom_site_fract_x
 _atom_site_fract_y
 _atom_site_fract_z
 _atom_site_occupancy
  Hf  Hf0  1  0.431932  0.431932  0.816740  1
  Hf  Hf1  1  0.816740  0.431932  0.431932  1
  Hf  Hf2  1  0.431932  0.816740  0.431932  1
  Hf  Hf3  1  0.819072  0.819072  0.430933  1
  Hf  Hf4  1  0.430933  0.819072  0.819072  1
  Hf  Hf5  1  0.819072  0.430933  0.819072  1
  Hf  Hf6  1  0.568068  0.568068  0.183260  1
  Hf  Hf7  1  0.183260  0.568068  0.568068  1
  Hf  Hf8  1  0.568068  0.183260  0.568068  1
  Hf  Hf9  1  0.180928  0.180928  0.569067  1
  Hf  Hf10  1  0.569067  0.180928  0.180928  1
  Hf  Hf11  1  0.180928  0.569067  0.180928  1
  Ti  Ti12  1  0.000000  0.000000  0.000000  1
  Ti  Ti13  1  0.000000  0.500000  0.000000  1
  Ti  Ti14  1  0.500000  0.000000  0.000000  1
  Ti  Ti15  1  0.000000  0.000000  0.500000  1
  Re  Re16  1  0.790647  0.790647  0.790647  1
  Re  Re17  1  0.792171  0.124909  0.792171  1
  Re  Re18  1  0.124909  0.792171  0.792171  1
  Re  Re19  1  0.792171  0.792171  0.124909  1
  Re  Re20  1  0.209353  0.209353  0.209353  1
  Re  Re21  1  0.207829  0.875091  0.207829  1
  Re  Re22  1  0.875091  0.207829  0.207829  1
  Re  Re23  1  0.207829  0.207829  0.875091  1
  O  O24  1  0.500000  0.500000  0.500000  1
