# generated using pymatgen
data_Ho6HfP12Rh17
_symmetry_space_group_name_H-M   'P 1'
_cell_length_a   3.93518100
_cell_length_b   11.19883800
_cell_length_c   12.81112800
_cell_angle_alpha   90.00000000
_cell_angle_beta   90.00000000
_cell_angle_gamma   90.00000000
_symmetry_Int_Tables_number   1
_chemical_formula_structural   Ho6HfP12Rh17
_chemical_formula_sum   'Ho6 Hf1 P12 Rh17'
_cell_volume   564.57942274
_cell_formula_units_Z   1
loop_
 _symmetry_equiv_pos_site_id
 _symmetry_equiv_pos_as_xyz
  1  'x, y, z'
loop_
 _atom_site_type_symbol
 _atom_site_label
 _atom_site_symmetry_multiplicity
 _atom_site_fract_x
 _atom_site_fract_y
 _atom_site_fract_z
 _atom_site_occupancy
  Ho  Ho0  1  0.000000  0.500000  0.522671  1
  Ho  Ho1  1  0.500000  0.000000  0.477222  1
  Ho  Ho2  1  0.500000  0.817318  0.206290  1
  Ho  Ho3  1  0.500000  0.182682  0.206290  1
  Ho  Ho4  1  0.000000  0.681615  0.797474  1
  Ho  Ho5  1  0.000000  0.318385  0.797474  1
  Hf  Hf6  1  0.500000  0.500000  0.156584  1
  P  P7  1  0.500000  0.315513  0.619497  1
  P  P8  1  0.500000  0.684487  0.619497  1
  P  P9  1  0.000000  0.185401  0.383754  1
  P  P10  1  0.000000  0.814599  0.383754  1
  P  P11  1  0.500000  0.500000  0.876056  1
  P  P12  1  0.000000  0.000000  0.121964  1
  P  P13  1  0.500000  0.849574  0.888309  1
  P  P14  1  0.500000  0.150426  0.888309  1
  P  P15  1  0.000000  0.660043  0.107427  1
  P  P16  1  0.000000  0.339957  0.107427  1
  P  P17  1  0.500000  0.500000  0.359978  1
  P  P18  1  0.000000  0.000000  0.647676  1
  Rh  Rh19  1  0.000000  0.500000  0.984507  1
  Rh  Rh20  1  0.500000  0.000000  0.020876  1
  Rh  Rh21  1  0.500000  0.291082  0.434205  1
  Rh  Rh22  1  0.500000  0.708918  0.434205  1
  Rh  Rh23  1  0.000000  0.201718  0.570137  1
  Rh  Rh24  1  0.000000  0.798282  0.570137  1
  Rh  Rh25  1  0.500000  0.873582  0.708887  1
  Rh  Rh26  1  0.500000  0.126418  0.708887  1
  Rh  Rh27  1  0.000000  0.627931  0.291049  1
  Rh  Rh28  1  0.000000  0.372069  0.291049  1
  Rh  Rh29  1  0.500000  0.330084  0.987692  1
  Rh  Rh30  1  0.500000  0.669916  0.987692  1
  Rh  Rh31  1  0.000000  0.164372  0.007029  1
  Rh  Rh32  1  0.000000  0.835628  0.007029  1
  Rh  Rh33  1  0.000000  0.000000  0.829645  1
  Rh  Rh34  1  0.500000  0.500000  0.699808  1
  Rh  Rh35  1  0.000000  0.000000  0.299509  1
