# generated using pymatgen
data_Dy5Er3P12(IrRh3)4
_symmetry_space_group_name_H-M   'P 1'
_cell_length_a   12.98855800
_cell_length_b   12.98855920
_cell_length_c   3.96436300
_cell_angle_alpha   90.00000000
_cell_angle_beta   90.00000000
_cell_angle_gamma   120.00000203
_symmetry_Int_Tables_number   1
_chemical_formula_structural   Dy5Er3P12(IrRh3)4
_chemical_formula_sum   'Dy5 Er3 P12 Ir4 Rh12'
_cell_volume   579.19653267
_cell_formula_units_Z   1
loop_
 _symmetry_equiv_pos_site_id
 _symmetry_equiv_pos_as_xyz
  1  'x, y, z'
loop_
 _atom_site_type_symbol
 _atom_site_label
 _atom_site_symmetry_multiplicity
 _atom_site_fract_x
 _atom_site_fract_y
 _atom_site_fract_z
 _atom_site_occupancy
  Dy  Dy0  1  0.333333  0.666667  0.500000  1
  Dy  Dy1  1  0.666667  0.333333  0.500000  1
  Dy  Dy2  1  0.000000  0.812358  0.000000  1
  Dy  Dy3  1  0.187642  0.187642  0.000000  1
  Dy  Dy4  1  0.812358  0.000000  0.000000  1
  Er  Er5  1  0.000000  0.444950  0.500000  1
  Er  Er6  1  0.555050  0.555050  0.500000  1
  Er  Er7  1  0.444950  0.000000  0.500000  1
  P  P8  1  0.000000  0.651255  0.500000  1
  P  P9  1  0.348745  0.348745  0.500000  1
  P  P10  1  0.651255  0.000000  0.500000  1
  P  P11  1  0.517365  0.689984  0.000000  1
  P  P12  1  0.310016  0.827381  0.000000  1
  P  P13  1  0.172619  0.482635  0.000000  1
  P  P14  1  0.482635  0.172619  0.000000  1
  P  P15  1  0.689984  0.517365  0.000000  1
  P  P16  1  0.827381  0.310016  0.000000  1
  P  P17  1  0.000000  0.176433  0.500000  1
  P  P18  1  0.823567  0.823567  0.500000  1
  P  P19  1  0.176433  0.000000  0.500000  1
  Ir  Ir20  1  0.000000  0.273571  0.000000  1
  Ir  Ir21  1  0.726429  0.726429  0.000000  1
  Ir  Ir22  1  0.273571  0.000000  0.000000  1
  Ir  Ir23  1  0.000000  0.000000  0.500000  1
  Rh  Rh24  1  0.513460  0.869290  0.000000  1
  Rh  Rh25  1  0.130710  0.644172  0.000000  1
  Rh  Rh26  1  0.355828  0.486540  0.000000  1
  Rh  Rh27  1  0.486540  0.355828  0.000000  1
  Rh  Rh28  1  0.869290  0.513460  0.000000  1
  Rh  Rh29  1  0.644172  0.130710  0.000000  1
  Rh  Rh30  1  0.627595  0.806345  0.500000  1
  Rh  Rh31  1  0.193655  0.821250  0.500000  1
  Rh  Rh32  1  0.178750  0.372405  0.500000  1
  Rh  Rh33  1  0.372405  0.178750  0.500000  1
  Rh  Rh34  1  0.806345  0.627595  0.500000  1
  Rh  Rh35  1  0.821250  0.193655  0.500000  1
