# generated using pymatgen
data_La2TmHf3(SnRh)6
_symmetry_space_group_name_H-M   'P 1'
_cell_length_a   7.50718000
_cell_length_b   7.50606297
_cell_length_c   7.69287100
_cell_angle_alpha   90.00000000
_cell_angle_beta   90.00000000
_cell_angle_gamma   120.00826154
_symmetry_Int_Tables_number   1
_chemical_formula_structural   La2TmHf3(SnRh)6
_chemical_formula_sum   'La2 Tm1 Hf3 Sn6 Rh6'
_cell_volume   375.38071204
_cell_formula_units_Z   1
loop_
 _symmetry_equiv_pos_site_id
 _symmetry_equiv_pos_as_xyz
  1  'x, y, z'
loop_
 _atom_site_type_symbol
 _atom_site_label
 _atom_site_symmetry_multiplicity
 _atom_site_fract_x
 _atom_site_fract_y
 _atom_site_fract_z
 _atom_site_occupancy
  La  La0  1  0.999408  0.408634  0.750000  1
  La  La1  1  0.590820  0.591228  0.750000  1
  Tm  Tm2  1  0.403801  0.000184  0.750000  1
  Hf  Hf3  1  0.998342  0.393282  0.250000  1
  Hf  Hf4  1  0.605787  0.606009  0.250000  1
  Hf  Hf5  1  0.396347  0.000669  0.250000  1
  Sn  Sn6  1  0.264624  0.261840  0.485815  1
  Sn  Sn7  1  0.003795  0.738672  0.485880  1
  Sn  Sn8  1  0.003795  0.738672  0.014120  1
  Sn  Sn9  1  0.732314  0.999617  0.491676  1
  Sn  Sn10  1  0.732314  0.999617  0.008324  1
  Sn  Sn11  1  0.264624  0.261840  0.014185  1
  Rh  Rh12  1  0.333953  0.668592  0.453791  1
  Rh  Rh13  1  0.665228  0.331302  0.454887  1
  Rh  Rh14  1  0.333953  0.668592  0.046209  1
  Rh  Rh15  1  0.008750  0.999962  0.750000  1
  Rh  Rh16  1  0.996915  0.999987  0.250000  1
  Rh  Rh17  1  0.665228  0.331302  0.045113  1
