# generated using pymatgen
data_Nd19ErSi15I
_symmetry_space_group_name_H-M   'P 1'
_cell_length_a   7.81456439
_cell_length_b   7.92799733
_cell_length_c   15.26549800
_cell_angle_alpha   89.52228135
_cell_angle_beta   84.26175386
_cell_angle_gamma   89.61738654
_symmetry_Int_Tables_number   1
_chemical_formula_structural   Nd19ErSi15I
_chemical_formula_sum   'Nd19 Er1 Si15 I1'
_cell_volume   940.96822731
_cell_formula_units_Z   1
loop_
 _symmetry_equiv_pos_site_id
 _symmetry_equiv_pos_as_xyz
  1  'x, y, z'
loop_
 _atom_site_type_symbol
 _atom_site_label
 _atom_site_symmetry_multiplicity
 _atom_site_fract_x
 _atom_site_fract_y
 _atom_site_fract_z
 _atom_site_occupancy
  Nd  Nd0  1  0.891909  0.325473  0.623267  1
  Nd  Nd1  1  0.476519  0.688442  0.895322  1
  Nd  Nd2  1  0.975310  0.814592  0.896749  1
  Nd  Nd3  1  0.169682  0.678754  0.119954  1
  Nd  Nd4  1  0.669557  0.814362  0.120677  1
  Nd  Nd5  1  0.331174  0.182351  0.879959  1
  Nd  Nd6  1  0.131157  0.670318  0.385157  1
  Nd  Nd7  1  0.025817  0.184799  0.102397  1
  Nd  Nd8  1  0.381354  0.170091  0.615127  1
  Nd  Nd9  1  0.818372  0.490389  0.240427  1
  Nd  Nd10  1  0.318597  0.002617  0.250157  1
  Nd  Nd11  1  0.454327  0.310031  0.391004  1
  Nd  Nd12  1  0.831099  0.321240  0.878164  1
  Nd  Nd13  1  0.033812  0.830688  0.609286  1
  Nd  Nd14  1  0.515290  0.690591  0.612402  1
  Nd  Nd15  1  0.974706  0.161195  0.391074  1
  Nd  Nd16  1  0.613455  0.847222  0.384475  1
  Nd  Nd17  1  0.682159  0.998151  0.746179  1
  Nd  Nd18  1  0.525083  0.310043  0.101927  1
  Er  Er19  1  0.186039  0.510458  0.748245  1
  Si  Si20  1  0.436984  0.603578  0.252702  1
  Si  Si21  1  0.204426  0.376849  0.248950  1
  Si  Si22  1  0.559876  0.398721  0.750674  1
  Si  Si23  1  0.641871  0.026043  0.959045  1
  Si  Si24  1  0.064520  0.108337  0.752932  1
  Si  Si25  1  0.795351  0.623030  0.752115  1
  Si  Si26  1  0.707040  0.118872  0.247380  1
  Si  Si27  1  0.272983  0.982122  0.454089  1
  Si  Si28  1  0.937312  0.890562  0.249838  1
  Si  Si29  1  0.361439  0.972411  0.041339  1
  Si  Si30  1  0.728317  0.019165  0.544515  1
  Si  Si31  1  0.141997  0.476182  0.955891  1
  Si  Si32  1  0.224117  0.490176  0.551159  1
  Si  Si33  1  0.861287  0.524755  0.039497  1
  Si  Si34  1  0.289521  0.878570  0.753908  1
  I  I35  1  0.767541  0.508819  0.454017  1
