# generated using pymatgen
data_Ce5Bi3Au
_symmetry_space_group_name_H-M   'P 1'
_cell_length_a   6.59836200
_cell_length_b   9.71033645
_cell_length_c   9.72942531
_cell_angle_alpha   119.93512305
_cell_angle_beta   90.00000000
_cell_angle_gamma   90.00000000
_symmetry_Int_Tables_number   1
_chemical_formula_structural   Ce5Bi3Au
_chemical_formula_sum   'Ce10 Bi6 Au2'
_cell_volume   540.22139767
_cell_formula_units_Z   2
loop_
 _symmetry_equiv_pos_site_id
 _symmetry_equiv_pos_as_xyz
  1  'x, y, z'
loop_
 _atom_site_type_symbol
 _atom_site_label
 _atom_site_symmetry_multiplicity
 _atom_site_fract_x
 _atom_site_fract_y
 _atom_site_fract_z
 _atom_site_occupancy
  Ce  Ce0  1  0.500004  0.333398  0.666797  1
  Ce  Ce1  1  0.500004  0.666601  0.333203  1
  Ce  Ce2  1  0.000004  0.666602  0.333203  1
  Ce  Ce3  1  0.000004  0.333399  0.666797  1
  Ce  Ce4  1  0.749996  0.267221  0.000000  1
  Ce  Ce5  1  0.750001  0.732878  0.732852  1
  Ce  Ce6  1  0.750001  0.000026  0.267148  1
  Ce  Ce7  1  0.249996  0.732779  0.000000  1
  Ce  Ce8  1  0.250001  0.267122  0.267148  1
  Ce  Ce9  1  0.250001  0.999974  0.732852  1
  Bi  Bi10  1  0.749999  0.617691  0.000000  1
  Bi  Bi11  1  0.750005  0.382150  0.382143  1
  Bi  Bi12  1  0.750005  0.000008  0.617857  1
  Bi  Bi13  1  0.249999  0.382309  0.000000  1
  Bi  Bi14  1  0.250005  0.617850  0.617857  1
  Bi  Bi15  1  0.250005  0.999992  0.382143  1
  Au  Au16  1  0.499989  0.999998  0.000000  1
  Au  Au17  1  0.999989  0.000002  0.000000  1
