# generated using pymatgen
data_Ba3Sn4Hg6Pb
_symmetry_space_group_name_H-M   'P 1'
_cell_length_a   9.67058049
_cell_length_b   9.67061334
_cell_length_c   9.67059650
_cell_angle_alpha   149.55836883
_cell_angle_beta   106.26702569
_cell_angle_gamma   81.82132561
_symmetry_Int_Tables_number   1
_chemical_formula_structural   Ba3Sn4Hg6Pb
_chemical_formula_sum   'Ba3 Sn4 Hg6 Pb1'
_cell_volume   430.62501658
_cell_formula_units_Z   1
loop_
 _symmetry_equiv_pos_site_id
 _symmetry_equiv_pos_as_xyz
  1  'x, y, z'
loop_
 _atom_site_type_symbol
 _atom_site_label
 _atom_site_symmetry_multiplicity
 _atom_site_fract_x
 _atom_site_fract_y
 _atom_site_fract_z
 _atom_site_occupancy
  Ba  Ba0  1  0.000000  0.000000  0.000000  1
  Ba  Ba1  1  0.694434  0.694443  0.000010  1
  Ba  Ba2  1  0.305566  0.305557  0.999990  1
  Sn  Sn3  1  0.128970  0.858681  0.270288  1
  Sn  Sn4  1  0.871030  0.141319  0.729712  1
  Sn  Sn5  1  0.411607  0.141319  0.270289  1
  Sn  Sn6  1  0.588393  0.858681  0.729711  1
  Hg  Hg7  1  0.035513  0.663790  0.371725  1
  Hg  Hg8  1  0.964487  0.336210  0.628275  1
  Hg  Hg9  1  0.707934  0.336210  0.371725  1
  Hg  Hg10  1  0.292066  0.663790  0.628275  1
  Hg  Hg11  1  0.693338  0.500000  0.193339  1
  Hg  Hg12  1  0.306662  0.500000  0.806661  1
  Pb  Pb13  1  0.500000  0.000000  0.500000  1
