# generated using pymatgen
data_Li4La4SiSn2Ge3
_symmetry_space_group_name_H-M   'P 1'
_cell_length_a   10.00532539
_cell_length_b   10.00532554
_cell_length_c   7.04427197
_cell_angle_alpha   90.13270194
_cell_angle_beta   89.86729741
_cell_angle_gamma   153.03422207
_symmetry_Int_Tables_number   1
_chemical_formula_structural   Li4La4SiSn2Ge3
_chemical_formula_sum   'Li4 La4 Si1 Sn2 Ge3'
_cell_volume   319.76771566
_cell_formula_units_Z   1
loop_
 _symmetry_equiv_pos_site_id
 _symmetry_equiv_pos_as_xyz
  1  'x, y, z'
loop_
 _atom_site_type_symbol
 _atom_site_label
 _atom_site_symmetry_multiplicity
 _atom_site_fract_x
 _atom_site_fract_y
 _atom_site_fract_z
 _atom_site_occupancy
  Li  Li0  1  0.815409  0.184591  0.442079  1
  Li  Li1  1  0.183953  0.816047  0.557684  1
  Li  Li2  1  0.814789  0.185211  0.058192  1
  Li  Li3  1  0.185050  0.814950  0.942641  1
  La  La4  1  0.548538  0.451462  0.747704  1
  La  La5  1  0.452512  0.547488  0.250154  1
  La  La6  1  0.346680  0.653320  0.749831  1
  La  La7  1  0.653009  0.346991  0.252575  1
  Si  Si8  1  0.058365  0.941635  0.427722  1
  Sn  Sn9  1  0.719300  0.280700  0.750076  1
  Sn  Sn10  1  0.280716  0.719284  0.249649  1
  Ge  Ge11  1  0.940095  0.059905  0.930457  1
  Ge  Ge12  1  0.059758  0.940242  0.074222  1
  Ge  Ge13  1  0.941826  0.058174  0.567014  1
