# generated using pymatgen
data_Sm2Dy4SbRuO14
_symmetry_space_group_name_H-M   'P 1'
_cell_length_a   6.48233585
_cell_length_b   6.48233603
_cell_length_c   7.55341584
_cell_angle_alpha   90.21922424
_cell_angle_beta   89.78077135
_cell_angle_gamma   109.35788954
_symmetry_Int_Tables_number   1
_chemical_formula_structural   Sm2Dy4SbRuO14
_chemical_formula_sum   'Sm2 Dy4 Sb1 Ru1 O14'
_cell_volume   299.45266712
_cell_formula_units_Z   1
loop_
 _symmetry_equiv_pos_site_id
 _symmetry_equiv_pos_as_xyz
  1  'x, y, z'
loop_
 _atom_site_type_symbol
 _atom_site_label
 _atom_site_symmetry_multiplicity
 _atom_site_fract_x
 _atom_site_fract_y
 _atom_site_fract_z
 _atom_site_occupancy
  Sm  Sm0  1  0.500000  0.500000  0.500000  1
  Sm  Sm1  1  0.500000  0.500000  0.000000  1
  Dy  Dy2  1  0.533591  0.000050  0.748803  1
  Dy  Dy3  1  0.000050  0.533591  0.251197  1
  Dy  Dy4  1  0.466409  0.999950  0.251197  1
  Dy  Dy5  1  0.999950  0.466409  0.748803  1
  Sb  Sb6  1  0.000000  0.000000  0.000000  1
  Ru  Ru7  1  0.000000  0.000000  0.500000  1
  O  O8  1  0.681639  0.929297  0.470392  1
  O  O9  1  0.929297  0.681639  0.529608  1
  O  O10  1  0.677757  0.929438  0.028944  1
  O  O11  1  0.929438  0.677757  0.971056  1
  O  O12  1  0.318361  0.070703  0.529608  1
  O  O13  1  0.070703  0.318361  0.470392  1
  O  O14  1  0.322243  0.070562  0.971056  1
  O  O15  1  0.070562  0.322243  0.028944  1
  O  O16  1  0.930892  0.069108  0.748200  1
  O  O17  1  0.069108  0.930892  0.251800  1
  O  O18  1  0.365788  0.634212  0.750023  1
  O  O19  1  0.634212  0.365788  0.249977  1
  O  O20  1  0.639567  0.360433  0.748942  1
  O  O21  1  0.360433  0.639567  0.251058  1
