# generated using pymatgen
data_Y3HoAl4(IrPd)2
_symmetry_space_group_name_H-M   'P 1'
_cell_length_a   4.36601000
_cell_length_b   6.87841380
_cell_length_c   7.87071500
_cell_angle_alpha   89.82705399
_cell_angle_beta   90.00000000
_cell_angle_gamma   90.00000000
_symmetry_Int_Tables_number   1
_chemical_formula_structural   Y3HoAl4(IrPd)2
_chemical_formula_sum   'Y3 Ho1 Al4 Ir2 Pd2'
_cell_volume   236.36612405
_cell_formula_units_Z   1
loop_
 _symmetry_equiv_pos_site_id
 _symmetry_equiv_pos_as_xyz
  1  'x, y, z'
loop_
 _atom_site_type_symbol
 _atom_site_label
 _atom_site_symmetry_multiplicity
 _atom_site_fract_x
 _atom_site_fract_y
 _atom_site_fract_z
 _atom_site_occupancy
  Y  Y0  1  0.250000  0.033620  0.678907  1
  Y  Y1  1  0.250000  0.533157  0.821352  1
  Y  Y2  1  0.750000  0.974546  0.316494  1
  Ho  Ho3  1  0.750000  0.474492  0.183019  1
  Al  Al4  1  0.250000  0.139644  0.066691  1
  Al  Al5  1  0.250000  0.639495  0.433137  1
  Al  Al6  1  0.750000  0.854855  0.941698  1
  Al  Al7  1  0.750000  0.355313  0.557999  1
  Ir  Ir8  1  0.250000  0.271215  0.381031  1
  Ir  Ir9  1  0.250000  0.767315  0.117875  1
  Pd  Pd10  1  0.750000  0.727591  0.619802  1
  Pd  Pd11  1  0.750000  0.228754  0.881996  1
