# generated using pymatgen
data_Dy3Y7(AsPb3)2
_symmetry_space_group_name_H-M   'P 1'
_cell_length_a   9.15707000
_cell_length_b   9.15706992
_cell_length_c   6.80764400
_cell_angle_alpha   90.00000000
_cell_angle_beta   90.00000000
_cell_angle_gamma   120.00001473
_symmetry_Int_Tables_number   1
_chemical_formula_structural   Dy3Y7(AsPb3)2
_chemical_formula_sum   'Dy3 Y7 As2 Pb6'
_cell_volume   494.35674993
_cell_formula_units_Z   1
loop_
 _symmetry_equiv_pos_site_id
 _symmetry_equiv_pos_as_xyz
  1  'x, y, z'
loop_
 _atom_site_type_symbol
 _atom_site_label
 _atom_site_symmetry_multiplicity
 _atom_site_fract_x
 _atom_site_fract_y
 _atom_site_fract_z
 _atom_site_occupancy
  Dy  Dy0  1  0.245148  0.245148  0.250000  1
  Dy  Dy1  1  0.754852  0.000000  0.250000  1
  Dy  Dy2  1  0.000000  0.754852  0.250000  1
  Y  Y3  1  0.754836  0.754836  0.750000  1
  Y  Y4  1  0.245164  0.000000  0.750000  1
  Y  Y5  1  0.000000  0.245164  0.750000  1
  Y  Y6  1  0.666667  0.333333  0.000093  1
  Y  Y7  1  0.333333  0.666667  0.000093  1
  Y  Y8  1  0.333333  0.666667  0.499907  1
  Y  Y9  1  0.666667  0.333333  0.499907  1
  As  As10  1  0.000000  0.000000  0.000578  1
  As  As11  1  0.000000  0.000000  0.499422  1
  Pb  Pb12  1  0.398688  0.398688  0.750000  1
  Pb  Pb13  1  0.601312  0.000000  0.750000  1
  Pb  Pb14  1  0.000000  0.601312  0.750000  1
  Pb  Pb15  1  0.601360  0.601360  0.250000  1
  Pb  Pb16  1  0.398640  0.000000  0.250000  1
  Pb  Pb17  1  0.000000  0.398640  0.250000  1
