# generated using pymatgen
data_Eu2Si7Ni5Rh7
_symmetry_space_group_name_H-M   'P 1'
_cell_length_a   9.48042500
_cell_length_b   9.51222438
_cell_length_c   3.76110200
_cell_angle_alpha   90.00000000
_cell_angle_beta   90.00000000
_cell_angle_gamma   119.84311570
_symmetry_Int_Tables_number   1
_chemical_formula_structural   Eu2Si7Ni5Rh7
_chemical_formula_sum   'Eu2 Si7 Ni5 Rh7'
_cell_volume   294.19821340
_cell_formula_units_Z   1
loop_
 _symmetry_equiv_pos_site_id
 _symmetry_equiv_pos_as_xyz
  1  'x, y, z'
loop_
 _atom_site_type_symbol
 _atom_site_label
 _atom_site_symmetry_multiplicity
 _atom_site_fract_x
 _atom_site_fract_y
 _atom_site_fract_z
 _atom_site_occupancy
  Eu  Eu0  1  0.666028  0.331794  0.000000  1
  Eu  Eu1  1  0.003619  0.003225  0.500000  1
  Si  Si2  1  0.334806  0.667201  0.000000  1
  Si  Si3  1  0.437992  0.062220  0.500000  1
  Si  Si4  1  0.937942  0.376091  0.500000  1
  Si  Si5  1  0.620774  0.558551  0.500000  1
  Si  Si6  1  0.729563  0.956668  0.000000  1
  Si  Si7  1  0.052099  0.778189  0.000000  1
  Si  Si8  1  0.218932  0.267947  0.000000  1
  Ni  Ni9  1  0.275678  0.042489  0.000000  1
  Ni  Ni10  1  0.957130  0.232823  0.000000  1
  Ni  Ni11  1  0.483467  0.945069  0.000000  1
  Ni  Ni12  1  0.057617  0.539202  0.000000  1
  Ni  Ni13  1  0.454873  0.511162  0.000000  1
  Rh  Rh14  1  0.716962  0.103592  0.500000  1
  Rh  Rh15  1  0.900007  0.611110  0.500000  1
  Rh  Rh16  1  0.384217  0.281775  0.500000  1
  Rh  Rh17  1  0.768060  0.729595  0.000000  1
  Rh  Rh18  1  0.544006  0.763385  0.500000  1
  Rh  Rh19  1  0.240231  0.783666  0.500000  1
  Rh  Rh20  1  0.215998  0.454244  0.500000  1
