# generated using pymatgen
data_CaNd3(Pd2Pb)2
_symmetry_space_group_name_H-M   'P 1'
_cell_length_a   3.80462200
_cell_length_b   8.00744917
_cell_length_c   8.00744917
_cell_angle_alpha   89.50017140
_cell_angle_beta   90.00000000
_cell_angle_gamma   90.00000000
_symmetry_Int_Tables_number   1
_chemical_formula_structural   CaNd3(Pd2Pb)2
_chemical_formula_sum   'Ca1 Nd3 Pd4 Pb2'
_cell_volume   243.94019723
_cell_formula_units_Z   1
loop_
 _symmetry_equiv_pos_site_id
 _symmetry_equiv_pos_as_xyz
  1  'x, y, z'
loop_
 _atom_site_type_symbol
 _atom_site_label
 _atom_site_symmetry_multiplicity
 _atom_site_fract_x
 _atom_site_fract_y
 _atom_site_fract_z
 _atom_site_occupancy
  Ca  Ca0  1  0.500000  0.173764  0.673764  1
  Nd  Nd1  1  0.500000  0.827251  0.327251  1
  Nd  Nd2  1  0.500000  0.324208  0.173451  1
  Nd  Nd3  1  0.500000  0.673451  0.824208  1
  Pd  Pd4  1  0.000000  0.624666  0.124666  1
  Pd  Pd5  1  0.000000  0.377877  0.877877  1
  Pd  Pd6  1  0.000000  0.874693  0.623790  1
  Pd  Pd7  1  0.000000  0.123790  0.374693  1
  Pb  Pb8  1  0.000000  0.002259  0.998041  1
  Pb  Pb9  1  0.000000  0.498041  0.502259  1
