# generated using pymatgen
data_Sm2(AlAu2)3
_symmetry_space_group_name_H-M   'P 1'
_cell_length_a   8.77970165
_cell_length_b   8.77970140
_cell_length_c   8.77970152
_cell_angle_alpha   56.69029012
_cell_angle_beta   56.69029354
_cell_angle_gamma   56.69028028
_symmetry_Int_Tables_number   1
_chemical_formula_structural   Sm2(AlAu2)3
_chemical_formula_sum   'Sm4 Al6 Au12'
_cell_volume   441.97139724
_cell_formula_units_Z   2
loop_
 _symmetry_equiv_pos_site_id
 _symmetry_equiv_pos_as_xyz
  1  'x, y, z'
loop_
 _atom_site_type_symbol
 _atom_site_label
 _atom_site_symmetry_multiplicity
 _atom_site_fract_x
 _atom_site_fract_y
 _atom_site_fract_z
 _atom_site_occupancy
  Sm  Sm0  1  0.908456  0.908456  0.908456  1
  Sm  Sm1  1  0.408456  0.408456  0.408456  1
  Sm  Sm2  1  0.091544  0.091544  0.091544  1
  Sm  Sm3  1  0.591544  0.591544  0.591544  1
  Al  Al4  1  0.551129  0.750000  0.948871  1
  Al  Al5  1  0.948871  0.551129  0.750000  1
  Al  Al6  1  0.750000  0.948871  0.551129  1
  Al  Al7  1  0.448871  0.250000  0.051129  1
  Al  Al8  1  0.051129  0.448871  0.250000  1
  Al  Al9  1  0.250000  0.051129  0.448871  1
  Au  Au10  1  0.485427  0.863998  0.202556  1
  Au  Au11  1  0.202556  0.485427  0.863998  1
  Au  Au12  1  0.863998  0.202556  0.485427  1
  Au  Au13  1  0.702556  0.363998  0.985427  1
  Au  Au14  1  0.985427  0.702556  0.363998  1
  Au  Au15  1  0.363998  0.985427  0.702556  1
  Au  Au16  1  0.514573  0.136002  0.797444  1
  Au  Au17  1  0.797444  0.514573  0.136002  1
  Au  Au18  1  0.136002  0.797444  0.514573  1
  Au  Au19  1  0.297444  0.636002  0.014573  1
  Au  Au20  1  0.014573  0.297444  0.636002  1
  Au  Au21  1  0.636002  0.014573  0.297444  1
