# generated using pymatgen
data_Tm20Cd3Ir2Pd3
_symmetry_space_group_name_H-M   'P 1'
_cell_length_a   9.38778400
_cell_length_b   9.38778413
_cell_length_c   9.35032900
_cell_angle_alpha   90.00000000
_cell_angle_beta   90.00000000
_cell_angle_gamma   120.00000660
_symmetry_Int_Tables_number   1
_chemical_formula_structural   Tm20Cd3Ir2Pd3
_chemical_formula_sum   'Tm20 Cd3 Ir2 Pd3'
_cell_volume   713.64738377
_cell_formula_units_Z   1
loop_
 _symmetry_equiv_pos_site_id
 _symmetry_equiv_pos_as_xyz
  1  'x, y, z'
loop_
 _atom_site_type_symbol
 _atom_site_label
 _atom_site_symmetry_multiplicity
 _atom_site_fract_x
 _atom_site_fract_y
 _atom_site_fract_z
 _atom_site_occupancy
  Tm  Tm0  1  0.000000  0.000000  0.447959  1
  Tm  Tm1  1  0.000000  0.000000  0.052041  1
  Tm  Tm2  1  0.208167  0.791833  0.442344  1
  Tm  Tm3  1  0.208167  0.416333  0.442344  1
  Tm  Tm4  1  0.583667  0.791833  0.442344  1
  Tm  Tm5  1  0.793511  0.206489  0.555589  1
  Tm  Tm6  1  0.793511  0.587021  0.555589  1
  Tm  Tm7  1  0.412979  0.206489  0.555589  1
  Tm  Tm8  1  0.793511  0.206489  0.944411  1
  Tm  Tm9  1  0.793511  0.587021  0.944411  1
  Tm  Tm10  1  0.412979  0.206489  0.944411  1
  Tm  Tm11  1  0.208167  0.791833  0.057656  1
  Tm  Tm12  1  0.208167  0.416333  0.057656  1
  Tm  Tm13  1  0.583667  0.791833  0.057656  1
  Tm  Tm14  1  0.541052  0.458948  0.250000  1
  Tm  Tm15  1  0.541052  0.082105  0.250000  1
  Tm  Tm16  1  0.917895  0.458948  0.250000  1
  Tm  Tm17  1  0.458484  0.541516  0.750000  1
  Tm  Tm18  1  0.458484  0.916967  0.750000  1
  Tm  Tm19  1  0.083033  0.541516  0.750000  1
  Cd  Cd20  1  0.108247  0.891753  0.750000  1
  Cd  Cd21  1  0.108247  0.216493  0.750000  1
  Cd  Cd22  1  0.783507  0.891753  0.750000  1
  Ir  Ir23  1  0.333333  0.666667  0.250000  1
  Ir  Ir24  1  0.666667  0.333333  0.750000  1
  Pd  Pd25  1  0.867683  0.132317  0.250000  1
  Pd  Pd26  1  0.867683  0.735366  0.250000  1
  Pd  Pd27  1  0.264634  0.132317  0.250000  1
