# generated using pymatgen
data_Na4HoAuO6
_symmetry_space_group_name_H-M   'P 1'
_cell_length_a   5.71049008
_cell_length_b   5.71049038
_cell_length_c   5.84773320
_cell_angle_alpha   99.26985104
_cell_angle_beta   99.26985547
_cell_angle_gamma   120.04006209
_symmetry_Int_Tables_number   1
_chemical_formula_structural   Na4HoAuO6
_chemical_formula_sum   'Na4 Ho1 Au1 O6'
_cell_volume   156.26553246
_cell_formula_units_Z   1
loop_
 _symmetry_equiv_pos_site_id
 _symmetry_equiv_pos_as_xyz
  1  'x, y, z'
loop_
 _atom_site_type_symbol
 _atom_site_label
 _atom_site_symmetry_multiplicity
 _atom_site_fract_x
 _atom_site_fract_y
 _atom_site_fract_z
 _atom_site_occupancy
  Na  Na0  1  0.501521  0.498478  0.000000  1
  Na  Na1  1  0.980991  0.019007  0.499998  1
  Na  Na2  1  0.665767  0.334233  0.500000  1
  Na  Na3  1  0.343839  0.656160  0.500000  1
  Ho  Ho4  1  0.167093  0.832905  0.000000  1
  Au  Au5  1  0.834179  0.165820  0.000000  1
  O  O6  1  0.922951  0.544183  0.217922  1
  O  O7  1  0.198165  0.220907  0.218637  1
  O  O8  1  0.594349  0.943769  0.211615  1
  O  O9  1  0.056231  0.405650  0.788385  1
  O  O10  1  0.779096  0.801837  0.781365  1
  O  O11  1  0.455818  0.077051  0.782078  1
