# generated using pymatgen
data_Li2PuSi(PPd4)5
_symmetry_space_group_name_H-M   'P 1'
_cell_length_a   8.59129112
_cell_length_b   8.60536233
_cell_length_c   8.60536200
_cell_angle_alpha   59.99634162
_cell_angle_beta   60.05407203
_cell_angle_gamma   60.05407089
_symmetry_Int_Tables_number   1
_chemical_formula_structural   Li2PuSi(PPd4)5
_chemical_formula_sum   'Li2 Pu1 Si1 P5 Pd20'
_cell_volume   450.21937023
_cell_formula_units_Z   1
loop_
 _symmetry_equiv_pos_site_id
 _symmetry_equiv_pos_as_xyz
  1  'x, y, z'
loop_
 _atom_site_type_symbol
 _atom_site_label
 _atom_site_symmetry_multiplicity
 _atom_site_fract_x
 _atom_site_fract_y
 _atom_site_fract_z
 _atom_site_occupancy
  Li  Li0  1  0.998882  0.001118  0.001118  1
  Li  Li1  1  0.750717  0.749283  0.749283  1
  Pu  Pu2  1  0.251329  0.248671  0.248671  1
  Si  Si3  1  0.736580  0.263420  0.263420  1
  P  P4  1  0.738000  0.736554  0.261810  1
  P  P5  1  0.738000  0.261810  0.736554  1
  P  P6  1  0.263636  0.736554  0.261810  1
  P  P7  1  0.262524  0.737476  0.737476  1
  P  P8  1  0.263636  0.261810  0.736554  1
  Pd  Pd9  1  0.341162  0.002111  0.002111  1
  Pd  Pd10  1  0.999524  0.657232  0.343720  1
  Pd  Pd11  1  0.341943  0.001778  0.654995  1
  Pd  Pd12  1  0.001285  0.654995  0.001778  1
  Pd  Pd13  1  0.653710  0.343386  0.999453  1
  Pd  Pd14  1  0.619037  0.619975  0.141949  1
  Pd  Pd15  1  0.388010  0.836585  0.387397  1
  Pd  Pd16  1  0.144099  0.618597  0.618597  1
  Pd  Pd17  1  0.653710  0.999453  0.343386  1
  Pd  Pd18  1  0.999524  0.343720  0.657232  1
  Pd  Pd19  1  0.654615  0.002111  0.002111  1
  Pd  Pd20  1  0.003451  0.999453  0.343386  1
  Pd  Pd21  1  0.619037  0.141949  0.619975  1
  Pd  Pd22  1  0.341943  0.654995  0.001778  1
  Pd  Pd23  1  0.385283  0.387904  0.387904  1
  Pd  Pd24  1  0.618706  0.618597  0.618597  1
  Pd  Pd25  1  0.388010  0.387397  0.836585  1
  Pd  Pd26  1  0.001285  0.001778  0.654995  1
  Pd  Pd27  1  0.838911  0.387904  0.387904  1
  Pd  Pd28  1  0.003451  0.343386  0.999453  1
