# generated using pymatgen
data_Y13Er3MgHg3Rh4
_symmetry_space_group_name_H-M   'P 1'
_cell_length_a   9.62193603
_cell_length_b   9.62854489
_cell_length_c   9.62854500
_cell_angle_alpha   60.00000305
_cell_angle_beta   59.97727951
_cell_angle_gamma   59.97728151
_symmetry_Int_Tables_number   1
_chemical_formula_structural   Y13Er3MgHg3Rh4
_chemical_formula_sum   'Y13 Er3 Mg1 Hg3 Rh4'
_cell_volume   630.55006797
_cell_formula_units_Z   1
loop_
 _symmetry_equiv_pos_site_id
 _symmetry_equiv_pos_as_xyz
  1  'x, y, z'
loop_
 _atom_site_type_symbol
 _atom_site_label
 _atom_site_symmetry_multiplicity
 _atom_site_fract_x
 _atom_site_fract_y
 _atom_site_fract_z
 _atom_site_occupancy
  Y  Y0  1  0.189396  0.603535  0.603535  1
  Y  Y1  1  0.059269  0.440171  0.440171  1
  Y  Y2  1  0.436814  0.062454  0.062454  1
  Y  Y3  1  0.436814  0.062454  0.438278  1
  Y  Y4  1  0.059269  0.440171  0.060390  1
  Y  Y5  1  0.436814  0.438278  0.062454  1
  Y  Y6  1  0.059269  0.060390  0.440171  1
  Y  Y7  1  0.184825  0.814426  0.814426  1
  Y  Y8  1  0.811177  0.187212  0.187212  1
  Y  Y9  1  0.811177  0.187212  0.814400  1
  Y  Y10  1  0.184825  0.814426  0.186323  1
  Y  Y11  1  0.811177  0.814400  0.187212  1
  Y  Y12  1  0.184825  0.186323  0.814426  1
  Er  Er13  1  0.600200  0.598637  0.598637  1
  Er  Er14  1  0.600200  0.598637  0.202528  1
  Er  Er15  1  0.600200  0.202528  0.598637  1
  Mg  Mg16  1  0.539341  0.820219  0.820219  1
  Hg  Hg17  1  0.831517  0.836349  0.836349  1
  Hg  Hg18  1  0.831517  0.836349  0.495784  1
  Hg  Hg19  1  0.831517  0.495784  0.836349  1
  Rh  Rh20  1  0.394049  0.393484  0.393484  1
  Rh  Rh21  1  0.394049  0.393484  0.818985  1
  Rh  Rh22  1  0.394049  0.818985  0.393484  1
  Rh  Rh23  1  0.817709  0.394097  0.394097  1
