# generated using pymatgen
data_Pr3Er(Sn5Rh3)2
_symmetry_space_group_name_H-M   'P 1'
_cell_length_a   13.59684505
_cell_length_b   13.59684484
_cell_length_c   7.24687670
_cell_angle_alpha   89.77296854
_cell_angle_beta   90.22703265
_cell_angle_gamma   160.80577734
_symmetry_Int_Tables_number   1
_chemical_formula_structural   Pr3Er(Sn5Rh3)2
_chemical_formula_sum   'Pr3 Er1 Sn10 Rh6'
_cell_volume   440.47139800
_cell_formula_units_Z   1
loop_
 _symmetry_equiv_pos_site_id
 _symmetry_equiv_pos_as_xyz
  1  'x, y, z'
loop_
 _atom_site_type_symbol
 _atom_site_label
 _atom_site_symmetry_multiplicity
 _atom_site_fract_x
 _atom_site_fract_y
 _atom_site_fract_z
 _atom_site_occupancy
  Pr  Pr0  1  0.172228  0.827772  0.754152  1
  Pr  Pr1  1  0.827649  0.172351  0.254445  1
  Pr  Pr2  1  0.476512  0.523488  0.738379  1
  Er  Er3  1  0.524814  0.475186  0.238369  1
  Sn  Sn4  1  0.879059  0.120941  0.731465  1
  Sn  Sn5  1  0.120076  0.879924  0.232305  1
  Sn  Sn6  1  0.704333  0.295667  0.049466  1
  Sn  Sn7  1  0.295040  0.704960  0.549598  1
  Sn  Sn8  1  0.596009  0.403991  0.610864  1
  Sn  Sn9  1  0.404755  0.595245  0.113015  1
  Sn  Sn10  1  0.953049  0.046951  0.397541  1
  Sn  Sn11  1  0.048263  0.951737  0.902741  1
  Sn  Sn12  1  0.290275  0.709725  0.975170  1
  Sn  Sn13  1  0.709519  0.290481  0.474706  1
  Rh  Rh14  1  0.050826  0.949174  0.513645  1
  Rh  Rh15  1  0.949499  0.050501  0.021099  1
  Rh  Rh16  1  0.777273  0.222727  0.764018  1
  Rh  Rh17  1  0.222286  0.777714  0.263893  1
  Rh  Rh18  1  0.394449  0.605551  0.483462  1
  Rh  Rh19  1  0.604085  0.395915  0.987665  1
