# generated using pymatgen
data_Nb4Ir2PdSe12
_symmetry_space_group_name_H-M   'P 1'
_cell_length_a   7.33856786
_cell_length_b   7.33856860
_cell_length_c   19.64171383
_cell_angle_alpha   70.05817716
_cell_angle_beta   70.05817539
_cell_angle_gamma   27.60024179
_symmetry_Int_Tables_number   1
_chemical_formula_structural   Nb4Ir2PdSe12
_chemical_formula_sum   'Nb4 Ir2 Pd1 Se12'
_cell_volume   458.85844163
_cell_formula_units_Z   1
loop_
 _symmetry_equiv_pos_site_id
 _symmetry_equiv_pos_as_xyz
  1  'x, y, z'
loop_
 _atom_site_type_symbol
 _atom_site_label
 _atom_site_symmetry_multiplicity
 _atom_site_fract_x
 _atom_site_fract_y
 _atom_site_fract_z
 _atom_site_occupancy
  Nb  Nb0  1  0.622506  0.622506  0.849371  1
  Nb  Nb1  1  0.377494  0.377494  0.150629  1
  Nb  Nb2  1  0.746071  0.746071  0.592788  1
  Nb  Nb3  1  0.253929  0.253929  0.407212  1
  Ir  Ir4  1  0.228796  0.228796  0.716771  1
  Ir  Ir5  1  0.771204  0.771204  0.283229  1
  Pd  Pd6  1  0.000000  0.000000  0.000000  1
  Se  Se7  1  0.975125  0.975125  0.882030  1
  Se  Se8  1  0.024875  0.024875  0.117970  1
  Se  Se9  1  0.623683  0.623683  0.399269  1
  Se  Se10  1  0.376317  0.376317  0.600731  1
  Se  Se11  1  0.137468  0.137468  0.549262  1
  Se  Se12  1  0.862532  0.862532  0.450738  1
  Se  Se13  1  0.808667  0.808667  0.767948  1
  Se  Se14  1  0.191333  0.191333  0.232052  1
  Se  Se15  1  0.181388  0.181388  0.926808  1
  Se  Se16  1  0.818612  0.818612  0.073192  1
  Se  Se17  1  0.600355  0.600355  0.718403  1
  Se  Se18  1  0.399645  0.399645  0.281597  1
