# generated using pymatgen
data_Hf2Co2NiP3
_symmetry_space_group_name_H-M   'P 1'
_cell_length_a   3.61615500
_cell_length_b   9.97230900
_cell_length_c   12.11435500
_cell_angle_alpha   90.00000000
_cell_angle_beta   90.00000000
_cell_angle_gamma   90.00000000
_symmetry_Int_Tables_number   1
_chemical_formula_structural   Hf2Co2NiP3
_chemical_formula_sum   'Hf8 Co8 Ni4 P12'
_cell_volume   436.86078374
_cell_formula_units_Z   4
loop_
 _symmetry_equiv_pos_site_id
 _symmetry_equiv_pos_as_xyz
  1  'x, y, z'
loop_
 _atom_site_type_symbol
 _atom_site_label
 _atom_site_symmetry_multiplicity
 _atom_site_fract_x
 _atom_site_fract_y
 _atom_site_fract_z
 _atom_site_occupancy
  Hf  Hf0  1  0.250000  0.338086  0.995173  1
  Hf  Hf1  1  0.250000  0.161914  0.495173  1
  Hf  Hf2  1  0.750000  0.661914  0.004827  1
  Hf  Hf3  1  0.750000  0.838086  0.504827  1
  Hf  Hf4  1  0.250000  0.428035  0.708138  1
  Hf  Hf5  1  0.250000  0.071965  0.208138  1
  Hf  Hf6  1  0.750000  0.571965  0.291862  1
  Hf  Hf7  1  0.750000  0.928035  0.791862  1
  Co  Co8  1  0.250000  0.904808  0.983135  1
  Co  Co9  1  0.250000  0.595192  0.483135  1
  Co  Co10  1  0.750000  0.095192  0.016865  1
  Co  Co11  1  0.750000  0.404808  0.516865  1
  Co  Co12  1  0.250000  0.137420  0.718725  1
  Co  Co13  1  0.250000  0.362580  0.218725  1
  Co  Co14  1  0.750000  0.862580  0.281275  1
  Co  Co15  1  0.750000  0.637420  0.781275  1
  Ni  Ni16  1  0.250000  0.767150  0.164936  1
  Ni  Ni17  1  0.250000  0.732850  0.664936  1
  Ni  Ni18  1  0.750000  0.232850  0.835064  1
  Ni  Ni19  1  0.750000  0.267150  0.335064  1
  P  P20  1  0.250000  0.100891  0.899433  1
  P  P21  1  0.250000  0.399109  0.399433  1
  P  P22  1  0.750000  0.899109  0.100567  1
  P  P23  1  0.750000  0.600891  0.600567  1
  P  P24  1  0.250000  0.737399  0.854140  1
  P  P25  1  0.250000  0.762601  0.354140  1
  P  P26  1  0.750000  0.262601  0.145860  1
  P  P27  1  0.750000  0.237399  0.645860  1
  P  P28  1  0.250000  0.548864  0.126865  1
  P  P29  1  0.250000  0.951136  0.626865  1
  P  P30  1  0.750000  0.451136  0.873135  1
  P  P31  1  0.750000  0.048864  0.373135  1
