# generated using pymatgen
data_La20Ga5Si6Tc
_symmetry_space_group_name_H-M   'P 1'
_cell_length_a   7.90524150
_cell_length_b   7.91290221
_cell_length_c   14.48006100
_cell_angle_alpha   89.65459704
_cell_angle_beta   89.73352563
_cell_angle_gamma   90.32986863
_symmetry_Int_Tables_number   1
_chemical_formula_structural   La20Ga5Si6Tc
_chemical_formula_sum   'La20 Ga5 Si6 Tc1'
_cell_volume   905.73567677
_cell_formula_units_Z   1
loop_
 _symmetry_equiv_pos_site_id
 _symmetry_equiv_pos_as_xyz
  1  'x, y, z'
loop_
 _atom_site_type_symbol
 _atom_site_label
 _atom_site_symmetry_multiplicity
 _atom_site_fract_x
 _atom_site_fract_y
 _atom_site_fract_z
 _atom_site_occupancy
  La  La0  1  0.815185  0.833863  0.605612  1
  La  La1  1  0.184068  0.832071  0.103418  1
  La  La2  1  0.166376  0.813725  0.396284  1
  La  La3  1  0.999835  0.500037  0.723234  1
  La  La4  1  0.828421  0.192557  0.390440  1
  La  La5  1  0.677816  0.657595  0.389337  1
  La  La6  1  0.670209  0.313179  0.609420  1
  La  La7  1  0.332872  0.686693  0.606328  1
  La  La8  1  0.991333  0.498459  0.222187  1
  La  La9  1  0.664229  0.676452  0.109865  1
  La  La10  1  0.687037  0.329089  0.890455  1
  La  La11  1  0.829220  0.813822  0.893661  1
  La  La12  1  0.325450  0.339616  0.391624  1
  La  La13  1  0.186018  0.169799  0.605952  1
  La  La14  1  0.806646  0.169385  0.109139  1
  La  La15  1  0.313043  0.666118  0.893755  1
  La  La16  1  0.344888  0.323507  0.109213  1
  La  La17  1  0.511154  0.004940  0.278660  1
  La  La18  1  0.166165  0.184699  0.894611  1
  La  La19  1  0.498712  0.002595  0.776734  1
  Ga  Ga20  1  0.998334  0.500771  0.504695  1
  Ga  Ga21  1  0.499781  0.997984  0.497861  1
  Ga  Ga22  1  0.498053  0.998426  0.995500  1
  Ga  Ga23  1  0.121144  0.112857  0.248753  1
  Ga  Ga24  1  0.000047  0.498604  0.002507  1
  Si  Si25  1  0.112328  0.887010  0.749932  1
  Si  Si26  1  0.385518  0.386914  0.750355  1
  Si  Si27  1  0.380500  0.620020  0.249515  1
  Si  Si28  1  0.887543  0.880648  0.250943  1
  Si  Si29  1  0.612863  0.614571  0.749752  1
  Si  Si30  1  0.886827  0.113063  0.750047  1
  Tc  Tc31  1  0.618384  0.380927  0.250210  1
