# generated using pymatgen
data_Sm3SiPt5
_symmetry_space_group_name_H-M   'P 1'
_cell_length_a   8.32680717
_cell_length_b   8.32680610
_cell_length_c   8.32680578
_cell_angle_alpha   127.34983366
_cell_angle_beta   126.19026652
_cell_angle_gamma   78.62973117
_symmetry_Int_Tables_number   1
_chemical_formula_structural   Sm3SiPt5
_chemical_formula_sum   'Sm6 Si2 Pt10'
_cell_volume   358.54282861
_cell_formula_units_Z   2
loop_
 _symmetry_equiv_pos_site_id
 _symmetry_equiv_pos_as_xyz
  1  'x, y, z'
loop_
 _atom_site_type_symbol
 _atom_site_label
 _atom_site_symmetry_multiplicity
 _atom_site_fract_x
 _atom_site_fract_y
 _atom_site_fract_z
 _atom_site_occupancy
  Sm  Sm0  1  0.827123  0.549514  0.277609  1
  Sm  Sm1  1  0.613715  0.250000  0.363715  1
  Sm  Sm2  1  0.172877  0.450486  0.722391  1
  Sm  Sm3  1  0.386285  0.750000  0.636285  1
  Sm  Sm4  1  0.228096  0.950486  0.277609  1
  Sm  Sm5  1  0.771904  0.049514  0.722391  1
  Si  Si6  1  0.217979  0.250000  0.967979  1
  Si  Si7  1  0.782021  0.750000  0.032021  1
  Pt  Pt8  1  0.170040  0.903801  0.860127  1
  Pt  Pt9  1  0.829960  0.096199  0.139873  1
  Pt  Pt10  1  0.456326  0.190088  0.860127  1
  Pt  Pt11  1  0.543674  0.403801  0.733761  1
  Pt  Pt12  1  0.829960  0.690088  0.733761  1
  Pt  Pt13  1  0.456326  0.596199  0.266239  1
  Pt  Pt14  1  0.543674  0.809912  0.139873  1
  Pt  Pt15  1  0.170040  0.309912  0.266239  1
  Pt  Pt16  1  0.000000  0.000000  0.500000  1
  Pt  Pt17  1  0.000000  0.500000  0.000000  1
