# generated using pymatgen
data_Pr8Ho2InSn5
_symmetry_space_group_name_H-M   'P 1'
_cell_length_a   6.29437031
_cell_length_b   9.40253106
_cell_length_c   9.40253083
_cell_angle_alpha   83.50226085
_cell_angle_beta   70.41933862
_cell_angle_gamma   70.41934462
_symmetry_Int_Tables_number   1
_chemical_formula_structural   Pr8Ho2InSn5
_chemical_formula_sum   'Pr8 Ho2 In1 Sn5'
_cell_volume   493.97021848
_cell_formula_units_Z   1
loop_
 _symmetry_equiv_pos_site_id
 _symmetry_equiv_pos_as_xyz
  1  'x, y, z'
loop_
 _atom_site_type_symbol
 _atom_site_label
 _atom_site_symmetry_multiplicity
 _atom_site_fract_x
 _atom_site_fract_y
 _atom_site_fract_z
 _atom_site_occupancy
  Pr  Pr0  1  0.720748  0.865750  0.694844  1
  Pr  Pr1  1  0.281654  0.134250  0.305164  1
  Pr  Pr2  1  0.779252  0.305156  0.134250  1
  Pr  Pr3  1  0.218346  0.694836  0.865750  1
  Pr  Pr4  1  0.586775  0.694930  0.134178  1
  Pr  Pr5  1  0.415598  0.305077  0.865815  1
  Pr  Pr6  1  0.084402  0.134185  0.694923  1
  Pr  Pr7  1  0.913225  0.865822  0.305070  1
  Ho  Ho8  1  0.750000  0.500039  0.499961  1
  Ho  Ho9  1  0.250000  0.499980  0.500020  1
  In  In10  1  0.750000  0.999984  0.000016  1
  Sn  Sn11  1  0.155939  0.500043  0.188535  1
  Sn  Sn12  1  0.844067  0.499967  0.811464  1
  Sn  Sn13  1  0.344061  0.811465  0.499957  1
  Sn  Sn14  1  0.655933  0.188536  0.500033  1
  Sn  Sn15  1  0.250000  0.999980  0.000020  1
