# generated using pymatgen
data_Cs4SiGe3Se10
_symmetry_space_group_name_H-M   'P 1'
_cell_length_a   12.10045422
_cell_length_b   12.10045529
_cell_length_c   10.04213929
_cell_angle_alpha   81.68462686
_cell_angle_beta   81.68462505
_cell_angle_gamma   90.29052406
_symmetry_Int_Tables_number   1
_chemical_formula_structural   Cs4SiGe3Se10
_chemical_formula_sum   'Cs8 Si2 Ge6 Se20'
_cell_volume   1439.11933470
_cell_formula_units_Z   2
loop_
 _symmetry_equiv_pos_site_id
 _symmetry_equiv_pos_as_xyz
  1  'x, y, z'
loop_
 _atom_site_type_symbol
 _atom_site_label
 _atom_site_symmetry_multiplicity
 _atom_site_fract_x
 _atom_site_fract_y
 _atom_site_fract_z
 _atom_site_occupancy
  Cs  Cs0  1  0.712782  0.974011  0.370691  1
  Cs  Cs1  1  0.025989  0.287218  0.129309  1
  Cs  Cs2  1  0.287650  0.024234  0.629314  1
  Cs  Cs3  1  0.975766  0.712350  0.870686  1
  Cs  Cs4  1  0.546466  0.709209  0.881390  1
  Cs  Cs5  1  0.290791  0.453534  0.618610  1
  Cs  Cs6  1  0.451184  0.290602  0.118905  1
  Cs  Cs7  1  0.709398  0.548816  0.381095  1
  Si  Si8  1  0.232859  0.958295  0.115084  1
  Si  Si9  1  0.041705  0.767141  0.384916  1
  Ge  Ge10  1  0.359799  0.768692  0.385160  1
  Ge  Ge11  1  0.231308  0.640201  0.114840  1
  Ge  Ge12  1  0.638048  0.231998  0.613279  1
  Ge  Ge13  1  0.768002  0.361952  0.886721  1
  Ge  Ge14  1  0.766374  0.037339  0.888606  1
  Ge  Ge15  1  0.962661  0.233626  0.611394  1
  Se  Se16  1  0.745614  0.868958  0.027555  1
  Se  Se17  1  0.131042  0.254386  0.472445  1
  Se  Se18  1  0.251621  0.120628  0.982248  1
  Se  Se19  1  0.879372  0.748379  0.517752  1
  Se  Se20  1  0.495093  0.747858  0.525159  1
  Se  Se21  1  0.252142  0.504907  0.974841  1
  Se  Se22  1  0.502332  0.253736  0.474168  1
  Se  Se23  1  0.746264  0.497668  0.025832  1
  Se  Se24  1  0.616389  0.051554  0.750928  1
  Se  Se25  1  0.948446  0.383611  0.749072  1
  Se  Se26  1  0.378366  0.948561  0.244342  1
  Se  Se27  1  0.051439  0.621634  0.255658  1
  Se  Se28  1  0.746117  0.183287  0.033036  1
  Se  Se29  1  0.816713  0.253883  0.466964  1
  Se  Se30  1  0.253368  0.821480  0.972337  1
  Se  Se31  1  0.178520  0.746632  0.527663  1
  Se  Se32  1  0.947108  0.052892  0.750000  1
  Se  Se33  1  0.059247  0.940753  0.250000  1
  Se  Se34  1  0.382245  0.617755  0.250000  1
  Se  Se35  1  0.617779  0.382221  0.750000  1
