# generated using pymatgen
data_CaCd2Ag(Ir2O7)2
_symmetry_space_group_name_H-M   'P 1'
_cell_length_a   7.29444199
_cell_length_b   7.26995809
_cell_length_c   7.29444260
_cell_angle_alpha   59.45309540
_cell_angle_beta   59.50126582
_cell_angle_gamma   59.45309739
_symmetry_Int_Tables_number   1
_chemical_formula_structural   CaCd2Ag(Ir2O7)2
_chemical_formula_sum   'Ca1 Cd2 Ag1 Ir4 O14'
_cell_volume   270.22454816
_cell_formula_units_Z   1
loop_
 _symmetry_equiv_pos_site_id
 _symmetry_equiv_pos_as_xyz
  1  'x, y, z'
loop_
 _atom_site_type_symbol
 _atom_site_label
 _atom_site_symmetry_multiplicity
 _atom_site_fract_x
 _atom_site_fract_y
 _atom_site_fract_z
 _atom_site_occupancy
  Ca  Ca0  1  0.125000  0.125000  0.125000  1
  Cd  Cd1  1  0.625000  0.125000  0.125000  1
  Cd  Cd2  1  0.125000  0.125000  0.625000  1
  Ag  Ag3  1  0.125000  0.625000  0.125000  1
  Ir  Ir4  1  0.125000  0.625000  0.625000  1
  Ir  Ir5  1  0.625000  0.125000  0.625000  1
  Ir  Ir6  1  0.625000  0.625000  0.125000  1
  Ir  Ir7  1  0.625000  0.625000  0.625000  1
  O  O8  1  0.697124  0.696314  0.302419  1
  O  O9  1  0.299717  0.298821  0.702636  1
  O  O10  1  0.699955  0.298826  0.699955  1
  O  O11  1  0.302249  0.700097  0.302249  1
  O  O12  1  0.302419  0.696314  0.697124  1
  O  O13  1  0.702636  0.298821  0.299717  1
  O  O14  1  0.552876  0.553686  0.947581  1
  O  O15  1  0.950283  0.951179  0.547364  1
  O  O16  1  0.550045  0.951174  0.550045  1
  O  O17  1  0.947751  0.549903  0.947751  1
  O  O18  1  0.947581  0.553686  0.552876  1
  O  O19  1  0.547364  0.951179  0.950283  1
  O  O20  1  0.251178  0.266815  0.251178  1
  O  O21  1  0.998822  0.983185  0.998822  1
