# generated using pymatgen
data_Yb5Pr4TmSi8
_symmetry_space_group_name_H-M   'P 1'
_cell_length_a   7.48524262
_cell_length_b   7.93481100
_cell_length_c   15.13990255
_cell_angle_alpha   90.00000000
_cell_angle_beta   90.09237725
_cell_angle_gamma   90.00000000
_symmetry_Int_Tables_number   1
_chemical_formula_structural   Yb5Pr4TmSi8
_chemical_formula_sum   'Yb10 Pr8 Tm2 Si16'
_cell_volume   899.21798372
_cell_formula_units_Z   2
loop_
 _symmetry_equiv_pos_site_id
 _symmetry_equiv_pos_as_xyz
  1  'x, y, z'
loop_
 _atom_site_type_symbol
 _atom_site_label
 _atom_site_symmetry_multiplicity
 _atom_site_fract_x
 _atom_site_fract_y
 _atom_site_fract_z
 _atom_site_occupancy
  Yb  Yb0  1  0.323367  0.182254  0.623213  1
  Yb  Yb1  1  0.678353  0.819206  0.376136  1
  Yb  Yb2  1  0.648441  0.002884  0.749796  1
  Yb  Yb3  1  0.178353  0.680794  0.376136  1
  Yb  Yb4  1  0.823527  0.318821  0.879231  1
  Yb  Yb5  1  0.823367  0.317746  0.623213  1
  Yb  Yb6  1  0.848301  0.496112  0.252408  1
  Yb  Yb7  1  0.348301  0.003888  0.252408  1
  Yb  Yb8  1  0.323527  0.181179  0.879231  1
  Yb  Yb9  1  0.148441  0.497116  0.749796  1
  Pr  Pr10  1  0.022848  0.183481  0.401191  1
  Pr  Pr11  1  0.522848  0.316519  0.401191  1
  Pr  Pr12  1  0.474371  0.685832  0.900798  1
  Pr  Pr13  1  0.475347  0.686080  0.598744  1
  Pr  Pr14  1  0.975347  0.813920  0.598744  1
  Pr  Pr15  1  0.974371  0.814168  0.900798  1
  Pr  Pr16  1  0.524996  0.314757  0.097572  1
  Pr  Pr17  1  0.024996  0.185243  0.097572  1
  Tm  Tm18  1  0.176777  0.683728  0.123071  1
  Tm  Tm19  1  0.676777  0.816272  0.123071  1
  Si  Si20  1  0.260354  0.874233  0.750973  1
  Si  Si21  1  0.465515  0.601292  0.243285  1
  Si  Si22  1  0.034974  0.092353  0.751225  1
  Si  Si23  1  0.534974  0.407647  0.751225  1
  Si  Si24  1  0.144781  0.470890  0.536187  1
  Si  Si25  1  0.965515  0.898708  0.243285  1
  Si  Si26  1  0.738946  0.118215  0.245269  1
  Si  Si27  1  0.856384  0.536494  0.040706  1
  Si  Si28  1  0.356384  0.963506  0.040706  1
  Si  Si29  1  0.147142  0.475451  0.967917  1
  Si  Si30  1  0.644781  0.029110  0.536187  1
  Si  Si31  1  0.355576  0.972603  0.462279  1
  Si  Si32  1  0.855576  0.527397  0.462279  1
  Si  Si33  1  0.760354  0.625767  0.750973  1
  Si  Si34  1  0.238946  0.381785  0.245269  1
  Si  Si35  1  0.647142  0.024549  0.967917  1
