# generated using pymatgen
data_Y13Ho4Er3Sn16
_symmetry_space_group_name_H-M   'P 1'
_cell_length_a   8.04034100
_cell_length_b   8.18842877
_cell_length_c   15.48685100
_cell_angle_alpha   89.96710633
_cell_angle_beta   90.04039039
_cell_angle_gamma   90.01842573
_symmetry_Int_Tables_number   1
_chemical_formula_structural   Y13Ho4Er3Sn16
_chemical_formula_sum   'Y13 Ho4 Er3 Sn16'
_cell_volume   1019.61909853
_cell_formula_units_Z   1
loop_
 _symmetry_equiv_pos_site_id
 _symmetry_equiv_pos_as_xyz
  1  'x, y, z'
loop_
 _atom_site_type_symbol
 _atom_site_label
 _atom_site_symmetry_multiplicity
 _atom_site_fract_x
 _atom_site_fract_y
 _atom_site_fract_z
 _atom_site_occupancy
  Y  Y0  1  0.133748  0.337216  0.121970  1
  Y  Y1  1  0.632896  0.163482  0.122896  1
  Y  Y2  1  0.133138  0.336553  0.377720  1
  Y  Y3  1  0.367188  0.836615  0.622330  1
  Y  Y4  1  0.867318  0.662651  0.878018  1
  Y  Y5  1  0.519283  0.320354  0.902871  1
  Y  Y6  1  0.019207  0.179714  0.597076  1
  Y  Y7  1  0.481065  0.680000  0.403027  1
  Y  Y8  1  0.980374  0.820303  0.097421  1
  Y  Y9  1  0.480818  0.679780  0.096971  1
  Y  Y10  1  0.981284  0.820559  0.403286  1
  Y  Y11  1  0.519035  0.321177  0.596767  1
  Y  Y12  1  0.019288  0.178685  0.902390  1
  Ho  Ho13  1  0.365760  0.837683  0.876531  1
  Ho  Ho14  1  0.865004  0.662552  0.622898  1
  Ho  Ho15  1  0.634787  0.162424  0.377374  1
  Ho  Ho16  1  0.197465  0.503199  0.750137  1
  Er  Er17  1  0.697676  0.996890  0.749608  1
  Er  Er18  1  0.802259  0.496977  0.250594  1
  Er  Er19  1  0.302835  0.002997  0.249849  1
  Sn  Sn20  1  0.293846  0.036474  0.041304  1
  Sn  Sn21  1  0.793849  0.462325  0.458601  1
  Sn  Sn22  1  0.706444  0.962447  0.541512  1
  Sn  Sn23  1  0.207130  0.537982  0.958226  1
  Sn  Sn24  1  0.704709  0.962698  0.957962  1
  Sn  Sn25  1  0.204186  0.537493  0.541979  1
  Sn  Sn26  1  0.295483  0.037311  0.458041  1
  Sn  Sn27  1  0.793576  0.463464  0.042073  1
  Sn  Sn28  1  0.563736  0.618478  0.750275  1
  Sn  Sn29  1  0.062858  0.881909  0.749731  1
  Sn  Sn30  1  0.436522  0.381537  0.250367  1
  Sn  Sn31  1  0.936905  0.118407  0.250081  1
  Sn  Sn32  1  0.329730  0.148359  0.749887  1
  Sn  Sn33  1  0.829167  0.351216  0.749882  1
  Sn  Sn34  1  0.670774  0.851371  0.250230  1
  Sn  Sn35  1  0.170657  0.648722  0.250112  1
