# generated using pymatgen
data_Zr8Cd4Co3Au5
_symmetry_space_group_name_H-M   'P 1'
_cell_length_a   7.60273792
_cell_length_b   7.60273862
_cell_length_c   6.75779104
_cell_angle_alpha   89.92886936
_cell_angle_beta   89.92887190
_cell_angle_gamma   91.69586615
_symmetry_Int_Tables_number   1
_chemical_formula_structural   Zr8Cd4Co3Au5
_chemical_formula_sum   'Zr8 Cd4 Co3 Au5'
_cell_volume   390.43962340
_cell_formula_units_Z   1
loop_
 _symmetry_equiv_pos_site_id
 _symmetry_equiv_pos_as_xyz
  1  'x, y, z'
loop_
 _atom_site_type_symbol
 _atom_site_label
 _atom_site_symmetry_multiplicity
 _atom_site_fract_x
 _atom_site_fract_y
 _atom_site_fract_z
 _atom_site_occupancy
  Zr  Zr0  1  0.159429  0.159429  0.010132  1
  Zr  Zr1  1  0.818012  0.818012  0.998644  1
  Zr  Zr2  1  0.649581  0.360849  0.489904  1
  Zr  Zr3  1  0.360849  0.649581  0.489904  1
  Zr  Zr4  1  0.677517  0.350098  0.009036  1
  Zr  Zr5  1  0.350098  0.677517  0.009036  1
  Zr  Zr6  1  0.795669  0.795669  0.500530  1
  Zr  Zr7  1  0.198136  0.198136  0.483095  1
  Cd  Cd8  1  0.499606  0.007866  0.250608  1
  Cd  Cd9  1  0.501604  0.993773  0.743920  1
  Cd  Cd10  1  0.007866  0.499606  0.250608  1
  Cd  Cd11  1  0.993773  0.501604  0.743920  1
  Co  Co12  1  0.372953  0.372953  0.223647  1
  Co  Co13  1  0.626167  0.626167  0.773218  1
  Co  Co14  1  0.625888  0.625888  0.228661  1
  Au  Au15  1  0.867453  0.130232  0.725248  1
  Au  Au16  1  0.866162  0.126990  0.278493  1
  Au  Au17  1  0.372017  0.372017  0.787653  1
  Au  Au18  1  0.126990  0.866162  0.278493  1
  Au  Au19  1  0.130232  0.867453  0.725248  1
