# generated using pymatgen
data_Ac3La6SmC4I15
_symmetry_space_group_name_H-M   'P 1'
_cell_length_a   10.04651525
_cell_length_b   10.88294018
_cell_length_c   12.15197095
_cell_angle_alpha   93.83930342
_cell_angle_beta   114.49236126
_cell_angle_gamma   109.05311262
_symmetry_Int_Tables_number   1
_chemical_formula_structural   Ac3La6SmC4I15
_chemical_formula_sum   'Ac3 La6 Sm1 C4 I15'
_cell_volume   1110.79438403
_cell_formula_units_Z   1
loop_
 _symmetry_equiv_pos_site_id
 _symmetry_equiv_pos_as_xyz
  1  'x, y, z'
loop_
 _atom_site_type_symbol
 _atom_site_label
 _atom_site_symmetry_multiplicity
 _atom_site_fract_x
 _atom_site_fract_y
 _atom_site_fract_z
 _atom_site_occupancy
  Ac  Ac0  1  0.601014  0.534379  0.345604  1
  Ac  Ac1  1  0.335679  0.745713  0.164096  1
  Ac  Ac2  1  0.786154  0.891985  0.261250  1
  La  La3  1  0.224455  0.118014  0.744695  1
  La  La4  1  0.403947  0.460275  0.663336  1
  La  La5  1  0.471510  0.811030  0.898147  1
  La  La6  1  0.701494  0.564486  0.042046  1
  La  La7  1  0.297091  0.432349  0.955088  1
  La  La8  1  0.652154  0.252339  0.835772  1
  Sm  Sm9  1  0.525751  0.190235  0.092889  1
  C  C10  1  0.481770  0.302332  0.937210  1
  C  C11  1  0.518553  0.699904  0.062869  1
  C  C12  1  0.453112  0.363152  0.835912  1
  C  C13  1  0.547901  0.637432  0.164054  1
  I  I14  1  0.215997  0.915474  0.939498  1
  I  I15  1  0.108810  0.190509  0.471996  1
  I  I16  1  0.152799  0.554687  0.707296  1
  I  I17  1  0.404630  0.968013  0.651359  1
  I  I18  1  0.714294  0.732338  0.825499  1
  I  I19  1  0.287836  0.258287  0.169745  1
  I  I20  1  0.843658  0.433070  0.285024  1
  I  I21  1  0.900301  0.815447  0.537820  1
  I  I22  1  0.357826  0.627520  0.416715  1
  I  I23  1  0.056059  0.829899  0.218005  1
  I  I24  1  0.784151  0.096655  0.060224  1
  I  I25  1  0.638268  0.367332  0.591818  1
  I  I26  1  0.950529  0.169091  0.782317  1
  I  I27  1  0.591147  0.043881  0.343408  1
  I  I28  1  0.993109  0.494172  0.996307  1
