# generated using pymatgen
data_Y12TcNi4Sn
_symmetry_space_group_name_H-M   'P 1'
_cell_length_a   8.36020934
_cell_length_b   8.36083638
_cell_length_c   8.36021083
_cell_angle_alpha   111.97615746
_cell_angle_beta   109.45122610
_cell_angle_gamma   107.02115855
_symmetry_Int_Tables_number   1
_chemical_formula_structural   Y12TcNi4Sn
_chemical_formula_sum   'Y12 Tc1 Ni4 Sn1'
_cell_volume   449.01971585
_cell_formula_units_Z   1
loop_
 _symmetry_equiv_pos_site_id
 _symmetry_equiv_pos_as_xyz
  1  'x, y, z'
loop_
 _atom_site_type_symbol
 _atom_site_label
 _atom_site_symmetry_multiplicity
 _atom_site_fract_x
 _atom_site_fract_y
 _atom_site_fract_z
 _atom_site_occupancy
  Y  Y0  1  0.678471  0.871552  0.193081  1
  Y  Y1  1  0.321521  0.514517  0.192997  1
  Y  Y2  1  0.820137  0.782165  0.602278  1
  Y  Y3  1  0.179888  0.782165  0.962028  1
  Y  Y4  1  0.820112  0.217835  0.037972  1
  Y  Y5  1  0.179863  0.217835  0.397722  1
  Y  Y6  1  0.678479  0.485483  0.807003  1
  Y  Y7  1  0.321529  0.128448  0.806919  1
  Y  Y8  1  0.587784  0.277997  0.309794  1
  Y  Y9  1  0.412216  0.722003  0.690206  1
  Y  Y10  1  0.031797  0.722003  0.309786  1
  Y  Y11  1  0.968203  0.277997  0.690214  1
  Tc  Tc12  1  0.000000  0.500000  0.500000  1
  Ni  Ni13  1  0.356187  0.500000  0.856187  1
  Ni  Ni14  1  0.643813  0.500000  0.143813  1
  Ni  Ni15  1  0.880932  0.880949  0.000017  1
  Ni  Ni16  1  0.119068  0.119051  0.999983  1
  Sn  Sn17  1  0.500000  0.000000  0.500000  1
