# generated using pymatgen
data_Tm2Lu2ReB12Ir
_symmetry_space_group_name_H-M   'P 1'
_cell_length_a   3.61849200
_cell_length_b   9.05718190
_cell_length_c   11.44014517
_cell_angle_alpha   90.27230702
_cell_angle_beta   90.00000000
_cell_angle_gamma   90.00000000
_symmetry_Int_Tables_number   1
_chemical_formula_structural   Tm2Lu2ReB12Ir
_chemical_formula_sum   'Tm4 Lu4 Re2 B24 Ir2'
_cell_volume   374.92753561
_cell_formula_units_Z   2
loop_
 _symmetry_equiv_pos_site_id
 _symmetry_equiv_pos_as_xyz
  1  'x, y, z'
loop_
 _atom_site_type_symbol
 _atom_site_label
 _atom_site_symmetry_multiplicity
 _atom_site_fract_x
 _atom_site_fract_y
 _atom_site_fract_z
 _atom_site_occupancy
  Tm  Tm0  1  0.000000  0.315989  0.409913  1
  Tm  Tm1  1  0.000000  0.684011  0.590087  1
  Tm  Tm2  1  0.000000  0.825910  0.082108  1
  Tm  Tm3  1  0.000000  0.174090  0.917892  1
  Lu  Lu4  1  0.000000  0.946536  0.372537  1
  Lu  Lu5  1  0.000000  0.053464  0.627463  1
  Lu  Lu6  1  0.000000  0.441834  0.125681  1
  Lu  Lu7  1  0.000000  0.558166  0.874319  1
  Re  Re8  1  0.000000  0.138663  0.180257  1
  Re  Re9  1  0.000000  0.861337  0.819743  1
  B  B10  1  0.500000  0.554219  0.434520  1
  B  B11  1  0.500000  0.445781  0.565480  1
  B  B12  1  0.500000  0.053240  0.066841  1
  B  B13  1  0.500000  0.946760  0.933159  1
  B  B14  1  0.500000  0.750697  0.421523  1
  B  B15  1  0.500000  0.249303  0.578477  1
  B  B16  1  0.500000  0.249340  0.080302  1
  B  B17  1  0.500000  0.750660  0.919698  1
  B  B18  1  0.500000  0.792066  0.265500  1
  B  B19  1  0.500000  0.207934  0.734500  1
  B  B20  1  0.500000  0.293485  0.234923  1
  B  B21  1  0.500000  0.706515  0.765077  1
  B  B22  1  0.500000  0.631286  0.183171  1
  B  B23  1  0.500000  0.368714  0.816829  1
  B  B24  1  0.500000  0.131159  0.315701  1
  B  B25  1  0.500000  0.868841  0.684299  1
  B  B26  1  0.500000  0.981653  0.213470  1
  B  B27  1  0.500000  0.018347  0.786530  1
  B  B28  1  0.500000  0.481664  0.287089  1
  B  B29  1  0.500000  0.518336  0.712911  1
  B  B30  1  0.500000  0.604459  0.029252  1
  B  B31  1  0.500000  0.395541  0.970748  1
  B  B32  1  0.500000  0.105052  0.471633  1
  B  B33  1  0.500000  0.894948  0.528367  1
  Ir  Ir34  1  0.000000  0.637263  0.321782  1
  Ir  Ir35  1  0.000000  0.362737  0.678218  1
