# generated using pymatgen
data_Cs11NaMn4O16
_symmetry_space_group_name_H-M   'P 1'
_cell_length_a   8.49505180
_cell_length_b   8.49588969
_cell_length_c   11.67140958
_cell_angle_alpha   111.33903710
_cell_angle_beta   111.33671543
_cell_angle_gamma   90.01502806
_symmetry_Int_Tables_number   1
_chemical_formula_structural   Cs11NaMn4O16
_chemical_formula_sum   'Cs11 Na1 Mn4 O16'
_cell_volume   722.23889175
_cell_formula_units_Z   1
loop_
 _symmetry_equiv_pos_site_id
 _symmetry_equiv_pos_as_xyz
  1  'x, y, z'
loop_
 _atom_site_type_symbol
 _atom_site_label
 _atom_site_symmetry_multiplicity
 _atom_site_fract_x
 _atom_site_fract_y
 _atom_site_fract_z
 _atom_site_occupancy
  Cs  Cs0  1  0.290674  0.290846  0.581412  1
  Cs  Cs1  1  0.499916  0.999866  0.999972  1
  Cs  Cs2  1  0.250033  0.750010  0.499984  1
  Cs  Cs3  1  0.934691  0.934766  0.245351  1
  Cs  Cs4  1  0.065286  0.689378  0.754652  1
  Cs  Cs5  1  0.709274  0.709275  0.418580  1
  Cs  Cs6  1  0.000011  0.499977  0.999997  1
  Cs  Cs7  1  0.689394  0.065237  0.754679  1
  Cs  Cs8  1  0.310571  0.310632  0.245276  1
  Cs  Cs9  1  0.750008  0.250059  0.499991  1
  Cs  Cs10  1  0.499894  0.499924  0.999977  1
  Na  Na11  1  0.000040  0.000050  0.000082  1
  Mn  Mn12  1  0.866975  0.372722  0.239709  1
  Mn  Mn13  1  0.132678  0.132650  0.760003  1
  Mn  Mn14  1  0.627617  0.627330  0.760298  1
  Mn  Mn15  1  0.372653  0.867238  0.239923  1
  O  O16  1  0.368325  0.016436  0.385471  1
  O  O17  1  0.784013  0.783559  0.897235  1
  O  O18  1  0.665422  0.337245  0.236265  1
  O  O19  1  0.337185  0.665616  0.236483  1
  O  O20  1  0.016367  0.368362  0.385284  1
  O  O21  1  0.570992  0.900117  0.236939  1
  O  O22  1  0.334233  0.100395  0.763386  1
  O  O23  1  0.216321  0.887061  0.103257  1
  O  O24  1  0.632019  0.631638  0.614854  1
  O  O25  1  0.112997  0.112924  0.896698  1
  O  O26  1  0.662998  0.429054  0.763358  1
  O  O27  1  0.983171  0.983079  0.614419  1
  O  O28  1  0.899742  0.571021  0.236674  1
  O  O29  1  0.886707  0.216428  0.103005  1
  O  O30  1  0.100391  0.334185  0.763377  1
  O  O31  1  0.429402  0.662917  0.763409  1
