# generated using pymatgen
data_Ca8TbDyIr4
_symmetry_space_group_name_H-M   'P 1'
_cell_length_a   6.63977845
_cell_length_b   7.41015945
_cell_length_c   8.65831600
_cell_angle_alpha   97.26869609
_cell_angle_beta   112.54651325
_cell_angle_gamma   89.99999595
_symmetry_Int_Tables_number   1
_chemical_formula_structural   Ca8TbDyIr4
_chemical_formula_sum   'Ca8 Tb1 Dy1 Ir4'
_cell_volume   389.73531139
_cell_formula_units_Z   1
loop_
 _symmetry_equiv_pos_site_id
 _symmetry_equiv_pos_as_xyz
  1  'x, y, z'
loop_
 _atom_site_type_symbol
 _atom_site_label
 _atom_site_symmetry_multiplicity
 _atom_site_fract_x
 _atom_site_fract_y
 _atom_site_fract_z
 _atom_site_occupancy
  Ca  Ca0  1  0.977614  0.919114  0.172400  1
  Ca  Ca1  1  0.805213  0.580886  0.827600  1
  Ca  Ca2  1  0.022326  0.080779  0.827554  1
  Ca  Ca3  1  0.194773  0.419221  0.172446  1
  Ca  Ca4  1  0.641813  0.820162  0.436306  1
  Ca  Ca5  1  0.205507  0.679838  0.563694  1
  Ca  Ca6  1  0.358166  0.179797  0.563624  1
  Ca  Ca7  1  0.794542  0.320203  0.436376  1
  Tb  Tb8  1  0.562341  0.250000  0.000000  1
  Dy  Dy9  1  0.437819  0.750000  0.000000  1
  Ir  Ir10  1  0.807606  0.574287  0.208514  1
  Ir  Ir11  1  0.599091  0.925713  0.791486  1
  Ir  Ir12  1  0.192347  0.426043  0.791506  1
  Ir  Ir13  1  0.400841  0.073957  0.208494  1
