# generated using pymatgen
data_Ce3Pr5Nd2(Bi3Br)2
_symmetry_space_group_name_H-M   'P 1'
_cell_length_a   9.68062800
_cell_length_b   9.68185214
_cell_length_c   6.68829000
_cell_angle_alpha   89.99919177
_cell_angle_beta   89.99978210
_cell_angle_gamma   119.99542412
_symmetry_Int_Tables_number   1
_chemical_formula_structural   Ce3Pr5Nd2(Bi3Br)2
_chemical_formula_sum   'Ce3 Pr5 Nd2 Bi6 Br2'
_cell_volume   542.90985879
_cell_formula_units_Z   1
loop_
 _symmetry_equiv_pos_site_id
 _symmetry_equiv_pos_as_xyz
  1  'x, y, z'
loop_
 _atom_site_type_symbol
 _atom_site_label
 _atom_site_symmetry_multiplicity
 _atom_site_fract_x
 _atom_site_fract_y
 _atom_site_fract_z
 _atom_site_occupancy
  Ce  Ce0  1  0.333263  0.666811  0.500080  1
  Ce  Ce1  1  0.666335  0.333149  0.500078  1
  Ce  Ce2  1  0.666388  0.333191  0.999916  1
  Pr  Pr3  1  0.727018  0.000949  0.250077  1
  Pr  Pr4  1  0.998925  0.273189  0.749940  1
  Pr  Pr5  1  0.999223  0.726187  0.250069  1
  Pr  Pr6  1  0.726657  0.725797  0.749978  1
  Pr  Pr7  1  0.274121  0.272905  0.250075  1
  Nd  Nd8  1  0.274159  0.000990  0.749896  1
  Nd  Nd9  1  0.333260  0.666797  0.999883  1
  Bi  Bi10  1  0.614716  0.000393  0.750030  1
  Bi  Bi11  1  0.384669  0.000448  0.249986  1
  Bi  Bi12  1  0.000176  0.616001  0.750038  1
  Bi  Bi13  1  0.999584  0.384424  0.249963  1
  Bi  Bi14  1  0.384609  0.383608  0.750052  1
  Bi  Bi15  1  0.615513  0.615138  0.249935  1
  Br  Br16  1  0.000699  0.000017  0.500439  1
  Br  Br17  1  0.000686  0.000005  0.999566  1
