# generated using pymatgen
data_Nd5Se2I3O10
_symmetry_space_group_name_H-M   'P 1'
_cell_length_a   5.71572600
_cell_length_b   7.03890218
_cell_length_c   10.93280782
_cell_angle_alpha   92.64127788
_cell_angle_beta   90.00000000
_cell_angle_gamma   113.95441952
_symmetry_Int_Tables_number   1
_chemical_formula_structural   Nd5Se2I3O10
_chemical_formula_sum   'Nd5 Se2 I3 O10'
_cell_volume   401.45697501
_cell_formula_units_Z   1
loop_
 _symmetry_equiv_pos_site_id
 _symmetry_equiv_pos_as_xyz
  1  'x, y, z'
loop_
 _atom_site_type_symbol
 _atom_site_label
 _atom_site_symmetry_multiplicity
 _atom_site_fract_x
 _atom_site_fract_y
 _atom_site_fract_z
 _atom_site_occupancy
  Nd  Nd0  1  0.500001  0.000000  0.000000  1
  Nd  Nd1  1  0.792999  0.585999  0.095625  1
  Nd  Nd2  1  0.110324  0.220647  0.221367  1
  Nd  Nd3  1  0.889677  0.779353  0.778634  1
  Nd  Nd4  1  0.207001  0.414003  0.904376  1
  Se  Se5  1  0.420639  0.841277  0.288176  1
  Se  Se6  1  0.579361  0.158725  0.711825  1
  I  I7  1  0.684813  0.369629  0.366302  1
  I  I8  1  0.000000  0.000000  0.500001  1
  I  I9  1  0.315186  0.630372  0.633699  1
  O  O10  1  0.394337  0.294960  0.056680  1
  O  O11  1  0.900622  0.294960  0.056680  1
  O  O12  1  0.222571  0.911815  0.190911  1
  O  O13  1  0.689244  0.911815  0.190911  1
  O  O14  1  0.291668  0.583337  0.246829  1
  O  O15  1  0.708333  0.416664  0.753171  1
  O  O16  1  0.310756  0.088183  0.809089  1
  O  O17  1  0.777427  0.088183  0.809089  1
  O  O18  1  0.099377  0.705040  0.943319  1
  O  O19  1  0.605663  0.705040  0.943319  1
