# generated using pymatgen
data_YbDy3Os5Ru3
_symmetry_space_group_name_H-M   'P 1'
_cell_length_a   5.32842874
_cell_length_b   5.17086858
_cell_length_c   9.00919314
_cell_angle_alpha   89.99980320
_cell_angle_beta   89.98222786
_cell_angle_gamma   119.63452002
_symmetry_Int_Tables_number   1
_chemical_formula_structural   YbDy3Os5Ru3
_chemical_formula_sum   'Yb1 Dy3 Os5 Ru3'
_cell_volume   215.75796605
_cell_formula_units_Z   1
loop_
 _symmetry_equiv_pos_site_id
 _symmetry_equiv_pos_as_xyz
  1  'x, y, z'
loop_
 _atom_site_type_symbol
 _atom_site_label
 _atom_site_symmetry_multiplicity
 _atom_site_fract_x
 _atom_site_fract_y
 _atom_site_fract_z
 _atom_site_occupancy
  Yb  Yb0  1  0.666850  0.333596  0.936163  1
  Dy  Dy1  1  0.667679  0.333996  0.570117  1
  Dy  Dy2  1  0.331582  0.665888  0.433241  1
  Dy  Dy3  1  0.330957  0.665618  0.062379  1
  Os  Os4  1  0.171665  0.339810  0.749894  1
  Os  Os5  1  0.172690  0.830925  0.749549  1
  Os  Os6  1  0.660657  0.829895  0.749873  1
  Os  Os7  1  0.835776  0.663271  0.249763  1
  Os  Os8  1  0.835211  0.173337  0.249761  1
  Ru  Ru9  1  0.989124  0.994758  0.498419  1
  Ru  Ru10  1  0.987567  0.993881  0.000006  1
  Ru  Ru11  1  0.350240  0.175026  0.250834  1
