# generated using pymatgen
data_Eu2NpRh3
_symmetry_space_group_name_H-M   'P 1'
_cell_length_a   5.36061075
_cell_length_b   5.36063036
_cell_length_c   5.36055361
_cell_angle_alpha   67.22634857
_cell_angle_beta   67.22628109
_cell_angle_gamma   67.22634315
_symmetry_Int_Tables_number   1
_chemical_formula_structural   Eu2NpRh3
_chemical_formula_sum   'Eu2 Np1 Rh3'
_cell_volume   125.75764547
_cell_formula_units_Z   1
loop_
 _symmetry_equiv_pos_site_id
 _symmetry_equiv_pos_as_xyz
  1  'x, y, z'
loop_
 _atom_site_type_symbol
 _atom_site_label
 _atom_site_symmetry_multiplicity
 _atom_site_fract_x
 _atom_site_fract_y
 _atom_site_fract_z
 _atom_site_occupancy
  Eu  Eu0  1  0.376106  0.376106  0.376106  1
  Eu  Eu1  1  0.623894  0.623894  0.623894  1
  Np  Np2  1  0.000000  0.000000  0.000000  1
  Rh  Rh3  1  0.500000  0.000000  0.000000  1
  Rh  Rh4  1  0.000000  0.500000  0.000000  1
  Rh  Rh5  1  0.000000  0.000000  0.500001  1
