# generated using pymatgen
data_Tb3Dy4Co6Sn22Au
_symmetry_space_group_name_H-M   'P 1'
_cell_length_a   9.68623016
_cell_length_b   9.68623057
_cell_length_c   9.94921318
_cell_angle_alpha   90.01890097
_cell_angle_beta   89.98109687
_cell_angle_gamma   120.00922379
_symmetry_Int_Tables_number   1
_chemical_formula_structural   Tb3Dy4Co6Sn22Au
_chemical_formula_sum   'Tb3 Dy4 Co6 Sn22 Au1'
_cell_volume   808.32972717
_cell_formula_units_Z   1
loop_
 _symmetry_equiv_pos_site_id
 _symmetry_equiv_pos_as_xyz
  1  'x, y, z'
loop_
 _atom_site_type_symbol
 _atom_site_label
 _atom_site_symmetry_multiplicity
 _atom_site_fract_x
 _atom_site_fract_y
 _atom_site_fract_z
 _atom_site_occupancy
  Tb  Tb0  1  0.000000  0.000000  0.000000  1
  Tb  Tb1  1  0.478912  0.521088  0.306336  1
  Tb  Tb2  1  0.521088  0.478912  0.693664  1
  Dy  Dy3  1  0.478951  0.957945  0.306436  1
  Dy  Dy4  1  0.521049  0.042055  0.693564  1
  Dy  Dy5  1  0.042055  0.521049  0.306436  1
  Dy  Dy6  1  0.957945  0.478951  0.693564  1
  Co  Co7  1  0.832204  0.167796  0.196585  1
  Co  Co8  1  0.167796  0.832204  0.803415  1
  Co  Co9  1  0.832238  0.664421  0.196563  1
  Co  Co10  1  0.167762  0.335579  0.803437  1
  Co  Co11  1  0.335579  0.167762  0.196563  1
  Co  Co12  1  0.664421  0.832238  0.803437  1
  Sn  Sn13  1  0.346191  0.999976  0.000010  1
  Sn  Sn14  1  0.653809  0.000024  0.999990  1
  Sn  Sn15  1  0.999976  0.346191  0.999990  1
  Sn  Sn16  1  0.000024  0.653809  0.000010  1
  Sn  Sn17  1  0.653802  0.653802  0.000000  1
  Sn  Sn18  1  0.346198  0.346198  0.000000  1
  Sn  Sn19  1  0.333329  0.666671  0.817197  1
  Sn  Sn20  1  0.666671  0.333329  0.182803  1
  Sn  Sn21  1  0.782962  0.217038  0.452898  1
  Sn  Sn22  1  0.217038  0.782962  0.547102  1
  Sn  Sn23  1  0.783159  0.565914  0.452856  1
  Sn  Sn24  1  0.216841  0.434086  0.547144  1
  Sn  Sn25  1  0.434086  0.216841  0.452856  1
  Sn  Sn26  1  0.565914  0.783159  0.547144  1
  Sn  Sn27  1  0.333255  0.666745  0.118704  1
  Sn  Sn28  1  0.666745  0.333255  0.881296  1
  Sn  Sn29  1  0.113693  0.886307  0.277849  1
  Sn  Sn30  1  0.886307  0.113693  0.722151  1
  Sn  Sn31  1  0.113571  0.227289  0.277849  1
  Sn  Sn32  1  0.886429  0.772711  0.722151  1
  Sn  Sn33  1  0.772711  0.886429  0.277849  1
  Sn  Sn34  1  0.227289  0.113571  0.722151  1
  Au  Au35  1  0.000000  0.000000  0.500000  1
