# generated using pymatgen
data_YHo3ZrPt15
_symmetry_space_group_name_H-M   'P 1'
_cell_length_a   4.10719700
_cell_length_b   4.10719700
_cell_length_c   20.46718900
_cell_angle_alpha   90.00000000
_cell_angle_beta   90.00000000
_cell_angle_gamma   90.00000000
_symmetry_Int_Tables_number   1
_chemical_formula_structural   YHo3ZrPt15
_chemical_formula_sum   'Y1 Ho3 Zr1 Pt15'
_cell_volume   345.26238657
_cell_formula_units_Z   1
loop_
 _symmetry_equiv_pos_site_id
 _symmetry_equiv_pos_as_xyz
  1  'x, y, z'
loop_
 _atom_site_type_symbol
 _atom_site_label
 _atom_site_symmetry_multiplicity
 _atom_site_fract_x
 _atom_site_fract_y
 _atom_site_fract_z
 _atom_site_occupancy
  Y  Y0  1  0.000000  0.000000  0.199489  1
  Ho  Ho1  1  0.000000  0.000000  0.399817  1
  Ho  Ho2  1  0.000000  0.000000  0.600229  1
  Ho  Ho3  1  0.000000  0.000000  0.800429  1
  Zr  Zr4  1  0.000000  0.000000  0.999951  1
  Pt  Pt5  1  0.500000  0.500000  0.999989  1
  Pt  Pt6  1  0.500000  0.500000  0.197629  1
  Pt  Pt7  1  0.500000  0.500000  0.399514  1
  Pt  Pt8  1  0.500000  0.500000  0.600522  1
  Pt  Pt9  1  0.500000  0.500000  0.802326  1
  Pt  Pt10  1  0.500000  0.000000  0.095869  1
  Pt  Pt11  1  0.500000  0.000000  0.299279  1
  Pt  Pt12  1  0.500000  0.000000  0.499982  1
  Pt  Pt13  1  0.500000  0.000000  0.701127  1
  Pt  Pt14  1  0.500000  0.000000  0.903795  1
  Pt  Pt15  1  0.000000  0.500000  0.095869  1
  Pt  Pt16  1  0.000000  0.500000  0.299279  1
  Pt  Pt17  1  0.000000  0.500000  0.499982  1
  Pt  Pt18  1  0.000000  0.500000  0.701127  1
  Pt  Pt19  1  0.000000  0.500000  0.903795  1
