# generated using pymatgen
data_HoTm3Al24Pt8Au
_symmetry_space_group_name_H-M   'P 1'
_cell_length_a   7.53944635
_cell_length_b   7.55812051
_cell_length_c   13.13205702
_cell_angle_alpha   84.55472811
_cell_angle_beta   79.01381005
_cell_angle_gamma   59.89904618
_symmetry_Int_Tables_number   1
_chemical_formula_structural   HoTm3Al24Pt8Au
_chemical_formula_sum   'Ho1 Tm3 Al24 Pt8 Au1'
_cell_volume   635.53684267
_cell_formula_units_Z   1
loop_
 _symmetry_equiv_pos_site_id
 _symmetry_equiv_pos_as_xyz
  1  'x, y, z'
loop_
 _atom_site_type_symbol
 _atom_site_label
 _atom_site_symmetry_multiplicity
 _atom_site_fract_x
 _atom_site_fract_y
 _atom_site_fract_z
 _atom_site_occupancy
  Ho  Ho0  1  0.393034  0.169185  0.808546  1
  Tm  Tm1  1  0.605948  0.831652  0.192810  1
  Tm  Tm2  1  0.734091  0.499120  0.808244  1
  Tm  Tm3  1  0.266430  0.501087  0.192201  1
  Al  Al4  1  0.682983  0.833897  0.944977  1
  Al  Al5  1  0.316130  0.166099  0.056315  1
  Al  Al6  1  0.146857  0.838742  0.560146  1
  Al  Al7  1  0.854285  0.167399  0.436441  1
  Al  Al8  1  0.487919  0.159730  0.557535  1
  Al  Al9  1  0.520301  0.833614  0.439735  1
  Al  Al10  1  0.218143  0.165327  0.328000  1
  Al  Al11  1  0.777192  0.838821  0.674125  1
  Al  Al12  1  0.440155  0.506889  0.674275  1
  Al  Al13  1  0.563134  0.493686  0.327712  1
  Al  Al14  1  0.108446  0.154739  0.672993  1
  Al  Al15  1  0.890630  0.839898  0.329006  1
  Al  Al16  1  0.353863  0.498601  0.944830  1
  Al  Al17  1  0.646488  0.501144  0.056278  1
  Al  Al18  1  0.015584  0.168179  0.952774  1
  Al  Al19  1  0.983855  0.831939  0.048366  1
  Al  Al20  1  0.188118  0.499662  0.436401  1
  Al  Al21  1  0.806998  0.500115  0.557456  1
  Al  Al22  1  0.733611  0.163989  0.183252  1
  Al  Al23  1  0.267232  0.835309  0.816950  1
  Al  Al24  1  0.060502  0.633031  0.818103  1
  Al  Al25  1  0.938531  0.369092  0.184618  1
  Al  Al26  1  0.853950  0.042385  0.816342  1
  Al  Al27  1  0.145128  0.957863  0.183802  1
  Pt  Pt28  1  0.879739  0.509142  0.360724  1
  Pt  Pt29  1  0.657160  0.171579  0.999385  1
  Pt  Pt30  1  0.343147  0.828292  0.999824  1
  Pt  Pt31  1  0.537040  0.166866  0.360888  1
  Pt  Pt32  1  0.462926  0.833095  0.638549  1
  Pt  Pt33  1  0.778577  0.175693  0.637103  1
  Pt  Pt34  1  0.221837  0.824288  0.362279  1
  Pt  Pt35  1  0.999936  0.499874  0.000254  1
  Au  Au36  1  0.120101  0.489980  0.638758  1
