# generated using pymatgen
data_LiHo3In4Rh
_symmetry_space_group_name_H-M   'P 1'
_cell_length_a   8.09484700
_cell_length_b   8.09484749
_cell_length_c   3.65868600
_cell_angle_alpha   90.00000000
_cell_angle_beta   90.00000000
_cell_angle_gamma   120.00000098
_symmetry_Int_Tables_number   1
_chemical_formula_structural   LiHo3In4Rh
_chemical_formula_sum   'Li1 Ho3 In4 Rh1'
_cell_volume   207.62186204
_cell_formula_units_Z   1
loop_
 _symmetry_equiv_pos_site_id
 _symmetry_equiv_pos_as_xyz
  1  'x, y, z'
loop_
 _atom_site_type_symbol
 _atom_site_label
 _atom_site_symmetry_multiplicity
 _atom_site_fract_x
 _atom_site_fract_y
 _atom_site_fract_z
 _atom_site_occupancy
  Li  Li0  1  0.000000  0.000000  0.000000  1
  Ho  Ho1  1  0.382923  0.422994  0.000000  1
  Ho  Ho2  1  0.040072  0.617076  0.000000  1
  Ho  Ho3  1  0.577006  0.959929  0.000000  1
  In  In4  1  0.998432  0.260912  0.500000  1
  In  In5  1  0.666666  0.333334  0.500000  1
  In  In6  1  0.739089  0.737520  0.500000  1
  In  In7  1  0.262480  0.001569  0.500000  1
  Rh  Rh8  1  0.333333  0.666666  0.500000  1
