# generated using pymatgen
data_Lu4Ga7Ag5
_symmetry_space_group_name_H-M   'P 1'
_cell_length_a   4.27062400
_cell_length_b   6.94732396
_cell_length_c   10.28738537
_cell_angle_alpha   89.96169960
_cell_angle_beta   90.00000000
_cell_angle_gamma   90.00000000
_symmetry_Int_Tables_number   1
_chemical_formula_structural   Lu4Ga7Ag5
_chemical_formula_sum   'Lu4 Ga7 Ag5'
_cell_volume   305.22056987
_cell_formula_units_Z   1
loop_
 _symmetry_equiv_pos_site_id
 _symmetry_equiv_pos_as_xyz
  1  'x, y, z'
loop_
 _atom_site_type_symbol
 _atom_site_label
 _atom_site_symmetry_multiplicity
 _atom_site_fract_x
 _atom_site_fract_y
 _atom_site_fract_z
 _atom_site_occupancy
  Lu  Lu0  1  0.500000  0.776365  0.176620  1
  Lu  Lu1  1  0.500000  0.269099  0.323717  1
  Lu  Lu2  1  0.000000  0.222400  0.826157  1
  Lu  Lu3  1  0.000000  0.731219  0.673263  1
  Ga  Ga4  1  0.500000  0.929909  0.844276  1
  Ga  Ga5  1  0.500000  0.432396  0.659601  1
  Ga  Ga6  1  0.000000  0.070023  0.153826  1
  Ga  Ga7  1  0.000000  0.567619  0.342258  1
  Ga  Ga8  1  0.500000  0.198860  0.033451  1
  Ga  Ga9  1  0.000000  0.304062  0.533578  1
  Ga  Ga10  1  0.000000  0.797479  0.965553  1
  Ag  Ag11  1  0.500000  0.545750  0.905874  1
  Ag  Ag12  1  0.500000  0.051605  0.598790  1
  Ag  Ag13  1  0.000000  0.452886  0.095962  1
  Ag  Ag14  1  0.000000  0.957572  0.401772  1
  Ag  Ag15  1  0.500000  0.692756  0.465301  1
