# generated using pymatgen
data_Tb3Al3GePd2
_symmetry_space_group_name_H-M   'P 1'
_cell_length_a   7.09788500
_cell_length_b   7.09788549
_cell_length_c   4.18606200
_cell_angle_alpha   90.00000000
_cell_angle_beta   90.00000000
_cell_angle_gamma   120.00000238
_symmetry_Int_Tables_number   1
_chemical_formula_structural   Tb3Al3GePd2
_chemical_formula_sum   'Tb3 Al3 Ge1 Pd2'
_cell_volume   182.63929619
_cell_formula_units_Z   1
loop_
 _symmetry_equiv_pos_site_id
 _symmetry_equiv_pos_as_xyz
  1  'x, y, z'
loop_
 _atom_site_type_symbol
 _atom_site_label
 _atom_site_symmetry_multiplicity
 _atom_site_fract_x
 _atom_site_fract_y
 _atom_site_fract_z
 _atom_site_occupancy
  Tb  Tb0  1  0.997090  0.581009  0.500000  1
  Tb  Tb1  1  0.418991  0.416080  0.500000  1
  Tb  Tb2  1  0.583920  0.002910  0.500000  1
  Al  Al3  1  0.770329  0.756073  0.000000  1
  Al  Al4  1  0.243927  0.014256  0.000000  1
  Al  Al5  1  0.985744  0.229671  0.000000  1
  Ge  Ge6  1  0.333333  0.666667  0.000000  1
  Pd  Pd7  1  0.666667  0.333333  0.000000  1
  Pd  Pd8  1  0.000000  0.000000  0.500000  1
