# generated using pymatgen
data_YbHo3(Ga2Cu)4
_symmetry_space_group_name_H-M   'P 1'
_cell_length_a   4.32889700
_cell_length_b   6.52684680
_cell_length_c   10.03432933
_cell_angle_alpha   90.03721349
_cell_angle_beta   90.00000000
_cell_angle_gamma   90.00000000
_symmetry_Int_Tables_number   1
_chemical_formula_structural   YbHo3(Ga2Cu)4
_chemical_formula_sum   'Yb1 Ho3 Ga8 Cu4'
_cell_volume   283.51035823
_cell_formula_units_Z   1
loop_
 _symmetry_equiv_pos_site_id
 _symmetry_equiv_pos_as_xyz
  1  'x, y, z'
loop_
 _atom_site_type_symbol
 _atom_site_label
 _atom_site_symmetry_multiplicity
 _atom_site_fract_x
 _atom_site_fract_y
 _atom_site_fract_z
 _atom_site_occupancy
  Yb  Yb0  1  0.250000  0.260153  0.658872  1
  Ho  Ho1  1  0.250000  0.765283  0.839944  1
  Ho  Ho2  1  0.750000  0.236329  0.160328  1
  Ho  Ho3  1  0.750000  0.735814  0.340491  1
  Ga  Ga4  1  0.250000  0.731634  0.543072  1
  Ga  Ga5  1  0.750000  0.270980  0.457734  1
  Ga  Ga6  1  0.750000  0.765756  0.045070  1
  Ga  Ga7  1  0.250000  0.229512  0.956953  1
  Ga  Ga8  1  0.250000  0.927103  0.158513  1
  Ga  Ga9  1  0.750000  0.073807  0.844180  1
  Ga  Ga10  1  0.750000  0.570947  0.654394  1
  Ga  Ga11  1  0.250000  0.428439  0.341527  1
  Cu  Cu12  1  0.250000  0.546694  0.100587  1
  Cu  Cu13  1  0.750000  0.453431  0.897800  1
  Cu  Cu14  1  0.750000  0.955621  0.601078  1
  Cu  Cu15  1  0.250000  0.048495  0.399459  1
