# generated using pymatgen
data_YbYAl7Si2Ir3
_symmetry_space_group_name_H-M   'P 1'
_cell_length_a   7.49911245
_cell_length_b   7.47557405
_cell_length_c   9.43579494
_cell_angle_alpha   89.95365503
_cell_angle_beta   90.02452653
_cell_angle_gamma   119.83937086
_symmetry_Int_Tables_number   1
_chemical_formula_structural   YbYAl7Si2Ir3
_chemical_formula_sum   'Yb2 Y2 Al14 Si4 Ir6'
_cell_volume   458.84296305
_cell_formula_units_Z   2
loop_
 _symmetry_equiv_pos_site_id
 _symmetry_equiv_pos_as_xyz
  1  'x, y, z'
loop_
 _atom_site_type_symbol
 _atom_site_label
 _atom_site_symmetry_multiplicity
 _atom_site_fract_x
 _atom_site_fract_y
 _atom_site_fract_z
 _atom_site_occupancy
  Yb  Yb0  1  0.670012  0.001077  0.249954  1
  Yb  Yb1  1  0.319501  0.990820  0.745275  1
  Y  Y2  1  0.000754  0.669099  0.249896  1
  Y  Y3  1  0.005553  0.341202  0.754294  1
  Al  Al4  1  0.130610  0.126929  0.250114  1
  Al  Al5  1  0.871929  0.871611  0.750033  1
  Al  Al6  1  0.000249  0.328034  0.428077  1
  Al  Al7  1  0.668603  0.999990  0.575905  1
  Al  Al8  1  0.662154  0.997515  0.923917  1
  Al  Al9  1  0.340590  0.004727  0.070457  1
  Al  Al10  1  0.333070  0.333772  0.557743  1
  Al  Al11  1  0.663402  0.668424  0.441729  1
  Al  Al12  1  0.662750  0.668189  0.058165  1
  Al  Al13  1  0.336824  0.332179  0.942396  1
  Al  Al14  1  0.337971  0.546883  0.250294  1
  Al  Al15  1  0.659597  0.450526  0.751345  1
  Al  Al16  1  0.548701  0.344581  0.249779  1
  Al  Al17  1  0.455455  0.659568  0.748899  1
  Si  Si18  1  0.000963  0.326844  0.076424  1
  Si  Si19  1  0.997657  0.672274  0.931264  1
  Si  Si20  1  0.991923  0.660201  0.568604  1
  Si  Si21  1  0.341264  0.007473  0.424896  1
  Ir  Ir22  1  0.689587  0.338668  0.002416  1
  Ir  Ir23  1  0.310428  0.661378  0.998346  1
  Ir  Ir24  1  0.318415  0.677488  0.499662  1
  Ir  Ir25  1  0.673102  0.330083  0.500067  1
  Ir  Ir26  1  0.001099  0.999414  0.000498  1
  Ir  Ir27  1  0.007841  0.991052  0.499551  1
