# generated using pymatgen
data_Li4MnSiPd6
_symmetry_space_group_name_H-M   'P 1'
_cell_length_a   4.26682500
_cell_length_b   4.26682452
_cell_length_c   10.35155600
_cell_angle_alpha   90.00000000
_cell_angle_beta   90.00000000
_cell_angle_gamma   120.00001148
_symmetry_Int_Tables_number   1
_chemical_formula_structural   Li4MnSiPd6
_chemical_formula_sum   'Li4 Mn1 Si1 Pd6'
_cell_volume   163.20964890
_cell_formula_units_Z   1
loop_
 _symmetry_equiv_pos_site_id
 _symmetry_equiv_pos_as_xyz
  1  'x, y, z'
loop_
 _atom_site_type_symbol
 _atom_site_label
 _atom_site_symmetry_multiplicity
 _atom_site_fract_x
 _atom_site_fract_y
 _atom_site_fract_z
 _atom_site_occupancy
  Li  Li0  1  0.000000  0.000000  0.496122  1
  Li  Li1  1  0.333333  0.666667  0.165618  1
  Li  Li2  1  0.666667  0.333333  0.837325  1
  Li  Li3  1  0.000000  0.000000  0.997601  1
  Mn  Mn4  1  0.666667  0.333333  0.331972  1
  Si  Si5  1  0.333333  0.666667  0.671411  1
  Pd  Pd6  1  0.333333  0.666667  0.431534  1
  Pd  Pd7  1  0.666667  0.333333  0.079540  1
  Pd  Pd8  1  0.000000  0.000000  0.741148  1
  Pd  Pd9  1  0.000000  0.000000  0.246962  1
  Pd  Pd10  1  0.333333  0.666667  0.906910  1
  Pd  Pd11  1  0.666667  0.333333  0.593856  1
