# generated using pymatgen
data_Er7Th(HgAu2)4
_symmetry_space_group_name_H-M   'P 1'
_cell_length_a   7.96645800
_cell_length_b   7.96645891
_cell_length_c   7.32064000
_cell_angle_alpha   90.00000000
_cell_angle_beta   90.00000000
_cell_angle_gamma   90.32467590
_symmetry_Int_Tables_number   1
_chemical_formula_structural   Er7Th(HgAu2)4
_chemical_formula_sum   'Er7 Th1 Hg4 Au8'
_cell_volume   464.59300711
_cell_formula_units_Z   1
loop_
 _symmetry_equiv_pos_site_id
 _symmetry_equiv_pos_as_xyz
  1  'x, y, z'
loop_
 _atom_site_type_symbol
 _atom_site_label
 _atom_site_symmetry_multiplicity
 _atom_site_fract_x
 _atom_site_fract_y
 _atom_site_fract_z
 _atom_site_occupancy
  Er  Er0  1  0.162430  0.837570  0.500000  1
  Er  Er1  1  0.337564  0.342646  0.000000  1
  Er  Er2  1  0.657354  0.662436  0.000000  1
  Er  Er3  1  0.681729  0.681818  0.500000  1
  Er  Er4  1  0.318182  0.318271  0.500000  1
  Er  Er5  1  0.184782  0.815218  0.000000  1
  Er  Er6  1  0.818427  0.181573  0.000000  1
  Th  Th7  1  0.837775  0.162225  0.500000  1
  Hg  Hg8  1  0.498593  0.998619  0.251287  1
  Hg  Hg9  1  0.001381  0.501407  0.748713  1
  Hg  Hg10  1  0.498593  0.998619  0.748713  1
  Hg  Hg11  1  0.001381  0.501407  0.251287  1
  Au  Au12  1  0.625057  0.374943  0.264333  1
  Au  Au13  1  0.371618  0.628382  0.274008  1
  Au  Au14  1  0.130828  0.126600  0.776143  1
  Au  Au15  1  0.873400  0.869172  0.776143  1
  Au  Au16  1  0.371618  0.628382  0.725992  1
  Au  Au17  1  0.625057  0.374943  0.735667  1
  Au  Au18  1  0.873400  0.869172  0.223857  1
  Au  Au19  1  0.130828  0.126600  0.223857  1
