# generated using pymatgen
data_Lu3Hf3Si7Ni16
_symmetry_space_group_name_H-M   'P 1'
_cell_length_a   8.18938007
_cell_length_b   8.21271505
_cell_length_c   8.20799500
_cell_angle_alpha   59.81240182
_cell_angle_beta   60.19535309
_cell_angle_gamma   60.02488158
_symmetry_Int_Tables_number   1
_chemical_formula_structural   Lu3Hf3Si7Ni16
_chemical_formula_sum   'Lu3 Hf3 Si7 Ni16'
_cell_volume   390.44263339
_cell_formula_units_Z   1
loop_
 _symmetry_equiv_pos_site_id
 _symmetry_equiv_pos_as_xyz
  1  'x, y, z'
loop_
 _atom_site_type_symbol
 _atom_site_label
 _atom_site_symmetry_multiplicity
 _atom_site_fract_x
 _atom_site_fract_y
 _atom_site_fract_z
 _atom_site_occupancy
  Lu  Lu0  1  0.796910  0.202109  0.203051  1
  Lu  Lu1  1  0.202085  0.796911  0.797916  1
  Lu  Lu2  1  0.206407  0.206411  0.793653  1
  Hf  Hf3  1  0.793801  0.793846  0.206141  1
  Hf  Hf4  1  0.787665  0.209387  0.790638  1
  Hf  Hf5  1  0.209351  0.787684  0.212325  1
  Si  Si6  1  0.498695  0.498680  0.501282  1
  Si  Si7  1  0.501874  0.997325  0.498178  1
  Si  Si8  1  0.997332  0.501872  0.002642  1
  Si  Si9  1  0.000084  0.000130  0.499900  1
  Si  Si10  1  0.501307  0.997046  0.003002  1
  Si  Si11  1  0.997043  0.501298  0.498679  1
  Si  Si12  1  0.500051  0.500101  0.999923  1
  Ni  Ni13  1  0.167783  0.171211  0.490550  1
  Ni  Ni14  1  0.493033  0.168368  0.167863  1
  Ni  Ni15  1  0.171285  0.167777  0.170430  1
  Ni  Ni16  1  0.509535  0.829640  0.832139  1
  Ni  Ni17  1  0.829243  0.832175  0.831638  1
  Ni  Ni18  1  0.832196  0.829169  0.506926  1
  Ni  Ni19  1  0.168327  0.493053  0.170842  1
  Ni  Ni20  1  0.621171  0.142928  0.620117  1
  Ni  Ni21  1  0.384462  0.379795  0.856932  1
  Ni  Ni22  1  0.855164  0.383828  0.382726  1
  Ni  Ni23  1  0.379768  0.384253  0.378929  1
  Ni  Ni24  1  0.143089  0.621230  0.615523  1
  Ni  Ni25  1  0.621693  0.617347  0.616231  1
  Ni  Ni26  1  0.617222  0.621621  0.144818  1
  Ni  Ni27  1  0.383780  0.855272  0.378406  1
  Ni  Ni28  1  0.829641  0.509534  0.828603  1
