# generated using pymatgen
data_Ho2Co12Si6P
_symmetry_space_group_name_H-M   'P 1'
_cell_length_a   9.14515761
_cell_length_b   9.12832313
_cell_length_c   3.61919600
_cell_angle_alpha   90.00000000
_cell_angle_beta   90.00000000
_cell_angle_gamma   120.10293233
_symmetry_Int_Tables_number   1
_chemical_formula_structural   Ho2Co12Si6P
_chemical_formula_sum   'Ho2 Co12 Si6 P1'
_cell_volume   261.38071581
_cell_formula_units_Z   1
loop_
 _symmetry_equiv_pos_site_id
 _symmetry_equiv_pos_as_xyz
  1  'x, y, z'
loop_
 _atom_site_type_symbol
 _atom_site_label
 _atom_site_symmetry_multiplicity
 _atom_site_fract_x
 _atom_site_fract_y
 _atom_site_fract_z
 _atom_site_occupancy
  Ho  Ho0  1  0.664423  0.333072  0.500000  1
  Ho  Ho1  1  0.332174  0.664582  0.000000  1
  Co  Co2  1  0.126501  0.848323  0.000000  1
  Co  Co3  1  0.376004  0.433238  0.500000  1
  Co  Co4  1  0.725802  0.874901  0.000000  1
  Co  Co5  1  0.567607  0.947893  0.500000  1
  Co  Co6  1  0.227911  0.104369  0.500000  1
  Co  Co7  1  0.876959  0.768353  0.500000  1
  Co  Co8  1  0.898108  0.131292  0.500000  1
  Co  Co9  1  0.945792  0.380520  0.000000  1
  Co  Co10  1  0.619298  0.563361  0.000000  1
  Co  Co11  1  0.436271  0.057006  0.000000  1
  Co  Co12  1  0.053231  0.614469  0.500000  1
  Co  Co13  1  0.149173  0.279243  0.000000  1
  Si  Si14  1  0.001847  0.000351  0.000000  1
  Si  Si15  1  0.600002  0.708232  0.500000  1
  Si  Si16  1  0.713022  0.112322  0.000000  1
  Si  Si17  1  0.887496  0.600194  0.000000  1
  Si  Si18  1  0.396940  0.286158  0.000000  1
  Si  Si19  1  0.292704  0.891182  0.500000  1
  P  P20  1  0.108736  0.400939  0.500000  1
