# generated using pymatgen
data_Y3Th(MoN2)4
_symmetry_space_group_name_H-M   'P 1'
_cell_length_a   3.24903200
_cell_length_b   5.76953007
_cell_length_c   10.73172346
_cell_angle_alpha   89.54238020
_cell_angle_beta   90.00000000
_cell_angle_gamma   90.00000000
_symmetry_Int_Tables_number   1
_chemical_formula_structural   Y3Th(MoN2)4
_chemical_formula_sum   'Y3 Th1 Mo4 N8'
_cell_volume   201.16390170
_cell_formula_units_Z   1
loop_
 _symmetry_equiv_pos_site_id
 _symmetry_equiv_pos_as_xyz
  1  'x, y, z'
loop_
 _atom_site_type_symbol
 _atom_site_label
 _atom_site_symmetry_multiplicity
 _atom_site_fract_x
 _atom_site_fract_y
 _atom_site_fract_z
 _atom_site_occupancy
  Y  Y0  1  0.250000  0.576704  0.643332  1
  Y  Y1  1  0.750000  0.922196  0.152176  1
  Y  Y2  1  0.750000  0.420510  0.352203  1
  Th  Th3  1  0.250000  0.078718  0.853713  1
  Mo  Mo4  1  0.250000  0.438554  0.095435  1
  Mo  Mo5  1  0.250000  0.933440  0.406436  1
  Mo  Mo6  1  0.750000  0.570678  0.908004  1
  Mo  Mo7  1  0.750000  0.061543  0.586535  1
  N  N8  1  0.250000  0.163916  0.249630  1
  N  N9  1  0.250000  0.665206  0.251562  1
  N  N10  1  0.750000  0.830944  0.748372  1
  N  N11  1  0.750000  0.335018  0.748291  1
  N  N12  1  0.250000  0.756681  0.995844  1
  N  N13  1  0.250000  0.254707  0.504916  1
  N  N14  1  0.750000  0.250218  0.011478  1
  N  N15  1  0.750000  0.740967  0.492073  1
