# generated using pymatgen
data_Dy4MnB4Ir9
_symmetry_space_group_name_H-M   'P 1'
_cell_length_a   10.82014924
_cell_length_b   10.82014919
_cell_length_c   10.82015011
_cell_angle_alpha   29.56804068
_cell_angle_beta   29.56804343
_cell_angle_gamma   29.56805257
_symmetry_Int_Tables_number   1
_chemical_formula_structural   Dy4MnB4Ir9
_chemical_formula_sum   'Dy4 Mn1 B4 Ir9'
_cell_volume   273.05415502
_cell_formula_units_Z   1
loop_
 _symmetry_equiv_pos_site_id
 _symmetry_equiv_pos_as_xyz
  1  'x, y, z'
loop_
 _atom_site_type_symbol
 _atom_site_label
 _atom_site_symmetry_multiplicity
 _atom_site_fract_x
 _atom_site_fract_y
 _atom_site_fract_z
 _atom_site_occupancy
  Dy  Dy0  1  0.151190  0.151190  0.151190  1
  Dy  Dy1  1  0.949917  0.949917  0.949917  1
  Dy  Dy2  1  0.848810  0.848810  0.848810  1
  Dy  Dy3  1  0.050083  0.050083  0.050083  1
  Mn  Mn4  1  0.500000  0.500000  0.500000  1
  B  B5  1  0.616047  0.616047  0.616047  1
  B  B6  1  0.717432  0.717432  0.717432  1
  B  B7  1  0.383953  0.383953  0.383953  1
  B  B8  1  0.282568  0.282568  0.282568  1
  Ir  Ir9  1  0.403123  0.900233  0.403123  1
  Ir  Ir10  1  0.900233  0.403123  0.403123  1
  Ir  Ir11  1  0.500000  0.500000  0.000000  1
  Ir  Ir12  1  0.500000  0.000000  0.500000  1
  Ir  Ir13  1  0.000000  0.500000  0.500000  1
  Ir  Ir14  1  0.596877  0.099767  0.596877  1
  Ir  Ir15  1  0.596877  0.596877  0.099767  1
  Ir  Ir16  1  0.099767  0.596877  0.596877  1
  Ir  Ir17  1  0.403123  0.403123  0.900233  1
