# generated using pymatgen
data_Ta8GaNiTe8
_symmetry_space_group_name_H-M   'P 1'
_cell_length_a   4.84681500
_cell_length_b   11.10350900
_cell_length_c   19.46681700
_cell_angle_alpha   90.00000000
_cell_angle_beta   90.00000000
_cell_angle_gamma   90.00000000
_symmetry_Int_Tables_number   1
_chemical_formula_structural   Ta8GaNiTe8
_chemical_formula_sum   'Ta16 Ga2 Ni2 Te16'
_cell_volume   1047.63895446
_cell_formula_units_Z   2
loop_
 _symmetry_equiv_pos_site_id
 _symmetry_equiv_pos_as_xyz
  1  'x, y, z'
loop_
 _atom_site_type_symbol
 _atom_site_label
 _atom_site_symmetry_multiplicity
 _atom_site_fract_x
 _atom_site_fract_y
 _atom_site_fract_z
 _atom_site_occupancy
  Ta  Ta0  1  0.499605  0.563783  0.384666  1
  Ta  Ta1  1  0.499605  0.436217  0.615334  1
  Ta  Ta2  1  0.500395  0.063783  0.115334  1
  Ta  Ta3  1  0.500395  0.936217  0.884666  1
  Ta  Ta4  1  0.498249  0.702946  0.536358  1
  Ta  Ta5  1  0.498249  0.297054  0.463642  1
  Ta  Ta6  1  0.501751  0.202946  0.963642  1
  Ta  Ta7  1  0.501751  0.797054  0.036358  1
  Ta  Ta8  1  0.000854  0.688632  0.444107  1
  Ta  Ta9  1  0.000854  0.311368  0.555893  1
  Ta  Ta10  1  0.999146  0.188632  0.055893  1
  Ta  Ta11  1  0.999146  0.811368  0.944107  1
  Ta  Ta12  1  0.001107  0.401838  0.392751  1
  Ta  Ta13  1  0.001107  0.598162  0.607249  1
  Ta  Ta14  1  0.998893  0.901838  0.107249  1
  Ta  Ta15  1  0.998893  0.098162  0.892751  1
  Ga  Ga16  1  0.249890  0.500000  0.500000  1
  Ga  Ga17  1  0.750110  0.000000  0.000000  1
  Ni  Ni18  1  0.749642  0.500000  0.500000  1
  Ni  Ni19  1  0.250358  0.000000  0.000000  1
  Te  Te20  1  0.993226  0.842802  0.561577  1
  Te  Te21  1  0.993226  0.157198  0.438423  1
  Te  Te22  1  0.006774  0.342802  0.938423  1
  Te  Te23  1  0.006774  0.657198  0.061577  1
  Te  Te24  1  0.506892  0.334411  0.318637  1
  Te  Te25  1  0.506892  0.665589  0.681363  1
  Te  Te26  1  0.493108  0.834411  0.181363  1
  Te  Te27  1  0.493108  0.165589  0.818637  1
  Te  Te28  1  0.506585  0.818617  0.405324  1
  Te  Te29  1  0.506585  0.181383  0.594676  1
  Te  Te30  1  0.493415  0.318617  0.094676  1
  Te  Te31  1  0.493415  0.681383  0.905324  1
  Te  Te32  1  0.993473  0.607827  0.305049  1
  Te  Te33  1  0.993473  0.392173  0.694951  1
  Te  Te34  1  0.006527  0.107827  0.194951  1
  Te  Te35  1  0.006527  0.892173  0.805049  1
