# generated using pymatgen
data_K2RbCu2AgP2
_symmetry_space_group_name_H-M   'P 1'
_cell_length_a   7.63492995
_cell_length_b   7.56649331
_cell_length_c   7.63493085
_cell_angle_alpha   46.09209588
_cell_angle_beta   44.81458378
_cell_angle_gamma   46.09209675
_symmetry_Int_Tables_number   1
_chemical_formula_structural   K2RbCu2AgP2
_chemical_formula_sum   'K2 Rb1 Cu2 Ag1 P2'
_cell_volume   205.57281740
_cell_formula_units_Z   1
loop_
 _symmetry_equiv_pos_site_id
 _symmetry_equiv_pos_as_xyz
  1  'x, y, z'
loop_
 _atom_site_type_symbol
 _atom_site_label
 _atom_site_symmetry_multiplicity
 _atom_site_fract_x
 _atom_site_fract_y
 _atom_site_fract_z
 _atom_site_occupancy
  K  K0  1  0.903403  0.916266  0.903403  1
  K  K1  1  0.096597  0.083734  0.096597  1
  Rb  Rb2  1  0.500000  0.500000  0.500000  1
  Cu  Cu3  1  0.000000  0.500000  0.500000  1
  Cu  Cu4  1  0.500000  0.500000  0.000000  1
  Ag  Ag5  1  0.500000  0.000000  0.500000  1
  P  P6  1  0.242466  0.282976  0.242466  1
  P  P7  1  0.757534  0.717024  0.757534  1
