# generated using pymatgen
data_Ho12InFe4Pt
_symmetry_space_group_name_H-M   'P 1'
_cell_length_a   8.30388926
_cell_length_b   8.30388884
_cell_length_c   8.30388830
_cell_angle_alpha   110.79001433
_cell_angle_beta   110.70815383
_cell_angle_gamma   106.94466652
_symmetry_Int_Tables_number   1
_chemical_formula_structural   Ho12InFe4Pt
_chemical_formula_sum   'Ho12 In1 Fe4 Pt1'
_cell_volume   440.14130656
_cell_formula_units_Z   1
loop_
 _symmetry_equiv_pos_site_id
 _symmetry_equiv_pos_as_xyz
  1  'x, y, z'
loop_
 _atom_site_type_symbol
 _atom_site_label
 _atom_site_symmetry_multiplicity
 _atom_site_fract_x
 _atom_site_fract_y
 _atom_site_fract_z
 _atom_site_occupancy
  Ho  Ho0  1  0.313678  0.614878  0.301199  1
  Ho  Ho1  1  0.686322  0.385122  0.698801  1
  Ho  Ho2  1  0.313678  0.012477  0.698801  1
  Ho  Ho3  1  0.686322  0.987523  0.301199  1
  Ho  Ho4  1  0.185901  0.289288  0.475189  1
  Ho  Ho5  1  0.814099  0.710712  0.524811  1
  Ho  Ho6  1  0.185901  0.710712  0.896615  1
  Ho  Ho7  1  0.814099  0.289288  0.103385  1
  Ho  Ho8  1  0.414958  0.216369  0.198588  1
  Ho  Ho9  1  0.585042  0.783631  0.801412  1
  Ho  Ho10  1  0.017781  0.216369  0.801412  1
  Ho  Ho11  1  0.982219  0.783631  0.198588  1
  In  In12  1  0.500000  0.500000  0.000000  1
  Fe  Fe13  1  0.108668  0.608668  0.500000  1
  Fe  Fe14  1  0.891332  0.391332  0.500000  1
  Fe  Fe15  1  0.385074  0.000000  0.385074  1
  Fe  Fe16  1  0.614926  0.000000  0.614926  1
  Pt  Pt17  1  0.000000  0.000000  0.000000  1
