# generated using pymatgen
data_Mn20CrCoMoC6
_symmetry_space_group_name_H-M   'P 1'
_cell_length_a   7.37428599
_cell_length_b   7.37428657
_cell_length_c   7.37428700
_cell_angle_alpha   60.00000254
_cell_angle_beta   59.99999996
_cell_angle_gamma   60.00000255
_symmetry_Int_Tables_number   1
_chemical_formula_structural   Mn20CrCoMoC6
_chemical_formula_sum   'Mn20 Cr1 Co1 Mo1 C6'
_cell_volume   283.56004817
_cell_formula_units_Z   1
loop_
 _symmetry_equiv_pos_site_id
 _symmetry_equiv_pos_as_xyz
  1  'x, y, z'
loop_
 _atom_site_type_symbol
 _atom_site_label
 _atom_site_symmetry_multiplicity
 _atom_site_fract_x
 _atom_site_fract_y
 _atom_site_fract_z
 _atom_site_occupancy
  Mn  Mn0  1  0.860554  0.379816  0.379816  1
  Mn  Mn1  1  0.379816  0.860554  0.379816  1
  Mn  Mn2  1  0.379816  0.379816  0.860554  1
  Mn  Mn3  1  0.379816  0.379816  0.379816  1
  Mn  Mn4  1  0.155939  0.614686  0.614686  1
  Mn  Mn5  1  0.614686  0.155939  0.614686  1
  Mn  Mn6  1  0.614686  0.614686  0.155939  1
  Mn  Mn7  1  0.614686  0.614686  0.614686  1
  Mn  Mn8  1  0.664565  0.000418  0.000418  1
  Mn  Mn9  1  0.664565  0.000418  0.334599  1
  Mn  Mn10  1  0.664565  0.334599  0.000418  1
  Mn  Mn11  1  0.000418  0.664565  0.334599  1
  Mn  Mn12  1  0.000418  0.664565  0.000418  1
  Mn  Mn13  1  0.334599  0.664565  0.000418  1
  Mn  Mn14  1  0.000418  0.334599  0.664565  1
  Mn  Mn15  1  0.334599  0.000418  0.664565  1
  Mn  Mn16  1  0.000418  0.000418  0.664565  1
  Mn  Mn17  1  0.334599  0.000418  0.000418  1
  Mn  Mn18  1  0.000418  0.334599  0.000418  1
  Mn  Mn19  1  0.000418  0.000418  0.334599  1
  Cr  Cr20  1  0.250000  0.250000  0.250000  1
  Co  Co21  1  0.000000  0.000000  0.000000  1
  Mo  Mo22  1  0.750000  0.750000  0.750000  1
  C  C23  1  0.724682  0.275318  0.275318  1
  C  C24  1  0.724682  0.275318  0.724682  1
  C  C25  1  0.724682  0.724682  0.275318  1
  C  C26  1  0.275318  0.724682  0.724682  1
  C  C27  1  0.275318  0.724682  0.275318  1
  C  C28  1  0.275318  0.275318  0.724682  1
