# generated using pymatgen
data_Y6Cr3FeC12
_symmetry_space_group_name_H-M   'P 1'
_cell_length_a   8.12594200
_cell_length_b   8.12594219
_cell_length_c   5.00720400
_cell_angle_alpha   90.00000000
_cell_angle_beta   90.00000000
_cell_angle_gamma   119.99999108
_symmetry_Int_Tables_number   1
_chemical_formula_structural   Y6Cr3FeC12
_chemical_formula_sum   'Y6 Cr3 Fe1 C12'
_cell_volume   286.33431812
_cell_formula_units_Z   1
loop_
 _symmetry_equiv_pos_site_id
 _symmetry_equiv_pos_as_xyz
  1  'x, y, z'
loop_
 _atom_site_type_symbol
 _atom_site_label
 _atom_site_symmetry_multiplicity
 _atom_site_fract_x
 _atom_site_fract_y
 _atom_site_fract_z
 _atom_site_occupancy
  Y  Y0  1  0.624018  0.685313  0.750000  1
  Y  Y1  1  0.934331  0.618457  0.250000  1
  Y  Y2  1  0.684125  0.065669  0.250000  1
  Y  Y3  1  0.314687  0.938705  0.750000  1
  Y  Y4  1  0.061295  0.375982  0.750000  1
  Y  Y5  1  0.381543  0.315875  0.250000  1
  Cr  Cr6  1  0.000000  0.000000  0.499034  1
  Cr  Cr7  1  0.000000  0.000000  0.000966  1
  Cr  Cr8  1  0.666667  0.333333  0.750000  1
  Fe  Fe9  1  0.333333  0.666667  0.250000  1
  C  C10  1  0.963945  0.775752  0.750000  1
  C  C11  1  0.192168  0.959911  0.250000  1
  C  C12  1  0.767743  0.807832  0.250000  1
  C  C13  1  0.224248  0.188194  0.750000  1
  C  C14  1  0.811806  0.036055  0.750000  1
  C  C15  1  0.040089  0.232257  0.250000  1
  C  C16  1  0.865874  0.579697  0.750000  1
  C  C17  1  0.290697  0.865834  0.250000  1
  C  C18  1  0.575137  0.709303  0.250000  1
  C  C19  1  0.420303  0.286177  0.750000  1
  C  C20  1  0.134166  0.424863  0.250000  1
  C  C21  1  0.713823  0.134126  0.750000  1
