# generated using pymatgen
data_U5P12Ru19
_symmetry_space_group_name_H-M   'P 1'
_cell_length_a   12.61110600
_cell_length_b   12.61110586
_cell_length_c   3.91399400
_cell_angle_alpha   90.00000000
_cell_angle_beta   90.00000000
_cell_angle_gamma   120.00000038
_symmetry_Int_Tables_number   1
_chemical_formula_structural   U5P12Ru19
_chemical_formula_sum   'U5 P12 Ru19'
_cell_volume   539.08485730
_cell_formula_units_Z   1
loop_
 _symmetry_equiv_pos_site_id
 _symmetry_equiv_pos_as_xyz
  1  'x, y, z'
loop_
 _atom_site_type_symbol
 _atom_site_label
 _atom_site_symmetry_multiplicity
 _atom_site_fract_x
 _atom_site_fract_y
 _atom_site_fract_z
 _atom_site_occupancy
  U  U0  1  0.000000  0.185768  0.500000  1
  U  U1  1  0.814232  0.814232  0.500000  1
  U  U2  1  0.185768  0.000000  0.500000  1
  U  U3  1  0.666667  0.333333  0.000000  1
  U  U4  1  0.333333  0.666667  0.000000  1
  P  P5  1  0.000000  0.817884  0.000000  1
  P  P6  1  0.182116  0.182116  0.000000  1
  P  P7  1  0.817884  0.000000  0.000000  1
  P  P8  1  0.692184  0.170647  0.500000  1
  P  P9  1  0.829353  0.521537  0.500000  1
  P  P10  1  0.478463  0.307816  0.500000  1
  P  P11  1  0.170647  0.692184  0.500000  1
  P  P12  1  0.521537  0.829353  0.500000  1
  P  P13  1  0.307816  0.478463  0.500000  1
  P  P14  1  0.000000  0.371113  0.000000  1
  P  P15  1  0.628887  0.628887  0.000000  1
  P  P16  1  0.371113  0.000000  0.000000  1
  Ru  Ru17  1  0.000000  0.553911  0.000000  1
  Ru  Ru18  1  0.446089  0.446089  0.000000  1
  Ru  Ru19  1  0.553911  0.000000  0.000000  1
  Ru  Ru20  1  0.000000  0.716781  0.500000  1
  Ru  Ru21  1  0.283219  0.283219  0.500000  1
  Ru  Ru22  1  0.716781  0.000000  0.500000  1
  Ru  Ru23  1  0.808625  0.182958  0.000000  1
  Ru  Ru24  1  0.817042  0.625666  0.000000  1
  Ru  Ru25  1  0.374334  0.191375  0.000000  1
  Ru  Ru26  1  0.182958  0.808625  0.000000  1
  Ru  Ru27  1  0.625666  0.817042  0.000000  1
  Ru  Ru28  1  0.191375  0.374334  0.000000  1
  Ru  Ru29  1  0.871481  0.364763  0.500000  1
  Ru  Ru30  1  0.635237  0.506717  0.500000  1
  Ru  Ru31  1  0.493283  0.128519  0.500000  1
  Ru  Ru32  1  0.364763  0.871481  0.500000  1
  Ru  Ru33  1  0.506717  0.635237  0.500000  1
  Ru  Ru34  1  0.128519  0.493283  0.500000  1
  Ru  Ru35  1  0.000000  0.000000  0.000000  1
