# generated using pymatgen
data_Tb3Tm2(In2Pt)2
_symmetry_space_group_name_H-M   'P 1'
_cell_length_a   3.63316800
_cell_length_b   8.15362600
_cell_length_c   18.18286400
_cell_angle_alpha   90.00000000
_cell_angle_beta   90.00000000
_cell_angle_gamma   90.00000000
_symmetry_Int_Tables_number   1
_chemical_formula_structural   Tb3Tm2(In2Pt)2
_chemical_formula_sum   'Tb6 Tm4 In8 Pt4'
_cell_volume   538.63994565
_cell_formula_units_Z   2
loop_
 _symmetry_equiv_pos_site_id
 _symmetry_equiv_pos_as_xyz
  1  'x, y, z'
loop_
 _atom_site_type_symbol
 _atom_site_label
 _atom_site_symmetry_multiplicity
 _atom_site_fract_x
 _atom_site_fract_y
 _atom_site_fract_z
 _atom_site_occupancy
  Tb  Tb0  1  0.000000  0.242666  0.219297  1
  Tb  Tb1  1  0.000000  0.757334  0.780703  1
  Tb  Tb2  1  0.000000  0.257334  0.719297  1
  Tb  Tb3  1  0.000000  0.742666  0.280703  1
  Tb  Tb4  1  0.000000  0.000000  0.000000  1
  Tb  Tb5  1  0.000000  0.500000  0.500000  1
  Tm  Tm6  1  0.000000  0.116550  0.414509  1
  Tm  Tm7  1  0.000000  0.883450  0.585491  1
  Tm  Tm8  1  0.000000  0.383450  0.914509  1
  Tm  Tm9  1  0.000000  0.616550  0.085491  1
  In  In10  1  0.500000  0.420894  0.351161  1
  In  In11  1  0.500000  0.579106  0.648839  1
  In  In12  1  0.500000  0.079106  0.851161  1
  In  In13  1  0.500000  0.920894  0.148839  1
  In  In14  1  0.500000  0.296008  0.065048  1
  In  In15  1  0.500000  0.703992  0.934952  1
  In  In16  1  0.500000  0.203992  0.565048  1
  In  In17  1  0.500000  0.796008  0.434952  1
  Pt  Pt18  1  0.500000  0.026665  0.305117  1
  Pt  Pt19  1  0.500000  0.973335  0.694883  1
  Pt  Pt20  1  0.500000  0.473335  0.805117  1
  Pt  Pt21  1  0.500000  0.526665  0.194883  1
