# generated using pymatgen
data_CaHo3As6Rh7
_symmetry_space_group_name_H-M   'P 1'
_cell_length_a   7.29135447
_cell_length_b   7.29135423
_cell_length_c   7.29135410
_cell_angle_alpha   109.50274069
_cell_angle_beta   109.50274156
_cell_angle_gamma   109.50273850
_symmetry_Int_Tables_number   1
_chemical_formula_structural   CaHo3As6Rh7
_chemical_formula_sum   'Ca1 Ho3 As6 Rh7'
_cell_volume   298.05393386
_cell_formula_units_Z   1
loop_
 _symmetry_equiv_pos_site_id
 _symmetry_equiv_pos_as_xyz
  1  'x, y, z'
loop_
 _atom_site_type_symbol
 _atom_site_label
 _atom_site_symmetry_multiplicity
 _atom_site_fract_x
 _atom_site_fract_y
 _atom_site_fract_z
 _atom_site_occupancy
  Ca  Ca0  1  0.500000  0.500000  0.500000  1
  Ho  Ho1  1  0.000000  0.500000  0.000000  1
  Ho  Ho2  1  0.500000  0.000000  0.000000  1
  Ho  Ho3  1  0.000000  0.000000  0.500000  1
  As  As4  1  0.679521  0.999653  0.679521  1
  As  As5  1  0.679521  0.679521  0.999653  1
  As  As6  1  0.320479  0.320479  0.000347  1
  As  As7  1  0.999653  0.679521  0.679521  1
  As  As8  1  0.000347  0.320479  0.320479  1
  As  As9  1  0.320479  0.000347  0.320479  1
  Rh  Rh10  1  0.500000  0.752634  0.247366  1
  Rh  Rh11  1  0.752634  0.247366  0.500000  1
  Rh  Rh12  1  0.247366  0.752634  0.500000  1
  Rh  Rh13  1  0.247366  0.500000  0.752634  1
  Rh  Rh14  1  0.000000  0.000000  0.000000  1
  Rh  Rh15  1  0.500000  0.247366  0.752634  1
  Rh  Rh16  1  0.752634  0.500000  0.247366  1
