# generated using pymatgen
data_Pr6NbV(Co4P3)4
_symmetry_space_group_name_H-M   'P 1'
_cell_length_a   3.78242200
_cell_length_b   10.79827300
_cell_length_c   12.52533100
_cell_angle_alpha   90.00000000
_cell_angle_beta   90.00000000
_cell_angle_gamma   90.00000000
_symmetry_Int_Tables_number   1
_chemical_formula_structural   Pr6NbV(Co4P3)4
_chemical_formula_sum   'Pr6 Nb1 V1 Co16 P12'
_cell_volume   511.57992684
_cell_formula_units_Z   1
loop_
 _symmetry_equiv_pos_site_id
 _symmetry_equiv_pos_as_xyz
  1  'x, y, z'
loop_
 _atom_site_type_symbol
 _atom_site_label
 _atom_site_symmetry_multiplicity
 _atom_site_fract_x
 _atom_site_fract_y
 _atom_site_fract_z
 _atom_site_occupancy
  Pr  Pr0  1  0.000000  0.500000  0.522042  1
  Pr  Pr1  1  0.500000  0.000000  0.473802  1
  Pr  Pr2  1  0.500000  0.817789  0.204926  1
  Pr  Pr3  1  0.500000  0.182211  0.204926  1
  Pr  Pr4  1  0.000000  0.680309  0.794623  1
  Pr  Pr5  1  0.000000  0.319691  0.794623  1
  Nb  Nb6  1  0.000000  0.000000  0.847582  1
  V  V7  1  0.500000  0.500000  0.153348  1
  Co  Co8  1  0.500000  0.500000  0.703924  1
  Co  Co9  1  0.000000  0.000000  0.296041  1
  Co  Co10  1  0.000000  0.500000  0.989141  1
  Co  Co11  1  0.500000  0.000000  0.013620  1
  Co  Co12  1  0.500000  0.334822  0.995773  1
  Co  Co13  1  0.500000  0.665178  0.995773  1
  Co  Co14  1  0.000000  0.169837  0.008824  1
  Co  Co15  1  0.000000  0.830163  0.008824  1
  Co  Co16  1  0.500000  0.295943  0.430972  1
  Co  Co17  1  0.500000  0.704057  0.430972  1
  Co  Co18  1  0.000000  0.204770  0.567747  1
  Co  Co19  1  0.000000  0.795230  0.567747  1
  Co  Co20  1  0.500000  0.880354  0.705481  1
  Co  Co21  1  0.500000  0.119646  0.705481  1
  Co  Co22  1  0.000000  0.618284  0.291081  1
  Co  Co23  1  0.000000  0.381716  0.291081  1
  P  P24  1  0.500000  0.500000  0.888079  1
  P  P25  1  0.000000  0.000000  0.113311  1
  P  P26  1  0.500000  0.500000  0.340465  1
  P  P27  1  0.000000  0.000000  0.650398  1
  P  P28  1  0.500000  0.306023  0.612951  1
  P  P29  1  0.500000  0.693977  0.612951  1
  P  P30  1  0.000000  0.195732  0.385462  1
  P  P31  1  0.000000  0.804268  0.385462  1
  P  P32  1  0.500000  0.842307  0.899527  1
  P  P33  1  0.500000  0.157693  0.899527  1
  P  P34  1  0.000000  0.650016  0.106757  1
  P  P35  1  0.000000  0.349984  0.106757  1
