# generated using pymatgen
data_MnSbOsF12
_symmetry_space_group_name_H-M   'P 1'
_cell_length_a   5.35578971
_cell_length_b   5.66275380
_cell_length_c   9.24741697
_cell_angle_alpha   73.70031591
_cell_angle_beta   88.55122920
_cell_angle_gamma   62.32286857
_symmetry_Int_Tables_number   1
_chemical_formula_structural   MnSbOsF12
_chemical_formula_sum   'Mn1 Sb1 Os1 F12'
_cell_volume   236.55842463
_cell_formula_units_Z   1
loop_
 _symmetry_equiv_pos_site_id
 _symmetry_equiv_pos_as_xyz
  1  'x, y, z'
loop_
 _atom_site_type_symbol
 _atom_site_label
 _atom_site_symmetry_multiplicity
 _atom_site_fract_x
 _atom_site_fract_y
 _atom_site_fract_z
 _atom_site_occupancy
  Mn  Mn0  1  0.501890  0.499744  0.500470  1
  Sb  Sb1  1  0.226849  0.995455  0.759553  1
  Os  Os2  1  0.772568  0.000859  0.245468  1
  F  F3  1  0.945388  0.230001  0.200677  1
  F  F4  1  0.052257  0.764804  0.794024  1
  F  F5  1  0.013183  0.766404  0.137934  1
  F  F6  1  0.463086  0.779476  0.627961  1
  F  F7  1  0.531305  0.230372  0.370702  1
  F  F8  1  0.950718  0.238187  0.573859  1
  F  F9  1  0.056861  0.759881  0.427739  1
  F  F10  1  0.403101  0.236730  0.684736  1
  F  F11  1  0.594853  0.757603  0.312809  1
  F  F12  1  0.515993  0.774927  0.924274  1
  F  F13  1  0.493198  0.222696  0.078700  1
  F  F14  1  0.978751  0.242862  0.861094  1
