# generated using pymatgen
data_Lu2GaTc2Ru
_symmetry_space_group_name_H-M   'P 1'
_cell_length_a   5.28711212
_cell_length_b   5.30825949
_cell_length_c   8.84093700
_cell_angle_alpha   90.00000000
_cell_angle_beta   90.00000000
_cell_angle_gamma   120.13238494
_symmetry_Int_Tables_number   1
_chemical_formula_structural   Lu2GaTc2Ru
_chemical_formula_sum   'Lu4 Ga2 Tc4 Ru2'
_cell_volume   214.59455445
_cell_formula_units_Z   2
loop_
 _symmetry_equiv_pos_site_id
 _symmetry_equiv_pos_as_xyz
  1  'x, y, z'
loop_
 _atom_site_type_symbol
 _atom_site_label
 _atom_site_symmetry_multiplicity
 _atom_site_fract_x
 _atom_site_fract_y
 _atom_site_fract_z
 _atom_site_occupancy
  Lu  Lu0  1  0.332891  0.666446  0.435139  1
  Lu  Lu1  1  0.657131  0.328565  0.557297  1
  Lu  Lu2  1  0.657131  0.328565  0.942703  1
  Lu  Lu3  1  0.332891  0.666446  0.064861  1
  Ga  Ga4  1  0.181627  0.346223  0.750000  1
  Ga  Ga5  1  0.181627  0.835406  0.750000  1
  Tc  Tc6  1  0.348427  0.174213  0.250000  1
  Tc  Tc7  1  0.833373  0.662636  0.250000  1
  Tc  Tc8  1  0.678214  0.839107  0.750000  1
  Tc  Tc9  1  0.833373  0.170736  0.250000  1
  Ru  Ru10  1  0.981658  0.990829  0.995386  1
  Ru  Ru11  1  0.981658  0.990829  0.504614  1
