# generated using pymatgen
data_Dy2Sc6Ti3Si16Mo9
_symmetry_space_group_name_H-M   'P 1'
_cell_length_a   6.80240987
_cell_length_b   6.80283127
_cell_length_c   12.56799058
_cell_angle_alpha   89.90716613
_cell_angle_beta   89.90587643
_cell_angle_gamma   89.71803740
_symmetry_Int_Tables_number   1
_chemical_formula_structural   Dy2Sc6Ti3Si16Mo9
_chemical_formula_sum   'Dy2 Sc6 Ti3 Si16 Mo9'
_cell_volume   581.58330741
_cell_formula_units_Z   1
loop_
 _symmetry_equiv_pos_site_id
 _symmetry_equiv_pos_as_xyz
  1  'x, y, z'
loop_
 _atom_site_type_symbol
 _atom_site_label
 _atom_site_symmetry_multiplicity
 _atom_site_fract_x
 _atom_site_fract_y
 _atom_site_fract_z
 _atom_site_occupancy
  Dy  Dy0  1  0.498389  0.835850  0.718588  1
  Dy  Dy1  1  0.338634  0.002959  0.468574  1
  Sc  Sc2  1  0.999361  0.659589  0.031297  1
  Sc  Sc3  1  0.995620  0.343255  0.530567  1
  Sc  Sc4  1  0.660063  0.999761  0.969620  1
  Sc  Sc5  1  0.158702  0.499742  0.781920  1
  Sc  Sc6  1  0.838797  0.503204  0.280660  1
  Sc  Sc7  1  0.501397  0.159972  0.219107  1
  Ti  Ti8  1  0.830444  0.168890  0.750295  1
  Ti  Ti9  1  0.167801  0.829872  0.250157  1
  Ti  Ti10  1  0.331456  0.331590  0.000958  1
  Si  Si11  1  0.033700  0.704167  0.436855  1
  Si  Si12  1  0.959182  0.296933  0.936939  1
  Si  Si13  1  0.715414  0.039133  0.561160  1
  Si  Si14  1  0.201730  0.461890  0.184937  1
  Si  Si15  1  0.798581  0.539652  0.685265  1
  Si  Si16  1  0.460480  0.208149  0.815892  1
  Si  Si17  1  0.544024  0.791742  0.312744  1
  Si  Si18  1  0.296955  0.960008  0.064394  1
  Si  Si19  1  0.797276  0.865394  0.178778  1
  Si  Si20  1  0.296286  0.622122  0.567234  1
  Si  Si21  1  0.703041  0.365434  0.070453  1
  Si  Si22  1  0.634973  0.303769  0.429933  1
  Si  Si23  1  0.364608  0.701650  0.932444  1
  Si  Si24  1  0.128733  0.208197  0.315690  1
  Si  Si25  1  0.200276  0.138387  0.683175  1
  Si  Si26  1  0.870714  0.796568  0.822010  1
  Mo  Mo27  1  0.334993  0.501508  0.374216  1
  Mo  Mo28  1  0.845558  0.999526  0.370690  1
  Mo  Mo29  1  0.004314  0.156125  0.125274  1
  Mo  Mo30  1  0.001095  0.843587  0.628847  1
  Mo  Mo31  1  0.506095  0.336077  0.625416  1
  Mo  Mo32  1  0.155956  0.007413  0.875876  1
  Mo  Mo33  1  0.670931  0.666578  0.498679  1
  Mo  Mo34  1  0.495807  0.655385  0.123820  1
  Mo  Mo35  1  0.658612  0.495926  0.877536  1
