# generated using pymatgen
data_LiY4Sc3(B6Ir)4
_symmetry_space_group_name_H-M   'P 1'
_cell_length_a   3.55026500
_cell_length_b   8.97227220
_cell_length_c   11.35457602
_cell_angle_alpha   90.07884888
_cell_angle_beta   90.00000000
_cell_angle_gamma   90.00000000
_symmetry_Int_Tables_number   1
_chemical_formula_structural   LiY4Sc3(B6Ir)4
_chemical_formula_sum   'Li1 Y4 Sc3 B24 Ir4'
_cell_volume   361.68768553
_cell_formula_units_Z   1
loop_
 _symmetry_equiv_pos_site_id
 _symmetry_equiv_pos_as_xyz
  1  'x, y, z'
loop_
 _atom_site_type_symbol
 _atom_site_label
 _atom_site_symmetry_multiplicity
 _atom_site_fract_x
 _atom_site_fract_y
 _atom_site_fract_z
 _atom_site_occupancy
  Li  Li0  1  0.500000  0.446720  0.121551  1
  Y  Y1  1  0.500000  0.320008  0.412154  1
  Y  Y2  1  0.500000  0.680475  0.585589  1
  Y  Y3  1  0.500000  0.182767  0.915768  1
  Y  Y4  1  0.500000  0.816795  0.086631  1
  Sc  Sc5  1  0.500000  0.553474  0.880427  1
  Sc  Sc6  1  0.500000  0.055467  0.623773  1
  Sc  Sc7  1  0.500000  0.944747  0.374957  1
  B  B8  1  0.000000  0.100666  0.472611  1
  B  B9  1  0.000000  0.899474  0.526791  1
  B  B10  1  0.000000  0.400979  0.974513  1
  B  B11  1  0.000000  0.597965  0.027722  1
  B  B12  1  0.000000  0.129524  0.316811  1
  B  B13  1  0.000000  0.870915  0.681781  1
  B  B14  1  0.000000  0.370514  0.821038  1
  B  B15  1  0.000000  0.625716  0.180697  1
  B  B16  1  0.000000  0.056138  0.067144  1
  B  B17  1  0.000000  0.944391  0.934769  1
  B  B18  1  0.000000  0.444375  0.565432  1
  B  B19  1  0.000000  0.555362  0.432199  1
  B  B20  1  0.000000  0.481500  0.282775  1
  B  B21  1  0.000000  0.517921  0.716234  1
  B  B22  1  0.000000  0.019083  0.784930  1
  B  B23  1  0.000000  0.981750  0.214435  1
  B  B24  1  0.000000  0.257824  0.081624  1
  B  B25  1  0.000000  0.744526  0.921904  1
  B  B26  1  0.000000  0.246406  0.579407  1
  B  B27  1  0.000000  0.753857  0.418865  1
  B  B28  1  0.000000  0.296299  0.233271  1
  B  B29  1  0.000000  0.704552  0.766265  1
  B  B30  1  0.000000  0.205830  0.735996  1
  B  B31  1  0.000000  0.792781  0.264715  1
  Ir  Ir32  1  0.500000  0.142073  0.182042  1
  Ir  Ir33  1  0.500000  0.859567  0.817531  1
  Ir  Ir34  1  0.500000  0.360059  0.679708  1
  Ir  Ir35  1  0.500000  0.639500  0.317934  1
