# generated using pymatgen
data_Sr4LuSc(RhO6)2
_symmetry_space_group_name_H-M   'P 1'
_cell_length_a   5.72697914
_cell_length_b   5.74116655
_cell_length_c   9.94305529
_cell_angle_alpha   54.50254765
_cell_angle_beta   90.02107740
_cell_angle_gamma   90.00054368
_symmetry_Int_Tables_number   1
_chemical_formula_structural   Sr4LuSc(RhO6)2
_chemical_formula_sum   'Sr4 Lu1 Sc1 Rh2 O12'
_cell_volume   266.16157965
_cell_formula_units_Z   1
loop_
 _symmetry_equiv_pos_site_id
 _symmetry_equiv_pos_as_xyz
  1  'x, y, z'
loop_
 _atom_site_type_symbol
 _atom_site_label
 _atom_site_symmetry_multiplicity
 _atom_site_fract_x
 _atom_site_fract_y
 _atom_site_fract_z
 _atom_site_occupancy
  Sr  Sr0  1  0.479299  0.748809  0.255768  1
  Sr  Sr1  1  0.520701  0.251191  0.744232  1
  Sr  Sr2  1  0.977452  0.241042  0.254261  1
  Sr  Sr3  1  0.022548  0.758958  0.745739  1
  Lu  Lu4  1  0.000000  0.000000  0.000000  1
  Sc  Sc5  1  0.500000  0.000000  0.500000  1
  Rh  Rh6  1  0.000000  0.500000  0.500000  1
  Rh  Rh7  1  0.500000  0.500000  0.000000  1
  O  O8  1  0.711384  0.200811  0.032710  1
  O  O9  1  0.288616  0.799189  0.967290  1
  O  O10  1  0.221239  0.796358  0.469930  1
  O  O11  1  0.778761  0.203642  0.530070  1
  O  O12  1  0.008118  0.678147  0.261439  1
  O  O13  1  0.991882  0.321853  0.738561  1
  O  O14  1  0.508484  0.315976  0.243326  1
  O  O15  1  0.491516  0.684024  0.756674  1
  O  O16  1  0.231734  0.257737  0.032691  1
  O  O17  1  0.768266  0.742263  0.967309  1
  O  O18  1  0.732296  0.750318  0.469415  1
  O  O19  1  0.267704  0.249682  0.530585  1
