# generated using pymatgen
data_Lu12Tc3Se
_symmetry_space_group_name_H-M   'P 1'
_cell_length_a   7.36566651
_cell_length_b   8.92316000
_cell_length_c   6.18552226
_cell_angle_alpha   90.00000000
_cell_angle_beta   90.33017656
_cell_angle_gamma   90.00000000
_symmetry_Int_Tables_number   1
_chemical_formula_structural   Lu12Tc3Se
_chemical_formula_sum   'Lu12 Tc3 Se1'
_cell_volume   406.53682822
_cell_formula_units_Z   1
loop_
 _symmetry_equiv_pos_site_id
 _symmetry_equiv_pos_as_xyz
  1  'x, y, z'
loop_
 _atom_site_type_symbol
 _atom_site_label
 _atom_site_symmetry_multiplicity
 _atom_site_fract_x
 _atom_site_fract_y
 _atom_site_fract_z
 _atom_site_occupancy
  Lu  Lu0  1  0.663670  0.055156  0.351673  1
  Lu  Lu1  1  0.191602  0.442601  0.160272  1
  Lu  Lu2  1  0.322846  0.564098  0.663471  1
  Lu  Lu3  1  0.822513  0.931905  0.827073  1
  Lu  Lu4  1  0.322846  0.935902  0.663471  1
  Lu  Lu5  1  0.822513  0.568095  0.827073  1
  Lu  Lu6  1  0.663670  0.444844  0.351673  1
  Lu  Lu7  1  0.191602  0.057399  0.160272  1
  Lu  Lu8  1  0.520538  0.250000  0.871304  1
  Lu  Lu9  1  0.050813  0.250000  0.628985  1
  Lu  Lu10  1  0.468393  0.750000  0.114237  1
  Lu  Lu11  1  0.960965  0.750000  0.365850  1
  Tc  Tc12  1  0.381643  0.250000  0.454038  1
  Tc  Tc13  1  0.118767  0.750000  0.961382  1
  Tc  Tc14  1  0.619584  0.750000  0.532403  1
  Se  Se15  1  0.878036  0.250000  0.066824  1
