# generated using pymatgen
data_Pr2Ga3GeIr4
_symmetry_space_group_name_H-M   'P 1'
_cell_length_a   4.28320900
_cell_length_b   4.28320900
_cell_length_c   10.33291700
_cell_angle_alpha   90.00000000
_cell_angle_beta   90.00000000
_cell_angle_gamma   90.00000000
_symmetry_Int_Tables_number   1
_chemical_formula_structural   Pr2Ga3GeIr4
_chemical_formula_sum   'Pr2 Ga3 Ge1 Ir4'
_cell_volume   189.56644849
_cell_formula_units_Z   1
loop_
 _symmetry_equiv_pos_site_id
 _symmetry_equiv_pos_as_xyz
  1  'x, y, z'
loop_
 _atom_site_type_symbol
 _atom_site_label
 _atom_site_symmetry_multiplicity
 _atom_site_fract_x
 _atom_site_fract_y
 _atom_site_fract_z
 _atom_site_occupancy
  Pr  Pr0  1  0.000000  0.500000  0.245573  1
  Pr  Pr1  1  0.500000  0.000000  0.752046  1
  Ga  Ga2  1  0.000000  0.500000  0.872683  1
  Ga  Ga3  1  0.000000  0.000000  0.499249  1
  Ga  Ga4  1  0.500000  0.500000  0.499249  1
  Ge  Ge5  1  0.500000  0.000000  0.127117  1
  Ir  Ir6  1  0.000000  0.500000  0.630279  1
  Ir  Ir7  1  0.500000  0.000000  0.366712  1
  Ir  Ir8  1  0.000000  0.000000  0.003546  1
  Ir  Ir9  1  0.500000  0.500000  0.003546  1
