# generated using pymatgen
data_NdAl5Cu6
_symmetry_space_group_name_H-M   'P 1'
_cell_length_a   10.38707147
_cell_length_b   8.21232592
_cell_length_c   7.90106145
_cell_angle_alpha   80.24957010
_cell_angle_beta   51.18818228
_cell_angle_gamma   48.56224319
_symmetry_Int_Tables_number   1
_chemical_formula_structural   NdAl5Cu6
_chemical_formula_sum   'Nd2 Al10 Cu12'
_cell_volume   357.26763835
_cell_formula_units_Z   2
loop_
 _symmetry_equiv_pos_site_id
 _symmetry_equiv_pos_as_xyz
  1  'x, y, z'
loop_
 _atom_site_type_symbol
 _atom_site_label
 _atom_site_symmetry_multiplicity
 _atom_site_fract_x
 _atom_site_fract_y
 _atom_site_fract_z
 _atom_site_occupancy
  Nd  Nd0  1  0.000000  0.000000  0.000000  1
  Nd  Nd1  1  0.250000  0.250000  0.250000  1
  Al  Al2  1  0.500000  0.500000  0.500000  1
  Al  Al3  1  0.750000  0.750000  0.750000  1
  Al  Al4  1  0.756635  0.069944  0.832276  1
  Al  Al5  1  0.832276  0.341145  0.756635  1
  Al  Al6  1  0.069944  0.756635  0.341145  1
  Al  Al7  1  0.341145  0.832276  0.069944  1
  Al  Al8  1  0.493365  0.180056  0.417724  1
  Al  Al9  1  0.417724  0.908855  0.493365  1
  Al  Al10  1  0.180056  0.493365  0.908855  1
  Al  Al11  1  0.908855  0.417724  0.180056  1
  Cu  Cu12  1  0.625000  0.125000  0.625000  1
  Cu  Cu13  1  0.625000  0.625000  0.625000  1
  Cu  Cu14  1  0.125000  0.625000  0.625000  1
  Cu  Cu15  1  0.625000  0.625000  0.125000  1
  Cu  Cu16  1  0.488998  0.436495  0.183932  1
  Cu  Cu17  1  0.183932  0.890575  0.488998  1
  Cu  Cu18  1  0.436495  0.488998  0.890575  1
  Cu  Cu19  1  0.890575  0.183932  0.436495  1
  Cu  Cu20  1  0.761002  0.813505  0.066068  1
  Cu  Cu21  1  0.066068  0.359425  0.761002  1
  Cu  Cu22  1  0.813505  0.761002  0.359425  1
  Cu  Cu23  1  0.359425  0.066068  0.813505  1
