# generated using pymatgen
data_Er8InHgPd2
_symmetry_space_group_name_H-M   'P 1'
_cell_length_a   9.59328497
_cell_length_b   9.59454268
_cell_length_c   9.59719102
_cell_angle_alpha   59.99276223
_cell_angle_beta   59.99315167
_cell_angle_gamma   59.95580046
_symmetry_Int_Tables_number   1
_chemical_formula_structural   Er8InHgPd2
_chemical_formula_sum   'Er16 In2 Hg2 Pd4'
_cell_volume   624.35166514
_cell_formula_units_Z   2
loop_
 _symmetry_equiv_pos_site_id
 _symmetry_equiv_pos_as_xyz
  1  'x, y, z'
loop_
 _atom_site_type_symbol
 _atom_site_label
 _atom_site_symmetry_multiplicity
 _atom_site_fract_x
 _atom_site_fract_y
 _atom_site_fract_z
 _atom_site_occupancy
  Er  Er0  1  0.354928  0.354852  0.351667  1
  Er  Er1  1  0.354858  0.354905  0.938545  1
  Er  Er2  1  0.359274  0.929543  0.355595  1
  Er  Er3  1  0.929479  0.359343  0.355641  1
  Er  Er4  1  0.811204  0.188732  0.189417  1
  Er  Er5  1  0.188738  0.811186  0.810671  1
  Er  Er6  1  0.188718  0.811279  0.189389  1
  Er  Er7  1  0.811170  0.188778  0.810568  1
  Er  Er8  1  0.189485  0.189415  0.810590  1
  Er  Er9  1  0.811476  0.811456  0.188567  1
  Er  Er10  1  0.933590  0.564068  0.565344  1
  Er  Er11  1  0.563944  0.933601  0.937031  1
  Er  Er12  1  0.564064  0.933485  0.565329  1
  Er  Er13  1  0.933756  0.563973  0.937012  1
  Er  Er14  1  0.565275  0.565342  0.934670  1
  Er  Er15  1  0.935597  0.935563  0.564396  1
  In  In16  1  0.581410  0.251979  0.583312  1
  In  In17  1  0.251972  0.581427  0.583295  1
  Hg  Hg18  1  0.586303  0.586319  0.589664  1
  Hg  Hg19  1  0.586293  0.586324  0.237738  1
  Pd  Pd20  1  0.144712  0.144731  0.148158  1
  Pd  Pd21  1  0.144726  0.144685  0.562414  1
  Pd  Pd22  1  0.142946  0.566072  0.145483  1
  Pd  Pd23  1  0.566078  0.142938  0.145499  1
