# generated using pymatgen
data_Er3TmPd2(PtO7)2
_symmetry_space_group_name_H-M   'P 1'
_cell_length_a   7.22969184
_cell_length_b   7.22231328
_cell_length_c   7.22087806
_cell_angle_alpha   59.89504771
_cell_angle_beta   59.95961379
_cell_angle_gamma   59.96620873
_symmetry_Int_Tables_number   1
_chemical_formula_structural   Er3TmPd2(PtO7)2
_chemical_formula_sum   'Er3 Tm1 Pd2 Pt2 O14'
_cell_volume   266.24542700
_cell_formula_units_Z   1
loop_
 _symmetry_equiv_pos_site_id
 _symmetry_equiv_pos_as_xyz
  1  'x, y, z'
loop_
 _atom_site_type_symbol
 _atom_site_label
 _atom_site_symmetry_multiplicity
 _atom_site_fract_x
 _atom_site_fract_y
 _atom_site_fract_z
 _atom_site_occupancy
  Er  Er0  1  0.625000  0.625000  0.625000  1
  Er  Er1  1  0.625000  0.125000  0.625000  1
  Er  Er2  1  0.125000  0.625000  0.625000  1
  Tm  Tm3  1  0.625000  0.625000  0.125000  1
  Pd  Pd4  1  0.125000  0.125000  0.125000  1
  Pd  Pd5  1  0.625000  0.125000  0.125000  1
  Pt  Pt6  1  0.125000  0.625000  0.125000  1
  Pt  Pt7  1  0.125000  0.125000  0.625000  1
  O  O8  1  0.032105  0.467889  0.467901  1
  O  O9  1  0.783612  0.781304  0.217130  1
  O  O10  1  0.782791  0.217732  0.216687  1
  O  O11  1  0.466179  0.032564  0.468463  1
  O  O12  1  0.032795  0.032564  0.468463  1
  O  O13  1  0.032048  0.468696  0.032870  1
  O  O14  1  0.749636  0.749346  0.751381  1
  O  O15  1  0.500364  0.500654  0.498619  1
  O  O16  1  0.783821  0.217436  0.781537  1
  O  O17  1  0.217952  0.781304  0.217130  1
  O  O18  1  0.217205  0.217436  0.781537  1
  O  O19  1  0.467209  0.032268  0.033313  1
  O  O20  1  0.466388  0.468696  0.032870  1
  O  O21  1  0.217895  0.782111  0.782099  1
