# generated using pymatgen
data_CeNdPa4(Ni3Bi4)2
_symmetry_space_group_name_H-M   'P 1'
_cell_length_a   8.38541465
_cell_length_b   8.38541417
_cell_length_c   8.38541350
_cell_angle_alpha   109.98101512
_cell_angle_beta   109.21692795
_cell_angle_gamma   109.21693324
_symmetry_Int_Tables_number   1
_chemical_formula_structural   CeNdPa4(Ni3Bi4)2
_chemical_formula_sum   'Ce1 Nd1 Pa4 Ni6 Bi8'
_cell_volume   453.86406109
_cell_formula_units_Z   1
loop_
 _symmetry_equiv_pos_site_id
 _symmetry_equiv_pos_as_xyz
  1  'x, y, z'
loop_
 _atom_site_type_symbol
 _atom_site_label
 _atom_site_symmetry_multiplicity
 _atom_site_fract_x
 _atom_site_fract_y
 _atom_site_fract_z
 _atom_site_occupancy
  Ce  Ce0  1  0.250000  0.125000  0.875000  1
  Nd  Nd1  1  0.750000  0.375000  0.625000  1
  Pa  Pa2  1  0.127509  0.877097  0.249762  1
  Pa  Pa3  1  0.372491  0.622253  0.749588  1
  Pa  Pa4  1  0.872664  0.250412  0.122903  1
  Pa  Pa5  1  0.627336  0.750238  0.377747  1
  Ni  Ni6  1  0.629088  0.379745  0.246957  1
  Ni  Ni7  1  0.870912  0.117869  0.750656  1
  Ni  Ni8  1  0.367212  0.249344  0.620255  1
  Ni  Ni9  1  0.132788  0.753043  0.882131  1
  Ni  Ni10  1  0.250000  0.625000  0.375000  1
  Ni  Ni11  1  0.750000  0.875000  0.125000  1
  Bi  Bi12  1  0.333716  0.333763  0.332493  1
  Bi  Bi13  1  0.166284  0.498777  0.000046  1
  Bi  Bi14  1  0.998668  0.165910  0.499225  1
  Bi  Bi15  1  0.833316  0.832760  0.834090  1
  Bi  Bi16  1  0.501332  0.000556  0.167240  1
  Bi  Bi17  1  0.666684  0.500775  0.999444  1
  Bi  Bi18  1  0.498729  0.999954  0.666237  1
  Bi  Bi19  1  0.001271  0.667507  0.501223  1
