# generated using pymatgen
data_DyLu19(AlBi5)2
_symmetry_space_group_name_H-M   'P 1'
_cell_length_a   8.07746581
_cell_length_b   9.34983400
_cell_length_c   11.76828500
_cell_angle_alpha   90.00000000
_cell_angle_beta   90.02571316
_cell_angle_gamma   90.00000000
_symmetry_Int_Tables_number   1
_chemical_formula_structural   DyLu19(AlBi5)2
_chemical_formula_sum   'Dy1 Lu19 Al2 Bi10'
_cell_volume   888.77568073
_cell_formula_units_Z   1
loop_
 _symmetry_equiv_pos_site_id
 _symmetry_equiv_pos_as_xyz
  1  'x, y, z'
loop_
 _atom_site_type_symbol
 _atom_site_label
 _atom_site_symmetry_multiplicity
 _atom_site_fract_x
 _atom_site_fract_y
 _atom_site_fract_z
 _atom_site_occupancy
  Dy  Dy0  1  0.809583  0.250000  0.281751  1
  Lu  Lu1  1  0.353185  0.750000  0.206612  1
  Lu  Lu2  1  0.853095  0.750000  0.293028  1
  Lu  Lu3  1  0.653307  0.250000  0.780927  1
  Lu  Lu4  1  0.153221  0.250000  0.719360  1
  Lu  Lu5  1  0.686395  0.573038  0.056367  1
  Lu  Lu6  1  0.185575  0.927066  0.443531  1
  Lu  Lu7  1  0.307013  0.052743  0.941253  1
  Lu  Lu8  1  0.807141  0.447227  0.558818  1
  Lu  Lu9  1  0.307013  0.447257  0.941253  1
  Lu  Lu10  1  0.807141  0.052773  0.558818  1
  Lu  Lu11  1  0.686395  0.926962  0.056367  1
  Lu  Lu12  1  0.185575  0.572934  0.443531  1
  Lu  Lu13  1  0.479091  0.250000  0.491104  1
  Lu  Lu14  1  0.979776  0.250000  0.009079  1
  Lu  Lu15  1  0.535584  0.750000  0.509369  1
  Lu  Lu16  1  0.035814  0.750000  0.990799  1
  Lu  Lu17  1  0.309139  0.250000  0.217506  1
  Lu  Lu18  1  0.683423  0.750000  0.784493  1
  Lu  Lu19  1  0.183669  0.750000  0.715529  1
  Al  Al20  1  0.408465  0.750000  0.956914  1
  Al  Al21  1  0.908406  0.750000  0.543334  1
  Bi  Bi22  1  0.594773  0.250000  0.040944  1
  Bi  Bi23  1  0.096986  0.250000  0.459511  1
  Bi  Bi24  1  0.558383  0.996431  0.323879  1
  Bi  Bi25  1  0.061467  0.503264  0.175894  1
  Bi  Bi26  1  0.437706  0.498212  0.677233  1
  Bi  Bi27  1  0.937560  0.001813  0.822892  1
  Bi  Bi28  1  0.437706  0.001788  0.677233  1
  Bi  Bi29  1  0.937560  0.498187  0.822892  1
  Bi  Bi30  1  0.558383  0.503569  0.323879  1
  Bi  Bi31  1  0.061467  0.996736  0.175894  1
