# generated using pymatgen
data_Li4CdIn3
_symmetry_space_group_name_H-M   'P 1'
_cell_length_a   8.36750172
_cell_length_b   8.36750303
_cell_length_c   8.36750384
_cell_angle_alpha   33.37793466
_cell_angle_beta   33.37791858
_cell_angle_gamma   33.37793146
_symmetry_Int_Tables_number   1
_chemical_formula_structural   Li4CdIn3
_chemical_formula_sum   'Li4 Cd1 In3'
_cell_volume   157.89898365
_cell_formula_units_Z   1
loop_
 _symmetry_equiv_pos_site_id
 _symmetry_equiv_pos_as_xyz
  1  'x, y, z'
loop_
 _atom_site_type_symbol
 _atom_site_label
 _atom_site_symmetry_multiplicity
 _atom_site_fract_x
 _atom_site_fract_y
 _atom_site_fract_z
 _atom_site_occupancy
  Li  Li0  1  0.125081  0.125081  0.125081  1
  Li  Li1  1  0.626627  0.626627  0.626627  1
  Li  Li2  1  0.001216  0.001216  0.001216  1
  Li  Li3  1  0.497210  0.497210  0.497210  1
  Cd  Cd4  1  0.374964  0.374964  0.374964  1
  In  In5  1  0.872478  0.872478  0.872478  1
  In  In6  1  0.748772  0.748772  0.748772  1
  In  In7  1  0.253654  0.253654  0.253654  1
