# generated using pymatgen
data_DyTm5Al24(Os3Au)2
_symmetry_space_group_name_H-M   'P 1'
_cell_length_a   8.86180913
_cell_length_b   8.85845521
_cell_length_c   9.50988400
_cell_angle_alpha   90.00000000
_cell_angle_beta   90.00000000
_cell_angle_gamma   119.64666523
_symmetry_Int_Tables_number   1
_chemical_formula_structural   DyTm5Al24(Os3Au)2
_chemical_formula_sum   'Dy1 Tm5 Al24 Os6 Au2'
_cell_volume   648.81596776
_cell_formula_units_Z   1
loop_
 _symmetry_equiv_pos_site_id
 _symmetry_equiv_pos_as_xyz
  1  'x, y, z'
loop_
 _atom_site_type_symbol
 _atom_site_label
 _atom_site_symmetry_multiplicity
 _atom_site_fract_x
 _atom_site_fract_y
 _atom_site_fract_z
 _atom_site_occupancy
  Dy  Dy0  1  0.184795  0.383817  0.250000  1
  Tm  Tm1  1  0.815063  0.612900  0.750000  1
  Tm  Tm2  1  0.612634  0.815792  0.250000  1
  Tm  Tm3  1  0.387009  0.184899  0.750000  1
  Tm  Tm4  1  0.194407  0.806514  0.250000  1
  Tm  Tm5  1  0.805878  0.194660  0.750000  1
  Al  Al6  1  0.328689  0.671173  0.027472  1
  Al  Al7  1  0.670813  0.329125  0.971713  1
  Al  Al8  1  0.670813  0.329125  0.528287  1
  Al  Al9  1  0.328689  0.671173  0.472528  1
  Al  Al10  1  0.151183  0.321958  0.579006  1
  Al  Al11  1  0.848981  0.678147  0.421946  1
  Al  Al12  1  0.678331  0.848871  0.578482  1
  Al  Al13  1  0.848981  0.678147  0.078054  1
  Al  Al14  1  0.322083  0.150820  0.421828  1
  Al  Al15  1  0.151183  0.321958  0.920994  1
  Al  Al16  1  0.164328  0.835869  0.575976  1
  Al  Al17  1  0.322083  0.150820  0.078172  1
  Al  Al18  1  0.835322  0.164395  0.423623  1
  Al  Al19  1  0.678331  0.848871  0.921518  1
  Al  Al20  1  0.835322  0.164395  0.076377  1
  Al  Al21  1  0.164328  0.835869  0.924024  1
  Al  Al22  1  0.560183  0.122820  0.250000  1
  Al  Al23  1  0.440869  0.878138  0.750000  1
  Al  Al24  1  0.877655  0.440423  0.250000  1
  Al  Al25  1  0.122183  0.559645  0.750000  1
  Al  Al26  1  0.566276  0.435142  0.250000  1
  Al  Al27  1  0.435209  0.565176  0.750000  1
  Al  Al28  1  0.996010  0.000101  0.250000  1
  Al  Al29  1  0.002310  0.997640  0.750000  1
  Os  Os30  1  0.500190  0.000151  0.999611  1
  Os  Os31  1  0.999522  0.500239  0.998977  1
  Os  Os32  1  0.500190  0.000151  0.500389  1
  Os  Os33  1  0.999522  0.500239  0.501023  1
  Os  Os34  1  0.000105  0.000309  0.999705  1
  Os  Os35  1  0.000105  0.000309  0.500295  1
  Au  Au36  1  0.500213  0.500109  0.999938  1
  Au  Au37  1  0.500213  0.500109  0.500062  1
