# generated using pymatgen
data_Ce5Tc2Ge
_symmetry_space_group_name_H-M   'P 1'
_cell_length_a   7.74863896
_cell_length_b   7.74863872
_cell_length_c   8.40272378
_cell_angle_alpha   117.45676157
_cell_angle_beta   117.45676033
_cell_angle_gamma   89.99999958
_symmetry_Int_Tables_number   1
_chemical_formula_structural   Ce5Tc2Ge
_chemical_formula_sum   'Ce10 Tc4 Ge2'
_cell_volume   382.50216438
_cell_formula_units_Z   2
loop_
 _symmetry_equiv_pos_site_id
 _symmetry_equiv_pos_as_xyz
  1  'x, y, z'
loop_
 _atom_site_type_symbol
 _atom_site_label
 _atom_site_symmetry_multiplicity
 _atom_site_fract_x
 _atom_site_fract_y
 _atom_site_fract_z
 _atom_site_occupancy
  Ce  Ce0  1  0.500000  0.500000  0.000000  1
  Ce  Ce1  1  0.000000  0.000000  0.000000  1
  Ce  Ce2  1  0.978404  0.807085  0.285489  1
  Ce  Ce3  1  0.307085  0.478404  0.285489  1
  Ce  Ce4  1  0.807085  0.307085  0.285489  1
  Ce  Ce5  1  0.478404  0.978404  0.285489  1
  Ce  Ce6  1  0.021596  0.192915  0.714511  1
  Ce  Ce7  1  0.692915  0.521596  0.714511  1
  Ce  Ce8  1  0.192915  0.692915  0.714511  1
  Ce  Ce9  1  0.521596  0.021596  0.714511  1
  Tc  Tc10  1  0.637436  0.862564  0.000000  1
  Tc  Tc11  1  0.362564  0.137436  0.000000  1
  Tc  Tc12  1  0.862564  0.362564  0.000000  1
  Tc  Tc13  1  0.137436  0.637436  0.000000  1
  Ge  Ge14  1  0.750000  0.750000  0.500000  1
  Ge  Ge15  1  0.250000  0.250000  0.500000  1
