# generated using pymatgen
data_BaSr2U4(O6F)2
_symmetry_space_group_name_H-M   'P 1'
_cell_length_a   8.01117896
_cell_length_b   8.01117781
_cell_length_c   7.93166975
_cell_angle_alpha   61.02848371
_cell_angle_beta   61.02848138
_cell_angle_gamma   60.95610279
_symmetry_Int_Tables_number   1
_chemical_formula_structural   BaSr2U4(O6F)2
_chemical_formula_sum   'Ba1 Sr2 U4 O12 F2'
_cell_volume   368.09273938
_cell_formula_units_Z   1
loop_
 _symmetry_equiv_pos_site_id
 _symmetry_equiv_pos_as_xyz
  1  'x, y, z'
loop_
 _atom_site_type_symbol
 _atom_site_label
 _atom_site_symmetry_multiplicity
 _atom_site_fract_x
 _atom_site_fract_y
 _atom_site_fract_z
 _atom_site_occupancy
  Ba  Ba0  1  0.500000  0.500000  0.000000  1
  Sr  Sr1  1  0.000000  0.500000  0.500000  1
  Sr  Sr2  1  0.500000  0.000000  0.500000  1
  U  U3  1  0.000000  0.500000  0.000000  1
  U  U4  1  0.000000  0.000000  0.000000  1
  U  U5  1  0.500000  0.000000  0.000000  1
  U  U6  1  0.000000  0.000000  0.500000  1
  O  O7  1  0.073150  0.678368  0.078159  1
  O  O8  1  0.926850  0.321632  0.921841  1
  O  O9  1  0.686805  0.686805  0.053958  1
  O  O10  1  0.053193  0.685069  0.683962  1
  O  O11  1  0.678368  0.073150  0.078159  1
  O  O12  1  0.075074  0.075074  0.678212  1
  O  O13  1  0.685069  0.053193  0.683962  1
  O  O14  1  0.946807  0.314931  0.316038  1
  O  O15  1  0.924926  0.924926  0.321788  1
  O  O16  1  0.313195  0.313195  0.946042  1
  O  O17  1  0.321632  0.926850  0.921841  1
  O  O18  1  0.314931  0.946807  0.316038  1
  F  F19  1  0.646021  0.646021  0.614629  1
  F  F20  1  0.353979  0.353979  0.385371  1
