# generated using pymatgen
data_Hf6Zr3Re4Ni
_symmetry_space_group_name_H-M   'P 1'
_cell_length_a   8.67043300
_cell_length_b   8.67043304
_cell_length_c   8.45802900
_cell_angle_alpha   90.00000000
_cell_angle_beta   90.00000000
_cell_angle_gamma   120.00000365
_symmetry_Int_Tables_number   1
_chemical_formula_structural   Hf6Zr3Re4Ni
_chemical_formula_sum   'Hf12 Zr6 Re8 Ni2'
_cell_volume   550.65724920
_cell_formula_units_Z   2
loop_
 _symmetry_equiv_pos_site_id
 _symmetry_equiv_pos_as_xyz
  1  'x, y, z'
loop_
 _atom_site_type_symbol
 _atom_site_label
 _atom_site_symmetry_multiplicity
 _atom_site_fract_x
 _atom_site_fract_y
 _atom_site_fract_z
 _atom_site_occupancy
  Hf  Hf0  1  0.197002  0.802998  0.442935  1
  Hf  Hf1  1  0.197002  0.394003  0.442935  1
  Hf  Hf2  1  0.605997  0.802998  0.442935  1
  Hf  Hf3  1  0.802998  0.197002  0.557065  1
  Hf  Hf4  1  0.802998  0.605997  0.557065  1
  Hf  Hf5  1  0.394003  0.197002  0.557065  1
  Hf  Hf6  1  0.802998  0.197002  0.942935  1
  Hf  Hf7  1  0.802998  0.605997  0.942935  1
  Hf  Hf8  1  0.394003  0.197002  0.942935  1
  Hf  Hf9  1  0.197002  0.802998  0.057065  1
  Hf  Hf10  1  0.197002  0.394003  0.057065  1
  Hf  Hf11  1  0.605997  0.802998  0.057065  1
  Zr  Zr12  1  0.541112  0.458888  0.250000  1
  Zr  Zr13  1  0.541112  0.082223  0.250000  1
  Zr  Zr14  1  0.917777  0.458888  0.250000  1
  Zr  Zr15  1  0.458888  0.541112  0.750000  1
  Zr  Zr16  1  0.458888  0.917777  0.750000  1
  Zr  Zr17  1  0.082223  0.541112  0.750000  1
  Re  Re18  1  0.890380  0.109620  0.250000  1
  Re  Re19  1  0.890380  0.780759  0.250000  1
  Re  Re20  1  0.219241  0.109620  0.250000  1
  Re  Re21  1  0.109620  0.890380  0.750000  1
  Re  Re22  1  0.109620  0.219241  0.750000  1
  Re  Re23  1  0.780759  0.890380  0.750000  1
  Re  Re24  1  0.000000  0.000000  0.500000  1
  Re  Re25  1  0.000000  0.000000  0.000000  1
  Ni  Ni26  1  0.333333  0.666667  0.250000  1
  Ni  Ni27  1  0.666667  0.333333  0.750000  1
