# generated using pymatgen
data_CeHo3TiAl3Ir4
_symmetry_space_group_name_H-M   'P 1'
_cell_length_a   6.93062147
_cell_length_b   4.25929400
_cell_length_c   7.93543571
_cell_angle_alpha   90.00000000
_cell_angle_beta   90.62310329
_cell_angle_gamma   90.00000000
_symmetry_Int_Tables_number   1
_chemical_formula_structural   CeHo3TiAl3Ir4
_chemical_formula_sum   'Ce1 Ho3 Ti1 Al3 Ir4'
_cell_volume   234.23667427
_cell_formula_units_Z   1
loop_
 _symmetry_equiv_pos_site_id
 _symmetry_equiv_pos_as_xyz
  1  'x, y, z'
loop_
 _atom_site_type_symbol
 _atom_site_label
 _atom_site_symmetry_multiplicity
 _atom_site_fract_x
 _atom_site_fract_y
 _atom_site_fract_z
 _atom_site_occupancy
  Ce  Ce0  1  0.528312  0.750000  0.681293  1
  Ho  Ho1  1  0.966660  0.250000  0.175001  1
  Ho  Ho2  1  0.462379  0.250000  0.312900  1
  Ho  Ho3  1  0.034702  0.750000  0.826215  1
  Ti  Ti4  1  0.881882  0.250000  0.562484  1
  Al  Al5  1  0.355903  0.250000  0.940417  1
  Al  Al6  1  0.138844  0.750000  0.435446  1
  Al  Al7  1  0.638493  0.750000  0.064943  1
  Ir  Ir8  1  0.728354  0.250000  0.872465  1
  Ir  Ir9  1  0.233634  0.250000  0.619735  1
  Ir  Ir10  1  0.265635  0.750000  0.119840  1
  Ir  Ir11  1  0.765206  0.750000  0.389261  1
