# generated using pymatgen
data_TbLuInGa2
_symmetry_space_group_name_H-M   'P 1'
_cell_length_a   7.18185293
_cell_length_b   7.18185293
_cell_length_c   4.41441100
_cell_angle_alpha   90.00000000
_cell_angle_beta   90.00000000
_cell_angle_gamma   88.54373106
_symmetry_Int_Tables_number   1
_chemical_formula_structural   TbLuInGa2
_chemical_formula_sum   'Tb2 Lu2 In2 Ga4'
_cell_volume   227.61741489
_cell_formula_units_Z   2
loop_
 _symmetry_equiv_pos_site_id
 _symmetry_equiv_pos_as_xyz
  1  'x, y, z'
loop_
 _atom_site_type_symbol
 _atom_site_label
 _atom_site_symmetry_multiplicity
 _atom_site_fract_x
 _atom_site_fract_y
 _atom_site_fract_z
 _atom_site_occupancy
  Tb  Tb0  1  0.673001  0.173001  0.500000  1
  Tb  Tb1  1  0.326999  0.826999  0.500000  1
  Lu  Lu2  1  0.170408  0.329592  0.500000  1
  Lu  Lu3  1  0.829592  0.670408  0.500000  1
  In  In4  1  0.500000  0.500000  0.000000  1
  In  In5  1  0.000000  0.000000  0.000000  1
  Ga  Ga6  1  0.124873  0.624873  0.000000  1
  Ga  Ga7  1  0.875127  0.375127  0.000000  1
  Ga  Ga8  1  0.628598  0.871402  0.000000  1
  Ga  Ga9  1  0.371402  0.128598  0.000000  1
