# generated using pymatgen
data_CsMn4Ga5Se12
_symmetry_space_group_name_H-M   'P 1'
_cell_length_a   8.98312344
_cell_length_b   8.95531686
_cell_length_c   9.01583306
_cell_angle_alpha   107.17456114
_cell_angle_beta   107.86298585
_cell_angle_gamma   107.43116716
_symmetry_Int_Tables_number   1
_chemical_formula_structural   CsMn4Ga5Se12
_chemical_formula_sum   'Cs1 Mn4 Ga5 Se12'
_cell_volume   595.76415037
_cell_formula_units_Z   1
loop_
 _symmetry_equiv_pos_site_id
 _symmetry_equiv_pos_as_xyz
  1  'x, y, z'
loop_
 _atom_site_type_symbol
 _atom_site_label
 _atom_site_symmetry_multiplicity
 _atom_site_fract_x
 _atom_site_fract_y
 _atom_site_fract_z
 _atom_site_occupancy
  Cs  Cs0  1  0.998330  0.997503  0.995411  1
  Mn  Mn1  1  0.631976  0.708925  0.396658  1
  Mn  Mn2  1  0.401343  0.636627  0.716891  1
  Mn  Mn3  1  0.710909  0.394744  0.633093  1
  Mn  Mn4  1  0.185344  0.562237  0.022172  1
  Ga  Ga5  1  0.485166  0.338336  0.942215  1
  Ga  Ga6  1  0.939737  0.490970  0.342456  1
  Ga  Ga7  1  0.333788  0.934392  0.482244  1
  Ga  Ga8  1  0.019277  0.186436  0.558042  1
  Ga  Ga9  1  0.558430  0.022908  0.184636  1
  Se  Se10  1  0.782167  0.929943  0.298214  1
  Se  Se11  1  0.306759  0.792885  0.930011  1
  Se  Se12  1  0.927168  0.293277  0.774877  1
  Se  Se13  1  0.070942  0.695239  0.234235  1
  Se  Se14  1  0.230447  0.076344  0.691205  1
  Se  Se15  1  0.698775  0.232615  0.078797  1
  Se  Se16  1  0.379788  0.436719  0.150652  1
  Se  Se17  1  0.151107  0.379348  0.444677  1
  Se  Se18  1  0.439287  0.147662  0.374360  1
  Se  Se19  1  0.860383  0.630835  0.557583  1
  Se  Se20  1  0.551954  0.857019  0.627126  1
  Se  Se21  1  0.631563  0.549675  0.859084  1
