# generated using pymatgen
data_Lu2BeIr2
_symmetry_space_group_name_H-M   'P 1'
_cell_length_a   5.43221987
_cell_length_b   5.43222004
_cell_length_c   5.43233850
_cell_angle_alpha   140.23754887
_cell_angle_beta   115.59334804
_cell_angle_gamma   78.42151639
_symmetry_Int_Tables_number   1
_chemical_formula_structural   Lu2BeIr2
_chemical_formula_sum   'Lu2 Be1 Ir2'
_cell_volume   90.04137871
_cell_formula_units_Z   1
loop_
 _symmetry_equiv_pos_site_id
 _symmetry_equiv_pos_as_xyz
  1  'x, y, z'
loop_
 _atom_site_type_symbol
 _atom_site_label
 _atom_site_symmetry_multiplicity
 _atom_site_fract_x
 _atom_site_fract_y
 _atom_site_fract_z
 _atom_site_occupancy
  Lu  Lu0  1  0.698262  0.198262  0.500000  1
  Lu  Lu1  1  0.301738  0.801738  0.499999  1
  Be  Be2  1  0.000000  0.000000  0.000000  1
  Ir  Ir3  1  0.751692  0.499976  0.251667  1
  Ir  Ir4  1  0.248309  0.500023  0.748332  1
