# generated using pymatgen
data_Dy5Tm11(In3Ir)2
_symmetry_space_group_name_H-M   'P 1'
_cell_length_a   10.32832626
_cell_length_b   10.32832677
_cell_length_c   7.02100505
_cell_angle_alpha   89.98794319
_cell_angle_beta   90.01206040
_cell_angle_gamma   119.97710197
_symmetry_Int_Tables_number   1
_chemical_formula_structural   Dy5Tm11(In3Ir)2
_chemical_formula_sum   'Dy5 Tm11 In6 Ir2'
_cell_volume   648.76884108
_cell_formula_units_Z   1
loop_
 _symmetry_equiv_pos_site_id
 _symmetry_equiv_pos_as_xyz
  1  'x, y, z'
loop_
 _atom_site_type_symbol
 _atom_site_label
 _atom_site_symmetry_multiplicity
 _atom_site_fract_x
 _atom_site_fract_y
 _atom_site_fract_z
 _atom_site_occupancy
  Dy  Dy0  1  0.532576  0.065144  0.514793  1
  Dy  Dy1  1  0.934856  0.467424  0.514793  1
  Dy  Dy2  1  0.532427  0.467573  0.514782  1
  Dy  Dy3  1  0.467393  0.934669  0.014719  1
  Dy  Dy4  1  0.065331  0.532607  0.014719  1
  Tm  Tm5  1  0.466963  0.533037  0.014705  1
  Tm  Tm6  1  0.176941  0.353383  0.721587  1
  Tm  Tm7  1  0.646617  0.823059  0.721587  1
  Tm  Tm8  1  0.176511  0.823489  0.721258  1
  Tm  Tm9  1  0.822994  0.646708  0.220910  1
  Tm  Tm10  1  0.353292  0.177006  0.220910  1
  Tm  Tm11  1  0.823449  0.176551  0.221231  1
  Tm  Tm12  1  0.666480  0.333520  0.896567  1
  Tm  Tm13  1  0.333553  0.666447  0.396308  1
  Tm  Tm14  1  0.000042  0.999958  0.500274  1
  Tm  Tm15  1  0.000001  0.999999  0.000370  1
  In  In16  1  0.837340  0.674717  0.761910  1
  In  In17  1  0.325283  0.162660  0.761910  1
  In  In18  1  0.837353  0.162647  0.761756  1
  In  In19  1  0.162926  0.325513  0.261586  1
  In  In20  1  0.674487  0.837074  0.261586  1
  In  In21  1  0.162616  0.837384  0.261868  1
  Ir  Ir22  1  0.666696  0.333304  0.288605  1
  Ir  Ir23  1  0.333873  0.666127  0.789263  1
