# generated using pymatgen
data_Ho5Al2SiC4
_symmetry_space_group_name_H-M   'P 1'
_cell_length_a   10.70792500
_cell_length_b   10.70792500
_cell_length_c   3.50535300
_cell_angle_alpha   90.00000000
_cell_angle_beta   90.00000000
_cell_angle_gamma   90.00000000
_symmetry_Int_Tables_number   1
_chemical_formula_structural   Ho5Al2SiC4
_chemical_formula_sum   'Ho10 Al4 Si2 C8'
_cell_volume   401.92257547
_cell_formula_units_Z   2
loop_
 _symmetry_equiv_pos_site_id
 _symmetry_equiv_pos_as_xyz
  1  'x, y, z'
loop_
 _atom_site_type_symbol
 _atom_site_label
 _atom_site_symmetry_multiplicity
 _atom_site_fract_x
 _atom_site_fract_y
 _atom_site_fract_z
 _atom_site_occupancy
  Ho  Ho0  1  0.550863  0.725130  0.500000  1
  Ho  Ho1  1  0.449137  0.274870  0.500000  1
  Ho  Ho2  1  0.050863  0.774870  0.500000  1
  Ho  Ho3  1  0.949137  0.225130  0.500000  1
  Ho  Ho4  1  0.274870  0.550863  0.500000  1
  Ho  Ho5  1  0.725130  0.449137  0.500000  1
  Ho  Ho6  1  0.225130  0.050863  0.500000  1
  Ho  Ho7  1  0.774870  0.949137  0.500000  1
  Ho  Ho8  1  0.500000  0.000000  0.000000  1
  Ho  Ho9  1  0.000000  0.500000  0.000000  1
  Al  Al10  1  0.703807  0.203807  0.000000  1
  Al  Al11  1  0.296193  0.796193  0.000000  1
  Al  Al12  1  0.203807  0.296193  0.000000  1
  Al  Al13  1  0.796193  0.703807  0.000000  1
  Si  Si14  1  0.500000  0.500000  0.000000  1
  Si  Si15  1  0.000000  0.000000  0.000000  1
  C  C16  1  0.633355  0.133355  0.500000  1
  C  C17  1  0.366645  0.866645  0.500000  1
  C  C18  1  0.133355  0.366645  0.500000  1
  C  C19  1  0.866645  0.633355  0.500000  1
  C  C20  1  0.162784  0.662784  0.000000  1
  C  C21  1  0.837216  0.337216  0.000000  1
  C  C22  1  0.662784  0.837216  0.000000  1
  C  C23  1  0.337216  0.162784  0.000000  1
