# generated using pymatgen
data_Eu2AlGeO6
_symmetry_space_group_name_H-M   'P 1'
_cell_length_a   5.38249030
_cell_length_b   5.38249066
_cell_length_c   5.38249025
_cell_angle_alpha   59.93698038
_cell_angle_beta   59.93697570
_cell_angle_gamma   59.93698613
_symmetry_Int_Tables_number   1
_chemical_formula_structural   Eu2AlGeO6
_chemical_formula_sum   'Eu2 Al1 Ge1 O6'
_cell_volume   110.10665860
_cell_formula_units_Z   1
loop_
 _symmetry_equiv_pos_site_id
 _symmetry_equiv_pos_as_xyz
  1  'x, y, z'
loop_
 _atom_site_type_symbol
 _atom_site_label
 _atom_site_symmetry_multiplicity
 _atom_site_fract_x
 _atom_site_fract_y
 _atom_site_fract_z
 _atom_site_occupancy
  Eu  Eu0  1  0.249999  0.249999  0.249998  1
  Eu  Eu1  1  0.750002  0.750002  0.750002  1
  Al  Al2  1  0.499999  0.499999  0.499999  1
  Ge  Ge3  1  0.000000  0.000000  0.000000  1
  O  O4  1  0.750178  0.252650  0.246983  1
  O  O5  1  0.747349  0.753017  0.249823  1
  O  O6  1  0.246982  0.750179  0.252650  1
  O  O7  1  0.753018  0.249822  0.747350  1
  O  O8  1  0.252650  0.246982  0.750179  1
  O  O9  1  0.249822  0.747351  0.753017  1
