# generated using pymatgen
data_Ti2Be9Pd
_symmetry_space_group_name_H-M   'P 1'
_cell_length_a   7.48038512
_cell_length_b   7.48038486
_cell_length_c   7.48038496
_cell_angle_alpha   34.29252687
_cell_angle_beta   34.29253414
_cell_angle_gamma   34.29251748
_symmetry_Int_Tables_number   1
_chemical_formula_structural   Ti2Be9Pd
_chemical_formula_sum   'Ti2 Be9 Pd1'
_cell_volume   118.49689872
_cell_formula_units_Z   1
loop_
 _symmetry_equiv_pos_site_id
 _symmetry_equiv_pos_as_xyz
  1  'x, y, z'
loop_
 _atom_site_type_symbol
 _atom_site_label
 _atom_site_symmetry_multiplicity
 _atom_site_fract_x
 _atom_site_fract_y
 _atom_site_fract_z
 _atom_site_occupancy
  Ti  Ti0  1  0.142953  0.142953  0.142953  1
  Ti  Ti1  1  0.003620  0.003620  0.003620  1
  Be  Be2  1  0.416697  0.920421  0.416697  1
  Be  Be3  1  0.416697  0.416697  0.920421  1
  Be  Be4  1  0.920421  0.416697  0.416697  1
  Be  Be5  1  0.580693  0.082392  0.580693  1
  Be  Be6  1  0.580693  0.580693  0.082392  1
  Be  Be7  1  0.082392  0.580693  0.580693  1
  Be  Be8  1  0.666123  0.666123  0.666123  1
  Be  Be9  1  0.331960  0.331960  0.331960  1
  Be  Be10  1  0.500195  0.500195  0.500195  1
  Pd  Pd11  1  0.857556  0.857556  0.857556  1
