# generated using pymatgen
data_Pu7(Pd3S4)8
_symmetry_space_group_name_H-M   'P 1'
_cell_length_a   11.58879949
_cell_length_b   11.58879955
_cell_length_c   11.58880000
_cell_angle_alpha   109.47121967
_cell_angle_beta   109.47121977
_cell_angle_gamma   109.47122386
_symmetry_Int_Tables_number   1
_chemical_formula_structural   Pu7(Pd3S4)8
_chemical_formula_sum   'Pu7 Pd24 S32'
_cell_volume   1198.10110743
_cell_formula_units_Z   1
loop_
 _symmetry_equiv_pos_site_id
 _symmetry_equiv_pos_as_xyz
  1  'x, y, z'
loop_
 _atom_site_type_symbol
 _atom_site_label
 _atom_site_symmetry_multiplicity
 _atom_site_fract_x
 _atom_site_fract_y
 _atom_site_fract_z
 _atom_site_occupancy
  Pu  Pu0  1  0.500000  0.500000  0.000000  1
  Pu  Pu1  1  0.000000  0.500000  0.500000  1
  Pu  Pu2  1  0.500000  0.000000  0.000000  1
  Pu  Pu3  1  0.000000  0.000000  0.500000  1
  Pu  Pu4  1  0.500000  0.000000  0.500000  1
  Pu  Pu5  1  0.500000  0.500000  0.500000  1
  Pu  Pu6  1  0.000000  0.500000  0.000000  1
  Pd  Pd7  1  0.248285  0.128019  0.376304  1
  Pd  Pd8  1  0.751715  0.128019  0.879734  1
  Pd  Pd9  1  0.624359  0.374690  0.750331  1
  Pd  Pd10  1  0.128019  0.376304  0.248285  1
  Pd  Pd11  1  0.249669  0.375641  0.625310  1
  Pd  Pd12  1  0.750331  0.375641  0.125971  1
  Pd  Pd13  1  0.623696  0.751715  0.871981  1
  Pd  Pd14  1  0.374690  0.750331  0.624359  1
  Pd  Pd15  1  0.879734  0.751715  0.128019  1
  Pd  Pd16  1  0.125971  0.750331  0.375641  1
  Pd  Pd17  1  0.249669  0.624359  0.874029  1
  Pd  Pd18  1  0.750331  0.624359  0.374690  1
  Pd  Pd19  1  0.128019  0.879734  0.751715  1
  Pd  Pd20  1  0.624359  0.874029  0.249669  1
  Pd  Pd21  1  0.871981  0.120266  0.248285  1
  Pd  Pd22  1  0.375641  0.125971  0.750331  1
  Pd  Pd23  1  0.248285  0.871981  0.120266  1
  Pd  Pd24  1  0.751715  0.871981  0.623696  1
  Pd  Pd25  1  0.625310  0.249669  0.375641  1
  Pd  Pd26  1  0.874029  0.249669  0.624359  1
  Pd  Pd27  1  0.120266  0.248285  0.871981  1
  Pd  Pd28  1  0.376304  0.248285  0.128019  1
  Pd  Pd29  1  0.871981  0.623696  0.751715  1
  Pd  Pd30  1  0.375641  0.625310  0.249669  1
  S  S31  1  0.499218  0.249374  0.500092  1
  S  S32  1  0.000000  0.259597  0.000000  1
  S  S33  1  0.249374  0.500092  0.499218  1
  S  S34  1  0.750156  0.500782  0.000874  1
  S  S35  1  0.740403  0.740403  0.740403  1
  S  S36  1  0.250718  0.750626  0.249844  1
  S  S37  1  0.000000  0.740403  0.000000  1
  S  S38  1  0.499908  0.500782  0.750626  1
  S  S39  1  0.000874  0.500092  0.250718  1
  S  S40  1  0.500782  0.750626  0.499908  1
  S  S41  1  0.499908  0.749282  0.999126  1
  S  S42  1  0.000000  0.000000  0.259597  1
  S  S43  1  0.249374  0.750156  0.749282  1
  S  S44  1  0.740403  0.000000  0.000000  1
  S  S45  1  0.750156  0.749282  0.249374  1
  S  S46  1  0.000874  0.750156  0.500782  1
  S  S47  1  0.250718  0.000874  0.500092  1
  S  S48  1  0.500782  0.000874  0.750156  1
  S  S49  1  0.259597  0.000000  0.000000  1
  S  S50  1  0.750626  0.249844  0.250718  1
  S  S51  1  0.749282  0.999126  0.499908  1
  S  S52  1  0.249844  0.250718  0.750626  1
  S  S53  1  0.499218  0.999126  0.249844  1
  S  S54  1  0.999126  0.249844  0.499218  1
  S  S55  1  0.000000  0.000000  0.740403  1
  S  S56  1  0.500092  0.250718  0.000874  1
  S  S57  1  0.999126  0.499908  0.749282  1
  S  S58  1  0.500092  0.499218  0.249374  1
  S  S59  1  0.259597  0.259597  0.259597  1
  S  S60  1  0.750626  0.499908  0.500782  1
  S  S61  1  0.749282  0.249374  0.750156  1
  S  S62  1  0.249844  0.499218  0.999126  1
