# generated using pymatgen
data_NdYTh7Se17
_symmetry_space_group_name_H-M   'P 1'
_cell_length_a   8.49356974
_cell_length_b   8.45346560
_cell_length_c   11.24568100
_cell_angle_alpha   80.54545725
_cell_angle_beta   80.57469621
_cell_angle_gamma   65.00635409
_symmetry_Int_Tables_number   1
_chemical_formula_structural   NdYTh7Se17
_chemical_formula_sum   'Nd1 Y1 Th7 Se17'
_cell_volume   717.85529234
_cell_formula_units_Z   1
loop_
 _symmetry_equiv_pos_site_id
 _symmetry_equiv_pos_as_xyz
  1  'x, y, z'
loop_
 _atom_site_type_symbol
 _atom_site_label
 _atom_site_symmetry_multiplicity
 _atom_site_fract_x
 _atom_site_fract_y
 _atom_site_fract_z
 _atom_site_occupancy
  Nd  Nd0  1  0.812075  0.305170  0.300891  1
  Y  Y1  1  0.997400  0.003244  0.002124  1
  Th  Th2  1  0.303436  0.812326  0.298828  1
  Th  Th3  1  0.186343  0.697140  0.699268  1
  Th  Th4  1  0.697439  0.187768  0.698603  1
  Th  Th5  1  0.206187  0.204391  0.537668  1
  Th  Th6  1  0.793649  0.793657  0.460638  1
  Th  Th7  1  0.681289  0.681177  0.981261  1
  Th  Th8  1  0.316723  0.319733  0.021442  1
  Se  Se9  1  0.824739  0.431043  0.536157  1
  Se  Se10  1  0.432166  0.819526  0.533241  1
  Se  Se11  1  0.178070  0.566575  0.467044  1
  Se  Se12  1  0.568890  0.175021  0.469545  1
  Se  Se13  1  0.943873  0.337294  0.036302  1
  Se  Se14  1  0.334250  0.944234  0.036452  1
  Se  Se15  1  0.057151  0.666938  0.959720  1
  Se  Se16  1  0.664211  0.059100  0.960735  1
  Se  Se17  1  0.214133  0.205033  0.277688  1
  Se  Se18  1  0.790830  0.790600  0.723254  1
  Se  Se19  1  0.064906  0.063733  0.761892  1
  Se  Se20  1  0.941289  0.929363  0.240105  1
  Se  Se21  1  0.304833  0.303207  0.752144  1
  Se  Se22  1  0.690782  0.703093  0.246491  1
  Se  Se23  1  0.519606  0.522100  0.831442  1
  Se  Se24  1  0.474214  0.483871  0.163750  1
  Se  Se25  1  0.001516  0.994665  0.503317  1
