# generated using pymatgen
data_Ba4YU3O14
_symmetry_space_group_name_H-M   'P 1'
_cell_length_a   8.12957271
_cell_length_b   8.12957353
_cell_length_c   8.18789085
_cell_angle_alpha   120.44814975
_cell_angle_beta   118.46630854
_cell_angle_gamma   90.54691720
_symmetry_Int_Tables_number   1
_chemical_formula_structural   Ba4YU3O14
_chemical_formula_sum   'Ba4 Y1 U3 O14'
_cell_volume   386.94389581
_cell_formula_units_Z   1
loop_
 _symmetry_equiv_pos_site_id
 _symmetry_equiv_pos_as_xyz
  1  'x, y, z'
loop_
 _atom_site_type_symbol
 _atom_site_label
 _atom_site_symmetry_multiplicity
 _atom_site_fract_x
 _atom_site_fract_y
 _atom_site_fract_z
 _atom_site_occupancy
  Ba  Ba0  1  0.000000  0.000000  0.000000  1
  Ba  Ba1  1  0.500000  0.500000  0.000000  1
  Ba  Ba2  1  0.500000  0.000000  0.000000  1
  Ba  Ba3  1  0.500000  0.500000  0.500000  1
  Y  Y4  1  0.000000  0.000000  0.500000  1
  U  U5  1  0.000000  0.500000  0.500000  1
  U  U6  1  0.000000  0.500000  0.000000  1
  U  U7  1  0.500000  0.000000  0.500000  1
  O  O8  1  0.905312  0.736887  0.142200  1
  O  O9  1  0.671534  0.916958  0.366133  1
  O  O10  1  0.624065  0.905643  0.712362  1
  O  O11  1  0.688244  0.318759  0.768288  1
  O  O12  1  0.311756  0.681241  0.231712  1
  O  O13  1  0.328466  0.083042  0.633867  1
  O  O14  1  0.693282  0.411703  0.287638  1
  O  O15  1  0.050825  0.805401  0.633867  1
  O  O16  1  0.050471  0.419956  0.231712  1
  O  O17  1  0.094688  0.263113  0.857800  1
  O  O18  1  0.375935  0.094357  0.287638  1
  O  O19  1  0.949175  0.194599  0.366133  1
  O  O20  1  0.949529  0.580044  0.768288  1
  O  O21  1  0.306718  0.588297  0.712362  1
