# generated using pymatgen
data_Rb3(AgO2)2
_symmetry_space_group_name_H-M   'P 1'
_cell_length_a   5.87526073
_cell_length_b   5.87526179
_cell_length_c   12.30474700
_cell_angle_alpha   90.00000000
_cell_angle_beta   90.00000000
_cell_angle_gamma   112.53788987
_symmetry_Int_Tables_number   1
_chemical_formula_structural   Rb3(AgO2)2
_chemical_formula_sum   'Rb6 Ag4 O8'
_cell_volume   392.30453464
_cell_formula_units_Z   2
loop_
 _symmetry_equiv_pos_site_id
 _symmetry_equiv_pos_as_xyz
  1  'x, y, z'
loop_
 _atom_site_type_symbol
 _atom_site_label
 _atom_site_symmetry_multiplicity
 _atom_site_fract_x
 _atom_site_fract_y
 _atom_site_fract_z
 _atom_site_occupancy
  Rb  Rb0  1  0.653920  0.346080  0.567990  1
  Rb  Rb1  1  0.346080  0.653920  0.432010  1
  Rb  Rb2  1  0.653920  0.346080  0.932010  1
  Rb  Rb3  1  0.346080  0.653920  0.067990  1
  Rb  Rb4  1  0.312167  0.687833  0.750000  1
  Rb  Rb5  1  0.687833  0.312167  0.250000  1
  Ag  Ag6  1  0.000000  0.000000  0.500000  1
  Ag  Ag7  1  0.000000  0.000000  0.000000  1
  Ag  Ag8  1  0.937541  0.062459  0.750000  1
  Ag  Ag9  1  0.062459  0.937541  0.250000  1
  O  O10  1  0.854800  0.722470  0.388055  1
  O  O11  1  0.722470  0.854800  0.611945  1
  O  O12  1  0.854800  0.722470  0.111945  1
  O  O13  1  0.722470  0.854800  0.888055  1
  O  O14  1  0.145200  0.277530  0.611945  1
  O  O15  1  0.277530  0.145200  0.388055  1
  O  O16  1  0.145200  0.277530  0.888055  1
  O  O17  1  0.277530  0.145200  0.111945  1
