# generated using pymatgen
data_Er16Tl4In2CoPt
_symmetry_space_group_name_H-M   'P 1'
_cell_length_a   10.33966600
_cell_length_b   10.34879467
_cell_length_c   6.99170500
_cell_angle_alpha   89.99810938
_cell_angle_beta   89.99979085
_cell_angle_gamma   119.97196339
_symmetry_Int_Tables_number   1
_chemical_formula_structural   Er16Tl4In2CoPt
_chemical_formula_sum   'Er16 Tl4 In2 Co1 Pt1'
_cell_volume   648.08598982
_cell_formula_units_Z   1
loop_
 _symmetry_equiv_pos_site_id
 _symmetry_equiv_pos_as_xyz
  1  'x, y, z'
loop_
 _atom_site_type_symbol
 _atom_site_label
 _atom_site_symmetry_multiplicity
 _atom_site_fract_x
 _atom_site_fract_y
 _atom_site_fract_z
 _atom_site_occupancy
  Er  Er0  1  0.530947  0.061901  0.793554  1
  Er  Er1  1  0.937044  0.469569  0.794675  1
  Er  Er2  1  0.532522  0.469558  0.794682  1
  Er  Er3  1  0.462542  0.925081  0.295041  1
  Er  Er4  1  0.075409  0.537850  0.294409  1
  Er  Er5  1  0.462439  0.537847  0.294401  1
  Er  Er6  1  0.824212  0.648422  0.497080  1
  Er  Er7  1  0.351231  0.176117  0.497111  1
  Er  Er8  1  0.824887  0.176119  0.497108  1
  Er  Er9  1  0.178149  0.356301  0.998507  1
  Er  Er10  1  0.643773  0.822198  0.000572  1
  Er  Er11  1  0.178425  0.822202  0.000587  1
  Er  Er12  1  0.666620  0.333232  0.170897  1
  Er  Er13  1  0.333498  0.666992  0.684901  1
  Er  Er14  1  0.999133  0.998262  0.775435  1
  Er  Er15  1  0.999184  0.998385  0.277433  1
  Tl  Tl16  1  0.837624  0.675252  0.038839  1
  Tl  Tl17  1  0.324595  0.162335  0.038741  1
  Tl  Tl18  1  0.837729  0.162340  0.038744  1
  Tl  Tl19  1  0.163026  0.326040  0.541308  1
  In  In20  1  0.674364  0.837284  0.539806  1
  In  In21  1  0.162931  0.837284  0.539830  1
  Co  Co22  1  0.333196  0.666400  0.066104  1
  Pt  Pt23  1  0.666516  0.333030  0.566141  1
