# generated using pymatgen
data_LiSm(NiH3)2
_symmetry_space_group_name_H-M   'P 1'
_cell_length_a   4.87795206
_cell_length_b   4.87795564
_cell_length_c   4.87795000
_cell_angle_alpha   120.00011427
_cell_angle_beta   119.99999776
_cell_angle_gamma   89.99990212
_symmetry_Int_Tables_number   1
_chemical_formula_structural   LiSm(NiH3)2
_chemical_formula_sum   'Li1 Sm1 Ni2 H6'
_cell_volume   82.07244212
_cell_formula_units_Z   1
loop_
 _symmetry_equiv_pos_site_id
 _symmetry_equiv_pos_as_xyz
  1  'x, y, z'
loop_
 _atom_site_type_symbol
 _atom_site_label
 _atom_site_symmetry_multiplicity
 _atom_site_fract_x
 _atom_site_fract_y
 _atom_site_fract_z
 _atom_site_occupancy
  Li  Li0  1  0.749999  0.749998  0.000000  1
  Sm  Sm1  1  0.249998  0.249998  0.000000  1
  Ni  Ni2  1  0.499999  0.999999  0.499997  1
  Ni  Ni3  1  0.000000  0.500000  0.500001  1
  H  H4  1  0.250046  0.750045  0.000091  1
  H  H5  1  0.749954  0.750045  0.499999  1
  H  H6  1  0.749954  0.249955  0.499999  1
  H  H7  1  0.250045  0.750044  0.499999  1
  H  H8  1  0.250045  0.249953  0.499999  1
  H  H9  1  0.749955  0.249953  0.999909  1
