# generated using pymatgen
data_Sr3Tb4Er(Si3Pd)4
_symmetry_space_group_name_H-M   'P 1'
_cell_length_a   8.29509300
_cell_length_b   8.28709087
_cell_length_c   8.36668700
_cell_angle_alpha   90.00000000
_cell_angle_beta   90.00000000
_cell_angle_gamma   120.03194341
_symmetry_Int_Tables_number   1
_chemical_formula_structural   Sr3Tb4Er(Si3Pd)4
_chemical_formula_sum   'Sr3 Tb4 Er1 Si12 Pd4'
_cell_volume   497.92924238
_cell_formula_units_Z   1
loop_
 _symmetry_equiv_pos_site_id
 _symmetry_equiv_pos_as_xyz
  1  'x, y, z'
loop_
 _atom_site_type_symbol
 _atom_site_label
 _atom_site_symmetry_multiplicity
 _atom_site_fract_x
 _atom_site_fract_y
 _atom_site_fract_z
 _atom_site_occupancy
  Sr  Sr0  1  0.496809  0.993620  0.750000  1
  Sr  Sr1  1  0.006534  0.503196  0.750000  1
  Sr  Sr2  1  0.496660  0.503196  0.750000  1
  Tb  Tb3  1  0.991596  0.495769  0.250000  1
  Tb  Tb4  1  0.504174  0.495769  0.250000  1
  Tb  Tb5  1  0.999945  0.999889  0.250000  1
  Tb  Tb6  1  0.000104  0.000210  0.750000  1
  Er  Er7  1  0.503960  0.007920  0.250000  1
  Si  Si8  1  0.164531  0.329061  0.013609  1
  Si  Si9  1  0.836679  0.673356  0.010247  1
  Si  Si10  1  0.671294  0.835767  0.013866  1
  Si  Si11  1  0.836679  0.673356  0.489753  1
  Si  Si12  1  0.326407  0.163054  0.011517  1
  Si  Si13  1  0.164531  0.329061  0.486391  1
  Si  Si14  1  0.164474  0.835767  0.013866  1
  Si  Si15  1  0.326407  0.163054  0.488483  1
  Si  Si16  1  0.836647  0.163054  0.011517  1
  Si  Si17  1  0.671294  0.835767  0.486134  1
  Si  Si18  1  0.836647  0.163054  0.488483  1
  Si  Si19  1  0.164474  0.835767  0.486134  1
  Pd  Pd20  1  0.334065  0.668131  0.044714  1
  Pd  Pd21  1  0.666013  0.332025  0.017621  1
  Pd  Pd22  1  0.666013  0.332025  0.482379  1
  Pd  Pd23  1  0.334065  0.668131  0.455286  1
