# generated using pymatgen
data_HfAlCu3Pd
_symmetry_space_group_name_H-M   'P 1'
_cell_length_a   4.89739452
_cell_length_b   4.89739516
_cell_length_c   4.89739456
_cell_angle_alpha   60.60129119
_cell_angle_beta   60.60129367
_cell_angle_gamma   60.60130074
_symmetry_Int_Tables_number   1
_chemical_formula_structural   HfAlCu3Pd
_chemical_formula_sum   'Hf1 Al1 Cu3 Pd1'
_cell_volume   84.18572311
_cell_formula_units_Z   1
loop_
 _symmetry_equiv_pos_site_id
 _symmetry_equiv_pos_as_xyz
  1  'x, y, z'
loop_
 _atom_site_type_symbol
 _atom_site_label
 _atom_site_symmetry_multiplicity
 _atom_site_fract_x
 _atom_site_fract_y
 _atom_site_fract_z
 _atom_site_occupancy
  Hf  Hf0  1  0.245515  0.245515  0.245515  1
  Al  Al1  1  0.628798  0.628798  0.628798  1
  Cu  Cu2  1  0.625542  0.625542  0.126857  1
  Cu  Cu3  1  0.625542  0.126857  0.625542  1
  Cu  Cu4  1  0.126857  0.625542  0.625542  1
  Pd  Pd5  1  0.997744  0.997744  0.997744  1
