# generated using pymatgen
data_ErTmThRh9
_symmetry_space_group_name_H-M   'P 1'
_cell_length_a   5.26939100
_cell_length_b   5.27193102
_cell_length_c   17.53958900
_cell_angle_alpha   89.99986958
_cell_angle_beta   89.99991301
_cell_angle_gamma   119.99706963
_symmetry_Int_Tables_number   1
_chemical_formula_structural   ErTmThRh9
_chemical_formula_sum   'Er2 Tm2 Th2 Rh18'
_cell_volume   421.98111167
_cell_formula_units_Z   2
loop_
 _symmetry_equiv_pos_site_id
 _symmetry_equiv_pos_as_xyz
  1  'x, y, z'
loop_
 _atom_site_type_symbol
 _atom_site_label
 _atom_site_symmetry_multiplicity
 _atom_site_fract_x
 _atom_site_fract_y
 _atom_site_fract_z
 _atom_site_occupancy
  Er  Er0  1  0.666643  0.333309  0.459906  1
  Er  Er1  1  0.333357  0.666691  0.540094  1
  Tm  Tm2  1  0.333356  0.666692  0.959994  1
  Tm  Tm3  1  0.666644  0.333308  0.040006  1
  Th  Th4  1  0.333333  0.666665  0.750152  1
  Th  Th5  1  0.666667  0.333335  0.249848  1
  Rh  Rh6  1  0.167484  0.832488  0.375968  1
  Rh  Rh7  1  0.167475  0.334970  0.375966  1
  Rh  Rh8  1  0.664969  0.832476  0.375978  1
  Rh  Rh9  1  0.832516  0.167512  0.624032  1
  Rh  Rh10  1  0.832525  0.665030  0.624034  1
  Rh  Rh11  1  0.335031  0.167524  0.624022  1
  Rh  Rh12  1  0.832420  0.167601  0.876202  1
  Rh  Rh13  1  0.832426  0.664845  0.876198  1
  Rh  Rh14  1  0.335197  0.167605  0.876201  1
  Rh  Rh15  1  0.167580  0.832399  0.123798  1
  Rh  Rh16  1  0.167574  0.335155  0.123802  1
  Rh  Rh17  1  0.664803  0.832395  0.123799  1
  Rh  Rh18  1  0.333265  0.666599  0.249996  1
  Rh  Rh19  1  0.666735  0.333401  0.750004  1
  Rh  Rh20  1  0.999995  0.999994  0.249909  1
  Rh  Rh21  1  0.000005  0.000006  0.750091  1
  Rh  Rh22  1  0.000000  0.000000  0.500000  1
  Rh  Rh23  1  0.000000  0.000000  0.000000  1
