# generated using pymatgen
data_Tb6Mn9Fe7(CoP6)2
_symmetry_space_group_name_H-M   'P 1'
_cell_length_a   3.69154700
_cell_length_b   10.86510913
_cell_length_c   12.23971822
_cell_angle_alpha   90.26388161
_cell_angle_beta   90.00000000
_cell_angle_gamma   90.00000000
_symmetry_Int_Tables_number   1
_chemical_formula_structural   Tb6Mn9Fe7(CoP6)2
_chemical_formula_sum   'Tb6 Mn9 Fe7 Co2 P12'
_cell_volume   490.91839849
_cell_formula_units_Z   1
loop_
 _symmetry_equiv_pos_site_id
 _symmetry_equiv_pos_as_xyz
  1  'x, y, z'
loop_
 _atom_site_type_symbol
 _atom_site_label
 _atom_site_symmetry_multiplicity
 _atom_site_fract_x
 _atom_site_fract_y
 _atom_site_fract_z
 _atom_site_occupancy
  Tb  Tb0  1  0.000000  0.497650  0.532385  1
  Tb  Tb1  1  0.500000  0.001255  0.466585  1
  Tb  Tb2  1  0.500000  0.825360  0.200165  1
  Tb  Tb3  1  0.500000  0.177005  0.200495  1
  Tb  Tb4  1  0.000000  0.674808  0.800236  1
  Tb  Tb5  1  0.000000  0.324157  0.800195  1
  Mn  Mn6  1  0.500000  0.500034  0.156947  1
  Mn  Mn7  1  0.000000  0.998930  0.843772  1
  Mn  Mn8  1  0.500000  0.701915  0.430557  1
  Mn  Mn9  1  0.000000  0.201886  0.570179  1
  Mn  Mn10  1  0.000000  0.796906  0.569188  1
  Mn  Mn11  1  0.500000  0.881660  0.706206  1
  Mn  Mn12  1  0.500000  0.117357  0.706602  1
  Mn  Mn13  1  0.000000  0.616662  0.293762  1
  Mn  Mn14  1  0.000000  0.384486  0.291874  1
  Fe  Fe15  1  0.000000  0.500031  0.993758  1
  Fe  Fe16  1  0.500000  0.000275  0.006454  1
  Fe  Fe17  1  0.500000  0.332678  0.998855  1
  Fe  Fe18  1  0.500000  0.668038  0.999636  1
  Fe  Fe19  1  0.000000  0.167373  0.000674  1
  Fe  Fe20  1  0.000000  0.832164  0.000830  1
  Fe  Fe21  1  0.500000  0.296738  0.430253  1
  Co  Co22  1  0.500000  0.499043  0.708884  1
  Co  Co23  1  0.000000  0.002372  0.291562  1
  P  P24  1  0.500000  0.499666  0.892253  1
  P  P25  1  0.000000  0.000918  0.107924  1
  P  P26  1  0.500000  0.497622  0.354717  1
  P  P27  1  0.000000  0.999450  0.645742  1
  P  P28  1  0.500000  0.314866  0.618813  1
  P  P29  1  0.500000  0.682752  0.620609  1
  P  P30  1  0.000000  0.189621  0.381159  1
  P  P31  1  0.000000  0.816448  0.379175  1
  P  P32  1  0.500000  0.843135  0.895517  1
  P  P33  1  0.500000  0.156824  0.895860  1
  P  P34  1  0.000000  0.656887  0.104705  1
  P  P35  1  0.000000  0.343030  0.103471  1
