# generated using pymatgen
data_Rb4Ba2SiAs4
_symmetry_space_group_name_H-M   'P 1'
_cell_length_a   10.62695183
_cell_length_b   10.62695298
_cell_length_c   8.13751785
_cell_angle_alpha   88.54400961
_cell_angle_beta   88.54401476
_cell_angle_gamma   118.97952915
_symmetry_Int_Tables_number   1
_chemical_formula_structural   Rb4Ba2SiAs4
_chemical_formula_sum   'Rb8 Ba4 Si2 As8'
_cell_volume   802.91590706
_cell_formula_units_Z   2
loop_
 _symmetry_equiv_pos_site_id
 _symmetry_equiv_pos_as_xyz
  1  'x, y, z'
loop_
 _atom_site_type_symbol
 _atom_site_label
 _atom_site_symmetry_multiplicity
 _atom_site_fract_x
 _atom_site_fract_y
 _atom_site_fract_z
 _atom_site_occupancy
  Rb  Rb0  1  0.050461  0.524544  0.615461  1
  Rb  Rb1  1  0.524544  0.050461  0.115461  1
  Rb  Rb2  1  0.271045  0.134249  0.822999  1
  Rb  Rb3  1  0.867997  0.722225  0.784686  1
  Rb  Rb4  1  0.862166  0.148770  0.805303  1
  Rb  Rb5  1  0.722225  0.867997  0.284686  1
  Rb  Rb6  1  0.134249  0.271045  0.322999  1
  Rb  Rb7  1  0.148770  0.862166  0.305303  1
  Ba  Ba8  1  0.475366  0.953286  0.621048  1
  Ba  Ba9  1  0.471850  0.522287  0.617986  1
  Ba  Ba10  1  0.953286  0.475366  0.121048  1
  Ba  Ba11  1  0.522287  0.471850  0.117986  1
  Si  Si12  1  0.666537  0.336638  0.504301  1
  Si  Si13  1  0.336638  0.666537  0.004301  1
  As  As14  1  0.659151  0.340336  0.808215  1
  As  As15  1  0.340336  0.659151  0.308215  1
  As  As16  1  0.585989  0.785311  0.887847  1
  As  As17  1  0.212743  0.413660  0.923377  1
  As  As18  1  0.206589  0.788719  0.909767  1
  As  As19  1  0.413660  0.212743  0.423377  1
  As  As20  1  0.785311  0.585989  0.387847  1
  As  As21  1  0.788719  0.206589  0.409767  1
