# generated using pymatgen
data_Ce2TlRh5
_symmetry_space_group_name_H-M   'P 1'
_cell_length_a   4.22505600
_cell_length_b   5.87310000
_cell_length_c   11.65397100
_cell_angle_alpha   90.00000000
_cell_angle_beta   90.00000000
_cell_angle_gamma   90.00000000
_symmetry_Int_Tables_number   1
_chemical_formula_structural   Ce2TlRh5
_chemical_formula_sum   'Ce4 Tl2 Rh10'
_cell_volume   289.18369208
_cell_formula_units_Z   2
loop_
 _symmetry_equiv_pos_site_id
 _symmetry_equiv_pos_as_xyz
  1  'x, y, z'
loop_
 _atom_site_type_symbol
 _atom_site_label
 _atom_site_symmetry_multiplicity
 _atom_site_fract_x
 _atom_site_fract_y
 _atom_site_fract_z
 _atom_site_occupancy
  Ce  Ce0  1  0.500000  0.184044  0.640374  1
  Ce  Ce1  1  0.500000  0.815956  0.359626  1
  Ce  Ce2  1  0.500000  0.684044  0.859626  1
  Ce  Ce3  1  0.500000  0.315956  0.140374  1
  Tl  Tl4  1  0.000000  0.500000  0.500000  1
  Tl  Tl5  1  0.000000  0.000000  0.000000  1
  Rh  Rh6  1  0.500000  0.212969  0.879021  1
  Rh  Rh7  1  0.500000  0.787031  0.120979  1
  Rh  Rh8  1  0.500000  0.712969  0.620979  1
  Rh  Rh9  1  0.500000  0.287031  0.379021  1
  Rh  Rh10  1  0.000000  0.441760  0.749975  1
  Rh  Rh11  1  0.000000  0.558240  0.250025  1
  Rh  Rh12  1  0.000000  0.000000  0.500000  1
  Rh  Rh13  1  0.000000  0.500000  0.000000  1
  Rh  Rh14  1  0.000000  0.058240  0.249975  1
  Rh  Rh15  1  0.000000  0.941760  0.750025  1
