# generated using pymatgen
data_ScTl2P2S7
_symmetry_space_group_name_H-M   'P 1'
_cell_length_a   6.65150414
_cell_length_b   11.97990214
_cell_length_c   16.69586100
_cell_angle_alpha   79.45453068
_cell_angle_beta   78.44296755
_cell_angle_gamma   73.88609384
_symmetry_Int_Tables_number   1
_chemical_formula_structural   ScTl2P2S7
_chemical_formula_sum   'Sc4 Tl8 P8 S28'
_cell_volume   1240.69127625
_cell_formula_units_Z   4
loop_
 _symmetry_equiv_pos_site_id
 _symmetry_equiv_pos_as_xyz
  1  'x, y, z'
loop_
 _atom_site_type_symbol
 _atom_site_label
 _atom_site_symmetry_multiplicity
 _atom_site_fract_x
 _atom_site_fract_y
 _atom_site_fract_z
 _atom_site_occupancy
  Sc  Sc0  1  0.881195  0.085006  0.242900  1
  Sc  Sc1  1  0.118805  0.914994  0.757100  1
  Sc  Sc2  1  0.208976  0.414828  0.257103  1
  Sc  Sc3  1  0.791024  0.585172  0.742897  1
  Tl  Tl4  1  0.536342  0.865722  0.123361  1
  Tl  Tl5  1  0.474709  0.365866  0.623326  1
  Tl  Tl6  1  0.463658  0.134278  0.876639  1
  Tl  Tl7  1  0.823910  0.832991  0.527020  1
  Tl  Tl8  1  0.525291  0.634134  0.376674  1
  Tl  Tl9  1  0.176090  0.167009  0.472980  1
  Tl  Tl10  1  0.182570  0.667083  0.972791  1
  Tl  Tl11  1  0.817430  0.332917  0.027209  1
  P  P12  1  0.079295  0.702818  0.193608  1
  P  P13  1  0.975216  0.797062  0.306359  1
  P  P14  1  0.326696  0.694695  0.646343  1
  P  P15  1  0.920705  0.297182  0.806392  1
  P  P16  1  0.673304  0.305305  0.353657  1
  P  P17  1  0.024784  0.202938  0.693641  1
  P  P18  1  0.333046  0.194565  0.146344  1
  P  P19  1  0.666954  0.805435  0.853656  1
  S  S20  1  0.124212  0.610504  0.617229  1
  S  S21  1  0.351022  0.889466  0.882791  1
  S  S22  1  0.248680  0.869977  0.603464  1
  S  S23  1  0.894491  0.589472  0.202925  1
  S  S24  1  0.105509  0.410528  0.797075  1
  S  S25  1  0.632096  0.612017  0.600139  1
  S  S26  1  0.055330  0.835040  0.099920  1
  S  S27  1  0.944670  0.164960  0.900080  1
  S  S28  1  0.648978  0.110534  0.117209  1
  S  S29  1  0.214493  0.185112  0.270258  1
  S  S30  1  0.313308  0.089493  0.703149  1
  S  S31  1  0.367904  0.387983  0.399861  1
  S  S32  1  0.842929  0.888296  0.899861  1
  S  S33  1  0.875788  0.389496  0.382771  1
  S  S34  1  0.157071  0.111704  0.100139  1
  S  S35  1  0.686692  0.910507  0.296851  1
  S  S36  1  0.011478  0.335268  0.599992  1
  S  S37  1  0.329836  0.685200  0.770265  1
  S  S38  1  0.670164  0.314800  0.229735  1
  S  S39  1  0.721368  0.630118  0.896511  1
  S  S40  1  0.376166  0.597039  0.201105  1
  S  S41  1  0.278632  0.369882  0.103489  1
  S  S42  1  0.826122  0.097206  0.700883  1
  S  S43  1  0.751320  0.130023  0.396536  1
  S  S44  1  0.785507  0.814888  0.729742  1
  S  S45  1  0.623834  0.402961  0.798895  1
  S  S46  1  0.173878  0.902794  0.299117  1
  S  S47  1  0.988522  0.664732  0.400008  1
