# generated using pymatgen
data_Tb2Co9Si6Tc3P
_symmetry_space_group_name_H-M   'P 1'
_cell_length_a   3.75864400
_cell_length_b   9.17392307
_cell_length_c   9.17558860
_cell_angle_alpha   119.83888944
_cell_angle_beta   90.00000000
_cell_angle_gamma   90.00000000
_symmetry_Int_Tables_number   1
_chemical_formula_structural   Tb2Co9Si6Tc3P
_chemical_formula_sum   'Tb2 Co9 Si6 Tc3 P1'
_cell_volume   274.44392624
_cell_formula_units_Z   1
loop_
 _symmetry_equiv_pos_site_id
 _symmetry_equiv_pos_as_xyz
  1  'x, y, z'
loop_
 _atom_site_type_symbol
 _atom_site_label
 _atom_site_symmetry_multiplicity
 _atom_site_fract_x
 _atom_site_fract_y
 _atom_site_fract_z
 _atom_site_occupancy
  Tb  Tb0  1  0.000000  0.668132  0.335379  1
  Tb  Tb1  1  0.500000  0.332441  0.668284  1
  Co  Co2  1  0.000000  0.565809  0.944507  1
  Co  Co3  1  0.000000  0.374733  0.428571  1
  Co  Co4  1  0.000000  0.062233  0.632462  1
  Co  Co5  1  0.000000  0.873046  0.155107  1
  Co  Co6  1  0.000000  0.281552  0.121041  1
  Co  Co7  1  0.000000  0.845647  0.720363  1
  Co  Co8  1  0.500000  0.949656  0.385312  1
  Co  Co9  1  0.500000  0.432086  0.046425  1
  Co  Co10  1  0.500000  0.615659  0.564578  1
  Si  Si11  1  0.000000  0.999809  0.000680  1
  Si  Si12  1  0.500000  0.709163  0.112616  1
  Si  Si13  1  0.500000  0.402315  0.289869  1
  Si  Si14  1  0.500000  0.888042  0.597483  1
  Si  Si15  1  0.000000  0.591539  0.702368  1
  Si  Si16  1  0.000000  0.110558  0.407749  1
  Tc  Tc17  1  0.500000  0.783169  0.895703  1
  Tc  Tc18  1  0.500000  0.112100  0.214618  1
  Tc  Tc19  1  0.500000  0.103134  0.886503  1
  P  P20  1  0.000000  0.299179  0.890380  1
