# generated using pymatgen
data_Ce3Zn3Pd2Rh
_symmetry_space_group_name_H-M   'P 1'
_cell_length_a   7.31791600
_cell_length_b   7.31791586
_cell_length_c   3.96103400
_cell_angle_alpha   90.00000000
_cell_angle_beta   90.00000000
_cell_angle_gamma   120.00000062
_symmetry_Int_Tables_number   1
_chemical_formula_structural   Ce3Zn3Pd2Rh
_chemical_formula_sum   'Ce3 Zn3 Pd2 Rh1'
_cell_volume   183.70206200
_cell_formula_units_Z   1
loop_
 _symmetry_equiv_pos_site_id
 _symmetry_equiv_pos_as_xyz
  1  'x, y, z'
loop_
 _atom_site_type_symbol
 _atom_site_label
 _atom_site_symmetry_multiplicity
 _atom_site_fract_x
 _atom_site_fract_y
 _atom_site_fract_z
 _atom_site_occupancy
  Ce  Ce0  1  0.992084  0.409934  0.000000  1
  Ce  Ce1  1  0.590066  0.582150  0.000000  1
  Ce  Ce2  1  0.417850  0.007916  0.000000  1
  Zn  Zn3  1  0.999367  0.755186  0.500000  1
  Zn  Zn4  1  0.244814  0.244180  0.500000  1
  Zn  Zn5  1  0.755820  0.000633  0.500000  1
  Pd  Pd6  1  0.000000  0.000000  0.000000  1
  Pd  Pd7  1  0.333333  0.666667  0.500000  1
  Rh  Rh8  1  0.666667  0.333333  0.500000  1
