# generated using pymatgen
data_Zn22OsPd3
_symmetry_space_group_name_H-M   'P 1'
_cell_length_a   7.95182873
_cell_length_b   7.91772218
_cell_length_c   7.95183014
_cell_angle_alpha   109.38435990
_cell_angle_beta   109.55795027
_cell_angle_gamma   109.38435605
_symmetry_Int_Tables_number   1
_chemical_formula_structural   Zn22OsPd3
_chemical_formula_sum   'Zn22 Os1 Pd3'
_cell_volume   385.81302545
_cell_formula_units_Z   1
loop_
 _symmetry_equiv_pos_site_id
 _symmetry_equiv_pos_as_xyz
  1  'x, y, z'
loop_
 _atom_site_type_symbol
 _atom_site_label
 _atom_site_symmetry_multiplicity
 _atom_site_fract_x
 _atom_site_fract_y
 _atom_site_fract_z
 _atom_site_occupancy
  Zn  Zn0  1  0.000000  0.777374  0.000000  1
  Zn  Zn1  1  0.787541  0.004041  0.000000  1
  Zn  Zn2  1  0.000000  0.004041  0.787541  1
  Zn  Zn3  1  0.212459  0.216499  0.212459  1
  Zn  Zn4  1  0.349583  0.620529  0.349583  1
  Zn  Zn5  1  0.271280  0.997938  0.648982  1
  Zn  Zn6  1  0.648982  0.997938  0.271280  1
  Zn  Zn7  1  0.268387  0.647054  0.000000  1
  Zn  Zn8  1  0.728720  0.726658  0.377702  1
  Zn  Zn9  1  0.377702  0.726658  0.728720  1
  Zn  Zn10  1  0.000000  0.647054  0.268387  1
  Zn  Zn11  1  0.000000  0.270947  0.650417  1
  Zn  Zn12  1  0.650417  0.270947  0.000000  1
  Zn  Zn13  1  0.351018  0.348956  0.622298  1
  Zn  Zn14  1  0.622298  0.348956  0.351018  1
  Zn  Zn15  1  0.731613  0.378667  0.731613  1
  Zn  Zn16  1  0.358573  0.356950  0.000000  1
  Zn  Zn17  1  0.000000  0.650200  0.638395  1
  Zn  Zn18  1  0.000000  0.356950  0.358573  1
  Zn  Zn19  1  0.361605  0.011805  0.361605  1
  Zn  Zn20  1  0.641427  0.998377  0.641427  1
  Zn  Zn21  1  0.638395  0.650200  0.000000  1
  Os  Os22  1  0.000000  0.345617  0.000000  1
  Pd  Pd23  1  0.346836  0.997494  0.000000  1
  Pd  Pd24  1  0.000000  0.997494  0.346836  1
  Pd  Pd25  1  0.653164  0.650658  0.653164  1
