# generated using pymatgen
data_Sc3CdGa4Ni
_symmetry_space_group_name_H-M   'P 1'
_cell_length_a   6.82254500
_cell_length_b   6.72315919
_cell_length_c   4.05774400
_cell_angle_alpha   90.00000000
_cell_angle_beta   90.00000000
_cell_angle_gamma   120.49022635
_symmetry_Int_Tables_number   1
_chemical_formula_structural   Sc3CdGa4Ni
_chemical_formula_sum   'Sc3 Cd1 Ga4 Ni1'
_cell_volume   160.38674227
_cell_formula_units_Z   1
loop_
 _symmetry_equiv_pos_site_id
 _symmetry_equiv_pos_as_xyz
  1  'x, y, z'
loop_
 _atom_site_type_symbol
 _atom_site_label
 _atom_site_symmetry_multiplicity
 _atom_site_fract_x
 _atom_site_fract_y
 _atom_site_fract_z
 _atom_site_occupancy
  Sc  Sc0  1  0.596266  0.000000  0.500000  1
  Sc  Sc1  1  0.414025  0.412750  0.500000  1
  Sc  Sc2  1  0.001275  0.587250  0.500000  1
  Cd  Cd3  1  0.243365  0.000000  0.000000  1
  Ga  Ga4  1  0.999036  0.239604  0.000000  1
  Ga  Ga5  1  0.676167  0.341039  0.000000  1
  Ga  Ga6  1  0.335127  0.658961  0.000000  1
  Ga  Ga7  1  0.759432  0.760396  0.000000  1
  Ni  Ni8  1  0.975308  0.000000  0.500000  1
