# generated using pymatgen
data_LiNb(SO4)3
_symmetry_space_group_name_H-M   'P 1'
_cell_length_a   8.56363883
_cell_length_b   9.30510350
_cell_length_c   8.67111071
_cell_angle_alpha   109.75475019
_cell_angle_beta   105.02502150
_cell_angle_gamma   110.67832297
_symmetry_Int_Tables_number   1
_chemical_formula_structural   LiNb(SO4)3
_chemical_formula_sum   'Li2 Nb2 S6 O24'
_cell_volume   549.29408355
_cell_formula_units_Z   2
loop_
 _symmetry_equiv_pos_site_id
 _symmetry_equiv_pos_as_xyz
  1  'x, y, z'
loop_
 _atom_site_type_symbol
 _atom_site_label
 _atom_site_symmetry_multiplicity
 _atom_site_fract_x
 _atom_site_fract_y
 _atom_site_fract_z
 _atom_site_occupancy
  Li  Li0  1  0.853914  0.471558  0.219438  1
  Li  Li1  1  0.731456  0.062367  0.519749  1
  Nb  Nb2  1  0.027080  0.982207  0.000165  1
  Nb  Nb3  1  0.475839  0.508356  0.516219  1
  S  S4  1  0.587723  0.927077  0.774397  1
  S  S5  1  0.181372  0.409848  0.098093  1
  S  S6  1  0.089322  0.193645  0.451684  1
  S  S7  1  0.887180  0.775422  0.546086  1
  S  S8  1  0.771385  0.549018  0.889163  1
  S  S9  1  0.491441  0.151498  0.260631  1
  O  O10  1  0.019435  0.876047  0.748630  1
  O  O11  1  0.289915  0.040472  0.108465  1
  O  O12  1  0.975539  0.708931  0.441930  1
  O  O13  1  0.533681  0.034792  0.315222  1
  O  O14  1  0.051728  0.438385  0.166632  1
  O  O15  1  0.479398  0.934589  0.873613  1
  O  O16  1  0.486488  0.737387  0.611749  1
  O  O17  1  0.236184  0.489794  0.993496  1
  O  O18  1  0.227428  0.383443  0.505655  1
  O  O19  1  0.108229  0.211440  0.993755  1
  O  O20  1  0.358975  0.467994  0.265987  1
  O  O21  1  0.811007  0.878445  0.498795  1
  O  O22  1  0.180165  0.124724  0.544306  1
  O  O23  1  0.598138  0.543944  0.769406  1
  O  O24  1  0.921334  0.745990  0.979730  1
  O  O25  1  0.729510  0.615088  0.529234  1
  O  O26  1  0.735546  0.517294  0.031400  1
  O  O27  1  0.471590  0.276447  0.415130  1
  O  O28  1  0.611845  0.251696  0.203664  1
  O  O29  1  0.828407  0.443891  0.779561  1
  O  O30  1  0.633644  0.047778  0.702960  1
  O  O31  1  0.927234  0.197431  0.466975  1
  O  O32  1  0.767634  0.935868  0.885812  1
  O  O33  1  0.039523  0.095625  0.244486  1
