# generated using pymatgen
data_NdSmBe2(Co3B)2
_symmetry_space_group_name_H-M   'P 1'
_cell_length_a   5.09003510
_cell_length_b   5.08929525
_cell_length_c   6.41657200
_cell_angle_alpha   90.00000000
_cell_angle_beta   90.00000000
_cell_angle_gamma   119.99846855
_symmetry_Int_Tables_number   1
_chemical_formula_structural   NdSmBe2(Co3B)2
_chemical_formula_sum   'Nd1 Sm1 Be2 Co6 B2'
_cell_volume   143.95237341
_cell_formula_units_Z   1
loop_
 _symmetry_equiv_pos_site_id
 _symmetry_equiv_pos_as_xyz
  1  'x, y, z'
loop_
 _atom_site_type_symbol
 _atom_site_label
 _atom_site_symmetry_multiplicity
 _atom_site_fract_x
 _atom_site_fract_y
 _atom_site_fract_z
 _atom_site_occupancy
  Nd  Nd0  1  0.000002  0.000001  0.000000  1
  Sm  Sm1  1  0.999985  0.000001  0.500000  1
  Be  Be2  1  0.333528  0.667004  0.000000  1
  Be  Be3  1  0.666425  0.332998  0.000000  1
  Co  Co4  1  0.499983  0.999999  0.278006  1
  Co  Co5  1  0.499983  0.500000  0.277988  1
  Co  Co6  1  0.999982  0.499999  0.277950  1
  Co  Co7  1  0.499983  0.999999  0.721994  1
  Co  Co8  1  0.499983  0.500000  0.722011  1
  Co  Co9  1  0.999982  0.499999  0.722049  1
  B  B10  1  0.333309  0.666680  0.500000  1
  B  B11  1  0.666653  0.333318  0.500000  1
