# generated using pymatgen
data_Sc4Co6SiW
_symmetry_space_group_name_H-M   'P 1'
_cell_length_a   5.07853900
_cell_length_b   5.07853943
_cell_length_c   7.60645600
_cell_angle_alpha   90.00000000
_cell_angle_beta   90.00000000
_cell_angle_gamma   120.00000369
_symmetry_Int_Tables_number   1
_chemical_formula_structural   Sc4Co6SiW
_chemical_formula_sum   'Sc4 Co6 Si1 W1'
_cell_volume   169.89891048
_cell_formula_units_Z   1
loop_
 _symmetry_equiv_pos_site_id
 _symmetry_equiv_pos_as_xyz
  1  'x, y, z'
loop_
 _atom_site_type_symbol
 _atom_site_label
 _atom_site_symmetry_multiplicity
 _atom_site_fract_x
 _atom_site_fract_y
 _atom_site_fract_z
 _atom_site_occupancy
  Sc  Sc0  1  0.333333  0.666667  0.562120  1
  Sc  Sc1  1  0.666667  0.333333  0.437880  1
  Sc  Sc2  1  0.666667  0.333333  0.060704  1
  Sc  Sc3  1  0.333333  0.666667  0.939296  1
  Co  Co4  1  0.829281  0.170719  0.754114  1
  Co  Co5  1  0.658563  0.829281  0.245886  1
  Co  Co6  1  0.170719  0.829281  0.245886  1
  Co  Co7  1  0.829281  0.658563  0.754114  1
  Co  Co8  1  0.170719  0.341437  0.245886  1
  Co  Co9  1  0.341437  0.170719  0.754114  1
  Si  Si10  1  0.000000  0.000000  0.000000  1
  W  W11  1  0.000000  0.000000  0.500000  1
