# generated using pymatgen
data_YbDy4IrPb3
_symmetry_space_group_name_H-M   'P 1'
_cell_length_a   9.27508600
_cell_length_b   9.27508591
_cell_length_c   6.86424700
_cell_angle_alpha   90.00000000
_cell_angle_beta   90.00000000
_cell_angle_gamma   120.00000030
_symmetry_Int_Tables_number   1
_chemical_formula_structural   YbDy4IrPb3
_chemical_formula_sum   'Yb2 Dy8 Ir2 Pb6'
_cell_volume   511.39846398
_cell_formula_units_Z   2
loop_
 _symmetry_equiv_pos_site_id
 _symmetry_equiv_pos_as_xyz
  1  'x, y, z'
loop_
 _atom_site_type_symbol
 _atom_site_label
 _atom_site_symmetry_multiplicity
 _atom_site_fract_x
 _atom_site_fract_y
 _atom_site_fract_z
 _atom_site_occupancy
  Yb  Yb0  1  0.333333  0.666667  0.500000  1
  Yb  Yb1  1  0.666667  0.333333  0.500000  1
  Dy  Dy2  1  0.235323  0.000000  0.248357  1
  Dy  Dy3  1  0.000000  0.764677  0.751643  1
  Dy  Dy4  1  0.000000  0.235323  0.248357  1
  Dy  Dy5  1  0.764677  0.000000  0.751643  1
  Dy  Dy6  1  0.235323  0.235323  0.751643  1
  Dy  Dy7  1  0.333333  0.666667  0.000000  1
  Dy  Dy8  1  0.666667  0.333333  0.000000  1
  Dy  Dy9  1  0.764677  0.764677  0.248357  1
  Ir  Ir10  1  0.000000  0.000000  0.000000  1
  Ir  Ir11  1  0.000000  0.000000  0.500000  1
  Pb  Pb12  1  0.593792  0.000000  0.242291  1
  Pb  Pb13  1  0.406208  0.000000  0.757709  1
  Pb  Pb14  1  0.000000  0.593792  0.242291  1
  Pb  Pb15  1  0.593792  0.593792  0.757709  1
  Pb  Pb16  1  0.406208  0.406208  0.242291  1
  Pb  Pb17  1  0.000000  0.406208  0.757709  1
