# generated using pymatgen
data_Dy16MgTl(AgIr2)2
_symmetry_space_group_name_H-M   'P 1'
_cell_length_a   9.64002854
_cell_length_b   9.63481539
_cell_length_c   9.63481510
_cell_angle_alpha   59.77803888
_cell_angle_beta   59.87378524
_cell_angle_gamma   59.87378192
_symmetry_Int_Tables_number   1
_chemical_formula_structural   Dy16MgTl(AgIr2)2
_chemical_formula_sum   'Dy16 Mg1 Tl1 Ag2 Ir4'
_cell_volume   630.50407928
_cell_formula_units_Z   1
loop_
 _symmetry_equiv_pos_site_id
 _symmetry_equiv_pos_as_xyz
  1  'x, y, z'
loop_
 _atom_site_type_symbol
 _atom_site_label
 _atom_site_symmetry_multiplicity
 _atom_site_fract_x
 _atom_site_fract_y
 _atom_site_fract_z
 _atom_site_occupancy
  Dy  Dy0  1  0.347490  0.347353  0.347353  1
  Dy  Dy1  1  0.349257  0.349086  0.954802  1
  Dy  Dy2  1  0.349257  0.954802  0.349086  1
  Dy  Dy3  1  0.945823  0.352120  0.352120  1
  Dy  Dy4  1  0.808613  0.189778  0.189778  1
  Dy  Dy5  1  0.188289  0.810285  0.810285  1
  Dy  Dy6  1  0.186979  0.811349  0.187848  1
  Dy  Dy7  1  0.808452  0.189754  0.808915  1
  Dy  Dy8  1  0.186979  0.187848  0.811349  1
  Dy  Dy9  1  0.808452  0.808915  0.189754  1
  Dy  Dy10  1  0.939048  0.563206  0.563206  1
  Dy  Dy11  1  0.561339  0.938910  0.938910  1
  Dy  Dy12  1  0.561418  0.943576  0.563493  1
  Dy  Dy13  1  0.936690  0.562208  0.940975  1
  Dy  Dy14  1  0.561418  0.563493  0.943576  1
  Dy  Dy15  1  0.936690  0.940975  0.562208  1
  Mg  Mg16  1  0.282329  0.569544  0.569544  1
  Tl  Tl17  1  0.583605  0.582402  0.582402  1
  Ag  Ag18  1  0.581878  0.583981  0.246692  1
  Ag  Ag19  1  0.581878  0.246692  0.583981  1
  Ir  Ir20  1  0.138713  0.143225  0.143225  1
  Ir  Ir21  1  0.140257  0.143275  0.574826  1
  Ir  Ir22  1  0.140257  0.574826  0.143275  1
  Ir  Ir23  1  0.574889  0.142394  0.142394  1
