# generated using pymatgen
data_Pr8Zr11Si16Tc
_symmetry_space_group_name_H-M   'P 1'
_cell_length_a   7.21470301
_cell_length_b   7.45584985
_cell_length_c   14.10333000
_cell_angle_alpha   90.00000000
_cell_angle_beta   90.00000000
_cell_angle_gamma   90.17527796
_symmetry_Int_Tables_number   1
_chemical_formula_structural   Pr8Zr11Si16Tc
_chemical_formula_sum   'Pr8 Zr11 Si16 Tc1'
_cell_volume   758.63914418
_cell_formula_units_Z   1
loop_
 _symmetry_equiv_pos_site_id
 _symmetry_equiv_pos_as_xyz
  1  'x, y, z'
loop_
 _atom_site_type_symbol
 _atom_site_label
 _atom_site_symmetry_multiplicity
 _atom_site_fract_x
 _atom_site_fract_y
 _atom_site_fract_z
 _atom_site_occupancy
  Pr  Pr0  1  0.014021  0.173079  0.403961  1
  Pr  Pr1  1  0.513382  0.326071  0.404687  1
  Pr  Pr2  1  0.489704  0.674314  0.899656  1
  Pr  Pr3  1  0.489704  0.674314  0.600344  1
  Pr  Pr4  1  0.983831  0.828097  0.601062  1
  Pr  Pr5  1  0.983831  0.828097  0.898938  1
  Pr  Pr6  1  0.513382  0.326071  0.095313  1
  Pr  Pr7  1  0.014021  0.173079  0.096039  1
  Zr  Zr8  1  0.328521  0.174080  0.626584  1
  Zr  Zr9  1  0.671486  0.824409  0.376322  1
  Zr  Zr10  1  0.171381  0.676260  0.375370  1
  Zr  Zr11  1  0.826695  0.320561  0.874459  1
  Zr  Zr12  1  0.826695  0.320561  0.625541  1
  Zr  Zr13  1  0.842835  0.504157  0.250000  1
  Zr  Zr14  1  0.343972  0.996474  0.250000  1
  Zr  Zr15  1  0.328521  0.174080  0.873416  1
  Zr  Zr16  1  0.171381  0.676260  0.124630  1
  Zr  Zr17  1  0.671486  0.824409  0.123678  1
  Zr  Zr18  1  0.157427  0.495323  0.750000  1
  Si  Si19  1  0.295341  0.885281  0.750000  1
  Si  Si20  1  0.466715  0.628427  0.250000  1
  Si  Si21  1  0.025410  0.122756  0.750000  1
  Si  Si22  1  0.535479  0.369924  0.750000  1
  Si  Si23  1  0.152617  0.465440  0.542258  1
  Si  Si24  1  0.966878  0.874641  0.250000  1
  Si  Si25  1  0.716290  0.118083  0.250000  1
  Si  Si26  1  0.849908  0.534839  0.041106  1
  Si  Si27  1  0.346983  0.962777  0.039382  1
  Si  Si28  1  0.152617  0.465440  0.957742  1
  Si  Si29  1  0.649291  0.034431  0.546999  1
  Si  Si30  1  0.346983  0.962777  0.460618  1
  Si  Si31  1  0.849908  0.534839  0.458894  1
  Si  Si32  1  0.788438  0.611306  0.750000  1
  Si  Si33  1  0.216965  0.382584  0.250000  1
  Si  Si34  1  0.649291  0.034431  0.953001  1
  Tc  Tc35  1  0.648612  0.022328  0.750000  1
