# generated using pymatgen
data_Ti5(Re3Tc)6
_symmetry_space_group_name_H-M   'P 1'
_cell_length_a   8.37288387
_cell_length_b   8.37288338
_cell_length_c   8.35170726
_cell_angle_alpha   109.43431648
_cell_angle_beta   109.43431800
_cell_angle_gamma   109.64741558
_symmetry_Int_Tables_number   1
_chemical_formula_structural   Ti5(Re3Tc)6
_chemical_formula_sum   'Ti5 Re18 Tc6'
_cell_volume   450.14453991
_cell_formula_units_Z   1
loop_
 _symmetry_equiv_pos_site_id
 _symmetry_equiv_pos_as_xyz
  1  'x, y, z'
loop_
 _atom_site_type_symbol
 _atom_site_label
 _atom_site_symmetry_multiplicity
 _atom_site_fract_x
 _atom_site_fract_y
 _atom_site_fract_z
 _atom_site_occupancy
  Ti  Ti0  1  0.999329  0.999329  0.000000  1
  Ti  Ti1  1  0.630636  0.999551  0.000000  1
  Ti  Ti2  1  0.999551  0.630636  0.000000  1
  Ti  Ti3  1  0.999689  0.999689  0.631416  1
  Ti  Ti4  1  0.368274  0.368274  0.368584  1
  Re  Re5  1  0.319570  0.319570  0.720298  1
  Re  Re6  1  0.001019  0.681050  0.399929  1
  Re  Re7  1  0.681050  0.001019  0.399929  1
  Re  Re8  1  0.599271  0.599271  0.279702  1
  Re  Re9  1  0.281121  0.601090  0.600071  1
  Re  Re10  1  0.601090  0.281121  0.600071  1
  Re  Re11  1  0.375077  0.193730  0.000000  1
  Re  Re12  1  0.180507  0.806964  0.806053  1
  Re  Re13  1  0.374454  0.000911  0.193947  1
  Re  Re14  1  0.193730  0.375077  0.000000  1
  Re  Re15  1  0.000911  0.374454  0.193947  1
  Re  Re16  1  0.806964  0.180507  0.806053  1
  Re  Re17  1  0.807580  0.807580  0.182709  1
  Re  Re18  1  0.000856  0.193230  0.376926  1
  Re  Re19  1  0.193230  0.000856  0.376926  1
  Re  Re20  1  0.624871  0.624871  0.817291  1
  Re  Re21  1  0.816304  0.623930  0.623074  1
  Re  Re22  1  0.623930  0.816304  0.623074  1
  Tc  Tc23  1  0.400025  0.682460  0.000000  1
  Tc  Tc24  1  0.718317  0.317585  0.316652  1
  Tc  Tc25  1  0.401665  0.000933  0.683348  1
  Tc  Tc26  1  0.682460  0.400025  0.000000  1
  Tc  Tc27  1  0.000933  0.401665  0.683348  1
  Tc  Tc28  1  0.317585  0.718317  0.316652  1
