# generated using pymatgen
data_Pr2Ga2(SnPt)3
_symmetry_space_group_name_H-M   'P 1'
_cell_length_a   8.92772213
_cell_length_b   8.92772285
_cell_length_c   8.92772196
_cell_angle_alpha   137.83979515
_cell_angle_beta   105.21950404
_cell_angle_gamma   89.78292867
_symmetry_Int_Tables_number   1
_chemical_formula_structural   Pr2Ga2(SnPt)3
_chemical_formula_sum   'Pr4 Ga4 Sn6 Pt6'
_cell_volume   440.40936270
_cell_formula_units_Z   2
loop_
 _symmetry_equiv_pos_site_id
 _symmetry_equiv_pos_as_xyz
  1  'x, y, z'
loop_
 _atom_site_type_symbol
 _atom_site_label
 _atom_site_symmetry_multiplicity
 _atom_site_fract_x
 _atom_site_fract_y
 _atom_site_fract_z
 _atom_site_occupancy
  Pr  Pr0  1  0.870397  0.635701  0.234694  1
  Pr  Pr1  1  0.129603  0.364299  0.765306  1
  Pr  Pr2  1  0.401007  0.135701  0.265306  1
  Pr  Pr3  1  0.598993  0.864299  0.734694  1
  Ga  Ga4  1  0.063391  0.909043  0.154347  1
  Ga  Ga5  1  0.936609  0.090957  0.845653  1
  Ga  Ga6  1  0.754695  0.409043  0.345653  1
  Ga  Ga7  1  0.245305  0.590957  0.654347  1
  Sn  Sn8  1  0.500000  0.750000  0.250000  1
  Sn  Sn9  1  0.500000  0.250000  0.750000  1
  Sn  Sn10  1  0.226130  0.976130  0.750000  1
  Sn  Sn11  1  0.773870  0.523870  0.750000  1
  Sn  Sn12  1  0.773870  0.023870  0.250000  1
  Sn  Sn13  1  0.226130  0.476130  0.250000  1
  Pt  Pt14  1  0.000000  0.750000  0.750000  1
  Pt  Pt15  1  0.000000  0.250000  0.250000  1
  Pt  Pt16  1  0.240101  0.863660  0.376443  1
  Pt  Pt17  1  0.759899  0.136340  0.623557  1
  Pt  Pt18  1  0.487217  0.363660  0.123557  1
  Pt  Pt19  1  0.512783  0.636340  0.876443  1
