# generated using pymatgen
data_Ho3Zn3IrPd2
_symmetry_space_group_name_H-M   'P 1'
_cell_length_a   7.25714800
_cell_length_b   7.25714704
_cell_length_c   3.86692700
_cell_angle_alpha   90.00000000
_cell_angle_beta   90.00000000
_cell_angle_gamma   119.99999524
_symmetry_Int_Tables_number   1
_chemical_formula_structural   Ho3Zn3IrPd2
_chemical_formula_sum   'Ho3 Zn3 Ir1 Pd2'
_cell_volume   176.37154888
_cell_formula_units_Z   1
loop_
 _symmetry_equiv_pos_site_id
 _symmetry_equiv_pos_as_xyz
  1  'x, y, z'
loop_
 _atom_site_type_symbol
 _atom_site_label
 _atom_site_symmetry_multiplicity
 _atom_site_fract_x
 _atom_site_fract_y
 _atom_site_fract_z
 _atom_site_occupancy
  Ho  Ho0  1  0.412260  0.401052  0.000000  1
  Ho  Ho1  1  0.598948  0.011208  0.000000  1
  Ho  Ho2  1  0.988792  0.587740  0.000000  1
  Zn  Zn3  1  0.746980  0.745512  0.500000  1
  Zn  Zn4  1  0.254488  0.001468  0.500000  1
  Zn  Zn5  1  0.998532  0.253020  0.500000  1
  Ir  Ir6  1  0.666667  0.333333  0.500000  1
  Pd  Pd7  1  0.000000  0.000000  0.000000  1
  Pd  Pd8  1  0.333333  0.666667  0.500000  1
