# generated using pymatgen
data_Yb3Ce(CoGe)4
_symmetry_space_group_name_H-M   'P 1'
_cell_length_a   4.34480500
_cell_length_b   6.69863220
_cell_length_c   7.12818914
_cell_angle_alpha   90.25169010
_cell_angle_beta   90.00000000
_cell_angle_gamma   90.00000000
_symmetry_Int_Tables_number   1
_chemical_formula_structural   Yb3Ce(CoGe)4
_chemical_formula_sum   'Yb3 Ce1 Co4 Ge4'
_cell_volume   207.45860219
_cell_formula_units_Z   1
loop_
 _symmetry_equiv_pos_site_id
 _symmetry_equiv_pos_as_xyz
  1  'x, y, z'
loop_
 _atom_site_type_symbol
 _atom_site_label
 _atom_site_symmetry_multiplicity
 _atom_site_fract_x
 _atom_site_fract_y
 _atom_site_fract_z
 _atom_site_occupancy
  Yb  Yb0  1  0.750000  0.315713  0.018768  1
  Yb  Yb1  1  0.750000  0.185387  0.521263  1
  Yb  Yb2  1  0.250000  0.821120  0.482528  1
  Ce  Ce3  1  0.250000  0.685677  0.976668  1
  Co  Co4  1  0.250000  0.057523  0.136716  1
  Co  Co5  1  0.750000  0.923193  0.863927  1
  Co  Co6  1  0.750000  0.567474  0.354285  1
  Co  Co7  1  0.250000  0.437254  0.646593  1
  Ge  Ge8  1  0.250000  0.388112  0.307464  1
  Ge  Ge9  1  0.750000  0.609947  0.685264  1
  Ge  Ge10  1  0.750000  0.892052  0.200920  1
  Ge  Ge11  1  0.250000  0.116547  0.805605  1
