# generated using pymatgen
data_Rb3Na(ThS3)2
_symmetry_space_group_name_H-M   'P 1'
_cell_length_a   7.32348960
_cell_length_b   7.32345867
_cell_length_c   8.04150300
_cell_angle_alpha   81.33053641
_cell_angle_beta   81.32970277
_cell_angle_gamma   119.99968222
_symmetry_Int_Tables_number   1
_chemical_formula_structural   Rb3Na(ThS3)2
_chemical_formula_sum   'Rb3 Na1 Th2 S6'
_cell_volume   356.13249343
_cell_formula_units_Z   1
loop_
 _symmetry_equiv_pos_site_id
 _symmetry_equiv_pos_as_xyz
  1  'x, y, z'
loop_
 _atom_site_type_symbol
 _atom_site_label
 _atom_site_symmetry_multiplicity
 _atom_site_fract_x
 _atom_site_fract_y
 _atom_site_fract_z
 _atom_site_occupancy
  Rb  Rb0  1  0.659185  0.340817  0.500000  1
  Rb  Rb1  1  0.340815  0.659183  0.500000  1
  Rb  Rb2  1  0.000000  0.000000  0.500000  1
  Na  Na3  1  0.500000  0.500000  0.000000  1
  Th  Th4  1  0.832783  0.167216  0.999999  1
  Th  Th5  1  0.167217  0.832784  0.000001  1
  S  S6  1  0.790331  0.790332  0.196503  1
  S  S7  1  0.209669  0.209668  0.803497  1
  S  S8  1  0.433860  0.076367  0.199137  1
  S  S9  1  0.566140  0.923633  0.800863  1
  S  S10  1  0.923630  0.566135  0.800865  1
  S  S11  1  0.076370  0.433865  0.199135  1
