# generated using pymatgen
data_PrYCdSn2Hg3
_symmetry_space_group_name_H-M   'P 1'
_cell_length_a   4.86803100
_cell_length_b   4.55967500
_cell_length_c   9.15630200
_cell_angle_alpha   90.00000000
_cell_angle_beta   90.00000000
_cell_angle_gamma   90.00000000
_symmetry_Int_Tables_number   1
_chemical_formula_structural   PrYCdSn2Hg3
_chemical_formula_sum   'Pr1 Y1 Cd1 Sn2 Hg3'
_cell_volume   203.23913236
_cell_formula_units_Z   1
loop_
 _symmetry_equiv_pos_site_id
 _symmetry_equiv_pos_as_xyz
  1  'x, y, z'
loop_
 _atom_site_type_symbol
 _atom_site_label
 _atom_site_symmetry_multiplicity
 _atom_site_fract_x
 _atom_site_fract_y
 _atom_site_fract_z
 _atom_site_occupancy
  Pr  Pr0  1  0.000000  0.000000  0.000000  1
  Y  Y1  1  0.000000  0.000000  0.500000  1
  Cd  Cd2  1  0.500000  0.500000  0.500000  1
  Sn  Sn3  1  0.000000  0.500000  0.257290  1
  Sn  Sn4  1  0.000000  0.500000  0.742710  1
  Hg  Hg5  1  0.500000  0.500000  0.000000  1
  Hg  Hg6  1  0.500000  0.000000  0.263383  1
  Hg  Hg7  1  0.500000  0.000000  0.736617  1
