# generated using pymatgen
data_ScB2MoO6
_symmetry_space_group_name_H-M   'P 1'
_cell_length_a   5.87834996
_cell_length_b   5.87835002
_cell_length_c   5.87835045
_cell_angle_alpha   48.50049645
_cell_angle_beta   48.50049436
_cell_angle_gamma   48.50049309
_symmetry_Int_Tables_number   1
_chemical_formula_structural   ScB2MoO6
_chemical_formula_sum   'Sc1 B2 Mo1 O6'
_cell_volume   104.50249098
_cell_formula_units_Z   1
loop_
 _symmetry_equiv_pos_site_id
 _symmetry_equiv_pos_as_xyz
  1  'x, y, z'
loop_
 _atom_site_type_symbol
 _atom_site_label
 _atom_site_symmetry_multiplicity
 _atom_site_fract_x
 _atom_site_fract_y
 _atom_site_fract_z
 _atom_site_occupancy
  Sc  Sc0  1  0.000000  0.000000  0.000000  1
  B  B1  1  0.749373  0.749373  0.749373  1
  B  B2  1  0.250627  0.250627  0.250627  1
  Mo  Mo3  1  0.500000  0.500000  0.500000  1
  O  O4  1  0.033995  0.459506  0.754036  1
  O  O5  1  0.459506  0.754036  0.033995  1
  O  O6  1  0.754036  0.033995  0.459506  1
  O  O7  1  0.540494  0.245964  0.966005  1
  O  O8  1  0.245964  0.966005  0.540494  1
  O  O9  1  0.966005  0.540494  0.245964  1
