# generated using pymatgen
data_Sc2AlGa2Tc
_symmetry_space_group_name_H-M   'P 1'
_cell_length_a   5.27906280
_cell_length_b   5.25511092
_cell_length_c   8.67347400
_cell_angle_alpha   90.00000000
_cell_angle_beta   90.00000000
_cell_angle_gamma   119.85003005
_symmetry_Int_Tables_number   1
_chemical_formula_structural   Sc2AlGa2Tc
_chemical_formula_sum   'Sc4 Al2 Ga4 Tc2'
_cell_volume   208.69726179
_cell_formula_units_Z   2
loop_
 _symmetry_equiv_pos_site_id
 _symmetry_equiv_pos_as_xyz
  1  'x, y, z'
loop_
 _atom_site_type_symbol
 _atom_site_label
 _atom_site_symmetry_multiplicity
 _atom_site_fract_x
 _atom_site_fract_y
 _atom_site_fract_z
 _atom_site_occupancy
  Sc  Sc0  1  0.332632  0.666502  0.048144  1
  Sc  Sc1  1  0.667368  0.333868  0.548144  1
  Sc  Sc2  1  0.332632  0.666502  0.451856  1
  Sc  Sc3  1  0.667368  0.333868  0.951856  1
  Al  Al4  1  0.837325  0.164321  0.250000  1
  Al  Al5  1  0.162675  0.326997  0.750000  1
  Ga  Ga6  1  0.835678  0.666270  0.250000  1
  Ga  Ga7  1  0.164322  0.830592  0.750000  1
  Ga  Ga8  1  0.663611  0.830005  0.750000  1
  Ga  Ga9  1  0.336389  0.166393  0.250000  1
  Tc  Tc10  1  0.000000  0.007341  0.500000  1
  Tc  Tc11  1  0.000000  0.007341  0.000000  1
