# generated using pymatgen
data_Y2Er2Ga18PtRh5
_symmetry_space_group_name_H-M   'P 1'
_cell_length_a   7.58373456
_cell_length_b   7.58653190
_cell_length_c   9.50781874
_cell_angle_alpha   89.97574080
_cell_angle_beta   89.95598304
_cell_angle_gamma   119.75450031
_symmetry_Int_Tables_number   1
_chemical_formula_structural   Y2Er2Ga18PtRh5
_chemical_formula_sum   'Y2 Er2 Ga18 Pt1 Rh5'
_cell_volume   474.90493325
_cell_formula_units_Z   1
loop_
 _symmetry_equiv_pos_site_id
 _symmetry_equiv_pos_as_xyz
  1  'x, y, z'
loop_
 _atom_site_type_symbol
 _atom_site_label
 _atom_site_symmetry_multiplicity
 _atom_site_fract_x
 _atom_site_fract_y
 _atom_site_fract_z
 _atom_site_occupancy
  Y  Y0  1  0.997348  0.668864  0.250142  1
  Y  Y1  1  0.003431  0.331546  0.749980  1
  Er  Er2  1  0.668390  0.996582  0.250053  1
  Er  Er3  1  0.331132  0.002567  0.749802  1
  Ga  Ga4  1  0.124836  0.124918  0.249946  1
  Ga  Ga5  1  0.875421  0.874800  0.750054  1
  Ga  Ga6  1  0.002360  0.333667  0.080800  1
  Ga  Ga7  1  0.003152  0.669089  0.919253  1
  Ga  Ga8  1  0.000389  0.666216  0.579968  1
  Ga  Ga9  1  0.335017  0.000193  0.420476  1
  Ga  Ga10  1  0.999796  0.333736  0.419900  1
  Ga  Ga11  1  0.665016  0.999616  0.579670  1
  Ga  Ga12  1  0.665114  0.997043  0.919626  1
  Ga  Ga13  1  0.332147  0.997453  0.080337  1
  Ga  Ga14  1  0.332649  0.332093  0.564353  1
  Ga  Ga15  1  0.667347  0.667913  0.435643  1
  Ga  Ga16  1  0.667022  0.670356  0.065233  1
  Ga  Ga17  1  0.330176  0.332459  0.934749  1
  Ga  Ga18  1  0.339452  0.548412  0.250043  1
  Ga  Ga19  1  0.660681  0.453125  0.747685  1
  Ga  Ga20  1  0.546157  0.338166  0.252335  1
  Ga  Ga21  1  0.452267  0.661669  0.749945  1
  Pt  Pt22  1  0.671870  0.328172  0.999998  1
  Rh  Rh23  1  0.328673  0.671507  0.000023  1
  Rh  Rh24  1  0.328512  0.671603  0.499984  1
  Rh  Rh25  1  0.671690  0.328202  0.500006  1
  Rh  Rh26  1  0.999982  0.999981  0.000002  1
  Rh  Rh27  1  0.999972  0.000054  0.499996  1
