# generated using pymatgen
data_Ho17Er3Pb16
_symmetry_space_group_name_H-M   'P 1'
_cell_length_a   8.17164304
_cell_length_b   8.24518804
_cell_length_c   15.57735300
_cell_angle_alpha   90.00000000
_cell_angle_beta   90.00000000
_cell_angle_gamma   90.01116129
_symmetry_Int_Tables_number   1
_chemical_formula_structural   Ho17Er3Pb16
_chemical_formula_sum   'Ho17 Er3 Pb16'
_cell_volume   1049.55114092
_cell_formula_units_Z   1
loop_
 _symmetry_equiv_pos_site_id
 _symmetry_equiv_pos_as_xyz
  1  'x, y, z'
loop_
 _atom_site_type_symbol
 _atom_site_label
 _atom_site_symmetry_multiplicity
 _atom_site_fract_x
 _atom_site_fract_y
 _atom_site_fract_z
 _atom_site_occupancy
  Ho  Ho0  1  0.377594  0.840561  0.879469  1
  Ho  Ho1  1  0.877449  0.659535  0.620520  1
  Ho  Ho2  1  0.622458  0.159477  0.379475  1
  Ho  Ho3  1  0.122449  0.340520  0.120548  1
  Ho  Ho4  1  0.622458  0.159477  0.120525  1
  Ho  Ho5  1  0.122449  0.340520  0.379452  1
  Ho  Ho6  1  0.377594  0.840561  0.620531  1
  Ho  Ho7  1  0.877449  0.659535  0.879480  1
  Ho  Ho8  1  0.534928  0.323160  0.899971  1
  Ho  Ho9  1  0.034855  0.176736  0.600033  1
  Ho  Ho10  1  0.465102  0.676797  0.399961  1
  Ho  Ho11  1  0.965113  0.823206  0.100018  1
  Ho  Ho12  1  0.465102  0.676797  0.100039  1
  Ho  Ho13  1  0.965113  0.823206  0.399982  1
  Ho  Ho14  1  0.534928  0.323160  0.600029  1
  Ho  Ho15  1  0.034855  0.176736  0.899967  1
  Ho  Ho16  1  0.208688  0.503786  0.750000  1
  Er  Er17  1  0.708793  0.996149  0.750000  1
  Er  Er18  1  0.791295  0.496175  0.250000  1
  Er  Er19  1  0.291278  0.003810  0.250000  1
  Pb  Pb20  1  0.280782  0.032800  0.042660  1
  Pb  Pb21  1  0.780798  0.467220  0.457332  1
  Pb  Pb22  1  0.719203  0.967202  0.542633  1
  Pb  Pb23  1  0.219206  0.532808  0.957504  1
  Pb  Pb24  1  0.719203  0.967202  0.957367  1
  Pb  Pb25  1  0.219206  0.532808  0.542496  1
  Pb  Pb26  1  0.280782  0.032800  0.457340  1
  Pb  Pb27  1  0.780798  0.467220  0.042668  1
  Pb  Pb28  1  0.572458  0.626821  0.750000  1
  Pb  Pb29  1  0.072076  0.873571  0.750000  1
  Pb  Pb30  1  0.427845  0.373350  0.250000  1
  Pb  Pb31  1  0.927849  0.126644  0.250000  1
  Pb  Pb32  1  0.346926  0.152610  0.750000  1
  Pb  Pb33  1  0.846704  0.346973  0.750000  1
  Pb  Pb34  1  0.653109  0.847067  0.250000  1
  Pb  Pb35  1  0.153104  0.653001  0.250000  1
