# generated using pymatgen
data_Tm4Ga20(OsRu)3
_symmetry_space_group_name_H-M   'P 1'
_cell_length_a   8.89723301
_cell_length_b   8.89723301
_cell_length_c   6.36717200
_cell_angle_alpha   90.00000000
_cell_angle_beta   90.00000000
_cell_angle_gamma   90.00426310
_symmetry_Int_Tables_number   1
_chemical_formula_structural   Tm4Ga20(OsRu)3
_chemical_formula_sum   'Tm4 Ga20 Os3 Ru3'
_cell_volume   504.03014240
_cell_formula_units_Z   1
loop_
 _symmetry_equiv_pos_site_id
 _symmetry_equiv_pos_as_xyz
  1  'x, y, z'
loop_
 _atom_site_type_symbol
 _atom_site_label
 _atom_site_symmetry_multiplicity
 _atom_site_fract_x
 _atom_site_fract_y
 _atom_site_fract_z
 _atom_site_occupancy
  Tm  Tm0  1  0.183331  0.316679  0.000000  1
  Tm  Tm1  1  0.683372  0.183372  0.000000  1
  Tm  Tm2  1  0.816679  0.683331  0.000000  1
  Tm  Tm3  1  0.316719  0.816719  0.000000  1
  Ga  Ga4  1  0.499609  0.999609  0.282806  1
  Ga  Ga5  1  0.499609  0.999609  0.717194  1
  Ga  Ga6  1  0.292868  0.561373  0.707329  1
  Ga  Ga7  1  0.000069  0.500069  0.282786  1
  Ga  Ga8  1  0.000069  0.500069  0.717214  1
  Ga  Ga9  1  0.061373  0.792868  0.707329  1
  Ga  Ga10  1  0.207080  0.061292  0.292635  1
  Ga  Ga11  1  0.061373  0.792868  0.292671  1
  Ga  Ga12  1  0.707054  0.439008  0.707668  1
  Ga  Ga13  1  0.207080  0.061292  0.707365  1
  Ga  Ga14  1  0.939008  0.207054  0.707668  1
  Ga  Ga15  1  0.707054  0.439008  0.292332  1
  Ga  Ga16  1  0.561292  0.707080  0.292635  1
  Ga  Ga17  1  0.939008  0.207054  0.292332  1
  Ga  Ga18  1  0.561292  0.707080  0.707365  1
  Ga  Ga19  1  0.793145  0.938433  0.292400  1
  Ga  Ga20  1  0.438433  0.293145  0.707600  1
  Ga  Ga21  1  0.793145  0.938433  0.707600  1
  Ga  Ga22  1  0.438433  0.293145  0.292400  1
  Ga  Ga23  1  0.292868  0.561373  0.292671  1
  Os  Os24  1  0.999840  0.000131  0.000000  1
  Os  Os25  1  0.678260  0.178260  0.500000  1
  Os  Os26  1  0.500131  0.499840  0.000000  1
  Ru  Ru27  1  0.178187  0.321746  0.500000  1
  Ru  Ru28  1  0.321873  0.821873  0.500000  1
  Ru  Ru29  1  0.821746  0.678187  0.500000  1
