# generated using pymatgen
data_Tb15Lu(ScBi3)4
_symmetry_space_group_name_H-M   'P 1'
_cell_length_a   8.14512595
_cell_length_b   9.45439302
_cell_length_c   11.99940540
_cell_angle_alpha   89.99187789
_cell_angle_beta   89.94506074
_cell_angle_gamma   90.00163411
_symmetry_Int_Tables_number   1
_chemical_formula_structural   Tb15Lu(ScBi3)4
_chemical_formula_sum   'Tb15 Lu1 Sc4 Bi12'
_cell_volume   924.04043988
_cell_formula_units_Z   1
loop_
 _symmetry_equiv_pos_site_id
 _symmetry_equiv_pos_as_xyz
  1  'x, y, z'
loop_
 _atom_site_type_symbol
 _atom_site_label
 _atom_site_symmetry_multiplicity
 _atom_site_fract_x
 _atom_site_fract_y
 _atom_site_fract_z
 _atom_site_occupancy
  Tb  Tb0  1  0.355257  0.249519  0.284144  1
  Tb  Tb1  1  0.644308  0.749321  0.715397  1
  Tb  Tb2  1  0.146034  0.749260  0.783769  1
  Tb  Tb3  1  0.855111  0.249874  0.215867  1
  Tb  Tb4  1  0.184938  0.249899  0.780427  1
  Tb  Tb5  1  0.814923  0.749909  0.219683  1
  Tb  Tb6  1  0.314919  0.749469  0.280837  1
  Tb  Tb7  1  0.685415  0.250063  0.719438  1
  Tb  Tb8  1  0.195290  0.064777  0.058247  1
  Tb  Tb9  1  0.804700  0.935204  0.941684  1
  Tb  Tb10  1  0.304512  0.935113  0.558106  1
  Tb  Tb11  1  0.804606  0.564710  0.941684  1
  Tb  Tb12  1  0.694827  0.064773  0.442042  1
  Tb  Tb13  1  0.195514  0.435432  0.058240  1
  Tb  Tb14  1  0.695860  0.435475  0.441596  1
  Lu  Lu15  1  0.303703  0.567205  0.558200  1
  Sc  Sc16  1  0.025437  0.249797  0.512440  1
  Sc  Sc17  1  0.976082  0.749527  0.487825  1
  Sc  Sc18  1  0.474892  0.750071  0.012328  1
  Sc  Sc19  1  0.525096  0.249658  0.987494  1
  Bi  Bi20  1  0.400306  0.253354  0.543291  1
  Bi  Bi21  1  0.597917  0.749183  0.457458  1
  Bi  Bi22  1  0.098656  0.750074  0.042713  1
  Bi  Bi23  1  0.901311  0.250019  0.957133  1
  Bi  Bi24  1  0.065565  0.003488  0.331145  1
  Bi  Bi25  1  0.934507  0.995913  0.668872  1
  Bi  Bi26  1  0.434476  0.996001  0.830896  1
  Bi  Bi27  1  0.935447  0.503678  0.668581  1
  Bi  Bi28  1  0.565392  0.003563  0.169040  1
  Bi  Bi29  1  0.065456  0.495933  0.331505  1
  Bi  Bi30  1  0.565232  0.496108  0.169152  1
  Bi  Bi31  1  0.434308  0.503629  0.830767  1
