# generated using pymatgen
data_HoPa(Si2Ni)2
_symmetry_space_group_name_H-M   'P 1'
_cell_length_a   8.39439924
_cell_length_b   8.39439893
_cell_length_c   3.97911400
_cell_angle_alpha   90.00000000
_cell_angle_beta   90.00000000
_cell_angle_gamma   152.54103686
_symmetry_Int_Tables_number   1
_chemical_formula_structural   HoPa(Si2Ni)2
_chemical_formula_sum   'Ho1 Pa1 Si4 Ni2'
_cell_volume   129.29244674
_cell_formula_units_Z   1
loop_
 _symmetry_equiv_pos_site_id
 _symmetry_equiv_pos_as_xyz
  1  'x, y, z'
loop_
 _atom_site_type_symbol
 _atom_site_label
 _atom_site_symmetry_multiplicity
 _atom_site_fract_x
 _atom_site_fract_y
 _atom_site_fract_z
 _atom_site_occupancy
  Ho  Ho0  1  0.897913  0.102087  0.750000  1
  Pa  Pa1  1  0.106011  0.893989  0.250000  1
  Si  Si2  1  0.750527  0.249473  0.250000  1
  Si  Si3  1  0.250513  0.749487  0.750000  1
  Si  Si4  1  0.538380  0.461620  0.750000  1
  Si  Si5  1  0.459526  0.540474  0.250000  1
  Ni  Ni6  1  0.676233  0.323767  0.750000  1
  Ni  Ni7  1  0.320898  0.679102  0.250000  1
