# generated using pymatgen
data_Ho3Er17Tl3Cd3Ru2
_symmetry_space_group_name_H-M   'P 1'
_cell_length_a   9.61823909
_cell_length_b   9.61827690
_cell_length_c   9.71187100
_cell_angle_alpha   90.00000000
_cell_angle_beta   90.00000000
_cell_angle_gamma   119.99048234
_symmetry_Int_Tables_number   1
_chemical_formula_structural   Ho3Er17Tl3Cd3Ru2
_chemical_formula_sum   'Ho3 Er17 Tl3 Cd3 Ru2'
_cell_volume   778.15842685
_cell_formula_units_Z   1
loop_
 _symmetry_equiv_pos_site_id
 _symmetry_equiv_pos_as_xyz
  1  'x, y, z'
loop_
 _atom_site_type_symbol
 _atom_site_label
 _atom_site_symmetry_multiplicity
 _atom_site_fract_x
 _atom_site_fract_y
 _atom_site_fract_z
 _atom_site_occupancy
  Ho  Ho0  1  0.459093  0.540673  0.750000  1
  Ho  Ho1  1  0.459048  0.917954  0.750000  1
  Ho  Ho2  1  0.082207  0.540897  0.750000  1
  Er  Er3  1  0.999881  0.999782  0.502896  1
  Er  Er4  1  0.999881  0.999782  0.997104  1
  Er  Er5  1  0.210497  0.789681  0.439888  1
  Er  Er6  1  0.210574  0.420828  0.439772  1
  Er  Er7  1  0.579010  0.789443  0.439712  1
  Er  Er8  1  0.789510  0.210586  0.561511  1
  Er  Er9  1  0.789736  0.579306  0.561321  1
  Er  Er10  1  0.420597  0.210237  0.561145  1
  Er  Er11  1  0.789510  0.210586  0.938489  1
  Er  Er12  1  0.789736  0.579306  0.938679  1
  Er  Er13  1  0.420597  0.210237  0.938855  1
  Er  Er14  1  0.210497  0.789681  0.060112  1
  Er  Er15  1  0.210574  0.420828  0.060228  1
  Er  Er16  1  0.579010  0.789443  0.060288  1
  Er  Er17  1  0.538533  0.461673  0.250000  1
  Er  Er18  1  0.538536  0.076524  0.250000  1
  Er  Er19  1  0.923563  0.461658  0.250000  1
  Tl  Tl20  1  0.883124  0.117522  0.250000  1
  Tl  Tl21  1  0.883026  0.765301  0.250000  1
  Tl  Tl22  1  0.235113  0.117308  0.250000  1
  Cd  Cd23  1  0.114160  0.885495  0.750000  1
  Cd  Cd24  1  0.113868  0.228519  0.750000  1
  Cd  Cd25  1  0.771507  0.885829  0.750000  1
  Ru  Ru26  1  0.333159  0.667219  0.250000  1
  Ru  Ru27  1  0.665451  0.333704  0.750000  1
