# generated using pymatgen
data_YTm2ZnIn3Pt2
_symmetry_space_group_name_H-M   'P 1'
_cell_length_a   7.68291152
_cell_length_b   7.68291149
_cell_length_c   3.85376300
_cell_angle_alpha   90.00000000
_cell_angle_beta   90.00000000
_cell_angle_gamma   120.66538758
_symmetry_Int_Tables_number   1
_chemical_formula_structural   YTm2ZnIn3Pt2
_chemical_formula_sum   'Y1 Tm2 Zn1 In3 Pt2'
_cell_volume   195.66636496
_cell_formula_units_Z   1
loop_
 _symmetry_equiv_pos_site_id
 _symmetry_equiv_pos_as_xyz
  1  'x, y, z'
loop_
 _atom_site_type_symbol
 _atom_site_label
 _atom_site_symmetry_multiplicity
 _atom_site_fract_x
 _atom_site_fract_y
 _atom_site_fract_z
 _atom_site_occupancy
  Y  Y0  1  0.408188  0.408188  0.500000  1
  Tm  Tm1  1  0.590880  0.000241  0.500000  1
  Tm  Tm2  1  0.000241  0.590880  0.500000  1
  Zn  Zn3  1  0.999435  0.999435  0.500000  1
  In  In4  1  0.998326  0.258220  0.000000  1
  In  In5  1  0.741289  0.741289  0.000000  1
  In  In6  1  0.258220  0.998326  0.000000  1
  Pt  Pt7  1  0.671405  0.332015  0.000000  1
  Pt  Pt8  1  0.332015  0.671405  0.000000  1
