# generated using pymatgen
data_TbHo3Sn4Sb2Rh7
_symmetry_space_group_name_H-M   'P 1'
_cell_length_a   7.60682586
_cell_length_b   7.60424661
_cell_length_c   7.60424576
_cell_angle_alpha   109.33109882
_cell_angle_beta   109.57521289
_cell_angle_gamma   109.57521784
_symmetry_Int_Tables_number   1
_chemical_formula_structural   TbHo3Sn4Sb2Rh7
_chemical_formula_sum   'Tb1 Ho3 Sn4 Sb2 Rh7'
_cell_volume   338.31999205
_cell_formula_units_Z   1
loop_
 _symmetry_equiv_pos_site_id
 _symmetry_equiv_pos_as_xyz
  1  'x, y, z'
loop_
 _atom_site_type_symbol
 _atom_site_label
 _atom_site_symmetry_multiplicity
 _atom_site_fract_x
 _atom_site_fract_y
 _atom_site_fract_z
 _atom_site_occupancy
  Tb  Tb0  1  0.492264  0.493718  0.493718  1
  Ho  Ho1  1  0.492190  0.998432  0.998432  1
  Ho  Ho2  1  0.997617  0.498828  0.998830  1
  Ho  Ho3  1  0.997617  0.998830  0.498828  1
  Sn  Sn4  1  0.993953  0.313878  0.313878  1
  Sn  Sn5  1  0.687623  0.997707  0.690480  1
  Sn  Sn6  1  0.687623  0.690480  0.997707  1
  Sn  Sn7  1  0.995130  0.680653  0.680653  1
  Sb  Sb8  1  0.318966  0.997194  0.321174  1
  Sb  Sb9  1  0.318966  0.321174  0.997194  1
  Rh  Rh10  1  0.015175  0.007548  0.007548  1
  Rh  Rh11  1  0.502425  0.751555  0.250925  1
  Rh  Rh12  1  0.748749  0.501302  0.246883  1
  Rh  Rh13  1  0.250264  0.749538  0.501355  1
  Rh  Rh14  1  0.250264  0.501355  0.749538  1
  Rh  Rh15  1  0.502425  0.250925  0.751555  1
  Rh  Rh16  1  0.748749  0.246883  0.501302  1
