# generated using pymatgen
data_Rb2BaSm(SbAu)4
_symmetry_space_group_name_H-M   'P 1'
_cell_length_a   4.71133700
_cell_length_b   4.71133679
_cell_length_c   20.05540800
_cell_angle_alpha   90.00000000
_cell_angle_beta   90.00000000
_cell_angle_gamma   120.00000848
_symmetry_Int_Tables_number   1
_chemical_formula_structural   Rb2BaSm(SbAu)4
_chemical_formula_sum   'Rb2 Ba1 Sm1 Sb4 Au4'
_cell_volume   385.52311073
_cell_formula_units_Z   1
loop_
 _symmetry_equiv_pos_site_id
 _symmetry_equiv_pos_as_xyz
  1  'x, y, z'
loop_
 _atom_site_type_symbol
 _atom_site_label
 _atom_site_symmetry_multiplicity
 _atom_site_fract_x
 _atom_site_fract_y
 _atom_site_fract_z
 _atom_site_occupancy
  Rb  Rb0  1  0.000000  0.000000  0.239171  1
  Rb  Rb1  1  0.000000  0.000000  0.760829  1
  Ba  Ba2  1  0.000000  0.000000  0.500000  1
  Sm  Sm3  1  0.000000  0.000000  0.000000  1
  Sb  Sb4  1  0.333333  0.666667  0.375725  1
  Sb  Sb5  1  0.666667  0.333333  0.624275  1
  Sb  Sb6  1  0.666667  0.333333  0.896290  1
  Sb  Sb7  1  0.333333  0.666667  0.103710  1
  Au  Au8  1  0.666667  0.333333  0.376476  1
  Au  Au9  1  0.333333  0.666667  0.623524  1
  Au  Au10  1  0.333333  0.666667  0.914735  1
  Au  Au11  1  0.666667  0.333333  0.085265  1
