# generated using pymatgen
data_Li2YHoSi3
_symmetry_space_group_name_H-M   'P 1'
_cell_length_a   9.26601243
_cell_length_b   9.26601186
_cell_length_c   6.69610800
_cell_angle_alpha   90.00000000
_cell_angle_beta   90.00000000
_cell_angle_gamma   153.51899173
_symmetry_Int_Tables_number   1
_chemical_formula_structural   Li2YHoSi3
_chemical_formula_sum   'Li4 Y2 Ho2 Si6'
_cell_volume   256.35793746
_cell_formula_units_Z   2
loop_
 _symmetry_equiv_pos_site_id
 _symmetry_equiv_pos_as_xyz
  1  'x, y, z'
loop_
 _atom_site_type_symbol
 _atom_site_label
 _atom_site_symmetry_multiplicity
 _atom_site_fract_x
 _atom_site_fract_y
 _atom_site_fract_z
 _atom_site_occupancy
  Li  Li0  1  0.190346  0.809654  0.059409  1
  Li  Li1  1  0.190346  0.809654  0.440591  1
  Li  Li2  1  0.809654  0.190346  0.940591  1
  Li  Li3  1  0.809654  0.190346  0.559409  1
  Y  Y4  1  0.552745  0.447255  0.250000  1
  Y  Y5  1  0.447255  0.552745  0.750000  1
  Ho  Ho6  1  0.345249  0.654751  0.250000  1
  Ho  Ho7  1  0.654751  0.345249  0.750000  1
  Si  Si8  1  0.720806  0.279194  0.250000  1
  Si  Si9  1  0.279194  0.720806  0.750000  1
  Si  Si10  1  0.059437  0.940563  0.927177  1
  Si  Si11  1  0.940563  0.059437  0.072823  1
  Si  Si12  1  0.940563  0.059437  0.427177  1
  Si  Si13  1  0.059437  0.940563  0.572823  1
