# generated using pymatgen
data_YbPr4YSi4
_symmetry_space_group_name_H-M   'P 1'
_cell_length_a   7.69708700
_cell_length_b   7.69708700
_cell_length_c   4.43491600
_cell_angle_alpha   90.00000000
_cell_angle_beta   90.00000000
_cell_angle_gamma   90.00000000
_symmetry_Int_Tables_number   1
_chemical_formula_structural   YbPr4YSi4
_chemical_formula_sum   'Yb1 Pr4 Y1 Si4'
_cell_volume   262.74725605
_cell_formula_units_Z   1
loop_
 _symmetry_equiv_pos_site_id
 _symmetry_equiv_pos_as_xyz
  1  'x, y, z'
loop_
 _atom_site_type_symbol
 _atom_site_label
 _atom_site_symmetry_multiplicity
 _atom_site_fract_x
 _atom_site_fract_y
 _atom_site_fract_z
 _atom_site_occupancy
  Yb  Yb0  1  0.500000  0.500000  0.000000  1
  Pr  Pr1  1  0.675343  0.179817  0.500000  1
  Pr  Pr2  1  0.324657  0.820183  0.500000  1
  Pr  Pr3  1  0.179817  0.324657  0.500000  1
  Pr  Pr4  1  0.820183  0.675343  0.500000  1
  Y  Y5  1  0.000000  0.000000  0.000000  1
  Si  Si6  1  0.105602  0.617376  0.000000  1
  Si  Si7  1  0.894398  0.382624  0.000000  1
  Si  Si8  1  0.617376  0.894398  0.000000  1
  Si  Si9  1  0.382624  0.105602  0.000000  1
