# generated using pymatgen
data_HoEr3Ru7W
_symmetry_space_group_name_H-M   'P 1'
_cell_length_a   5.47750400
_cell_length_b   5.17741021
_cell_length_c   8.99822201
_cell_angle_alpha   89.99490393
_cell_angle_beta   90.00000000
_cell_angle_gamma   121.93662272
_symmetry_Int_Tables_number   1
_chemical_formula_structural   HoEr3Ru7W
_chemical_formula_sum   'Ho1 Er3 Ru7 W1'
_cell_volume   216.55702527
_cell_formula_units_Z   1
loop_
 _symmetry_equiv_pos_site_id
 _symmetry_equiv_pos_as_xyz
  1  'x, y, z'
loop_
 _atom_site_type_symbol
 _atom_site_label
 _atom_site_symmetry_multiplicity
 _atom_site_fract_x
 _atom_site_fract_y
 _atom_site_fract_z
 _atom_site_occupancy
  Ho  Ho0  1  0.334781  0.669563  0.431977  1
  Er  Er1  1  0.673277  0.346554  0.563451  1
  Er  Er2  1  0.673291  0.346581  0.936829  1
  Er  Er3  1  0.334625  0.669252  0.067929  1
  Ru  Ru4  1  0.170453  0.818533  0.750273  1
  Ru  Ru5  1  0.333280  0.164638  0.249626  1
  Ru  Ru6  1  0.823164  0.646329  0.249715  1
  Ru  Ru7  1  0.648078  0.818533  0.750273  1
  Ru  Ru8  1  0.009383  0.018765  0.001597  1
  Ru  Ru9  1  0.831358  0.164638  0.249626  1
  Ru  Ru10  1  0.009217  0.018435  0.498471  1
  W  W11  1  0.159091  0.318181  0.750236  1
