# generated using pymatgen
data_Er6C2I11
_symmetry_space_group_name_H-M   'P 1'
_cell_length_a   9.61790608
_cell_length_b   10.83892426
_cell_length_c   15.15103499
_cell_angle_alpha   90.78675241
_cell_angle_beta   104.45667163
_cell_angle_gamma   110.34397702
_symmetry_Int_Tables_number   1
_chemical_formula_structural   Er6C2I11
_chemical_formula_sum   'Er12 C4 I22'
_cell_volume   1425.23062694
_cell_formula_units_Z   2
loop_
 _symmetry_equiv_pos_site_id
 _symmetry_equiv_pos_as_xyz
  1  'x, y, z'
loop_
 _atom_site_type_symbol
 _atom_site_label
 _atom_site_symmetry_multiplicity
 _atom_site_fract_x
 _atom_site_fract_y
 _atom_site_fract_z
 _atom_site_occupancy
  Er  Er0  1  0.387157  0.478972  0.119251  1
  Er  Er1  1  0.612843  0.521028  0.880749  1
  Er  Er2  1  0.431139  0.778839  0.265705  1
  Er  Er3  1  0.568861  0.221161  0.734295  1
  Er  Er4  1  0.625066  0.584524  0.356818  1
  Er  Er5  1  0.374934  0.415476  0.643182  1
  Er  Er6  1  0.827760  0.651602  0.201894  1
  Er  Er7  1  0.172240  0.348398  0.798106  1
  Er  Er8  1  0.630161  0.840177  0.107804  1
  Er  Er9  1  0.369839  0.159823  0.892196  1
  Er  Er10  1  0.859561  0.946039  0.348556  1
  Er  Er11  1  0.140439  0.053961  0.651444  1
  C  C12  1  0.431170  0.345133  0.797777  1
  C  C13  1  0.568830  0.654867  0.202223  1
  C  C14  1  0.314843  0.231223  0.739392  1
  C  C15  1  0.685157  0.768777  0.260608  1
  I  I16  1  0.386891  0.311931  0.270749  1
  I  I17  1  0.613109  0.688069  0.729251  1
  I  I18  1  0.129263  0.556737  0.150002  1
  I  I19  1  0.870737  0.443263  0.849998  1
  I  I20  1  0.626327  0.379222  0.061763  1
  I  I21  1  0.373673  0.620778  0.938237  1
  I  I22  1  0.122143  0.206838  0.482010  1
  I  I23  1  0.877857  0.793162  0.517990  1
  I  I24  1  0.618097  0.032710  0.390823  1
  I  I25  1  0.381903  0.967290  0.609177  1
  I  I26  1  0.122174  0.870291  0.306159  1
  I  I27  1  0.877826  0.129709  0.693841  1
  I  I28  1  0.135496  0.525028  0.654296  1
  I  I29  1  0.864504  0.474972  0.345704  1
  I  I30  1  0.612387  0.366344  0.568320  1
  I  I31  1  0.387613  0.633656  0.431680  1
  I  I32  1  0.143725  0.222332  0.976085  1
  I  I33  1  0.856275  0.777668  0.023915  1
  I  I34  1  0.620402  0.059594  0.894631  1
  I  I35  1  0.379598  0.940406  0.105369  1
  I  I36  1  0.129338  0.893973  0.813429  1
  I  I37  1  0.870662  0.106027  0.186571  1
