# generated using pymatgen
data_Y3In3CuPdAu
_symmetry_space_group_name_H-M   'P 1'
_cell_length_a   7.68556900
_cell_length_b   7.68556962
_cell_length_c   3.94771700
_cell_angle_alpha   90.00000000
_cell_angle_beta   90.00000000
_cell_angle_gamma   119.99999303
_symmetry_Int_Tables_number   1
_chemical_formula_structural   Y3In3CuPdAu
_chemical_formula_sum   'Y3 In3 Cu1 Pd1 Au1'
_cell_volume   201.94298011
_cell_formula_units_Z   1
loop_
 _symmetry_equiv_pos_site_id
 _symmetry_equiv_pos_as_xyz
  1  'x, y, z'
loop_
 _atom_site_type_symbol
 _atom_site_label
 _atom_site_symmetry_multiplicity
 _atom_site_fract_x
 _atom_site_fract_y
 _atom_site_fract_z
 _atom_site_occupancy
  Y  Y0  1  0.406158  0.993489  0.500000  1
  Y  Y1  1  0.006511  0.412669  0.500000  1
  Y  Y2  1  0.587331  0.593842  0.500000  1
  In  In3  1  0.750358  0.996117  0.000000  1
  In  In4  1  0.003883  0.754240  0.000000  1
  In  In5  1  0.245760  0.249642  0.000000  1
  Cu  Cu6  1  0.000000  0.000000  0.500000  1
  Pd  Pd7  1  0.333333  0.666667  0.000000  1
  Au  Au8  1  0.666667  0.333333  0.000000  1
