# generated using pymatgen
data_Zr3Sc5Nb12Si15P
_symmetry_space_group_name_H-M   'P 1'
_cell_length_a   6.69770355
_cell_length_b   6.88009145
_cell_length_c   13.14242000
_cell_angle_alpha   90.01706909
_cell_angle_beta   90.02197153
_cell_angle_gamma   90.06148385
_symmetry_Int_Tables_number   1
_chemical_formula_structural   Zr3Sc5Nb12Si15P
_chemical_formula_sum   'Zr3 Sc5 Nb12 Si15 P1'
_cell_volume   605.61297727
_cell_formula_units_Z   1
loop_
 _symmetry_equiv_pos_site_id
 _symmetry_equiv_pos_as_xyz
  1  'x, y, z'
loop_
 _atom_site_type_symbol
 _atom_site_label
 _atom_site_symmetry_multiplicity
 _atom_site_fract_x
 _atom_site_fract_y
 _atom_site_fract_z
 _atom_site_occupancy
  Zr  Zr0  1  0.501696  0.677220  0.593222  1
  Zr  Zr1  1  0.000274  0.826200  0.905421  1
  Zr  Zr2  1  0.498821  0.326180  0.094822  1
  Sc  Sc3  1  0.998188  0.172456  0.406475  1
  Sc  Sc4  1  0.501433  0.324066  0.406622  1
  Sc  Sc5  1  0.001972  0.172621  0.093892  1
  Sc  Sc6  1  0.497692  0.672587  0.906357  1
  Sc  Sc7  1  0.996215  0.826258  0.593778  1
  Nb  Nb8  1  0.663733  0.167427  0.621359  1
  Nb  Nb9  1  0.164649  0.328385  0.875767  1
  Nb  Nb10  1  0.336627  0.828112  0.124285  1
  Nb  Nb11  1  0.833837  0.675538  0.377031  1
  Nb  Nb12  1  0.340351  0.828635  0.377163  1
  Nb  Nb13  1  0.835192  0.672026  0.124473  1
  Nb  Nb14  1  0.664304  0.171131  0.875210  1
  Nb  Nb15  1  0.165436  0.330207  0.624106  1
  Nb  Nb16  1  0.838054  0.495050  0.750395  1
  Nb  Nb17  1  0.338235  0.004606  0.748599  1
  Nb  Nb18  1  0.162787  0.505927  0.250328  1
  Nb  Nb19  1  0.661996  0.995843  0.250716  1
  Si  Si20  1  0.168164  0.534928  0.038914  1
  Si  Si21  1  0.331150  0.034791  0.961133  1
  Si  Si22  1  0.832556  0.465287  0.539538  1
  Si  Si23  1  0.322721  0.036591  0.539653  1
  Si  Si24  1  0.829371  0.464538  0.961136  1
  Si  Si25  1  0.670510  0.965055  0.039241  1
  Si  Si26  1  0.169243  0.533832  0.459999  1
  Si  Si27  1  0.461482  0.385806  0.749575  1
  Si  Si28  1  0.959901  0.114470  0.748461  1
  Si  Si29  1  0.539659  0.613028  0.250518  1
  Si  Si30  1  0.040862  0.885247  0.250352  1
  Si  Si31  1  0.705098  0.861459  0.750479  1
  Si  Si32  1  0.205653  0.638148  0.749678  1
  Si  Si33  1  0.293163  0.138578  0.250983  1
  Si  Si34  1  0.797122  0.362055  0.251013  1
  P  P35  1  0.671856  0.965715  0.459306  1
