# generated using pymatgen
data_Er6Th2GaPd24
_symmetry_space_group_name_H-M   'P 1'
_cell_length_a   8.37041800
_cell_length_b   8.36956503
_cell_length_c   8.36956503
_cell_angle_alpha   89.99089518
_cell_angle_beta   90.00000000
_cell_angle_gamma   90.00000000
_symmetry_Int_Tables_number   1
_chemical_formula_structural   Er6Th2GaPd24
_chemical_formula_sum   'Er6 Th2 Ga1 Pd24'
_cell_volume   586.34458212
_cell_formula_units_Z   1
loop_
 _symmetry_equiv_pos_site_id
 _symmetry_equiv_pos_as_xyz
  1  'x, y, z'
loop_
 _atom_site_type_symbol
 _atom_site_label
 _atom_site_symmetry_multiplicity
 _atom_site_fract_x
 _atom_site_fract_y
 _atom_site_fract_z
 _atom_site_occupancy
  Er  Er0  1  0.747609  0.252627  0.252627  1
  Er  Er1  1  0.747609  0.747373  0.747373  1
  Er  Er2  1  0.747800  0.747389  0.252611  1
  Er  Er3  1  0.747800  0.252611  0.747389  1
  Er  Er4  1  0.252303  0.747735  0.747735  1
  Er  Er5  1  0.252303  0.252265  0.252265  1
  Th  Th6  1  0.253068  0.253225  0.746775  1
  Th  Th7  1  0.253068  0.746775  0.253225  1
  Ga  Ga8  1  0.999134  0.000000  0.000000  1
  Pd  Pd9  1  0.501302  0.501120  0.746758  1
  Pd  Pd10  1  0.501302  0.253242  0.498880  1
  Pd  Pd11  1  0.253246  0.500000  0.500000  1
  Pd  Pd12  1  0.501302  0.498880  0.253242  1
  Pd  Pd13  1  0.501302  0.746758  0.501120  1
  Pd  Pd14  1  0.747047  0.500000  0.500000  1
  Pd  Pd15  1  0.998196  0.998642  0.709246  1
  Pd  Pd16  1  0.998196  0.290754  0.001358  1
  Pd  Pd17  1  0.291440  0.000000  0.000000  1
  Pd  Pd18  1  0.998196  0.001358  0.290754  1
  Pd  Pd19  1  0.998196  0.709246  0.998642  1
  Pd  Pd20  1  0.709331  0.000000  0.000000  1
  Pd  Pd21  1  0.998994  0.500720  0.739998  1
  Pd  Pd22  1  0.501126  0.260223  0.000831  1
  Pd  Pd23  1  0.259846  0.000000  0.500000  1
  Pd  Pd24  1  0.998994  0.260002  0.499280  1
  Pd  Pd25  1  0.501126  0.999169  0.739777  1
  Pd  Pd26  1  0.259846  0.500000  0.000000  1
  Pd  Pd27  1  0.998994  0.499280  0.260002  1
  Pd  Pd28  1  0.501126  0.739777  0.999169  1
  Pd  Pd29  1  0.998994  0.739998  0.500720  1
  Pd  Pd30  1  0.501126  0.000831  0.260223  1
  Pd  Pd31  1  0.740039  0.000000  0.500000  1
  Pd  Pd32  1  0.740039  0.500000  0.000000  1
