# generated using pymatgen
data_TbNb3B4(SbRu5)2
_symmetry_space_group_name_H-M   'P 1'
_cell_length_a   9.54575600
_cell_length_b   9.54575524
_cell_length_c   3.05015500
_cell_angle_alpha   90.00000000
_cell_angle_beta   90.00000000
_cell_angle_gamma   90.31606682
_symmetry_Int_Tables_number   1
_chemical_formula_structural   TbNb3B4(SbRu5)2
_chemical_formula_sum   'Tb1 Nb3 B4 Sb2 Ru10'
_cell_volume   277.93031860
_cell_formula_units_Z   1
loop_
 _symmetry_equiv_pos_site_id
 _symmetry_equiv_pos_as_xyz
  1  'x, y, z'
loop_
 _atom_site_type_symbol
 _atom_site_label
 _atom_site_symmetry_multiplicity
 _atom_site_fract_x
 _atom_site_fract_y
 _atom_site_fract_z
 _atom_site_occupancy
  Tb  Tb0  1  0.824297  0.675703  0.000000  1
  Nb  Nb1  1  0.177017  0.322983  0.000000  1
  Nb  Nb2  1  0.324334  0.826362  0.000000  1
  Nb  Nb3  1  0.673638  0.175666  0.000000  1
  B  B4  1  0.616282  0.883718  0.000000  1
  B  B5  1  0.375182  0.124818  0.000000  1
  B  B6  1  0.125417  0.617428  0.000000  1
  B  B7  1  0.882572  0.374583  0.000000  1
  Sb  Sb8  1  0.505274  0.502205  0.000000  1
  Sb  Sb9  1  0.997795  0.994726  0.000000  1
  Ru  Ru10  1  0.555389  0.728611  0.500000  1
  Ru  Ru11  1  0.429030  0.282058  0.500000  1
  Ru  Ru12  1  0.084788  0.780174  0.500000  1
  Ru  Ru13  1  0.932608  0.215863  0.500000  1
  Ru  Ru14  1  0.284137  0.567392  0.500000  1
  Ru  Ru15  1  0.719826  0.415212  0.500000  1
  Ru  Ru16  1  0.217942  0.070970  0.500000  1
  Ru  Ru17  1  0.771389  0.944611  0.500000  1
  Ru  Ru18  1  0.495313  0.004687  0.500000  1
  Ru  Ru19  1  0.007770  0.492230  0.500000  1
