# generated using pymatgen
data_LaYbGa3GeIr4
_symmetry_space_group_name_H-M   'P 1'
_cell_length_a   4.27770700
_cell_length_b   4.27770700
_cell_length_c   10.24538200
_cell_angle_alpha   90.00000000
_cell_angle_beta   90.00000000
_cell_angle_gamma   90.00000000
_symmetry_Int_Tables_number   1
_chemical_formula_structural   LaYbGa3GeIr4
_chemical_formula_sum   'La1 Yb1 Ga3 Ge1 Ir4'
_cell_volume   187.47796232
_cell_formula_units_Z   1
loop_
 _symmetry_equiv_pos_site_id
 _symmetry_equiv_pos_as_xyz
  1  'x, y, z'
loop_
 _atom_site_type_symbol
 _atom_site_label
 _atom_site_symmetry_multiplicity
 _atom_site_fract_x
 _atom_site_fract_y
 _atom_site_fract_z
 _atom_site_occupancy
  La  La0  1  0.500000  0.000000  0.753018  1
  Yb  Yb1  1  0.000000  0.500000  0.244802  1
  Ga  Ga2  1  0.000000  0.000000  0.495039  1
  Ga  Ga3  1  0.500000  0.500000  0.495039  1
  Ga  Ga4  1  0.000000  0.500000  0.876743  1
  Ge  Ge5  1  0.500000  0.000000  0.127704  1
  Ir  Ir6  1  0.000000  0.000000  0.006491  1
  Ir  Ir7  1  0.500000  0.500000  0.006491  1
  Ir  Ir8  1  0.000000  0.500000  0.630393  1
  Ir  Ir9  1  0.500000  0.000000  0.364280  1
