# generated using pymatgen
data_ZrTi5Si2(Ge2Os3)2
_symmetry_space_group_name_H-M   'P 1'
_cell_length_a   6.66414560
_cell_length_b   7.12108756
_cell_length_c   7.51157142
_cell_angle_alpha   118.29478442
_cell_angle_beta   116.16137057
_cell_angle_gamma   89.99999054
_symmetry_Int_Tables_number   1
_chemical_formula_structural   ZrTi5Si2(Ge2Os3)2
_chemical_formula_sum   'Zr1 Ti5 Si2 Ge4 Os6'
_cell_volume   271.69450452
_cell_formula_units_Z   1
loop_
 _symmetry_equiv_pos_site_id
 _symmetry_equiv_pos_as_xyz
  1  'x, y, z'
loop_
 _atom_site_type_symbol
 _atom_site_label
 _atom_site_symmetry_multiplicity
 _atom_site_fract_x
 _atom_site_fract_y
 _atom_site_fract_z
 _atom_site_occupancy
  Zr  Zr0  1  0.241785  0.468646  0.437292  1
  Ti  Ti1  1  0.799275  0.528723  0.557445  1
  Ti  Ti2  1  0.656679  0.745205  0.990408  1
  Ti  Ti3  1  0.665195  0.255173  0.010346  1
  Ti  Ti4  1  0.854271  0.059482  0.618965  1
  Ti  Ti5  1  0.246674  0.947794  0.395588  1
  Si  Si6  1  0.268264  0.274881  0.049764  1
  Si  Si7  1  0.237007  0.713025  0.926048  1
  Ge  Ge8  1  0.585130  0.847130  0.671216  1
  Ge  Ge9  1  0.906527  0.153391  0.333663  1
  Ge  Ge10  1  0.906527  0.680272  0.333663  1
  Ge  Ge11  1  0.585130  0.324086  0.671216  1
  Os  Os12  1  0.001698  0.973929  0.001193  1
  Os  Os13  1  0.001698  0.527264  0.001193  1
  Os  Os14  1  0.493025  0.658928  0.248966  1
  Os  Os15  1  0.249244  0.334945  0.752033  1
  Os  Os16  1  0.249244  0.917087  0.752033  1
  Os  Os17  1  0.493025  0.090038  0.248966  1
