# generated using pymatgen
data_DyPa3(B4Os)4
_symmetry_space_group_name_H-M   'P 1'
_cell_length_a   3.59680300
_cell_length_b   5.99286514
_cell_length_c   11.61827627
_cell_angle_alpha   89.97537739
_cell_angle_beta   90.00000000
_cell_angle_gamma   90.00000000
_symmetry_Int_Tables_number   1
_chemical_formula_structural   DyPa3(B4Os)4
_chemical_formula_sum   'Dy1 Pa3 B16 Os4'
_cell_volume   250.43372625
_cell_formula_units_Z   1
loop_
 _symmetry_equiv_pos_site_id
 _symmetry_equiv_pos_as_xyz
  1  'x, y, z'
loop_
 _atom_site_type_symbol
 _atom_site_label
 _atom_site_symmetry_multiplicity
 _atom_site_fract_x
 _atom_site_fract_y
 _atom_site_fract_z
 _atom_site_occupancy
  Dy  Dy0  1  0.000000  0.870476  0.851069  1
  Pa  Pa1  1  0.000000  0.628203  0.350586  1
  Pa  Pa2  1  0.000000  0.371410  0.650705  1
  Pa  Pa3  1  0.000000  0.128903  0.148853  1
  B  B4  1  0.500000  0.789622  0.188096  1
  B  B5  1  0.500000  0.211571  0.812386  1
  B  B6  1  0.500000  0.290870  0.311324  1
  B  B7  1  0.500000  0.710408  0.687567  1
  B  B8  1  0.500000  0.864852  0.030849  1
  B  B9  1  0.500000  0.136360  0.967593  1
  B  B10  1  0.500000  0.364904  0.467964  1
  B  B11  1  0.500000  0.633312  0.533094  1
  B  B12  1  0.500000  0.885865  0.454926  1
  B  B13  1  0.500000  0.112069  0.546577  1
  B  B14  1  0.500000  0.387146  0.044612  1
  B  B15  1  0.500000  0.613639  0.953547  1
  B  B16  1  0.500000  0.971542  0.308852  1
  B  B17  1  0.500000  0.026003  0.691516  1
  B  B18  1  0.500000  0.471814  0.190697  1
  B  B19  1  0.500000  0.528080  0.809358  1
  Os  Os20  1  0.000000  0.643173  0.097624  1
  Os  Os21  1  0.000000  0.358496  0.905845  1
  Os  Os22  1  0.000000  0.142674  0.402250  1
  Os  Os23  1  0.000000  0.858607  0.594112  1
