# generated using pymatgen
data_Hf13Zr3(TaSi4)4
_symmetry_space_group_name_H-M   'P 1'
_cell_length_a   7.01013936
_cell_length_b   7.00920101
_cell_length_c   12.82529363
_cell_angle_alpha   89.99860936
_cell_angle_beta   89.96421309
_cell_angle_gamma   90.00702927
_symmetry_Int_Tables_number   1
_chemical_formula_structural   Hf13Zr3(TaSi4)4
_chemical_formula_sum   'Hf13 Zr3 Ta4 Si16'
_cell_volume   630.17677770
_cell_formula_units_Z   1
loop_
 _symmetry_equiv_pos_site_id
 _symmetry_equiv_pos_as_xyz
  1  'x, y, z'
loop_
 _atom_site_type_symbol
 _atom_site_label
 _atom_site_symmetry_multiplicity
 _atom_site_fract_x
 _atom_site_fract_y
 _atom_site_fract_z
 _atom_site_occupancy
  Hf  Hf0  1  0.346641  0.998240  0.781838  1
  Hf  Hf1  1  0.847362  0.502064  0.967974  1
  Hf  Hf2  1  0.152871  0.498249  0.468086  1
  Hf  Hf3  1  0.002114  0.652942  0.718155  1
  Hf  Hf4  1  0.998218  0.347110  0.218040  1
  Hf  Hf5  1  0.497178  0.354246  0.125685  1
  Hf  Hf6  1  0.502546  0.646004  0.626170  1
  Hf  Hf7  1  0.854604  0.002875  0.875817  1
  Hf  Hf8  1  0.145798  0.996999  0.375938  1
  Hf  Hf9  1  0.646050  0.502820  0.373984  1
  Hf  Hf10  1  0.353985  0.497478  0.873838  1
  Hf  Hf11  1  0.002939  0.853954  0.123811  1
  Hf  Hf12  1  0.997197  0.145737  0.624186  1
  Zr  Zr13  1  0.497288  0.153045  0.531976  1
  Zr  Zr14  1  0.502372  0.846681  0.031560  1
  Zr  Zr15  1  0.653423  0.002380  0.281755  1
  Ta  Ta16  1  0.675401  0.325156  0.750220  1
  Ta  Ta17  1  0.324206  0.674413  0.250163  1
  Ta  Ta18  1  0.825534  0.824239  0.500310  1
  Ta  Ta19  1  0.174795  0.175481  0.999814  1
  Si  Si20  1  0.798660  0.147753  0.071774  1
  Si  Si21  1  0.201591  0.852447  0.571979  1
  Si  Si22  1  0.647390  0.701831  0.821827  1
  Si  Si23  1  0.352279  0.298689  0.321779  1
  Si  Si24  1  0.854641  0.203194  0.428276  1
  Si  Si25  1  0.146258  0.797524  0.927695  1
  Si  Si26  1  0.703287  0.645323  0.178207  1
  Si  Si27  1  0.297107  0.353668  0.678499  1
  Si  Si28  1  0.547664  0.199001  0.934687  1
  Si  Si29  1  0.451465  0.800313  0.435261  1
  Si  Si30  1  0.698637  0.951736  0.685548  1
  Si  Si31  1  0.300230  0.048570  0.185263  1
  Si  Si32  1  0.802347  0.453056  0.565047  1
  Si  Si33  1  0.197674  0.547033  0.064970  1
  Si  Si34  1  0.952815  0.697647  0.314940  1
  Si  Si35  1  0.047431  0.302101  0.814929  1
