# generated using pymatgen
data_Sr6Tc2NiO12
_symmetry_space_group_name_H-M   'P 1'
_cell_length_a   8.83842120
_cell_length_b   8.83842076
_cell_length_c   6.96900712
_cell_angle_alpha   67.65364662
_cell_angle_beta   67.65364946
_cell_angle_gamma   36.82084400
_symmetry_Int_Tables_number   1
_chemical_formula_structural   Sr6Tc2NiO12
_chemical_formula_sum   'Sr6 Tc2 Ni1 O12'
_cell_volume   298.92841781
_cell_formula_units_Z   1
loop_
 _symmetry_equiv_pos_site_id
 _symmetry_equiv_pos_as_xyz
  1  'x, y, z'
loop_
 _atom_site_type_symbol
 _atom_site_label
 _atom_site_symmetry_multiplicity
 _atom_site_fract_x
 _atom_site_fract_y
 _atom_site_fract_z
 _atom_site_occupancy
  Sr  Sr0  1  0.205392  0.205392  0.707241  1
  Sr  Sr1  1  0.889834  0.889834  0.708140  1
  Sr  Sr2  1  0.548206  0.548206  0.714237  1
  Sr  Sr3  1  0.794608  0.794608  0.292759  1
  Sr  Sr4  1  0.451794  0.451794  0.285763  1
  Sr  Sr5  1  0.110166  0.110166  0.291860  1
  Tc  Tc6  1  0.667400  0.667400  0.001556  1
  Tc  Tc7  1  0.332600  0.332600  0.998444  1
  Ni  Ni8  1  0.000000  0.000000  0.000000  1
  O  O9  1  0.279603  0.279603  0.317262  1
  O  O10  1  0.943864  0.943864  0.333695  1
  O  O11  1  0.614737  0.614737  0.317093  1
  O  O12  1  0.720397  0.720397  0.682738  1
  O  O13  1  0.385263  0.385263  0.682907  1
  O  O14  1  0.056136  0.056136  0.666305  1
  O  O15  1  0.000000  0.500000  0.000000  1
  O  O16  1  0.655876  0.172024  0.000842  1
  O  O17  1  0.344124  0.827976  0.999158  1
  O  O18  1  0.500000  0.000000  0.000000  1
  O  O19  1  0.172024  0.655876  0.000842  1
  O  O20  1  0.827976  0.344124  0.999158  1
