# generated using pymatgen
data_Lu3ZnGa4Ni
_symmetry_space_group_name_H-M   'P 1'
_cell_length_a   6.76250700
_cell_length_b   6.74787078
_cell_length_c   4.19439000
_cell_angle_alpha   90.00000000
_cell_angle_beta   90.00000000
_cell_angle_gamma   120.07178126
_symmetry_Int_Tables_number   1
_chemical_formula_structural   Lu3ZnGa4Ni
_chemical_formula_sum   'Lu3 Zn1 Ga4 Ni1'
_cell_volume   165.63775644
_cell_formula_units_Z   1
loop_
 _symmetry_equiv_pos_site_id
 _symmetry_equiv_pos_as_xyz
  1  'x, y, z'
loop_
 _atom_site_type_symbol
 _atom_site_label
 _atom_site_symmetry_multiplicity
 _atom_site_fract_x
 _atom_site_fract_y
 _atom_site_fract_z
 _atom_site_occupancy
  Lu  Lu0  1  0.591951  0.000000  0.500000  1
  Lu  Lu1  1  0.407077  0.406099  0.500000  1
  Lu  Lu2  1  0.000978  0.593901  0.500000  1
  Zn  Zn3  1  0.236867  0.000000  0.000000  1
  Ga  Ga4  1  0.001870  0.233960  0.000000  1
  Ga  Ga5  1  0.665145  0.332298  0.000000  1
  Ga  Ga6  1  0.332846  0.667702  0.000000  1
  Ga  Ga7  1  0.767909  0.766040  0.000000  1
  Ni  Ni8  1  0.995357  0.000000  0.500000  1
