# generated using pymatgen
data_Tm6Sc4InPb5
_symmetry_space_group_name_H-M   'P 1'
_cell_length_a   6.33076500
_cell_length_b   8.79845298
_cell_length_c   8.81152687
_cell_angle_alpha   119.95092622
_cell_angle_beta   89.99990279
_cell_angle_gamma   90.00019736
_symmetry_Int_Tables_number   1
_chemical_formula_structural   Tm6Sc4InPb5
_chemical_formula_sum   'Tm6 Sc4 In1 Pb5'
_cell_volume   425.26423355
_cell_formula_units_Z   1
loop_
 _symmetry_equiv_pos_site_id
 _symmetry_equiv_pos_as_xyz
  1  'x, y, z'
loop_
 _atom_site_type_symbol
 _atom_site_label
 _atom_site_symmetry_multiplicity
 _atom_site_fract_x
 _atom_site_fract_y
 _atom_site_fract_z
 _atom_site_occupancy
  Tm  Tm0  1  0.750012  0.238704  0.000000  1
  Tm  Tm1  1  0.750009  0.761969  0.766310  1
  Tm  Tm2  1  0.750009  0.995659  0.233690  1
  Tm  Tm3  1  0.249999  0.762981  0.000000  1
  Tm  Tm4  1  0.249992  0.237046  0.236561  1
  Tm  Tm5  1  0.249992  0.000485  0.763439  1
  Sc  Sc6  1  0.502313  0.335481  0.669233  1
  Sc  Sc7  1  0.502313  0.666248  0.330767  1
  Sc  Sc8  1  0.997675  0.666260  0.330758  1
  Sc  Sc9  1  0.997675  0.335502  0.669242  1
  In  In10  1  0.750021  0.599024  0.000000  1
  Pb  Pb11  1  0.750015  0.398193  0.398500  1
  Pb  Pb12  1  0.750015  0.999694  0.601500  1
  Pb  Pb13  1  0.249977  0.400502  0.000000  1
  Pb  Pb14  1  0.249993  0.601307  0.600362  1
  Pb  Pb15  1  0.249993  0.000945  0.399638  1
