# generated using pymatgen
data_Li6YEr2In3
_symmetry_space_group_name_H-M   'P 1'
_cell_length_a   4.82741500
_cell_length_b   6.82338600
_cell_length_c   14.47075500
_cell_angle_alpha   90.00000000
_cell_angle_beta   90.00000000
_cell_angle_gamma   90.00000000
_symmetry_Int_Tables_number   1
_chemical_formula_structural   Li6YEr2In3
_chemical_formula_sum   'Li12 Y2 Er4 In6'
_cell_volume   476.65677065
_cell_formula_units_Z   2
loop_
 _symmetry_equiv_pos_site_id
 _symmetry_equiv_pos_as_xyz
  1  'x, y, z'
loop_
 _atom_site_type_symbol
 _atom_site_label
 _atom_site_symmetry_multiplicity
 _atom_site_fract_x
 _atom_site_fract_y
 _atom_site_fract_z
 _atom_site_occupancy
  Li  Li0  1  0.500007  0.249951  0.000113  1
  Li  Li1  1  0.500007  0.750049  0.000113  1
  Li  Li2  1  0.000575  0.249735  0.166667  1
  Li  Li3  1  0.000575  0.750264  0.166667  1
  Li  Li4  1  0.500571  0.250263  0.333333  1
  Li  Li5  1  0.500571  0.749736  0.333333  1
  Li  Li6  1  0.000007  0.250048  0.499887  1
  Li  Li7  1  0.000007  0.749951  0.499887  1
  Li  Li8  1  0.499412  0.250438  0.666565  1
  Li  Li9  1  0.499412  0.749561  0.666565  1
  Li  Li10  1  0.999414  0.249560  0.833434  1
  Li  Li11  1  0.999414  0.750439  0.833434  1
  Y  Y12  1  0.999359  0.000000  0.666685  1
  Y  Y13  1  0.499359  0.500000  0.833316  1
  Er  Er14  1  0.999995  0.000000  0.999920  1
  Er  Er15  1  0.500661  0.500000  0.166594  1
  Er  Er16  1  0.000659  0.000000  0.333406  1
  Er  Er17  1  0.499995  0.500000  0.500080  1
  In  In18  1  0.999994  0.500000  0.000221  1
  In  In19  1  0.500464  0.000000  0.166506  1
  In  In20  1  0.000461  0.500000  0.333494  1
  In  In21  1  0.499994  0.000000  0.499779  1
  In  In22  1  0.999544  0.500000  0.666291  1
  In  In23  1  0.499543  0.000000  0.833708  1
