# generated using pymatgen
data_Li2Yb3AlPt3
_symmetry_space_group_name_H-M   'P 1'
_cell_length_a   7.08035794
_cell_length_b   7.08035758
_cell_length_c   4.14715800
_cell_angle_alpha   90.00000000
_cell_angle_beta   90.00000000
_cell_angle_gamma   120.69813523
_symmetry_Int_Tables_number   1
_chemical_formula_structural   Li2Yb3AlPt3
_chemical_formula_sum   'Li2 Yb3 Al1 Pt3'
_cell_volume   178.76941614
_cell_formula_units_Z   1
loop_
 _symmetry_equiv_pos_site_id
 _symmetry_equiv_pos_as_xyz
  1  'x, y, z'
loop_
 _atom_site_type_symbol
 _atom_site_label
 _atom_site_symmetry_multiplicity
 _atom_site_fract_x
 _atom_site_fract_y
 _atom_site_fract_z
 _atom_site_occupancy
  Li  Li0  1  0.237883  0.998754  0.500000  1
  Li  Li1  1  0.998754  0.237883  0.500000  1
  Yb  Yb2  1  0.004495  0.580598  0.000000  1
  Yb  Yb3  1  0.411983  0.411983  0.000000  1
  Yb  Yb4  1  0.580598  0.004495  0.000000  1
  Al  Al5  1  0.762473  0.762473  0.500000  1
  Pt  Pt6  1  0.357693  0.674025  0.500000  1
  Pt  Pt7  1  0.674025  0.357693  0.500000  1
  Pt  Pt8  1  0.972098  0.972098  0.000000  1
