# generated using pymatgen
data_Tb2Pr4Al24Ir5Ru3
_symmetry_space_group_name_H-M   'P 1'
_cell_length_a   8.89119143
_cell_length_b   8.86712590
_cell_length_c   9.63937343
_cell_angle_alpha   89.99999674
_cell_angle_beta   89.89653651
_cell_angle_gamma   119.91050430
_symmetry_Int_Tables_number   1
_chemical_formula_structural   Tb2Pr4Al24Ir5Ru3
_chemical_formula_sum   'Tb2 Pr4 Al24 Ir5 Ru3'
_cell_volume   658.73733530
_cell_formula_units_Z   1
loop_
 _symmetry_equiv_pos_site_id
 _symmetry_equiv_pos_as_xyz
  1  'x, y, z'
loop_
 _atom_site_type_symbol
 _atom_site_label
 _atom_site_symmetry_multiplicity
 _atom_site_fract_x
 _atom_site_fract_y
 _atom_site_fract_z
 _atom_site_occupancy
  Tb  Tb0  1  0.191026  0.805330  0.750147  1
  Tb  Tb1  1  0.191026  0.385696  0.750147  1
  Pr  Pr2  1  0.380607  0.190303  0.249748  1
  Pr  Pr3  1  0.810036  0.191173  0.249962  1
  Pr  Pr4  1  0.810036  0.618863  0.249962  1
  Pr  Pr5  1  0.620386  0.810193  0.750190  1
  Al  Al6  1  0.436024  0.872129  0.250105  1
  Al  Al7  1  0.126689  0.563344  0.248660  1
  Al  Al8  1  0.436024  0.563895  0.250105  1
  Al  Al9  1  0.560562  0.125062  0.749889  1
  Al  Al10  1  0.876975  0.438488  0.751236  1
  Al  Al11  1  0.560562  0.435501  0.749889  1
  Al  Al12  1  0.164874  0.836739  0.427540  1
  Al  Al13  1  0.164874  0.328138  0.427540  1
  Al  Al14  1  0.672519  0.836260  0.425968  1
  Al  Al15  1  0.837213  0.163936  0.577786  1
  Al  Al16  1  0.837213  0.673275  0.577786  1
  Al  Al17  1  0.324233  0.162116  0.578072  1
  Al  Al18  1  0.839476  0.166312  0.922327  1
  Al  Al19  1  0.839476  0.673162  0.922327  1
  Al  Al20  1  0.325365  0.162683  0.922950  1
  Al  Al21  1  0.162997  0.834565  0.072090  1
  Al  Al22  1  0.162997  0.328433  0.072090  1
  Al  Al23  1  0.671394  0.835697  0.073013  1
  Al  Al24  1  0.331992  0.665997  0.528015  1
  Al  Al25  1  0.666632  0.333315  0.480406  1
  Al  Al26  1  0.668701  0.334350  0.019564  1
  Al  Al27  1  0.330035  0.665018  0.972159  1
  Al  Al28  1  0.001230  0.000615  0.250038  1
  Al  Al29  1  0.004510  0.002255  0.750060  1
  Ir  Ir30  1  0.497935  0.998640  0.501678  1
  Ir  Ir31  1  0.001483  0.500741  0.502710  1
  Ir  Ir32  1  0.497935  0.499295  0.501678  1
  Ir  Ir33  1  0.497957  0.998680  0.998291  1
  Ir  Ir34  1  0.497957  0.499277  0.998291  1
  Ru  Ru35  1  0.999796  0.999898  0.500830  1
  Ru  Ru36  1  0.999769  0.999884  0.999352  1
  Ru  Ru37  1  0.001484  0.500742  0.997397  1
