# generated using pymatgen
data_YHo5CrFeB14
_symmetry_space_group_name_H-M   'P 1'
_cell_length_a   8.01957800
_cell_length_b   8.01957733
_cell_length_c   9.28733700
_cell_angle_alpha   90.00000000
_cell_angle_beta   90.00000000
_cell_angle_gamma   155.36433733
_symmetry_Int_Tables_number   1
_chemical_formula_structural   YHo5CrFeB14
_chemical_formula_sum   'Y1 Ho5 Cr1 Fe1 B14'
_cell_volume   248.98346913
_cell_formula_units_Z   1
loop_
 _symmetry_equiv_pos_site_id
 _symmetry_equiv_pos_as_xyz
  1  'x, y, z'
loop_
 _atom_site_type_symbol
 _atom_site_label
 _atom_site_symmetry_multiplicity
 _atom_site_fract_x
 _atom_site_fract_y
 _atom_site_fract_z
 _atom_site_occupancy
  Y  Y0  1  0.243391  0.756609  0.250000  1
  Ho  Ho1  1  0.894756  0.105244  0.440610  1
  Ho  Ho2  1  0.104931  0.895069  0.560916  1
  Ho  Ho3  1  0.894756  0.105244  0.059390  1
  Ho  Ho4  1  0.104931  0.895069  0.939084  1
  Ho  Ho5  1  0.758050  0.241950  0.750000  1
  Cr  Cr6  1  0.052705  0.947295  0.250000  1
  Fe  Fe7  1  0.945730  0.054270  0.750000  1
  B  B8  1  0.727811  0.272189  0.468497  1
  B  B9  1  0.272957  0.727043  0.534511  1
  B  B10  1  0.727811  0.272189  0.031503  1
  B  B11  1  0.272957  0.727043  0.965489  1
  B  B12  1  0.631261  0.368739  0.150941  1
  B  B13  1  0.370232  0.629768  0.846879  1
  B  B14  1  0.631261  0.368739  0.349059  1
  B  B15  1  0.370232  0.629768  0.653121  1
  B  B16  1  0.520947  0.479053  0.095911  1
  B  B17  1  0.478433  0.521567  0.902112  1
  B  B18  1  0.520947  0.479053  0.404089  1
  B  B19  1  0.478433  0.521567  0.597888  1
  B  B20  1  0.457846  0.542154  0.250000  1
  B  B21  1  0.539625  0.460375  0.750000  1
