# generated using pymatgen
data_Gd4HoOs2
_symmetry_space_group_name_H-M   'P 1'
_cell_length_a   6.39629522
_cell_length_b   7.35998923
_cell_length_c   8.46792100
_cell_angle_alpha   96.82737046
_cell_angle_beta   112.18993639
_cell_angle_gamma   89.99999736
_symmetry_Int_Tables_number   1
_chemical_formula_structural   Gd4HoOs2
_chemical_formula_sum   'Gd8 Ho2 Os4'
_cell_volume   366.06210351
_cell_formula_units_Z   2
loop_
 _symmetry_equiv_pos_site_id
 _symmetry_equiv_pos_as_xyz
  1  'x, y, z'
loop_
 _atom_site_type_symbol
 _atom_site_label
 _atom_site_symmetry_multiplicity
 _atom_site_fract_x
 _atom_site_fract_y
 _atom_site_fract_z
 _atom_site_occupancy
  Gd  Gd0  1  0.976297  0.916235  0.183258  1
  Gd  Gd1  1  0.793039  0.583765  0.816742  1
  Gd  Gd2  1  0.023703  0.083765  0.816742  1
  Gd  Gd3  1  0.206961  0.416235  0.183258  1
  Gd  Gd4  1  0.639266  0.815852  0.434372  1
  Gd  Gd5  1  0.204894  0.684148  0.565628  1
  Gd  Gd6  1  0.360734  0.184148  0.565628  1
  Gd  Gd7  1  0.795106  0.315852  0.434372  1
  Ho  Ho8  1  0.423015  0.750000  0.000000  1
  Ho  Ho9  1  0.576985  0.250000  0.000000  1
  Os  Os10  1  0.820854  0.576671  0.217687  1
  Os  Os11  1  0.603168  0.923329  0.782313  1
  Os  Os12  1  0.179146  0.423329  0.782313  1
  Os  Os13  1  0.396832  0.076671  0.217687  1
