# generated using pymatgen
data_CeCrH5
_symmetry_space_group_name_H-M   'P 1'
_cell_length_a   4.40657800
_cell_length_b   4.62554800
_cell_length_c   11.58345800
_cell_angle_alpha   90.00000000
_cell_angle_beta   90.00000000
_cell_angle_gamma   90.00000000
_symmetry_Int_Tables_number   1
_chemical_formula_structural   CeCrH5
_chemical_formula_sum   'Ce4 Cr4 H20'
_cell_volume   236.10374853
_cell_formula_units_Z   4
loop_
 _symmetry_equiv_pos_site_id
 _symmetry_equiv_pos_as_xyz
  1  'x, y, z'
loop_
 _atom_site_type_symbol
 _atom_site_label
 _atom_site_symmetry_multiplicity
 _atom_site_fract_x
 _atom_site_fract_y
 _atom_site_fract_z
 _atom_site_occupancy
  Ce  Ce0  1  0.268952  0.252302  0.646733  1
  Ce  Ce1  1  0.768952  0.247698  0.353267  1
  Ce  Ce2  1  0.231048  0.747698  0.146733  1
  Ce  Ce3  1  0.731048  0.752302  0.853267  1
  Cr  Cr4  1  0.277055  0.252303  0.924180  1
  Cr  Cr5  1  0.777055  0.247697  0.075820  1
  Cr  Cr6  1  0.222945  0.747697  0.424180  1
  Cr  Cr7  1  0.722945  0.752303  0.575820  1
  H  H8  1  0.499862  0.516001  0.494436  1
  H  H9  1  0.999862  0.983999  0.505564  1
  H  H10  1  0.000138  0.483999  0.994436  1
  H  H11  1  0.500138  0.016001  0.005564  1
  H  H12  1  0.189255  0.999276  0.822380  1
  H  H13  1  0.689255  0.500724  0.177620  1
  H  H14  1  0.310745  0.000724  0.322380  1
  H  H15  1  0.810745  0.499276  0.677620  1
  H  H16  1  0.192695  0.509250  0.823282  1
  H  H17  1  0.692695  0.990750  0.176718  1
  H  H18  1  0.307305  0.490750  0.323282  1
  H  H19  1  0.807305  0.009250  0.676718  1
  H  H20  1  0.574280  0.252651  0.829868  1
  H  H21  1  0.074280  0.247349  0.170132  1
  H  H22  1  0.925720  0.747349  0.329868  1
  H  H23  1  0.425720  0.752651  0.670132  1
  H  H24  1  0.003343  0.015119  0.994293  1
  H  H25  1  0.503343  0.484881  0.005707  1
  H  H26  1  0.496657  0.984881  0.494293  1
  H  H27  1  0.996657  0.515119  0.505707  1
