# generated using pymatgen
data_Zr10Al2(BiPb)3
_symmetry_space_group_name_H-M   'P 1'
_cell_length_a   8.90080900
_cell_length_b   8.90080987
_cell_length_c   5.95532300
_cell_angle_alpha   90.00000000
_cell_angle_beta   90.00000000
_cell_angle_gamma   119.99999305
_symmetry_Int_Tables_number   1
_chemical_formula_structural   Zr10Al2(BiPb)3
_chemical_formula_sum   'Zr10 Al2 Bi3 Pb3'
_cell_volume   408.59682658
_cell_formula_units_Z   1
loop_
 _symmetry_equiv_pos_site_id
 _symmetry_equiv_pos_as_xyz
  1  'x, y, z'
loop_
 _atom_site_type_symbol
 _atom_site_label
 _atom_site_symmetry_multiplicity
 _atom_site_fract_x
 _atom_site_fract_y
 _atom_site_fract_z
 _atom_site_occupancy
  Zr  Zr0  1  0.666667  0.333333  0.001857  1
  Zr  Zr1  1  0.333333  0.666667  0.001857  1
  Zr  Zr2  1  0.333333  0.666667  0.498143  1
  Zr  Zr3  1  0.666667  0.333333  0.498143  1
  Zr  Zr4  1  0.734007  0.734007  0.750000  1
  Zr  Zr5  1  0.265993  0.000000  0.750000  1
  Zr  Zr6  1  0.000000  0.265993  0.750000  1
  Zr  Zr7  1  0.268920  0.268920  0.250000  1
  Zr  Zr8  1  0.731080  0.000000  0.250000  1
  Zr  Zr9  1  0.000000  0.731080  0.250000  1
  Al  Al10  1  0.000000  0.000000  0.002079  1
  Al  Al11  1  0.000000  0.000000  0.497921  1
  Bi  Bi12  1  0.389165  0.389165  0.750000  1
  Bi  Bi13  1  0.610835  0.000000  0.750000  1
  Bi  Bi14  1  0.000000  0.610835  0.750000  1
  Pb  Pb15  1  0.615363  0.615363  0.250000  1
  Pb  Pb16  1  0.384637  0.000000  0.250000  1
  Pb  Pb17  1  0.000000  0.384637  0.250000  1
