# generated using pymatgen
data_GdDy5C3Cl5
_symmetry_space_group_name_H-M   'P 1'
_cell_length_a   3.66015109
_cell_length_b   8.36809908
_cell_length_c   10.35834170
_cell_angle_alpha   85.57396366
_cell_angle_beta   79.74417676
_cell_angle_gamma   77.27671609
_symmetry_Int_Tables_number   1
_chemical_formula_structural   GdDy5C3Cl5
_chemical_formula_sum   'Gd1 Dy5 C3 Cl5'
_cell_volume   304.28749531
_cell_formula_units_Z   1
loop_
 _symmetry_equiv_pos_site_id
 _symmetry_equiv_pos_as_xyz
  1  'x, y, z'
loop_
 _atom_site_type_symbol
 _atom_site_label
 _atom_site_symmetry_multiplicity
 _atom_site_fract_x
 _atom_site_fract_y
 _atom_site_fract_z
 _atom_site_occupancy
  Gd  Gd0  1  0.431013  0.923503  0.218127  1
  Dy  Dy1  1  0.575111  0.074591  0.778097  1
  Dy  Dy2  1  0.959584  0.429064  0.656037  1
  Dy  Dy3  1  0.682904  0.179684  0.457029  1
  Dy  Dy4  1  0.045648  0.568994  0.344222  1
  Dy  Dy5  1  0.320905  0.819971  0.542261  1
  C  C6  1  0.127440  0.123564  0.624983  1
  C  C7  1  0.876516  0.874665  0.374491  1
  C  C8  1  0.503102  0.498122  0.500129  1
  Cl  Cl9  1  0.751855  0.746516  0.751664  1
  Cl  Cl10  1  0.381831  0.378924  0.863518  1
  Cl  Cl11  1  0.249195  0.253906  0.248088  1
  Cl  Cl12  1  0.627890  0.613289  0.136305  1
  Cl  Cl13  1  0.004226  0.998797  0.994364  1
