# generated using pymatgen
data_Dy6Lu4Ir3Ru
_symmetry_space_group_name_H-M   'P 1'
_cell_length_a   6.40298265
_cell_length_b   7.19963405
_cell_length_c   8.42119922
_cell_angle_alpha   96.91911618
_cell_angle_beta   112.10002197
_cell_angle_gamma   89.86686705
_symmetry_Int_Tables_number   1
_chemical_formula_structural   Dy6Lu4Ir3Ru
_chemical_formula_sum   'Dy6 Lu4 Ir3 Ru1'
_cell_volume   356.67766271
_cell_formula_units_Z   1
loop_
 _symmetry_equiv_pos_site_id
 _symmetry_equiv_pos_as_xyz
  1  'x, y, z'
loop_
 _atom_site_type_symbol
 _atom_site_label
 _atom_site_symmetry_multiplicity
 _atom_site_fract_x
 _atom_site_fract_y
 _atom_site_fract_z
 _atom_site_occupancy
  Dy  Dy0  1  0.528261  0.079947  0.814794  1
  Dy  Dy1  1  0.474721  0.920127  0.188210  1
  Dy  Dy2  1  0.712316  0.416546  0.185051  1
  Dy  Dy3  1  0.289914  0.581545  0.816027  1
  Dy  Dy4  1  0.289076  0.313901  0.437570  1
  Dy  Dy5  1  0.708112  0.685248  0.561476  1
  Lu  Lu6  1  0.854960  0.183710  0.562644  1
  Lu  Lu7  1  0.142689  0.817993  0.435958  1
  Lu  Lu8  1  0.072649  0.250015  0.998702  1
  Lu  Lu9  1  0.928479  0.751083  0.001865  1
  Ir  Ir10  1  0.317512  0.575055  0.217475  1
  Ir  Ir11  1  0.684642  0.425468  0.782737  1
  Ir  Ir12  1  0.100560  0.925898  0.778211  1
  Ru  Ru13  1  0.896109  0.073463  0.219278  1
