# generated using pymatgen
data_Nd12GaSi4Sn
_symmetry_space_group_name_H-M   'P 1'
_cell_length_a   8.78991261
_cell_length_b   8.78962694
_cell_length_c   8.78991099
_cell_angle_alpha   112.71400432
_cell_angle_beta   110.37308216
_cell_angle_gamma   105.41199680
_symmetry_Int_Tables_number   1
_chemical_formula_structural   Nd12GaSi4Sn
_chemical_formula_sum   'Nd12 Ga1 Si4 Sn1'
_cell_volume   520.58506232
_cell_formula_units_Z   1
loop_
 _symmetry_equiv_pos_site_id
 _symmetry_equiv_pos_as_xyz
  1  'x, y, z'
loop_
 _atom_site_type_symbol
 _atom_site_label
 _atom_site_symmetry_multiplicity
 _atom_site_fract_x
 _atom_site_fract_y
 _atom_site_fract_z
 _atom_site_occupancy
  Nd  Nd0  1  0.434631  0.233103  0.201547  1
  Nd  Nd1  1  0.565369  0.766897  0.798453  1
  Nd  Nd2  1  0.031556  0.233103  0.798471  1
  Nd  Nd3  1  0.968444  0.766897  0.201529  1
  Nd  Nd4  1  0.183715  0.273234  0.456956  1
  Nd  Nd5  1  0.816285  0.726766  0.543044  1
  Nd  Nd6  1  0.183721  0.726766  0.910481  1
  Nd  Nd7  1  0.816279  0.273234  0.089519  1
  Nd  Nd8  1  0.320115  0.614277  0.294162  1
  Nd  Nd9  1  0.679885  0.385723  0.705838  1
  Nd  Nd10  1  0.320098  0.025940  0.705842  1
  Nd  Nd11  1  0.679902  0.974060  0.294158  1
  Ga  Ga12  1  0.000000  0.000000  0.000000  1
  Si  Si13  1  0.376130  0.000000  0.376130  1
  Si  Si14  1  0.623870  0.000000  0.623870  1
  Si  Si15  1  0.111784  0.611776  0.499994  1
  Si  Si16  1  0.888216  0.388224  0.500006  1
  Sn  Sn17  1  0.500000  0.500000  0.000000  1
