# generated using pymatgen
data_Ho15ErMgIn3Pd4
_symmetry_space_group_name_H-M   'P 1'
_cell_length_a   9.71103509
_cell_length_b   9.70065213
_cell_length_c   9.68545849
_cell_angle_alpha   59.94810644
_cell_angle_beta   60.01337991
_cell_angle_gamma   60.03537540
_symmetry_Int_Tables_number   1
_chemical_formula_structural   Ho15ErMgIn3Pd4
_chemical_formula_sum   'Ho15 Er1 Mg1 In3 Pd4'
_cell_volume   645.15013974
_cell_formula_units_Z   1
loop_
 _symmetry_equiv_pos_site_id
 _symmetry_equiv_pos_as_xyz
  1  'x, y, z'
loop_
 _atom_site_type_symbol
 _atom_site_label
 _atom_site_symmetry_multiplicity
 _atom_site_fract_x
 _atom_site_fract_y
 _atom_site_fract_z
 _atom_site_occupancy
  Ho  Ho0  1  0.064219  0.067025  0.434194  1
  Ho  Ho1  1  0.648333  0.053708  0.649012  1
  Ho  Ho2  1  0.191469  0.808708  0.191114  1
  Ho  Ho3  1  0.434384  0.065406  0.434805  1
  Ho  Ho4  1  0.191297  0.190784  0.809003  1
  Ho  Ho5  1  0.648333  0.648947  0.649012  1
  Ho  Ho6  1  0.059030  0.647008  0.646955  1
  Ho  Ho7  1  0.434641  0.065104  0.065105  1
  Ho  Ho8  1  0.647828  0.648572  0.055027  1
  Ho  Ho9  1  0.191297  0.808916  0.809003  1
  Ho  Ho10  1  0.812616  0.188037  0.811308  1
  Ho  Ho11  1  0.812616  0.188646  0.188107  1
  Ho  Ho12  1  0.812616  0.810630  0.188107  1
  Ho  Ho13  1  0.064219  0.434562  0.434194  1
  Ho  Ho14  1  0.434641  0.435149  0.065105  1
  Er  Er15  1  0.064175  0.435387  0.065050  1
  Mg  Mg16  1  0.732759  0.422226  0.422788  1
  In  In17  1  0.417404  0.416729  0.749139  1
  In  In18  1  0.417482  0.749462  0.416672  1
  In  In19  1  0.417482  0.416383  0.416672  1
  Pd  Pd20  1  0.857305  0.854948  0.855881  1
  Pd  Pd21  1  0.430404  0.856280  0.857035  1
  Pd  Pd22  1  0.858150  0.855512  0.430827  1
  Pd  Pd23  1  0.857305  0.431869  0.855881  1
