# generated using pymatgen
data_Pr2Ho2TmPt4
_symmetry_space_group_name_H-M   'P 1'
_cell_length_a   7.65620600
_cell_length_b   7.75760000
_cell_length_c   14.63609700
_cell_angle_alpha   90.00000000
_cell_angle_beta   90.00000000
_cell_angle_gamma   90.00000000
_symmetry_Int_Tables_number   1
_chemical_formula_structural   Pr2Ho2TmPt4
_chemical_formula_sum   'Pr8 Ho8 Tm4 Pt16'
_cell_volume   869.29317893
_cell_formula_units_Z   4
loop_
 _symmetry_equiv_pos_site_id
 _symmetry_equiv_pos_as_xyz
  1  'x, y, z'
loop_
 _atom_site_type_symbol
 _atom_site_label
 _atom_site_symmetry_multiplicity
 _atom_site_fract_x
 _atom_site_fract_y
 _atom_site_fract_z
 _atom_site_occupancy
  Pr  Pr0  1  0.499889  0.672830  0.598322  1
  Pr  Pr1  1  0.999889  0.827170  0.901678  1
  Pr  Pr2  1  0.500111  0.327170  0.098322  1
  Pr  Pr3  1  0.000111  0.172830  0.401678  1
  Pr  Pr4  1  0.500111  0.327170  0.401678  1
  Pr  Pr5  1  0.000111  0.172830  0.098322  1
  Pr  Pr6  1  0.499889  0.672830  0.901678  1
  Pr  Pr7  1  0.999889  0.827170  0.598322  1
  Ho  Ho8  1  0.657164  0.168880  0.622216  1
  Ho  Ho9  1  0.157164  0.331120  0.877784  1
  Ho  Ho10  1  0.342836  0.831120  0.122216  1
  Ho  Ho11  1  0.842836  0.668880  0.377784  1
  Ho  Ho12  1  0.342836  0.831120  0.377784  1
  Ho  Ho13  1  0.842836  0.668880  0.122216  1
  Ho  Ho14  1  0.657164  0.168880  0.877784  1
  Ho  Ho15  1  0.157164  0.331120  0.622216  1
  Tm  Tm16  1  0.822398  0.507005  0.750000  1
  Tm  Tm17  1  0.322398  0.992995  0.750000  1
  Tm  Tm18  1  0.177602  0.492995  0.250000  1
  Tm  Tm19  1  0.677602  0.007005  0.250000  1
  Pt  Pt20  1  0.674866  0.966462  0.454415  1
  Pt  Pt21  1  0.174866  0.533538  0.045585  1
  Pt  Pt22  1  0.325134  0.033538  0.954415  1
  Pt  Pt23  1  0.825134  0.466462  0.545585  1
  Pt  Pt24  1  0.325134  0.033538  0.545585  1
  Pt  Pt25  1  0.825134  0.466462  0.954415  1
  Pt  Pt26  1  0.674866  0.966462  0.045585  1
  Pt  Pt27  1  0.174866  0.533538  0.454415  1
  Pt  Pt28  1  0.452052  0.371968  0.750000  1
  Pt  Pt29  1  0.952052  0.128032  0.750000  1
  Pt  Pt30  1  0.547948  0.628032  0.250000  1
  Pt  Pt31  1  0.047948  0.871968  0.250000  1
  Pt  Pt32  1  0.686802  0.865193  0.750000  1
  Pt  Pt33  1  0.186802  0.634807  0.750000  1
  Pt  Pt34  1  0.313198  0.134807  0.250000  1
  Pt  Pt35  1  0.813198  0.365193  0.250000  1
