# generated using pymatgen
data_SrNd2Dy(Ir2O7)2
_symmetry_space_group_name_H-M   'P 1'
_cell_length_a   7.37539123
_cell_length_b   7.35768010
_cell_length_c   7.37539215
_cell_angle_alpha   60.02414355
_cell_angle_beta   60.21354120
_cell_angle_gamma   60.02414366
_symmetry_Int_Tables_number   1
_chemical_formula_structural   SrNd2Dy(Ir2O7)2
_chemical_formula_sum   'Sr1 Nd2 Dy1 Ir4 O14'
_cell_volume   283.56391861
_cell_formula_units_Z   1
loop_
 _symmetry_equiv_pos_site_id
 _symmetry_equiv_pos_as_xyz
  1  'x, y, z'
loop_
 _atom_site_type_symbol
 _atom_site_label
 _atom_site_symmetry_multiplicity
 _atom_site_fract_x
 _atom_site_fract_y
 _atom_site_fract_z
 _atom_site_occupancy
  Sr  Sr0  1  0.125000  0.625000  0.125000  1
  Nd  Nd1  1  0.625000  0.125000  0.125000  1
  Nd  Nd2  1  0.125000  0.125000  0.625000  1
  Dy  Dy3  1  0.125000  0.125000  0.125000  1
  Ir  Ir4  1  0.125000  0.625000  0.625000  1
  Ir  Ir5  1  0.625000  0.125000  0.625000  1
  Ir  Ir6  1  0.625000  0.625000  0.125000  1
  Ir  Ir7  1  0.625000  0.625000  0.625000  1
  O  O8  1  0.695560  0.709763  0.296802  1
  O  O9  1  0.294970  0.292848  0.712789  1
  O  O10  1  0.706151  0.292389  0.706151  1
  O  O11  1  0.296725  0.717937  0.296725  1
  O  O12  1  0.296802  0.709763  0.695560  1
  O  O13  1  0.712789  0.292848  0.294970  1
  O  O14  1  0.554440  0.540237  0.953198  1
  O  O15  1  0.955030  0.957152  0.537211  1
  O  O16  1  0.543849  0.957611  0.543849  1
  O  O17  1  0.953275  0.532063  0.953275  1
  O  O18  1  0.953198  0.540237  0.554440  1
  O  O19  1  0.537211  0.957152  0.955030  1
  O  O20  1  0.250383  0.234626  0.250383  1
  O  O21  1  0.999617  0.015374  0.999617  1
