# generated using pymatgen
data_Eu4Mg4Ir3Pt
_symmetry_space_group_name_H-M   'P 1'
_cell_length_a   4.29042600
_cell_length_b   7.30100157
_cell_length_c   8.53473148
_cell_angle_alpha   89.81778445
_cell_angle_beta   90.00000000
_cell_angle_gamma   90.00000000
_symmetry_Int_Tables_number   1
_chemical_formula_structural   Eu4Mg4Ir3Pt
_chemical_formula_sum   'Eu4 Mg4 Ir3 Pt1'
_cell_volume   267.34405003
_cell_formula_units_Z   1
loop_
 _symmetry_equiv_pos_site_id
 _symmetry_equiv_pos_as_xyz
  1  'x, y, z'
loop_
 _atom_site_type_symbol
 _atom_site_label
 _atom_site_symmetry_multiplicity
 _atom_site_fract_x
 _atom_site_fract_y
 _atom_site_fract_z
 _atom_site_occupancy
  Eu  Eu0  1  0.250000  0.531357  0.175420  1
  Eu  Eu1  1  0.750000  0.472184  0.829536  1
  Eu  Eu2  1  0.750000  0.961887  0.677790  1
  Eu  Eu3  1  0.250000  0.028141  0.321452  1
  Mg  Mg4  1  0.250000  0.639419  0.558750  1
  Mg  Mg5  1  0.750000  0.364755  0.437138  1
  Mg  Mg6  1  0.750000  0.863515  0.059858  1
  Mg  Mg7  1  0.250000  0.136164  0.942699  1
  Ir  Ir8  1  0.250000  0.765296  0.872033  1
  Ir  Ir9  1  0.750000  0.234267  0.128127  1
  Ir  Ir10  1  0.750000  0.734669  0.371665  1
  Pt  Pt11  1  0.250000  0.268345  0.625534  1
