# generated using pymatgen
data_Nd2Np(ZnIr)3
_symmetry_space_group_name_H-M   'P 1'
_cell_length_a   7.37671600
_cell_length_b   7.22426565
_cell_length_c   3.92250600
_cell_angle_alpha   90.00000000
_cell_angle_beta   90.00000000
_cell_angle_gamma   120.70054729
_symmetry_Int_Tables_number   1
_chemical_formula_structural   Nd2Np(ZnIr)3
_chemical_formula_sum   'Nd2 Np1 Zn3 Ir3'
_cell_volume   179.73877089
_cell_formula_units_Z   1
loop_
 _symmetry_equiv_pos_site_id
 _symmetry_equiv_pos_as_xyz
  1  'x, y, z'
loop_
 _atom_site_type_symbol
 _atom_site_label
 _atom_site_symmetry_multiplicity
 _atom_site_fract_x
 _atom_site_fract_y
 _atom_site_fract_z
 _atom_site_occupancy
  Nd  Nd0  1  0.002502  0.592703  0.000000  1
  Nd  Nd1  1  0.409799  0.407297  0.000000  1
  Np  Np2  1  0.593032  0.000000  0.000000  1
  Zn  Zn3  1  0.233024  0.000000  0.500000  1
  Zn  Zn4  1  0.005046  0.250996  0.500000  1
  Zn  Zn5  1  0.754050  0.749004  0.500000  1
  Ir  Ir6  1  0.369179  0.711439  0.500000  1
  Ir  Ir7  1  0.657741  0.288561  0.500000  1
  Ir  Ir8  1  0.975627  0.000000  0.000000  1
