# generated using pymatgen
data_Er2Sc4GaNi2
_symmetry_space_group_name_H-M   'P 1'
_cell_length_a   7.89950793
_cell_length_b   7.89950839
_cell_length_c   7.89950832
_cell_angle_alpha   111.60825554
_cell_angle_beta   110.32483764
_cell_angle_gamma   106.52294405
_symmetry_Int_Tables_number   1
_chemical_formula_structural   Er2Sc4GaNi2
_chemical_formula_sum   'Er4 Sc8 Ga2 Ni4'
_cell_volume   378.67184333
_cell_formula_units_Z   2
loop_
 _symmetry_equiv_pos_site_id
 _symmetry_equiv_pos_as_xyz
  1  'x, y, z'
loop_
 _atom_site_type_symbol
 _atom_site_label
 _atom_site_symmetry_multiplicity
 _atom_site_fract_x
 _atom_site_fract_y
 _atom_site_fract_z
 _atom_site_occupancy
  Er  Er0  1  0.187866  0.210308  0.398174  1
  Er  Er1  1  0.812134  0.210308  0.022442  1
  Er  Er2  1  0.187866  0.789692  0.977558  1
  Er  Er3  1  0.812134  0.789692  0.601826  1
  Sc  Sc4  1  0.032643  0.730493  0.302150  1
  Sc  Sc5  1  0.967357  0.269507  0.697850  1
  Sc  Sc6  1  0.571658  0.269507  0.302150  1
  Sc  Sc7  1  0.428342  0.730493  0.697850  1
  Sc  Sc8  1  0.673640  0.871827  0.198186  1
  Sc  Sc9  1  0.326360  0.524546  0.198186  1
  Sc  Sc10  1  0.326360  0.128173  0.801814  1
  Sc  Sc11  1  0.673640  0.475454  0.801814  1
  Ga  Ga12  1  0.000000  0.500000  0.500000  1
  Ga  Ga13  1  0.500000  0.000000  0.500000  1
  Ni  Ni14  1  0.646059  0.500000  0.146059  1
  Ni  Ni15  1  0.353941  0.500000  0.853941  1
  Ni  Ni16  1  0.865153  0.865153  0.000000  1
  Ni  Ni17  1  0.134847  0.134847  0.000000  1
