# generated using pymatgen
data_NpPd2Au3
_symmetry_space_group_name_H-M   'P 1'
_cell_length_a   5.46150440
_cell_length_b   5.46150550
_cell_length_c   5.46150610
_cell_angle_alpha   120.14803073
_cell_angle_beta   119.35036612
_cell_angle_gamma   90.43632539
_symmetry_Int_Tables_number   1
_chemical_formula_structural   NpPd2Au3
_chemical_formula_sum   'Np1 Pd2 Au3'
_cell_volume   115.61805208
_cell_formula_units_Z   1
loop_
 _symmetry_equiv_pos_site_id
 _symmetry_equiv_pos_as_xyz
  1  'x, y, z'
loop_
 _atom_site_type_symbol
 _atom_site_label
 _atom_site_symmetry_multiplicity
 _atom_site_fract_x
 _atom_site_fract_y
 _atom_site_fract_z
 _atom_site_occupancy
  Np  Np0  1  0.004082  0.004082  0.000000  1
  Pd  Pd1  1  0.622942  0.373779  0.249163  1
  Pd  Pd2  1  0.124616  0.373779  0.750837  1
  Au  Au3  1  0.623461  0.374295  0.750834  1
  Au  Au4  1  0.623461  0.872627  0.249166  1
  Au  Au5  1  0.251437  0.751437  0.500000  1
