# generated using pymatgen
data_Sc6Ga7Pd16S
_symmetry_space_group_name_H-M   'P 1'
_cell_length_a   8.83836544
_cell_length_b   8.83872405
_cell_length_c   8.83841600
_cell_angle_alpha   59.99935646
_cell_angle_beta   59.99769233
_cell_angle_gamma   59.99679482
_symmetry_Int_Tables_number   1
_chemical_formula_structural   Sc6Ga7Pd16S
_chemical_formula_sum   'Sc6 Ga7 Pd16 S1'
_cell_volume   488.20335859
_cell_formula_units_Z   1
loop_
 _symmetry_equiv_pos_site_id
 _symmetry_equiv_pos_as_xyz
  1  'x, y, z'
loop_
 _atom_site_type_symbol
 _atom_site_label
 _atom_site_symmetry_multiplicity
 _atom_site_fract_x
 _atom_site_fract_y
 _atom_site_fract_z
 _atom_site_occupancy
  Sc  Sc0  1  0.712104  0.287982  0.287969  1
  Sc  Sc1  1  0.287896  0.712018  0.712031  1
  Sc  Sc2  1  0.287942  0.712063  0.288002  1
  Sc  Sc3  1  0.712058  0.287937  0.711998  1
  Sc  Sc4  1  0.287941  0.288018  0.712068  1
  Sc  Sc5  1  0.712059  0.711982  0.287932  1
  Ga  Ga6  1  0.000000  0.000000  0.000000  1
  Ga  Ga7  1  0.500000  0.000000  0.000000  1
  Ga  Ga8  1  0.000000  0.500000  0.500000  1
  Ga  Ga9  1  0.000000  0.500000  0.000000  1
  Ga  Ga10  1  0.500000  0.000000  0.500000  1
  Ga  Ga11  1  0.000000  0.000000  0.500000  1
  Ga  Ga12  1  0.500000  0.500000  0.000000  1
  Pd  Pd13  1  0.118193  0.118163  0.118157  1
  Pd  Pd14  1  0.881807  0.881837  0.881843  1
  Pd  Pd15  1  0.118199  0.118170  0.645476  1
  Pd  Pd16  1  0.118203  0.645470  0.118167  1
  Pd  Pd17  1  0.881801  0.881830  0.354524  1
  Pd  Pd18  1  0.881797  0.354530  0.881833  1
  Pd  Pd19  1  0.645416  0.118202  0.118198  1
  Pd  Pd20  1  0.354584  0.881798  0.881802  1
  Pd  Pd21  1  0.336572  0.336602  0.336605  1
  Pd  Pd22  1  0.663428  0.663398  0.663395  1
  Pd  Pd23  1  0.336582  0.336600  0.990210  1
  Pd  Pd24  1  0.336578  0.990191  0.336614  1
  Pd  Pd25  1  0.663418  0.663400  0.009790  1
  Pd  Pd26  1  0.663422  0.009809  0.663386  1
  Pd  Pd27  1  0.990134  0.336614  0.336630  1
  Pd  Pd28  1  0.009866  0.663386  0.663370  1
  S  S29  1  0.500000  0.500000  0.500000  1
