# generated using pymatgen
data_CaLu3As6Rh7
_symmetry_space_group_name_H-M   'P 1'
_cell_length_a   7.24517355
_cell_length_b   7.24517433
_cell_length_c   7.24517419
_cell_angle_alpha   109.51578219
_cell_angle_beta   109.51578701
_cell_angle_gamma   109.51578343
_symmetry_Int_Tables_number   1
_chemical_formula_structural   CaLu3As6Rh7
_chemical_formula_sum   'Ca1 Lu3 As6 Rh7'
_cell_volume   292.28460852
_cell_formula_units_Z   1
loop_
 _symmetry_equiv_pos_site_id
 _symmetry_equiv_pos_as_xyz
  1  'x, y, z'
loop_
 _atom_site_type_symbol
 _atom_site_label
 _atom_site_symmetry_multiplicity
 _atom_site_fract_x
 _atom_site_fract_y
 _atom_site_fract_z
 _atom_site_occupancy
  Ca  Ca0  1  0.500000  0.500000  0.500000  1
  Lu  Lu1  1  0.000000  0.500000  0.000000  1
  Lu  Lu2  1  0.500000  0.000000  0.000000  1
  Lu  Lu3  1  0.000000  0.000000  0.500000  1
  As  As4  1  0.681680  0.000142  0.681680  1
  As  As5  1  0.681680  0.681680  0.000142  1
  As  As6  1  0.318320  0.318320  0.999858  1
  As  As7  1  0.000142  0.681680  0.681680  1
  As  As8  1  0.999858  0.318320  0.318320  1
  As  As9  1  0.318320  0.999858  0.318320  1
  Rh  Rh10  1  0.753530  0.500000  0.246470  1
  Rh  Rh11  1  0.500000  0.246470  0.753530  1
  Rh  Rh12  1  0.753530  0.246470  0.500000  1
  Rh  Rh13  1  0.246470  0.753530  0.500000  1
  Rh  Rh14  1  0.246470  0.500000  0.753530  1
  Rh  Rh15  1  0.500000  0.753530  0.246470  1
  Rh  Rh16  1  0.000000  0.000000  0.000000  1
