# generated using pymatgen
data_Ce5Nd6Y5(CdRu)4
_symmetry_space_group_name_H-M   'P 1'
_cell_length_a   9.65956858
_cell_length_b   9.77157528
_cell_length_c   9.77157676
_cell_angle_alpha   59.91011877
_cell_angle_beta   60.37846256
_cell_angle_gamma   60.37846047
_symmetry_Int_Tables_number   1
_chemical_formula_structural   Ce5Nd6Y5(CdRu)4
_chemical_formula_sum   'Ce5 Nd6 Y5 Cd4 Ru4'
_cell_volume   655.44096806
_cell_formula_units_Z   1
loop_
 _symmetry_equiv_pos_site_id
 _symmetry_equiv_pos_as_xyz
  1  'x, y, z'
loop_
 _atom_site_type_symbol
 _atom_site_label
 _atom_site_symmetry_multiplicity
 _atom_site_fract_x
 _atom_site_fract_y
 _atom_site_fract_z
 _atom_site_occupancy
  Ce  Ce0  1  0.815586  0.184414  0.184414  1
  Ce  Ce1  1  0.345263  0.345571  0.963902  1
  Ce  Ce2  1  0.345263  0.963902  0.345571  1
  Ce  Ce3  1  0.962161  0.348328  0.348328  1
  Ce  Ce4  1  0.341184  0.348328  0.348328  1
  Nd  Nd5  1  0.559404  0.556912  0.941255  1
  Nd  Nd6  1  0.942429  0.556912  0.941255  1
  Nd  Nd7  1  0.560287  0.939713  0.939713  1
  Nd  Nd8  1  0.942429  0.941255  0.556912  1
  Nd  Nd9  1  0.559404  0.941255  0.556912  1
  Nd  Nd10  1  0.939152  0.560848  0.560848  1
  Y  Y11  1  0.190818  0.185978  0.809607  1
  Y  Y12  1  0.813597  0.185978  0.809607  1
  Y  Y13  1  0.187181  0.812819  0.812818  1
  Y  Y14  1  0.813597  0.809608  0.185978  1
  Y  Y15  1  0.190817  0.809607  0.185977  1
  Cd  Cd16  1  0.578159  0.582741  0.260940  1
  Cd  Cd17  1  0.578159  0.260940  0.582741  1
  Cd  Cd18  1  0.261767  0.579415  0.579415  1
  Cd  Cd19  1  0.579401  0.579415  0.579415  1
  Ru  Ru20  1  0.148384  0.142776  0.560455  1
  Ru  Ru21  1  0.148384  0.560455  0.142776  1
  Ru  Ru22  1  0.582189  0.151415  0.151415  1
  Ru  Ru23  1  0.114981  0.151415  0.151415  1
