# generated using pymatgen
data_Yb2InSiRh2
_symmetry_space_group_name_H-M   'P 1'
_cell_length_a   4.29826000
_cell_length_b   7.28967276
_cell_length_c   7.65635241
_cell_angle_alpha   94.80898167
_cell_angle_beta   90.00000000
_cell_angle_gamma   90.00000000
_symmetry_Int_Tables_number   1
_chemical_formula_structural   Yb2InSiRh2
_chemical_formula_sum   'Yb4 In2 Si2 Rh4'
_cell_volume   239.05129407
_cell_formula_units_Z   2
loop_
 _symmetry_equiv_pos_site_id
 _symmetry_equiv_pos_as_xyz
  1  'x, y, z'
loop_
 _atom_site_type_symbol
 _atom_site_label
 _atom_site_symmetry_multiplicity
 _atom_site_fract_x
 _atom_site_fract_y
 _atom_site_fract_z
 _atom_site_occupancy
  Yb  Yb0  1  0.250000  0.029190  0.175442  1
  Yb  Yb1  1  0.750000  0.970810  0.824558  1
  Yb  Yb2  1  0.250000  0.508818  0.309660  1
  Yb  Yb3  1  0.750000  0.491182  0.690340  1
  In  In4  1  0.750000  0.837067  0.411618  1
  In  In5  1  0.250000  0.162933  0.588382  1
  Si  Si6  1  0.750000  0.315265  0.070754  1
  Si  Si7  1  0.250000  0.684735  0.929246  1
  Rh  Rh8  1  0.250000  0.778110  0.637660  1
  Rh  Rh9  1  0.750000  0.221890  0.362340  1
  Rh  Rh10  1  0.250000  0.355036  0.936617  1
  Rh  Rh11  1  0.750000  0.644964  0.063383  1
