# generated using pymatgen
data_Dy3Er2Co19Si11P
_symmetry_space_group_name_H-M   'P 1'
_cell_length_a   12.12570518
_cell_length_b   12.15285268
_cell_length_c   3.72047100
_cell_angle_alpha   90.00000000
_cell_angle_beta   90.00000000
_cell_angle_gamma   120.07407539
_symmetry_Int_Tables_number   1
_chemical_formula_structural   Dy3Er2Co19Si11P
_chemical_formula_sum   'Dy3 Er2 Co19 Si11 P1'
_cell_volume   474.44856537
_cell_formula_units_Z   1
loop_
 _symmetry_equiv_pos_site_id
 _symmetry_equiv_pos_as_xyz
  1  'x, y, z'
loop_
 _atom_site_type_symbol
 _atom_site_label
 _atom_site_symmetry_multiplicity
 _atom_site_fract_x
 _atom_site_fract_y
 _atom_site_fract_z
 _atom_site_occupancy
  Dy  Dy0  1  0.667405  0.333476  0.000000  1
  Dy  Dy1  1  0.332595  0.666073  0.000000  1
  Dy  Dy2  1  0.000000  0.814180  0.500000  1
  Er  Er3  1  0.184824  0.185935  0.500000  1
  Er  Er4  1  0.815176  0.001111  0.500000  1
  Co  Co5  1  0.558456  0.559007  0.000000  1
  Co  Co6  1  0.441544  0.000552  0.000000  1
  Co  Co7  1  0.000000  0.440970  0.000000  1
  Co  Co8  1  0.823747  0.196947  0.000000  1
  Co  Co9  1  0.802420  0.622600  0.000000  1
  Co  Co10  1  0.377458  0.180468  0.000000  1
  Co  Co11  1  0.197580  0.820180  0.000000  1
  Co  Co12  1  0.622542  0.803010  0.000000  1
  Co  Co13  1  0.176253  0.373201  0.000000  1
  Co  Co14  1  0.645069  0.123456  0.500000  1
  Co  Co15  1  0.877059  0.520060  0.500000  1
  Co  Co16  1  0.478906  0.356503  0.500000  1
  Co  Co17  1  0.122941  0.643003  0.500000  1
  Co  Co18  1  0.521094  0.877597  0.500000  1
  Co  Co19  1  0.354931  0.478387  0.500000  1
  Co  Co20  1  0.718364  0.718787  0.500000  1
  Co  Co21  1  0.281636  0.000423  0.500000  1
  Co  Co22  1  0.000000  0.277563  0.500000  1
  Co  Co23  1  0.000000  0.005028  0.000000  1
  Si  Si24  1  0.370600  0.371000  0.000000  1
  Si  Si25  1  0.629400  0.000401  0.000000  1
  Si  Si26  1  0.000000  0.628365  0.000000  1
  Si  Si27  1  0.840614  0.317862  0.500000  1
  Si  Si28  1  0.682417  0.522273  0.500000  1
  Si  Si29  1  0.478568  0.160896  0.500000  1
  Si  Si30  1  0.317583  0.839856  0.500000  1
  Si  Si31  1  0.521432  0.682329  0.500000  1
  Si  Si32  1  0.159386  0.477248  0.500000  1
  Si  Si33  1  0.816592  0.817209  0.000000  1
  Si  Si34  1  0.183408  0.000617  0.000000  1
  P  P35  1  0.000000  0.183428  0.000000  1
