# generated using pymatgen
data_Gd3Cd3AgAu2
_symmetry_space_group_name_H-M   'P 1'
_cell_length_a   7.92964600
_cell_length_b   7.92964524
_cell_length_c   3.84879000
_cell_angle_alpha   90.00000000
_cell_angle_beta   90.00000000
_cell_angle_gamma   120.00000318
_symmetry_Int_Tables_number   1
_chemical_formula_structural   Gd3Cd3AgAu2
_chemical_formula_sum   'Gd3 Cd3 Ag1 Au2'
_cell_volume   209.58605884
_cell_formula_units_Z   1
loop_
 _symmetry_equiv_pos_site_id
 _symmetry_equiv_pos_as_xyz
  1  'x, y, z'
loop_
 _atom_site_type_symbol
 _atom_site_label
 _atom_site_symmetry_multiplicity
 _atom_site_fract_x
 _atom_site_fract_y
 _atom_site_fract_z
 _atom_site_occupancy
  Gd  Gd0  1  0.594008  0.000000  0.000000  1
  Gd  Gd1  1  0.000000  0.594008  0.000000  1
  Gd  Gd2  1  0.405992  0.405992  0.000000  1
  Cd  Cd3  1  0.263579  0.000000  0.500000  1
  Cd  Cd4  1  0.000000  0.263579  0.500000  1
  Cd  Cd5  1  0.736421  0.736421  0.500000  1
  Ag  Ag6  1  0.000000  0.000000  0.000000  1
  Au  Au7  1  0.333333  0.666667  0.500000  1
  Au  Au8  1  0.666667  0.333333  0.500000  1
