# generated using pymatgen
data_Ir3S4
_symmetry_space_group_name_H-M   'P 1'
_cell_length_a   7.57145447
_cell_length_b   7.57145538
_cell_length_c   6.32844278
_cell_angle_alpha   77.54119459
_cell_angle_beta   77.54119200
_cell_angle_gamma   92.05414004
_symmetry_Int_Tables_number   1
_chemical_formula_structural   Ir3S4
_chemical_formula_sum   'Ir9 S12'
_cell_volume   344.61119955
_cell_formula_units_Z   3
loop_
 _symmetry_equiv_pos_site_id
 _symmetry_equiv_pos_as_xyz
  1  'x, y, z'
loop_
 _atom_site_type_symbol
 _atom_site_label
 _atom_site_symmetry_multiplicity
 _atom_site_fract_x
 _atom_site_fract_y
 _atom_site_fract_z
 _atom_site_occupancy
  Ir  Ir0  1  0.161817  0.838183  0.000000  1
  Ir  Ir1  1  0.838183  0.161817  0.000000  1
  Ir  Ir2  1  0.000000  0.000000  0.500000  1
  Ir  Ir3  1  0.349111  0.349111  0.945772  1
  Ir  Ir4  1  0.650889  0.650889  0.054228  1
  Ir  Ir5  1  0.782821  0.489752  0.451744  1
  Ir  Ir6  1  0.510248  0.217179  0.548256  1
  Ir  Ir7  1  0.217179  0.510248  0.548256  1
  Ir  Ir8  1  0.489752  0.782821  0.451744  1
  S  S9  1  0.855041  0.438906  0.103618  1
  S  S10  1  0.561094  0.144959  0.896382  1
  S  S11  1  0.144959  0.561094  0.896382  1
  S  S12  1  0.438906  0.855041  0.103618  1
  S  S13  1  0.116358  0.116358  0.111925  1
  S  S14  1  0.883642  0.883642  0.888075  1
  S  S15  1  0.032949  0.715748  0.385195  1
  S  S16  1  0.284252  0.967051  0.614805  1
  S  S17  1  0.967051  0.284252  0.614805  1
  S  S18  1  0.585076  0.585076  0.730218  1
  S  S19  1  0.414924  0.414924  0.269782  1
  S  S20  1  0.715748  0.032949  0.385195  1
