# generated using pymatgen
data_Lu(ZrRe6)4
_symmetry_space_group_name_H-M   'P 1'
_cell_length_a   8.50521105
_cell_length_b   8.50521036
_cell_length_c   8.50521100
_cell_angle_alpha   109.47121979
_cell_angle_beta   109.47121814
_cell_angle_gamma   109.47122478
_symmetry_Int_Tables_number   1
_chemical_formula_structural   Lu(ZrRe6)4
_chemical_formula_sum   'Lu1 Zr4 Re24'
_cell_volume   473.62361806
_cell_formula_units_Z   1
loop_
 _symmetry_equiv_pos_site_id
 _symmetry_equiv_pos_as_xyz
  1  'x, y, z'
loop_
 _atom_site_type_symbol
 _atom_site_label
 _atom_site_symmetry_multiplicity
 _atom_site_fract_x
 _atom_site_fract_y
 _atom_site_fract_z
 _atom_site_occupancy
  Lu  Lu0  1  0.000000  0.000000  0.000000  1
  Zr  Zr1  1  0.629205  0.000000  0.000000  1
  Zr  Zr2  1  0.000000  0.629205  0.000000  1
  Zr  Zr3  1  0.000000  0.000000  0.629205  1
  Zr  Zr4  1  0.370795  0.370795  0.370795  1
  Re  Re5  1  0.396503  0.676428  0.000000  1
  Re  Re6  1  0.720075  0.323572  0.323572  1
  Re  Re7  1  0.396503  0.000000  0.676428  1
  Re  Re8  1  0.676428  0.396503  0.000000  1
  Re  Re9  1  0.000000  0.396503  0.676428  1
  Re  Re10  1  0.323572  0.720075  0.323572  1
  Re  Re11  1  0.323572  0.323572  0.720075  1
  Re  Re12  1  0.000000  0.676428  0.396503  1
  Re  Re13  1  0.676428  0.000000  0.396503  1
  Re  Re14  1  0.603497  0.603497  0.279925  1
  Re  Re15  1  0.279925  0.603497  0.603497  1
  Re  Re16  1  0.603497  0.279925  0.603497  1
  Re  Re17  1  0.377573  0.194604  0.000000  1
  Re  Re18  1  0.182969  0.805396  0.805396  1
  Re  Re19  1  0.377573  0.000000  0.194604  1
  Re  Re20  1  0.194604  0.377573  0.000000  1
  Re  Re21  1  0.000000  0.377573  0.194604  1
  Re  Re22  1  0.805396  0.182969  0.805396  1
  Re  Re23  1  0.805396  0.805396  0.182969  1
  Re  Re24  1  0.000000  0.194604  0.377573  1
  Re  Re25  1  0.194604  0.000000  0.377573  1
  Re  Re26  1  0.622427  0.622427  0.817031  1
  Re  Re27  1  0.817031  0.622427  0.622427  1
  Re  Re28  1  0.622427  0.817031  0.622427  1
