# generated using pymatgen
data_Tb9Pr8Ho3Pb16
_symmetry_space_group_name_H-M   'P 1'
_cell_length_a   8.32974004
_cell_length_b   8.41743105
_cell_length_c   15.92941100
_cell_angle_alpha   90.00000000
_cell_angle_beta   90.00000000
_cell_angle_gamma   90.01189199
_symmetry_Int_Tables_number   1
_chemical_formula_structural   Tb9Pr8Ho3Pb16
_chemical_formula_sum   'Tb9 Pr8 Ho3 Pb16'
_cell_volume   1116.89082658
_cell_formula_units_Z   1
loop_
 _symmetry_equiv_pos_site_id
 _symmetry_equiv_pos_as_xyz
  1  'x, y, z'
loop_
 _atom_site_type_symbol
 _atom_site_label
 _atom_site_symmetry_multiplicity
 _atom_site_fract_x
 _atom_site_fract_y
 _atom_site_fract_z
 _atom_site_occupancy
  Tb  Tb0  1  0.632711  0.158151  0.622105  1
  Tb  Tb1  1  0.132975  0.341660  0.877902  1
  Tb  Tb2  1  0.367186  0.841739  0.122131  1
  Tb  Tb3  1  0.867165  0.658209  0.377842  1
  Tb  Tb4  1  0.367186  0.841739  0.377869  1
  Tb  Tb5  1  0.867165  0.658209  0.122158  1
  Tb  Tb6  1  0.632711  0.158151  0.877895  1
  Tb  Tb7  1  0.132975  0.341660  0.622098  1
  Tb  Tb8  1  0.798575  0.495246  0.750000  1
  Pr  Pr9  1  0.476005  0.677768  0.597339  1
  Pr  Pr10  1  0.976175  0.822394  0.902620  1
  Pr  Pr11  1  0.523873  0.322292  0.097417  1
  Pr  Pr12  1  0.023846  0.177703  0.402620  1
  Pr  Pr13  1  0.523873  0.322292  0.402583  1
  Pr  Pr14  1  0.023846  0.177703  0.097380  1
  Pr  Pr15  1  0.476005  0.677768  0.902661  1
  Pr  Pr16  1  0.976175  0.822394  0.597380  1
  Ho  Ho17  1  0.298431  0.005051  0.750000  1
  Ho  Ho18  1  0.201582  0.504950  0.250000  1
  Ho  Ho19  1  0.701551  0.995055  0.250000  1
  Pb  Pb20  1  0.706190  0.959618  0.456357  1
  Pb  Pb21  1  0.206226  0.540358  0.043630  1
  Pb  Pb22  1  0.293797  0.040359  0.956395  1
  Pb  Pb23  1  0.793848  0.459596  0.543420  1
  Pb  Pb24  1  0.293797  0.040359  0.543605  1
  Pb  Pb25  1  0.793848  0.459596  0.956580  1
  Pb  Pb26  1  0.706190  0.959618  0.043643  1
  Pb  Pb27  1  0.206226  0.540358  0.456370  1
  Pb  Pb28  1  0.436487  0.370736  0.750000  1
  Pb  Pb29  1  0.937021  0.128798  0.750000  1
  Pb  Pb30  1  0.563101  0.629133  0.250000  1
  Pb  Pb31  1  0.063068  0.870915  0.250000  1
  Pb  Pb32  1  0.663342  0.850638  0.750000  1
  Pb  Pb33  1  0.163435  0.649852  0.750000  1
  Pb  Pb34  1  0.336726  0.149821  0.250000  1
  Pb  Pb35  1  0.836689  0.350111  0.250000  1
