# generated using pymatgen
data_Nd2Ga9Ru2Rh
_symmetry_space_group_name_H-M   'P 1'
_cell_length_a   7.59163519
_cell_length_b   7.59163515
_cell_length_c   9.81297200
_cell_angle_alpha   90.00000000
_cell_angle_beta   90.00000000
_cell_angle_gamma   119.57602984
_symmetry_Int_Tables_number   1
_chemical_formula_structural   Nd2Ga9Ru2Rh
_chemical_formula_sum   'Nd4 Ga18 Ru4 Rh2'
_cell_volume   491.85992171
_cell_formula_units_Z   2
loop_
 _symmetry_equiv_pos_site_id
 _symmetry_equiv_pos_as_xyz
  1  'x, y, z'
loop_
 _atom_site_type_symbol
 _atom_site_label
 _atom_site_symmetry_multiplicity
 _atom_site_fract_x
 _atom_site_fract_y
 _atom_site_fract_z
 _atom_site_occupancy
  Nd  Nd0  1  0.996860  0.668513  0.250000  1
  Nd  Nd1  1  0.003140  0.331487  0.750000  1
  Nd  Nd2  1  0.668513  0.996860  0.250000  1
  Nd  Nd3  1  0.331487  0.003140  0.750000  1
  Ga  Ga4  1  0.130563  0.130563  0.250000  1
  Ga  Ga5  1  0.869437  0.869437  0.750000  1
  Ga  Ga6  1  0.006481  0.336360  0.073438  1
  Ga  Ga7  1  0.993519  0.663640  0.926562  1
  Ga  Ga8  1  0.993519  0.663640  0.573438  1
  Ga  Ga9  1  0.336360  0.006481  0.426562  1
  Ga  Ga10  1  0.006481  0.336360  0.426562  1
  Ga  Ga11  1  0.663640  0.993519  0.573438  1
  Ga  Ga12  1  0.663640  0.993519  0.926562  1
  Ga  Ga13  1  0.336360  0.006481  0.073438  1
  Ga  Ga14  1  0.339519  0.339519  0.556788  1
  Ga  Ga15  1  0.660481  0.660481  0.443212  1
  Ga  Ga16  1  0.660481  0.660481  0.056788  1
  Ga  Ga17  1  0.339519  0.339519  0.943212  1
  Ga  Ga18  1  0.336245  0.545927  0.250000  1
  Ga  Ga19  1  0.663755  0.454073  0.750000  1
  Ga  Ga20  1  0.545927  0.336245  0.250000  1
  Ga  Ga21  1  0.454073  0.663755  0.750000  1
  Ru  Ru22  1  0.673379  0.326621  0.000000  1
  Ru  Ru23  1  0.326621  0.673379  0.000000  1
  Ru  Ru24  1  0.326621  0.673379  0.500000  1
  Ru  Ru25  1  0.673379  0.326621  0.500000  1
  Rh  Rh26  1  0.000000  0.000000  0.000000  1
  Rh  Rh27  1  0.000000  0.000000  0.500000  1
