# generated using pymatgen
data_La4TlNi4Hg
_symmetry_space_group_name_H-M   'P 1'
_cell_length_a   7.59653500
_cell_length_b   7.59653500
_cell_length_c   7.80813100
_cell_angle_alpha   90.00000000
_cell_angle_beta   90.00000000
_cell_angle_gamma   90.00000000
_symmetry_Int_Tables_number   1
_chemical_formula_structural   La4TlNi4Hg
_chemical_formula_sum   'La8 Tl2 Ni8 Hg2'
_cell_volume   450.58650166
_cell_formula_units_Z   2
loop_
 _symmetry_equiv_pos_site_id
 _symmetry_equiv_pos_as_xyz
  1  'x, y, z'
loop_
 _atom_site_type_symbol
 _atom_site_label
 _atom_site_symmetry_multiplicity
 _atom_site_fract_x
 _atom_site_fract_y
 _atom_site_fract_z
 _atom_site_occupancy
  La  La0  1  0.181956  0.176588  0.000000  1
  La  La1  1  0.676588  0.318044  0.500000  1
  La  La2  1  0.323412  0.681956  0.500000  1
  La  La3  1  0.818044  0.823412  0.000000  1
  La  La4  1  0.674295  0.320596  0.000000  1
  La  La5  1  0.820596  0.825705  0.500000  1
  La  La6  1  0.179404  0.174295  0.500000  1
  La  La7  1  0.325705  0.679404  0.000000  1
  Tl  Tl8  1  0.000000  0.500000  0.250000  1
  Tl  Tl9  1  0.000000  0.500000  0.750000  1
  Ni  Ni10  1  0.375755  0.392559  0.254767  1
  Ni  Ni11  1  0.892559  0.124245  0.754767  1
  Ni  Ni12  1  0.107441  0.875755  0.754767  1
  Ni  Ni13  1  0.624245  0.607441  0.254767  1
  Ni  Ni14  1  0.107441  0.875755  0.245233  1
  Ni  Ni15  1  0.892559  0.124245  0.245233  1
  Ni  Ni16  1  0.375755  0.392559  0.745233  1
  Ni  Ni17  1  0.624245  0.607441  0.745233  1
  Hg  Hg18  1  0.500000  0.000000  0.250000  1
  Hg  Hg19  1  0.500000  0.000000  0.750000  1
