# generated using pymatgen
data_Tm8MgSc11Si15Hg
_symmetry_space_group_name_H-M   'P 1'
_cell_length_a   7.05366932
_cell_length_b   7.35156882
_cell_length_c   14.02410379
_cell_angle_alpha   89.91311774
_cell_angle_beta   89.40739097
_cell_angle_gamma   90.12361137
_symmetry_Int_Tables_number   1
_chemical_formula_structural   Tm8MgSc11Si15Hg
_chemical_formula_sum   'Tm8 Mg1 Sc11 Si15 Hg1'
_cell_volume   727.18596025
_cell_formula_units_Z   1
loop_
 _symmetry_equiv_pos_site_id
 _symmetry_equiv_pos_as_xyz
  1  'x, y, z'
loop_
 _atom_site_type_symbol
 _atom_site_label
 _atom_site_symmetry_multiplicity
 _atom_site_fract_x
 _atom_site_fract_y
 _atom_site_fract_z
 _atom_site_occupancy
  Tm  Tm0  1  0.012011  0.176785  0.096935  1
  Tm  Tm1  1  0.988763  0.819978  0.903735  1
  Tm  Tm2  1  0.485370  0.675735  0.903835  1
  Tm  Tm3  1  0.990850  0.826924  0.598069  1
  Tm  Tm4  1  0.510029  0.323621  0.096218  1
  Tm  Tm5  1  0.006675  0.171961  0.398655  1
  Tm  Tm6  1  0.510070  0.321447  0.399634  1
  Tm  Tm7  1  0.496148  0.681811  0.599976  1
  Mg  Mg8  1  0.160272  0.504960  0.751614  1
  Sc  Sc9  1  0.836823  0.497696  0.250155  1
  Sc  Sc10  1  0.337574  0.002472  0.249070  1
  Sc  Sc11  1  0.662949  0.995985  0.751461  1
  Sc  Sc12  1  0.341354  0.170386  0.629268  1
  Sc  Sc13  1  0.663917  0.825274  0.372102  1
  Sc  Sc14  1  0.165660  0.678651  0.369912  1
  Sc  Sc15  1  0.669884  0.823732  0.125058  1
  Sc  Sc16  1  0.829341  0.326265  0.626211  1
  Sc  Sc17  1  0.327727  0.179301  0.876144  1
  Sc  Sc18  1  0.832482  0.324199  0.876357  1
  Sc  Sc19  1  0.170910  0.677044  0.125160  1
  Si  Si20  1  0.033166  0.106512  0.751869  1
  Si  Si21  1  0.966240  0.887651  0.246927  1
  Si  Si22  1  0.466832  0.612348  0.247964  1
  Si  Si23  1  0.538376  0.386527  0.752440  1
  Si  Si24  1  0.288364  0.877378  0.752408  1
  Si  Si25  1  0.711429  0.130892  0.247854  1
  Si  Si26  1  0.211304  0.368952  0.248288  1
  Si  Si27  1  0.780671  0.630855  0.752668  1
  Si  Si28  1  0.829561  0.538867  0.460240  1
  Si  Si29  1  0.337287  0.962699  0.460837  1
  Si  Si30  1  0.842568  0.535653  0.038174  1
  Si  Si31  1  0.662148  0.036280  0.537247  1
  Si  Si32  1  0.159331  0.462165  0.966477  1
  Si  Si33  1  0.657126  0.033149  0.960537  1
  Si  Si34  1  0.344253  0.966737  0.039488  1
  Hg  Hg35  1  0.172532  0.459106  0.537013  1
