# generated using pymatgen
data_YbBr37
_symmetry_space_group_name_H-M   'P 1'
_cell_length_a   14.20848141
_cell_length_b   15.29732181
_cell_length_c   14.42416200
_cell_angle_alpha   103.00376457
_cell_angle_beta   48.80056783
_cell_angle_gamma   81.50743146
_symmetry_Int_Tables_number   1
_chemical_formula_structural   YbBr37
_chemical_formula_sum   'Yb1 Br37'
_cell_volume   2102.91272627
_cell_formula_units_Z   1
loop_
 _symmetry_equiv_pos_site_id
 _symmetry_equiv_pos_as_xyz
  1  'x, y, z'
loop_
 _atom_site_type_symbol
 _atom_site_label
 _atom_site_symmetry_multiplicity
 _atom_site_fract_x
 _atom_site_fract_y
 _atom_site_fract_z
 _atom_site_occupancy
  Yb  Yb0  1  0.500000  0.000000  0.000000  1
  Br  Br1  1  0.780129  0.300023  0.137878  1
  Br  Br2  1  0.219871  0.699977  0.862122  1
  Br  Br3  1  0.739298  0.084190  0.364767  1
  Br  Br4  1  0.260702  0.915810  0.635233  1
  Br  Br5  1  0.120874  0.350526  0.166782  1
  Br  Br6  1  0.879126  0.649474  0.833218  1
  Br  Br7  1  0.861794  0.525850  0.245865  1
  Br  Br8  1  0.138206  0.474150  0.754135  1
  Br  Br9  1  0.685562  0.274663  0.522205  1
  Br  Br10  1  0.314438  0.725337  0.477795  1
  Br  Br11  1  0.037767  0.142278  0.494937  1
  Br  Br12  1  0.962233  0.857722  0.505063  1
  Br  Br13  1  0.971641  0.009929  0.290093  1
  Br  Br14  1  0.028359  0.990071  0.709907  1
  Br  Br15  1  0.947145  0.336800  0.607702  1
  Br  Br16  1  0.052855  0.663200  0.392298  1
  Br  Br17  1  0.572573  0.430771  0.235581  1
  Br  Br18  1  0.427427  0.569229  0.764419  1
  Br  Br19  1  0.170530  0.480428  0.280421  1
  Br  Br20  1  0.829470  0.519572  0.719579  1
  Br  Br21  1  0.000000  0.500000  0.000000  1
  Br  Br22  1  0.562380  0.954956  0.143078  1
  Br  Br23  1  0.437620  0.045044  0.856922  1
  Br  Br24  1  0.302834  0.049584  0.314819  1
  Br  Br25  1  0.697166  0.950416  0.685181  1
  Br  Br26  1  0.526038  0.134969  0.416197  1
  Br  Br27  1  0.473962  0.865031  0.583803  1
  Br  Br28  1  0.101760  0.217207  0.060920  1
  Br  Br29  1  0.898240  0.782793  0.939080  1
  Br  Br30  1  0.663020  0.687929  0.402049  1
  Br  Br31  1  0.336980  0.312071  0.597951  1
  Br  Br32  1  0.899900  0.146552  0.920431  1
  Br  Br33  1  0.100100  0.853448  0.079569  1
  Br  Br34  1  0.436242  0.200416  0.093040  1
  Br  Br35  1  0.563758  0.799584  0.906960  1
  Br  Br36  1  0.655000  0.427870  0.648982  1
  Br  Br37  1  0.345000  0.572130  0.351018  1
