# generated using pymatgen
data_Na3Yb3AlBi4
_symmetry_space_group_name_H-M   'P 1'
_cell_length_a   10.35311500
_cell_length_b   10.35311473
_cell_length_c   7.68911800
_cell_angle_alpha   90.00000000
_cell_angle_beta   90.00000000
_cell_angle_gamma   120.00000405
_symmetry_Int_Tables_number   1
_chemical_formula_structural   Na3Yb3AlBi4
_chemical_formula_sum   'Na6 Yb6 Al2 Bi8'
_cell_volume   713.75506752
_cell_formula_units_Z   2
loop_
 _symmetry_equiv_pos_site_id
 _symmetry_equiv_pos_as_xyz
  1  'x, y, z'
loop_
 _atom_site_type_symbol
 _atom_site_label
 _atom_site_symmetry_multiplicity
 _atom_site_fract_x
 _atom_site_fract_y
 _atom_site_fract_z
 _atom_site_occupancy
  Na  Na0  1  0.854866  0.145134  0.547837  1
  Na  Na1  1  0.290266  0.145134  0.547837  1
  Na  Na2  1  0.854866  0.709734  0.547837  1
  Na  Na3  1  0.145134  0.854866  0.047837  1
  Na  Na4  1  0.709734  0.854866  0.047837  1
  Na  Na5  1  0.145134  0.290266  0.047837  1
  Yb  Yb6  1  0.480848  0.519152  0.730240  1
  Yb  Yb7  1  0.038304  0.519152  0.730240  1
  Yb  Yb8  1  0.480848  0.961696  0.730240  1
  Yb  Yb9  1  0.519152  0.480848  0.230240  1
  Yb  Yb10  1  0.961696  0.480848  0.230240  1
  Yb  Yb11  1  0.519152  0.038304  0.230240  1
  Al  Al12  1  0.666667  0.333333  0.860765  1
  Al  Al13  1  0.333333  0.666667  0.360765  1
  Bi  Bi14  1  0.813953  0.186047  0.965850  1
  Bi  Bi15  1  0.372095  0.186047  0.965850  1
  Bi  Bi16  1  0.813953  0.627905  0.965850  1
  Bi  Bi17  1  0.186047  0.813953  0.465850  1
  Bi  Bi18  1  0.627905  0.813953  0.465850  1
  Bi  Bi19  1  0.186047  0.372095  0.465850  1
  Bi  Bi20  1  0.666667  0.333333  0.492818  1
  Bi  Bi21  1  0.333333  0.666667  0.992818  1
