# generated using pymatgen
data_Ce5Bi3Pt
_symmetry_space_group_name_H-M   'P 1'
_cell_length_a   6.59940300
_cell_length_b   9.65193052
_cell_length_c   9.67070614
_cell_angle_alpha   119.93580126
_cell_angle_beta   89.99891771
_cell_angle_gamma   90.00217343
_symmetry_Int_Tables_number   1
_chemical_formula_structural   Ce5Bi3Pt
_chemical_formula_sum   'Ce10 Bi6 Pt2'
_cell_volume   533.81188751
_cell_formula_units_Z   2
loop_
 _symmetry_equiv_pos_site_id
 _symmetry_equiv_pos_as_xyz
  1  'x, y, z'
loop_
 _atom_site_type_symbol
 _atom_site_label
 _atom_site_symmetry_multiplicity
 _atom_site_fract_x
 _atom_site_fract_y
 _atom_site_fract_z
 _atom_site_occupancy
  Ce  Ce0  1  0.500088  0.333417  0.666772  1
  Ce  Ce1  1  0.500088  0.666644  0.333228  1
  Ce  Ce2  1  0.999931  0.666640  0.333224  1
  Ce  Ce3  1  0.999931  0.333416  0.666776  1
  Ce  Ce4  1  0.749949  0.250704  0.000000  1
  Ce  Ce5  1  0.749957  0.749211  0.749399  1
  Ce  Ce6  1  0.749957  0.999812  0.250601  1
  Ce  Ce7  1  0.250039  0.749337  0.000000  1
  Ce  Ce8  1  0.250037  0.250681  0.250565  1
  Ce  Ce9  1  0.250037  0.000117  0.749435  1
  Bi  Bi10  1  0.749944  0.610624  0.000000  1
  Bi  Bi11  1  0.749945  0.389260  0.389301  1
  Bi  Bi12  1  0.749945  0.999959  0.610699  1
  Bi  Bi13  1  0.250062  0.389446  0.000000  1
  Bi  Bi14  1  0.250065  0.610702  0.610678  1
  Bi  Bi15  1  0.250065  0.000023  0.389322  1
  Pt  Pt16  1  0.500184  0.000001  0.000000  1
  Pt  Pt17  1  0.999778  0.000004  0.000000  1
