# generated using pymatgen
data_B9I5Br4
_symmetry_space_group_name_H-M   'P 1'
_cell_length_a   10.57949962
_cell_length_b   10.68418179
_cell_length_c   10.71050727
_cell_angle_alpha   86.85790215
_cell_angle_beta   86.74150384
_cell_angle_gamma   86.24858344
_symmetry_Int_Tables_number   1
_chemical_formula_structural   B9I5Br4
_chemical_formula_sum   'B18 I10 Br8'
_cell_volume   1204.50957841
_cell_formula_units_Z   2
loop_
 _symmetry_equiv_pos_site_id
 _symmetry_equiv_pos_as_xyz
  1  'x, y, z'
loop_
 _atom_site_type_symbol
 _atom_site_label
 _atom_site_symmetry_multiplicity
 _atom_site_fract_x
 _atom_site_fract_y
 _atom_site_fract_z
 _atom_site_occupancy
  B  B0  1  0.861581  0.734734  0.739882  1
  B  B1  1  0.794904  0.786721  0.598356  1
  B  B2  1  0.787210  0.598125  0.793971  1
  B  B3  1  0.738550  0.861756  0.734632  1
  B  B4  1  0.733339  0.740423  0.860726  1
  B  B5  1  0.756935  0.631009  0.635609  1
  B  B6  1  0.628952  0.637329  0.757965  1
  B  B7  1  0.633842  0.759177  0.630701  1
  B  B8  1  0.595293  0.796308  0.786326  1
  B  B9  1  0.399718  0.208451  0.211902  1
  B  B10  1  0.362621  0.241578  0.368969  1
  B  B11  1  0.363153  0.366344  0.244691  1
  B  B12  1  0.236895  0.367717  0.368699  1
  B  B13  1  0.259138  0.139765  0.266206  1
  B  B14  1  0.259302  0.263892  0.141922  1
  B  B15  1  0.204364  0.403475  0.211688  1
  B  B16  1  0.203714  0.210727  0.404620  1
  B  B17  1  0.133460  0.264445  0.264959  1
  I  I18  1  0.488558  0.502929  0.793130  1
  I  I19  1  0.503610  0.501044  0.210396  1
  I  I20  1  0.502109  0.203590  0.505171  1
  I  I21  1  0.430590  0.889833  0.863623  1
  I  I22  1  0.236984  0.240392  0.946642  1
  I  I23  1  0.239447  0.943766  0.243599  1
  I  I24  1  0.201491  0.506286  0.505243  1
  I  I25  1  0.058391  0.755272  0.766793  1
  I  I26  1  0.114841  0.129871  0.567646  1
  I  I27  1  0.115927  0.567290  0.129242  1
  Br  Br28  1  0.872245  0.855637  0.448794  1
  Br  Br29  1  0.955809  0.245449  0.244217  1
  Br  Br30  1  0.858691  0.448579  0.871758  1
  Br  Br31  1  0.789821  0.504449  0.515427  1
  Br  Br32  1  0.763217  0.037370  0.751588  1
  Br  Br33  1  0.750883  0.762625  0.036579  1
  Br  Br34  1  0.550960  0.132539  0.137958  1
  Br  Br35  1  0.514251  0.791803  0.502573  1
