# generated using pymatgen
data_Sm4Dy3Ho(B6Ru)4
_symmetry_space_group_name_H-M   'P 1'
_cell_length_a   3.70004100
_cell_length_b   9.19425601
_cell_length_c   11.59434101
_cell_angle_alpha   90.00536297
_cell_angle_beta   90.00000000
_cell_angle_gamma   90.00000000
_symmetry_Int_Tables_number   1
_chemical_formula_structural   Sm4Dy3Ho(B6Ru)4
_chemical_formula_sum   'Sm4 Dy3 Ho1 B24 Ru4'
_cell_volume   394.42932522
_cell_formula_units_Z   1
loop_
 _symmetry_equiv_pos_site_id
 _symmetry_equiv_pos_as_xyz
  1  'x, y, z'
loop_
 _atom_site_type_symbol
 _atom_site_label
 _atom_site_symmetry_multiplicity
 _atom_site_fract_x
 _atom_site_fract_y
 _atom_site_fract_z
 _atom_site_occupancy
  Sm  Sm0  1  0.000000  0.322877  0.414182  1
  Sm  Sm1  1  0.000000  0.677115  0.585871  1
  Sm  Sm2  1  0.000000  0.822822  0.085792  1
  Sm  Sm3  1  0.000000  0.177191  0.914159  1
  Dy  Dy4  1  0.000000  0.943913  0.371882  1
  Dy  Dy5  1  0.000000  0.056090  0.628129  1
  Dy  Dy6  1  0.000000  0.443958  0.128014  1
  Ho  Ho7  1  0.000000  0.556053  0.871902  1
  B  B8  1  0.500000  0.555365  0.431427  1
  B  B9  1  0.500000  0.444641  0.568586  1
  B  B10  1  0.500000  0.055362  0.068568  1
  B  B11  1  0.500000  0.944607  0.931426  1
  B  B12  1  0.500000  0.749012  0.418365  1
  B  B13  1  0.500000  0.251001  0.581634  1
  B  B14  1  0.500000  0.249017  0.081636  1
  B  B15  1  0.500000  0.750768  0.918361  1
  B  B16  1  0.500000  0.790402  0.266557  1
  B  B17  1  0.500000  0.209629  0.733457  1
  B  B18  1  0.500000  0.290404  0.233443  1
  B  B19  1  0.500000  0.709379  0.766617  1
  B  B20  1  0.500000  0.631343  0.185138  1
  B  B21  1  0.500000  0.368835  0.814959  1
  B  B22  1  0.500000  0.131353  0.314863  1
  B  B23  1  0.500000  0.868636  0.685149  1
  B  B24  1  0.500000  0.985304  0.213368  1
  B  B25  1  0.500000  0.014693  0.786630  1
  B  B26  1  0.500000  0.485298  0.286632  1
  B  B27  1  0.500000  0.514826  0.713526  1
  B  B28  1  0.500000  0.605100  0.028594  1
  B  B29  1  0.500000  0.395071  0.971031  1
  B  B30  1  0.500000  0.105173  0.471173  1
  B  B31  1  0.500000  0.894823  0.528825  1
  Ru  Ru32  1  0.000000  0.638893  0.320174  1
  Ru  Ru33  1  0.000000  0.361254  0.679924  1
  Ru  Ru34  1  0.000000  0.138904  0.179793  1
  Ru  Ru35  1  0.000000  0.860887  0.820215  1
