# generated using pymatgen
data_Na4HoPuO6
_symmetry_space_group_name_H-M   'P 1'
_cell_length_a   5.84049990
_cell_length_b   5.84043281
_cell_length_c   5.94287600
_cell_angle_alpha   99.56690293
_cell_angle_beta   99.56580710
_cell_angle_gamma   119.92532055
_symmetry_Int_Tables_number   1
_chemical_formula_structural   Na4HoPuO6
_chemical_formula_sum   'Na4 Ho1 Pu1 O6'
_cell_volume   165.72508423
_cell_formula_units_Z   1
loop_
 _symmetry_equiv_pos_site_id
 _symmetry_equiv_pos_as_xyz
  1  'x, y, z'
loop_
 _atom_site_type_symbol
 _atom_site_label
 _atom_site_symmetry_multiplicity
 _atom_site_fract_x
 _atom_site_fract_y
 _atom_site_fract_z
 _atom_site_occupancy
  Na  Na0  1  0.500108  0.501174  0.000167  1
  Na  Na1  1  0.000715  0.994597  0.499032  1
  Na  Na2  1  0.658432  0.341707  0.499890  1
  Na  Na3  1  0.342788  0.662443  0.500451  1
  Ho  Ho4  1  0.830456  0.160946  0.999932  1
  Pu  Pu5  1  0.166055  0.830787  0.000111  1
  O  O6  1  0.947310  0.590582  0.210926  1
  O  O7  1  0.565981  0.933468  0.219390  1
  O  O8  1  0.215167  0.199016  0.215407  1
  O  O9  1  0.791214  0.784158  0.778202  1
  O  O10  1  0.071426  0.446688  0.785624  1
  O  O11  1  0.410350  0.054433  0.790873  1
