# generated using pymatgen
data_Hf6Ti4Al12Rh7
_symmetry_space_group_name_H-M   'P 1'
_cell_length_a   8.76501059
_cell_length_b   8.76501041
_cell_length_c   8.76501000
_cell_angle_alpha   60.00000154
_cell_angle_beta   60.00000221
_cell_angle_gamma   59.99999863
_symmetry_Int_Tables_number   1
_chemical_formula_structural   Hf6Ti4Al12Rh7
_chemical_formula_sum   'Hf6 Ti4 Al12 Rh7'
_cell_volume   476.14837551
_cell_formula_units_Z   1
loop_
 _symmetry_equiv_pos_site_id
 _symmetry_equiv_pos_as_xyz
  1  'x, y, z'
loop_
 _atom_site_type_symbol
 _atom_site_label
 _atom_site_symmetry_multiplicity
 _atom_site_fract_x
 _atom_site_fract_y
 _atom_site_fract_z
 _atom_site_occupancy
  Hf  Hf0  1  0.688757  0.688757  0.311243  1
  Hf  Hf1  1  0.311243  0.688757  0.311243  1
  Hf  Hf2  1  0.688757  0.311243  0.311243  1
  Hf  Hf3  1  0.311243  0.311243  0.688757  1
  Hf  Hf4  1  0.688757  0.311243  0.688757  1
  Hf  Hf5  1  0.311243  0.688757  0.688757  1
  Ti  Ti6  1  0.880127  0.880127  0.359621  1
  Ti  Ti7  1  0.880127  0.359621  0.880127  1
  Ti  Ti8  1  0.359621  0.880127  0.880127  1
  Ti  Ti9  1  0.880127  0.880127  0.880127  1
  Al  Al10  1  0.119907  0.119907  0.640279  1
  Al  Al11  1  0.119907  0.640279  0.119907  1
  Al  Al12  1  0.640279  0.119907  0.119907  1
  Al  Al13  1  0.119907  0.119907  0.119907  1
  Al  Al14  1  0.662680  0.662680  0.011960  1
  Al  Al15  1  0.662680  0.011960  0.662680  1
  Al  Al16  1  0.011960  0.662680  0.662680  1
  Al  Al17  1  0.662680  0.662680  0.662680  1
  Al  Al18  1  0.336242  0.336242  0.991275  1
  Al  Al19  1  0.336242  0.991275  0.336242  1
  Al  Al20  1  0.991275  0.336242  0.336242  1
  Al  Al21  1  0.336242  0.336242  0.336242  1
  Rh  Rh22  1  0.000000  0.000000  0.000000  1
  Rh  Rh23  1  0.998206  0.998206  0.501794  1
  Rh  Rh24  1  0.501794  0.998206  0.501794  1
  Rh  Rh25  1  0.998206  0.501794  0.501794  1
  Rh  Rh26  1  0.501794  0.501794  0.998206  1
  Rh  Rh27  1  0.998206  0.501794  0.998206  1
  Rh  Rh28  1  0.501794  0.998206  0.998206  1
