# generated using pymatgen
data_NdY(CrN3)2
_symmetry_space_group_name_H-M   'P 1'
_cell_length_a   7.04260345
_cell_length_b   7.04260411
_cell_length_c   5.89713344
_cell_angle_alpha   77.61834113
_cell_angle_beta   77.61833634
_cell_angle_gamma   86.66047804
_symmetry_Int_Tables_number   1
_chemical_formula_structural   NdY(CrN3)2
_chemical_formula_sum   'Nd2 Y2 Cr4 N12'
_cell_volume   279.01677265
_cell_formula_units_Z   2
loop_
 _symmetry_equiv_pos_site_id
 _symmetry_equiv_pos_as_xyz
  1  'x, y, z'
loop_
 _atom_site_type_symbol
 _atom_site_label
 _atom_site_symmetry_multiplicity
 _atom_site_fract_x
 _atom_site_fract_y
 _atom_site_fract_z
 _atom_site_occupancy
  Nd  Nd0  1  0.330622  0.669378  0.750000  1
  Nd  Nd1  1  0.669378  0.330622  0.250000  1
  Y  Y2  1  0.090776  0.909224  0.250000  1
  Y  Y3  1  0.909224  0.090776  0.750000  1
  Cr  Cr4  1  0.376220  0.198588  0.759327  1
  Cr  Cr5  1  0.623780  0.801412  0.240673  1
  Cr  Cr6  1  0.801412  0.623780  0.740673  1
  Cr  Cr7  1  0.198588  0.376220  0.259327  1
  N  N8  1  0.994698  0.777960  0.652570  1
  N  N9  1  0.874592  0.399599  0.835275  1
  N  N10  1  0.777960  0.994698  0.152570  1
  N  N11  1  0.125408  0.600401  0.164725  1
  N  N12  1  0.005302  0.222040  0.347430  1
  N  N13  1  0.222040  0.005302  0.847430  1
  N  N14  1  0.600401  0.125408  0.664725  1
  N  N15  1  0.628079  0.674719  0.995848  1
  N  N16  1  0.371921  0.325281  0.004152  1
  N  N17  1  0.399599  0.874592  0.335275  1
  N  N18  1  0.674719  0.628079  0.495848  1
  N  N19  1  0.325281  0.371921  0.504152  1
