# generated using pymatgen
data_TbEr9In8AgPd2Au
_symmetry_space_group_name_H-M   'P 1'
_cell_length_a   3.62273700
_cell_length_b   8.13529134
_cell_length_c   18.25536900
_cell_angle_alpha   90.01662117
_cell_angle_beta   90.00000000
_cell_angle_gamma   90.00000000
_symmetry_Int_Tables_number   1
_chemical_formula_structural   TbEr9In8AgPd2Au
_chemical_formula_sum   'Tb1 Er9 In8 Ag1 Pd2 Au1'
_cell_volume   538.02259501
_cell_formula_units_Z   1
loop_
 _symmetry_equiv_pos_site_id
 _symmetry_equiv_pos_as_xyz
  1  'x, y, z'
loop_
 _atom_site_type_symbol
 _atom_site_label
 _atom_site_symmetry_multiplicity
 _atom_site_fract_x
 _atom_site_fract_y
 _atom_site_fract_z
 _atom_site_occupancy
  Tb  Tb0  1  0.000000  0.499314  0.499910  1
  Er  Er1  1  0.000000  0.001536  0.000076  1
  Er  Er2  1  0.000000  0.750625  0.285167  1
  Er  Er3  1  0.000000  0.252896  0.716940  1
  Er  Er4  1  0.000000  0.767167  0.779868  1
  Er  Er5  1  0.000000  0.225894  0.219306  1
  Er  Er6  1  0.000000  0.621585  0.077840  1
  Er  Er7  1  0.000000  0.380636  0.919569  1
  Er  Er8  1  0.000000  0.883812  0.582970  1
  Er  Er9  1  0.000000  0.117693  0.417535  1
  In  In10  1  0.500000  0.712472  0.932032  1
  In  In11  1  0.500000  0.291134  0.068356  1
  In  In12  1  0.500000  0.794196  0.434086  1
  In  In13  1  0.500000  0.206335  0.567083  1
  In  In14  1  0.500000  0.582728  0.648096  1
  In  In15  1  0.500000  0.418423  0.350376  1
  In  In16  1  0.500000  0.915771  0.148672  1
  In  In17  1  0.500000  0.078518  0.851551  1
  Ag  Ag18  1  0.500000  0.526369  0.197542  1
  Pd  Pd19  1  0.500000  0.974472  0.696004  1
  Pd  Pd20  1  0.500000  0.025889  0.304327  1
  Au  Au21  1  0.500000  0.472534  0.802695  1
