# generated using pymatgen
data_Cs(S8Br)3
_symmetry_space_group_name_H-M   'P 1'
_cell_length_a   14.16157817
_cell_length_b   14.16157845
_cell_length_c   14.16157676
_cell_angle_alpha   117.80482222
_cell_angle_beta   117.80482566
_cell_angle_gamma   117.80482285
_symmetry_Int_Tables_number   1
_chemical_formula_structural   Cs(S8Br)3
_chemical_formula_sum   'Cs1 S24 Br3'
_cell_volume   1078.68545605
_cell_formula_units_Z   1
loop_
 _symmetry_equiv_pos_site_id
 _symmetry_equiv_pos_as_xyz
  1  'x, y, z'
loop_
 _atom_site_type_symbol
 _atom_site_label
 _atom_site_symmetry_multiplicity
 _atom_site_fract_x
 _atom_site_fract_y
 _atom_site_fract_z
 _atom_site_occupancy
  Cs  Cs0  1  0.575970  0.575970  0.575970  1
  S  S1  1  0.816595  0.533589  0.533589  1
  S  S2  1  0.533589  0.533589  0.816595  1
  S  S3  1  0.533589  0.816595  0.533589  1
  S  S4  1  0.279661  0.417722  0.668050  1
  S  S5  1  0.297927  0.914746  0.297927  1
  S  S6  1  0.297927  0.297927  0.914746  1
  S  S7  1  0.914746  0.297927  0.297927  1
  S  S8  1  0.114370  0.740344  0.253099  1
  S  S9  1  0.253099  0.114370  0.740344  1
  S  S10  1  0.740344  0.253099  0.114370  1
  S  S11  1  0.740344  0.114370  0.253099  1
  S  S12  1  0.253099  0.740344  0.114370  1
  S  S13  1  0.114370  0.253099  0.740344  1
  S  S14  1  0.315736  0.862430  0.511338  1
  S  S15  1  0.511338  0.315736  0.862430  1
  S  S16  1  0.862430  0.511338  0.315736  1
  S  S17  1  0.862430  0.315736  0.511338  1
  S  S18  1  0.511338  0.862430  0.315736  1
  S  S19  1  0.315736  0.511338  0.862430  1
  S  S20  1  0.279661  0.668050  0.417722  1
  S  S21  1  0.417722  0.279661  0.668050  1
  S  S22  1  0.668050  0.417722  0.279661  1
  S  S23  1  0.668050  0.279661  0.417722  1
  S  S24  1  0.417722  0.668050  0.279661  1
  Br  Br25  1  0.987894  0.120778  0.120778  1
  Br  Br26  1  0.120778  0.120778  0.987894  1
  Br  Br27  1  0.120778  0.987894  0.120778  1
