# generated using pymatgen
data_NaYbBiI6
_symmetry_space_group_name_H-M   'P 1'
_cell_length_a   8.70079092
_cell_length_b   8.70080334
_cell_length_c   8.70072600
_cell_angle_alpha   54.12463266
_cell_angle_beta   54.12455724
_cell_angle_gamma   54.12447583
_symmetry_Int_Tables_number   1
_chemical_formula_structural   NaYbBiI6
_chemical_formula_sum   'Na1 Yb1 Bi1 I6'
_cell_volume   401.86712473
_cell_formula_units_Z   1
loop_
 _symmetry_equiv_pos_site_id
 _symmetry_equiv_pos_as_xyz
  1  'x, y, z'
loop_
 _atom_site_type_symbol
 _atom_site_label
 _atom_site_symmetry_multiplicity
 _atom_site_fract_x
 _atom_site_fract_y
 _atom_site_fract_z
 _atom_site_occupancy
  Na  Na0  1  0.669826  0.669823  0.669826  1
  Yb  Yb1  1  0.330904  0.330905  0.330902  1
  Bi  Bi2  1  0.999959  0.999960  0.999962  1
  I  I3  1  0.242950  0.593185  0.925069  1
  I  I4  1  0.593182  0.925073  0.242948  1
  I  I5  1  0.925079  0.242947  0.593179  1
  I  I6  1  0.746248  0.395633  0.096226  1
  I  I7  1  0.395631  0.096225  0.746252  1
  I  I8  1  0.096222  0.746250  0.395636  1
