# generated using pymatgen
data_HoSi4(Ir2Rh)2
_symmetry_space_group_name_H-M   'P 1'
_cell_length_a   7.01834690
_cell_length_b   7.02716157
_cell_length_c   3.82658900
_cell_angle_alpha   90.00000000
_cell_angle_beta   90.00000000
_cell_angle_gamma   119.81008642
_symmetry_Int_Tables_number   1
_chemical_formula_structural   HoSi4(Ir2Rh)2
_chemical_formula_sum   'Ho1 Si4 Ir4 Rh2'
_cell_volume   163.75144851
_cell_formula_units_Z   1
loop_
 _symmetry_equiv_pos_site_id
 _symmetry_equiv_pos_as_xyz
  1  'x, y, z'
loop_
 _atom_site_type_symbol
 _atom_site_label
 _atom_site_symmetry_multiplicity
 _atom_site_fract_x
 _atom_site_fract_y
 _atom_site_fract_z
 _atom_site_occupancy
  Ho  Ho0  1  0.000749  0.000100  0.000000  1
  Si  Si1  1  0.334511  0.666055  0.000000  1
  Si  Si2  1  0.393629  0.196378  0.499999  1
  Si  Si3  1  0.801178  0.197704  0.499999  1
  Si  Si4  1  0.802643  0.604925  0.499999  1
  Ir  Ir5  1  0.532891  0.066394  0.000000  1
  Ir  Ir6  1  0.934093  0.468411  0.000000  1
  Ir  Ir7  1  0.196790  0.394266  0.499999  1
  Ir  Ir8  1  0.198021  0.801913  0.499999  1
  Rh  Rh9  1  0.533847  0.468188  0.000000  1
  Rh  Rh10  1  0.604982  0.802331  0.499999  1
