# generated using pymatgen
data_ErLuCo2(SnH)2
_symmetry_space_group_name_H-M   'P 1'
_cell_length_a   4.24015200
_cell_length_b   7.03354746
_cell_length_c   8.06816987
_cell_angle_alpha   90.09625400
_cell_angle_beta   90.00000000
_cell_angle_gamma   90.00000000
_symmetry_Int_Tables_number   1
_chemical_formula_structural   ErLuCo2(SnH)2
_chemical_formula_sum   'Er2 Lu2 Co4 Sn4 H4'
_cell_volume   240.61919431
_cell_formula_units_Z   2
loop_
 _symmetry_equiv_pos_site_id
 _symmetry_equiv_pos_as_xyz
  1  'x, y, z'
loop_
 _atom_site_type_symbol
 _atom_site_label
 _atom_site_symmetry_multiplicity
 _atom_site_fract_x
 _atom_site_fract_y
 _atom_site_fract_z
 _atom_site_occupancy
  Er  Er0  1  0.250000  0.486525  0.184775  1
  Er  Er1  1  0.750000  0.513475  0.815225  1
  Lu  Lu2  1  0.750000  0.013898  0.683005  1
  Lu  Lu3  1  0.250000  0.986102  0.316995  1
  Co  Co4  1  0.750000  0.772419  0.104553  1
  Co  Co5  1  0.250000  0.227581  0.895447  1
  Co  Co6  1  0.250000  0.730855  0.602308  1
  Co  Co7  1  0.750000  0.269145  0.397692  1
  Sn  Sn8  1  0.750000  0.654167  0.426660  1
  Sn  Sn9  1  0.250000  0.345833  0.573340  1
  Sn  Sn10  1  0.250000  0.846585  0.925768  1
  Sn  Sn11  1  0.750000  0.153415  0.074232  1
  H  H12  1  0.250000  0.450431  0.917669  1
  H  H13  1  0.750000  0.549569  0.082331  1
  H  H14  1  0.750000  0.046732  0.418812  1
  H  H15  1  0.250000  0.953268  0.581188  1
