# generated using pymatgen
data_Tb3PrHo2CoBr10
_symmetry_space_group_name_H-M   'P 1'
_cell_length_a   7.40991686
_cell_length_b   9.31567428
_cell_length_c   9.25053906
_cell_angle_alpha   108.14339557
_cell_angle_beta   104.28942983
_cell_angle_gamma   96.88911348
_symmetry_Int_Tables_number   1
_chemical_formula_structural   Tb3PrHo2CoBr10
_chemical_formula_sum   'Tb3 Pr1 Ho2 Co1 Br10'
_cell_volume   574.44147817
_cell_formula_units_Z   1
loop_
 _symmetry_equiv_pos_site_id
 _symmetry_equiv_pos_as_xyz
  1  'x, y, z'
loop_
 _atom_site_type_symbol
 _atom_site_label
 _atom_site_symmetry_multiplicity
 _atom_site_fract_x
 _atom_site_fract_y
 _atom_site_fract_z
 _atom_site_occupancy
  Tb  Tb0  1  0.353551  0.176207  0.125495  1
  Tb  Tb1  1  0.032876  0.912313  0.721761  1
  Tb  Tb2  1  0.120241  0.755573  0.046924  1
  Pr  Pr3  1  0.966832  0.092002  0.289660  1
  Ho  Ho4  1  0.648287  0.824776  0.871487  1
  Ho  Ho5  1  0.876037  0.240917  0.953426  1
  Co  Co6  1  0.998644  0.000386  0.001798  1
  Br  Br7  1  0.454250  0.080491  0.819316  1
  Br  Br8  1  0.750344  0.543538  0.913118  1
  Br  Br9  1  0.241758  0.453839  0.079280  1
  Br  Br10  1  0.913517  0.171177  0.639426  1
  Br  Br11  1  0.657833  0.730146  0.558425  1
  Br  Br12  1  0.538516  0.912550  0.172112  1
  Br  Br13  1  0.089739  0.822224  0.370231  1
  Br  Br14  1  0.772004  0.351275  0.241947  1
  Br  Br15  1  0.222715  0.658760  0.750580  1
  Br  Br16  1  0.362856  0.273826  0.445012  1
