# generated using pymatgen
data_IrRuF7
_symmetry_space_group_name_H-M   'P 1'
_cell_length_a   7.45361488
_cell_length_b   7.45361612
_cell_length_c   7.45361536
_cell_angle_alpha   122.40368519
_cell_angle_beta   120.36230567
_cell_angle_gamma   87.63029768
_symmetry_Int_Tables_number   1
_chemical_formula_structural   IrRuF7
_chemical_formula_sum   'Ir2 Ru2 F14'
_cell_volume   286.30330288
_cell_formula_units_Z   2
loop_
 _symmetry_equiv_pos_site_id
 _symmetry_equiv_pos_as_xyz
  1  'x, y, z'
loop_
 _atom_site_type_symbol
 _atom_site_label
 _atom_site_symmetry_multiplicity
 _atom_site_fract_x
 _atom_site_fract_y
 _atom_site_fract_z
 _atom_site_occupancy
  Ir  Ir0  1  0.500000  0.500000  0.500000  1
  Ir  Ir1  1  0.000000  0.500000  0.000000  1
  Ru  Ru2  1  0.000000  0.500000  0.500000  1
  Ru  Ru3  1  0.500000  0.000000  0.500000  1
  F  F4  1  0.052990  0.801425  0.748435  1
  F  F5  1  0.582547  0.826620  0.649494  1
  F  F6  1  0.177126  0.826620  0.244073  1
  F  F7  1  0.552990  0.804554  0.251565  1
  F  F8  1  0.250000  0.386175  0.136175  1
  F  F9  1  0.082547  0.433053  0.755927  1
  F  F10  1  0.677126  0.433053  0.350506  1
  F  F11  1  0.322874  0.566947  0.649494  1
  F  F12  1  0.917453  0.566947  0.244073  1
  F  F13  1  0.750000  0.613825  0.863825  1
  F  F14  1  0.447010  0.195446  0.748435  1
  F  F15  1  0.822874  0.173380  0.755927  1
  F  F16  1  0.417453  0.173380  0.350506  1
  F  F17  1  0.947010  0.198575  0.251565  1
