# generated using pymatgen
data_Rb6V(RhBr6)3
_symmetry_space_group_name_H-M   'P 1'
_cell_length_a   7.54591300
_cell_length_b   7.54591331
_cell_length_c   19.12291900
_cell_angle_alpha   90.00000000
_cell_angle_beta   90.00000000
_cell_angle_gamma   119.99999425
_symmetry_Int_Tables_number   1
_chemical_formula_structural   Rb6V(RhBr6)3
_chemical_formula_sum   'Rb6 V1 Rh3 Br18'
_cell_volume   942.99295383
_cell_formula_units_Z   1
loop_
 _symmetry_equiv_pos_site_id
 _symmetry_equiv_pos_as_xyz
  1  'x, y, z'
loop_
 _atom_site_type_symbol
 _atom_site_label
 _atom_site_symmetry_multiplicity
 _atom_site_fract_x
 _atom_site_fract_y
 _atom_site_fract_z
 _atom_site_occupancy
  Rb  Rb0  1  0.666667  0.333333  0.564081  1
  Rb  Rb1  1  0.333333  0.666667  0.065491  1
  Rb  Rb2  1  0.333333  0.666667  0.432482  1
  Rb  Rb3  1  0.666667  0.333333  0.935074  1
  Rb  Rb4  1  0.000000  0.000000  0.252321  1
  Rb  Rb5  1  0.000000  0.000000  0.749702  1
  V  V6  1  0.666667  0.333333  0.163362  1
  Rh  Rh7  1  0.333333  0.666667  0.665089  1
  Rh  Rh8  1  0.666667  0.333333  0.331448  1
  Rh  Rh9  1  0.333333  0.666667  0.835313  1
  Br  Br10  1  0.822321  0.644641  0.406513  1
  Br  Br11  1  0.176818  0.823182  0.591454  1
  Br  Br12  1  0.646364  0.823182  0.591454  1
  Br  Br13  1  0.822321  0.177679  0.406513  1
  Br  Br14  1  0.355359  0.177679  0.406513  1
  Br  Br15  1  0.176842  0.353684  0.909063  1
  Br  Br16  1  0.031357  0.515679  0.750216  1
  Br  Br17  1  0.646316  0.823158  0.909063  1
  Br  Br18  1  0.826490  0.652981  0.093087  1
  Br  Br19  1  0.176818  0.353636  0.591454  1
  Br  Br20  1  0.484321  0.968643  0.750216  1
  Br  Br21  1  0.510870  0.489130  0.251546  1
  Br  Br22  1  0.484321  0.515679  0.750216  1
  Br  Br23  1  0.176842  0.823158  0.909063  1
  Br  Br24  1  0.347019  0.173510  0.093087  1
  Br  Br25  1  0.978259  0.489130  0.251546  1
  Br  Br26  1  0.510870  0.021741  0.251546  1
  Br  Br27  1  0.826490  0.173510  0.093087  1
