# generated using pymatgen
data_Ho2BeCoBr2
_symmetry_space_group_name_H-M   'P 1'
_cell_length_a   3.83293400
_cell_length_b   3.83293381
_cell_length_c   11.75773900
_cell_angle_alpha   90.00000000
_cell_angle_beta   90.00000000
_cell_angle_gamma   120.00000161
_symmetry_Int_Tables_number   1
_chemical_formula_structural   Ho2BeCoBr2
_chemical_formula_sum   'Ho2 Be1 Co1 Br2'
_cell_volume   149.59500797
_cell_formula_units_Z   1
loop_
 _symmetry_equiv_pos_site_id
 _symmetry_equiv_pos_as_xyz
  1  'x, y, z'
loop_
 _atom_site_type_symbol
 _atom_site_label
 _atom_site_symmetry_multiplicity
 _atom_site_fract_x
 _atom_site_fract_y
 _atom_site_fract_z
 _atom_site_occupancy
  Ho  Ho0  1  0.000000  0.000000  0.157748  1
  Ho  Ho1  1  0.000000  0.000000  0.841936  1
  Be  Be2  1  0.666668  0.333335  0.002364  1
  Co  Co3  1  0.333333  0.666666  0.997882  1
  Br  Br4  1  0.333333  0.666666  0.323025  1
  Br  Br5  1  0.666668  0.333335  0.677047  1
