# generated using pymatgen
data_Li2MgZrPt4
_symmetry_space_group_name_H-M   'P 1'
_cell_length_a   4.22174400
_cell_length_b   7.05046700
_cell_length_c   12.59605300
_cell_angle_alpha   90.00000000
_cell_angle_beta   90.00000000
_cell_angle_gamma   90.00000000
_symmetry_Int_Tables_number   1
_chemical_formula_structural   Li2MgZrPt4
_chemical_formula_sum   'Li6 Mg3 Zr3 Pt12'
_cell_volume   374.92487760
_cell_formula_units_Z   3
loop_
 _symmetry_equiv_pos_site_id
 _symmetry_equiv_pos_as_xyz
  1  'x, y, z'
loop_
 _atom_site_type_symbol
 _atom_site_label
 _atom_site_symmetry_multiplicity
 _atom_site_fract_x
 _atom_site_fract_y
 _atom_site_fract_z
 _atom_site_occupancy
  Li  Li0  1  0.000000  0.500000  0.013029  1
  Li  Li1  1  0.499999  0.000000  0.166669  1
  Li  Li2  1  0.000000  0.500000  0.320309  1
  Li  Li3  1  0.499999  0.000000  0.487257  1
  Li  Li4  1  0.000000  0.500000  0.666669  1
  Li  Li5  1  0.499999  0.000000  0.846072  1
  Mg  Mg6  1  0.000000  0.000000  0.006107  1
  Mg  Mg7  1  0.500002  0.500000  0.166665  1
  Mg  Mg8  1  0.000000  0.000000  0.327227  1
  Zr  Zr9  1  0.499999  0.500000  0.491766  1
  Zr  Zr10  1  0.000000  0.000000  0.666666  1
  Zr  Zr11  1  0.499999  0.500000  0.841567  1
  Pt  Pt12  1  0.499999  0.249144  0.005468  1
  Pt  Pt13  1  0.499999  0.750856  0.005468  1
  Pt  Pt14  1  0.000000  0.249524  0.166668  1
  Pt  Pt15  1  0.000000  0.750475  0.166668  1
  Pt  Pt16  1  0.500002  0.249149  0.327864  1
  Pt  Pt17  1  0.500002  0.750852  0.327864  1
  Pt  Pt18  1  0.000000  0.247241  0.494621  1
  Pt  Pt19  1  0.000000  0.752758  0.494621  1
  Pt  Pt20  1  0.499999  0.252045  0.666666  1
  Pt  Pt21  1  0.499999  0.747956  0.666666  1
  Pt  Pt22  1  0.000000  0.247244  0.838712  1
  Pt  Pt23  1  0.000000  0.752755  0.838712  1
