# generated using pymatgen
data_Yb11Y8LuSn16
_symmetry_space_group_name_H-M   'P 1'
_cell_length_a   7.83851902
_cell_length_b   8.43869366
_cell_length_c   16.00632100
_cell_angle_alpha   90.00000000
_cell_angle_beta   90.00000000
_cell_angle_gamma   89.86747128
_symmetry_Int_Tables_number   1
_chemical_formula_structural   Yb11Y8LuSn16
_chemical_formula_sum   'Yb11 Y8 Lu1 Sn16'
_cell_volume   1058.76505406
_cell_formula_units_Z   1
loop_
 _symmetry_equiv_pos_site_id
 _symmetry_equiv_pos_as_xyz
  1  'x, y, z'
loop_
 _atom_site_type_symbol
 _atom_site_label
 _atom_site_symmetry_multiplicity
 _atom_site_fract_x
 _atom_site_fract_y
 _atom_site_fract_z
 _atom_site_occupancy
  Yb  Yb0  1  0.503988  0.688135  0.594308  1
  Yb  Yb1  1  0.003668  0.813554  0.907334  1
  Yb  Yb2  1  0.494986  0.310766  0.092507  1
  Yb  Yb3  1  0.996210  0.188317  0.407818  1
  Yb  Yb4  1  0.494986  0.310766  0.407493  1
  Yb  Yb5  1  0.996210  0.188317  0.092182  1
  Yb  Yb6  1  0.503988  0.688135  0.905692  1
  Yb  Yb7  1  0.003668  0.813554  0.592666  1
  Yb  Yb8  1  0.335776  0.989541  0.750000  1
  Yb  Yb9  1  0.163612  0.488824  0.250000  1
  Yb  Yb10  1  0.662411  0.009751  0.250000  1
  Y  Y11  1  0.672493  0.165270  0.622245  1
  Y  Y12  1  0.173687  0.333459  0.877047  1
  Y  Y13  1  0.327407  0.832126  0.122110  1
  Y  Y14  1  0.827943  0.665908  0.378146  1
  Y  Y15  1  0.327407  0.832126  0.377890  1
  Y  Y16  1  0.827943  0.665908  0.121854  1
  Y  Y17  1  0.672493  0.165270  0.877755  1
  Y  Y18  1  0.173687  0.333459  0.622953  1
  Lu  Lu19  1  0.837389  0.510784  0.750000  1
  Sn  Sn20  1  0.672683  0.964421  0.459467  1
  Sn  Sn21  1  0.172680  0.535119  0.039822  1
  Sn  Sn22  1  0.328112  0.035590  0.959410  1
  Sn  Sn23  1  0.828094  0.466554  0.543657  1
  Sn  Sn24  1  0.328112  0.035590  0.540590  1
  Sn  Sn25  1  0.828094  0.466554  0.956343  1
  Sn  Sn26  1  0.672683  0.964421  0.040533  1
  Sn  Sn27  1  0.172680  0.535119  0.460178  1
  Sn  Sn28  1  0.475196  0.381031  0.750000  1
  Sn  Sn29  1  0.970047  0.130615  0.750000  1
  Sn  Sn30  1  0.528910  0.621704  0.250000  1
  Sn  Sn31  1  0.027806  0.875854  0.250000  1
  Sn  Sn32  1  0.720399  0.864585  0.750000  1
  Sn  Sn33  1  0.209712  0.631350  0.750000  1
  Sn  Sn34  1  0.281248  0.127510  0.250000  1
  Sn  Sn35  1  0.783592  0.370015  0.250000  1
