# generated using pymatgen
data_Tb3Tm5Tc(B8Rh)3
_symmetry_space_group_name_H-M   'P 1'
_cell_length_a   3.65622000
_cell_length_b   9.12908478
_cell_length_c   11.49357033
_cell_angle_alpha   90.14676667
_cell_angle_beta   90.00000000
_cell_angle_gamma   90.00000000
_symmetry_Int_Tables_number   1
_chemical_formula_structural   Tb3Tm5Tc(B8Rh)3
_chemical_formula_sum   'Tb3 Tm5 Tc1 B24 Rh3'
_cell_volume   383.63046939
_cell_formula_units_Z   1
loop_
 _symmetry_equiv_pos_site_id
 _symmetry_equiv_pos_as_xyz
  1  'x, y, z'
loop_
 _atom_site_type_symbol
 _atom_site_label
 _atom_site_symmetry_multiplicity
 _atom_site_fract_x
 _atom_site_fract_y
 _atom_site_fract_z
 _atom_site_occupancy
  Tb  Tb0  1  0.500000  0.318789  0.410651  1
  Tb  Tb1  1  0.500000  0.677685  0.585759  1
  Tb  Tb2  1  0.500000  0.178416  0.917286  1
  Tm  Tm3  1  0.500000  0.824714  0.087011  1
  Tm  Tm4  1  0.500000  0.443037  0.126163  1
  Tm  Tm5  1  0.500000  0.556976  0.872863  1
  Tm  Tm6  1  0.500000  0.056044  0.628094  1
  Tm  Tm7  1  0.500000  0.945927  0.372397  1
  Tc  Tc8  1  0.500000  0.137895  0.179237  1
  B  B9  1  0.000000  0.104964  0.472305  1
  B  B10  1  0.000000  0.893939  0.529343  1
  B  B11  1  0.000000  0.394952  0.970245  1
  B  B12  1  0.000000  0.608871  0.029018  1
  B  B13  1  0.000000  0.131041  0.314872  1
  B  B14  1  0.000000  0.867647  0.683905  1
  B  B15  1  0.000000  0.369262  0.816479  1
  B  B16  1  0.000000  0.632817  0.182761  1
  B  B17  1  0.000000  0.053164  0.067123  1
  B  B18  1  0.000000  0.945342  0.934280  1
  B  B19  1  0.000000  0.444475  0.565993  1
  B  B20  1  0.000000  0.553769  0.432897  1
  B  B21  1  0.000000  0.483692  0.285711  1
  B  B22  1  0.000000  0.517085  0.713458  1
  B  B23  1  0.000000  0.016834  0.787041  1
  B  B24  1  0.000000  0.982386  0.213320  1
  B  B25  1  0.000000  0.249371  0.080922  1
  B  B26  1  0.000000  0.750789  0.920974  1
  B  B27  1  0.000000  0.249064  0.579675  1
  B  B28  1  0.000000  0.750078  0.419895  1
  B  B29  1  0.000000  0.292581  0.234067  1
  B  B30  1  0.000000  0.706413  0.764731  1
  B  B31  1  0.000000  0.207335  0.735482  1
  B  B32  1  0.000000  0.793105  0.264923  1
  Rh  Rh33  1  0.500000  0.861258  0.821447  1
  Rh  Rh34  1  0.500000  0.360491  0.679765  1
  Rh  Rh35  1  0.500000  0.639794  0.319905  1
