# generated using pymatgen
data_AcHfPaN4
_symmetry_space_group_name_H-M   'P 1'
_cell_length_a   6.92523242
_cell_length_b   6.80201116
_cell_length_c   6.92521323
_cell_angle_alpha   119.40835998
_cell_angle_beta   89.03589472
_cell_angle_gamma   119.40837810
_symmetry_Int_Tables_number   1
_chemical_formula_structural   AcHfPaN4
_chemical_formula_sum   'Ac2 Hf2 Pa2 N8'
_cell_volume   236.50252318
_cell_formula_units_Z   2
loop_
 _symmetry_equiv_pos_site_id
 _symmetry_equiv_pos_as_xyz
  1  'x, y, z'
loop_
 _atom_site_type_symbol
 _atom_site_label
 _atom_site_symmetry_multiplicity
 _atom_site_fract_x
 _atom_site_fract_y
 _atom_site_fract_z
 _atom_site_occupancy
  Ac  Ac0  1  0.996746  0.000006  0.003266  1
  Ac  Ac1  1  0.753271  0.499993  0.246715  1
  Hf  Hf2  1  0.374996  0.749989  0.625004  1
  Hf  Hf3  1  0.374996  0.250012  0.625005  1
  Pa  Pa4  1  0.374991  0.749992  0.124993  1
  Pa  Pa5  1  0.875008  0.250009  0.625009  1
  N  N6  1  0.602691  0.209817  0.397254  1
  N  N7  1  0.186794  0.794180  0.401513  1
  N  N8  1  0.602742  0.790178  0.397305  1
  N  N9  1  0.151496  0.294170  0.436790  1
  N  N10  1  0.598487  0.205818  0.813202  1
  N  N11  1  0.147262  0.709808  0.852695  1
  N  N12  1  0.147309  0.290198  0.852744  1
  N  N13  1  0.563211  0.705828  0.848503  1
