# generated using pymatgen
data_Ba4LaNd7Se16
_symmetry_space_group_name_H-M   'P 1'
_cell_length_a   4.35885700
_cell_length_b   13.10164441
_cell_length_c   15.63513984
_cell_angle_alpha   90.09651028
_cell_angle_beta   90.00000000
_cell_angle_gamma   90.00000000
_symmetry_Int_Tables_number   1
_chemical_formula_structural   Ba4LaNd7Se16
_chemical_formula_sum   'Ba4 La1 Nd7 Se16'
_cell_volume   892.89333923
_cell_formula_units_Z   1
loop_
 _symmetry_equiv_pos_site_id
 _symmetry_equiv_pos_as_xyz
  1  'x, y, z'
loop_
 _atom_site_type_symbol
 _atom_site_label
 _atom_site_symmetry_multiplicity
 _atom_site_fract_x
 _atom_site_fract_y
 _atom_site_fract_z
 _atom_site_occupancy
  Ba  Ba0  1  0.250000  0.756520  0.337341  1
  Ba  Ba1  1  0.250000  0.257703  0.161821  1
  Ba  Ba2  1  0.750000  0.243130  0.663256  1
  Ba  Ba3  1  0.750000  0.742811  0.837570  1
  La  La4  1  0.750000  0.080184  0.399072  1
  Nd  Nd5  1  0.250000  0.431403  0.391217  1
  Nd  Nd6  1  0.250000  0.930383  0.108216  1
  Nd  Nd7  1  0.750000  0.569285  0.608735  1
  Nd  Nd8  1  0.750000  0.069330  0.891351  1
  Nd  Nd9  1  0.250000  0.420375  0.899082  1
  Nd  Nd10  1  0.250000  0.919494  0.601706  1
  Nd  Nd11  1  0.750000  0.579661  0.101011  1
  Se  Se12  1  0.250000  0.207218  0.827169  1
  Se  Se13  1  0.250000  0.707050  0.673011  1
  Se  Se14  1  0.750000  0.792512  0.172864  1
  Se  Se15  1  0.750000  0.295115  0.325913  1
  Se  Se16  1  0.250000  0.129743  0.527644  1
  Se  Se17  1  0.250000  0.629529  0.974465  1
  Se  Se18  1  0.750000  0.868325  0.475520  1
  Se  Se19  1  0.750000  0.370519  0.025455  1
  Se  Se20  1  0.250000  0.524062  0.216868  1
  Se  Se21  1  0.250000  0.022728  0.280978  1
  Se  Se22  1  0.750000  0.476235  0.782981  1
  Se  Se23  1  0.750000  0.976245  0.717258  1
  Se  Se24  1  0.250000  0.416525  0.579010  1
  Se  Se25  1  0.250000  0.916523  0.920722  1
  Se  Se26  1  0.750000  0.583611  0.420981  1
  Se  Se27  1  0.750000  0.083776  0.078787  1
