# generated using pymatgen
data_NdLu2Ir9
_symmetry_space_group_name_H-M   'P 1'
_cell_length_a   5.17190600
_cell_length_b   9.02297900
_cell_length_c   9.02297900
_cell_angle_alpha   90.00000000
_cell_angle_beta   90.00000000
_cell_angle_gamma   90.00000000
_symmetry_Int_Tables_number   1
_chemical_formula_structural   NdLu2Ir9
_chemical_formula_sum   'Nd2 Lu4 Ir18'
_cell_volume   421.06633105
_cell_formula_units_Z   2
loop_
 _symmetry_equiv_pos_site_id
 _symmetry_equiv_pos_as_xyz
  1  'x, y, z'
loop_
 _atom_site_type_symbol
 _atom_site_label
 _atom_site_symmetry_multiplicity
 _atom_site_fract_x
 _atom_site_fract_y
 _atom_site_fract_z
 _atom_site_occupancy
  Nd  Nd0  1  0.000000  0.500000  0.500000  1
  Nd  Nd1  1  0.000000  0.000000  0.000000  1
  Lu  Lu2  1  0.000000  0.621030  0.121030  1
  Lu  Lu3  1  0.000000  0.378970  0.878970  1
  Lu  Lu4  1  0.000000  0.878970  0.621030  1
  Lu  Lu5  1  0.000000  0.121030  0.378970  1
  Ir  Ir6  1  0.756086  0.180301  0.680301  1
  Ir  Ir7  1  0.756086  0.819699  0.319699  1
  Ir  Ir8  1  0.756086  0.319699  0.180301  1
  Ir  Ir9  1  0.756086  0.680301  0.819699  1
  Ir  Ir10  1  0.243914  0.819699  0.319699  1
  Ir  Ir11  1  0.243914  0.180301  0.680301  1
  Ir  Ir12  1  0.243914  0.680301  0.819699  1
  Ir  Ir13  1  0.243914  0.319699  0.180301  1
  Ir  Ir14  1  0.500000  0.704918  0.556189  1
  Ir  Ir15  1  0.500000  0.295082  0.443811  1
  Ir  Ir16  1  0.500000  0.795082  0.056189  1
  Ir  Ir17  1  0.500000  0.204918  0.943811  1
  Ir  Ir18  1  0.500000  0.556189  0.295082  1
  Ir  Ir19  1  0.500000  0.443811  0.704918  1
  Ir  Ir20  1  0.500000  0.056189  0.204918  1
  Ir  Ir21  1  0.500000  0.943811  0.795082  1
  Ir  Ir22  1  0.500000  0.000000  0.500000  1
  Ir  Ir23  1  0.500000  0.500000  0.000000  1
