# generated using pymatgen
data_MnZn5B5Ir11
_symmetry_space_group_name_H-M   'P 1'
_cell_length_a   2.88117400
_cell_length_b   8.50434116
_cell_length_c   11.45942829
_cell_angle_alpha   89.52445799
_cell_angle_beta   90.00000000
_cell_angle_gamma   90.00000000
_symmetry_Int_Tables_number   1
_chemical_formula_structural   MnZn5B5Ir11
_chemical_formula_sum   'Mn1 Zn5 B5 Ir11'
_cell_volume   280.77481737
_cell_formula_units_Z   1
loop_
 _symmetry_equiv_pos_site_id
 _symmetry_equiv_pos_as_xyz
  1  'x, y, z'
loop_
 _atom_site_type_symbol
 _atom_site_label
 _atom_site_symmetry_multiplicity
 _atom_site_fract_x
 _atom_site_fract_y
 _atom_site_fract_z
 _atom_site_occupancy
  Mn  Mn0  1  0.500000  0.998227  0.196055  1
  Zn  Zn1  1  0.500000  0.346916  0.501313  1
  Zn  Zn2  1  0.500000  0.645424  0.498800  1
  Zn  Zn3  1  0.500000  0.999299  0.501921  1
  Zn  Zn4  1  0.500000  0.511907  0.003004  1
  Zn  Zn5  1  0.500000  0.988029  0.796765  1
  B  B6  1  0.500000  0.317215  0.267680  1
  B  B7  1  0.500000  0.687867  0.255660  1
  B  B8  1  0.500000  0.682025  0.744098  1
  B  B9  1  0.500000  0.316390  0.735599  1
  B  B10  1  0.500000  0.178397  0.998112  1
  Ir  Ir11  1  0.000000  0.501361  0.315331  1
  Ir  Ir12  1  0.000000  0.499250  0.683103  1
  Ir  Ir13  1  0.000000  0.168618  0.354338  1
  Ir  Ir14  1  0.000000  0.828896  0.354651  1
  Ir  Ir15  1  0.000000  0.822219  0.643173  1
  Ir  Ir16  1  0.000000  0.168407  0.650814  1
  Ir  Ir17  1  0.000000  0.284858  0.123495  1
  Ir  Ir18  1  0.000000  0.729666  0.118962  1
  Ir  Ir19  1  0.000000  0.723829  0.881252  1
  Ir  Ir20  1  0.000000  0.297701  0.881271  1
  Ir  Ir21  1  0.000000  0.995499  0.994601  1
