# generated using pymatgen
data_YbSc3(Al8Pt3)3
_symmetry_space_group_name_H-M   'P 1'
_cell_length_a   7.48117330
_cell_length_b   7.48203196
_cell_length_c   13.10100932
_cell_angle_alpha   84.56426572
_cell_angle_beta   100.87387032
_cell_angle_gamma   119.84954050
_symmetry_Int_Tables_number   1
_chemical_formula_structural   YbSc3(Al8Pt3)3
_chemical_formula_sum   'Yb1 Sc3 Al24 Pt9'
_cell_volume   624.61473671
_cell_formula_units_Z   1
loop_
 _symmetry_equiv_pos_site_id
 _symmetry_equiv_pos_as_xyz
  1  'x, y, z'
loop_
 _atom_site_type_symbol
 _atom_site_label
 _atom_site_symmetry_multiplicity
 _atom_site_fract_x
 _atom_site_fract_y
 _atom_site_fract_z
 _atom_site_occupancy
  Yb  Yb0  1  0.232193  0.498259  0.190992  1
  Sc  Sc1  1  0.436526  0.830691  0.807733  1
  Sc  Sc2  1  0.563053  0.168949  0.191935  1
  Sc  Sc3  1  0.767631  0.500956  0.807766  1
  Al  Al4  1  0.484373  0.166534  0.940634  1
  Al  Al5  1  0.517660  0.836153  0.055096  1
  Al  Al6  1  0.021475  0.167876  0.563112  1
  Al  Al7  1  0.979221  0.832376  0.438756  1
  Al  Al8  1  0.354102  0.833510  0.560824  1
  Al  Al9  1  0.646522  0.166297  0.440730  1
  Al  Al10  1  0.615550  0.835902  0.326860  1
  Al  Al11  1  0.386714  0.165379  0.676406  1
  Al  Al12  1  0.058160  0.495949  0.676533  1
  Al  Al13  1  0.941706  0.504355  0.326993  1
  Al  Al14  1  0.729249  0.837110  0.675160  1
  Al  Al15  1  0.271663  0.161168  0.328100  1
  Al  Al16  1  0.146310  0.503672  0.940552  1
  Al  Al17  1  0.849815  0.497015  0.054993  1
  Al  Al18  1  0.811290  0.828988  0.947972  1
  Al  Al19  1  0.186075  0.167829  0.047125  1
  Al  Al20  1  0.313920  0.500198  0.441018  1
  Al  Al21  1  0.686477  0.499476  0.560800  1
  Al  Al22  1  0.107316  0.841965  0.182899  1
  Al  Al23  1  0.893219  0.164281  0.816563  1
  Al  Al24  1  0.311852  0.373394  0.815692  1
  Al  Al25  1  0.693708  0.626679  0.183812  1
  Al  Al26  1  0.103037  0.954332  0.816387  1
  Al  Al27  1  0.891024  0.040570  0.183344  1
  Pt  Pt28  1  0.388485  0.508443  0.639227  1
  Pt  Pt29  1  0.613238  0.492454  0.362047  1
  Pt  Pt30  1  0.170550  0.828312  0.998900  1
  Pt  Pt31  1  0.829237  0.171565  0.999262  1
  Pt  Pt32  1  0.295173  0.832959  0.362174  1
  Pt  Pt33  1  0.704000  0.166769  0.639310  1
  Pt  Pt34  1  0.046168  0.824804  0.638237  1
  Pt  Pt35  1  0.953914  0.174339  0.363084  1
  Pt  Pt36  1  0.499390  0.500491  0.998974  1
