# generated using pymatgen
data_Sr2Pb3O8
_symmetry_space_group_name_H-M   'P 1'
_cell_length_a   6.98547426
_cell_length_b   6.98547307
_cell_length_c   5.70664457
_cell_angle_alpha   71.97666268
_cell_angle_beta   71.97666444
_cell_angle_gamma   58.32252742
_symmetry_Int_Tables_number   1
_chemical_formula_structural   Sr2Pb3O8
_chemical_formula_sum   'Sr2 Pb3 O8'
_cell_volume   221.60608146
_cell_formula_units_Z   1
loop_
 _symmetry_equiv_pos_site_id
 _symmetry_equiv_pos_as_xyz
  1  'x, y, z'
loop_
 _atom_site_type_symbol
 _atom_site_label
 _atom_site_symmetry_multiplicity
 _atom_site_fract_x
 _atom_site_fract_y
 _atom_site_fract_z
 _atom_site_occupancy
  Sr  Sr0  1  0.719629  0.719629  0.342842  1
  Sr  Sr1  1  0.280371  0.280371  0.657158  1
  Pb  Pb2  1  0.000000  0.000000  0.500000  1
  Pb  Pb3  1  0.738518  0.261482  0.000000  1
  Pb  Pb4  1  0.261482  0.738518  0.000000  1
  O  O5  1  0.390368  0.390368  0.950568  1
  O  O6  1  0.609632  0.609632  0.049432  1
  O  O7  1  0.898048  0.898048  0.914727  1
  O  O8  1  0.101952  0.101952  0.085273  1
  O  O9  1  0.328253  0.890127  0.602796  1
  O  O10  1  0.890127  0.328253  0.602796  1
  O  O11  1  0.109873  0.671747  0.397204  1
  O  O12  1  0.671747  0.109873  0.397204  1
