# generated using pymatgen
data_LaYAlNi9
_symmetry_space_group_name_H-M   'P 1'
_cell_length_a   3.99018200
_cell_length_b   5.02541600
_cell_length_c   8.54544400
_cell_angle_alpha   90.00000000
_cell_angle_beta   90.00000000
_cell_angle_gamma   90.00000000
_symmetry_Int_Tables_number   1
_chemical_formula_structural   LaYAlNi9
_chemical_formula_sum   'La1 Y1 Al1 Ni9'
_cell_volume   171.35601579
_cell_formula_units_Z   1
loop_
 _symmetry_equiv_pos_site_id
 _symmetry_equiv_pos_as_xyz
  1  'x, y, z'
loop_
 _atom_site_type_symbol
 _atom_site_label
 _atom_site_symmetry_multiplicity
 _atom_site_fract_x
 _atom_site_fract_y
 _atom_site_fract_z
 _atom_site_occupancy
  La  La0  1  0.000000  0.500000  0.000000  1
  Y  Y1  1  0.000000  0.000000  0.500000  1
  Al  Al2  1  0.500000  0.500000  0.500000  1
  Ni  Ni3  1  0.000000  0.500000  0.332974  1
  Ni  Ni4  1  0.000000  0.000000  0.831061  1
  Ni  Ni5  1  0.000000  0.000000  0.168939  1
  Ni  Ni6  1  0.000000  0.500000  0.667026  1
  Ni  Ni7  1  0.500000  0.000000  0.000000  1
  Ni  Ni8  1  0.500000  0.757831  0.256649  1
  Ni  Ni9  1  0.500000  0.242169  0.743351  1
  Ni  Ni10  1  0.500000  0.242169  0.256649  1
  Ni  Ni11  1  0.500000  0.757831  0.743351  1
