# generated using pymatgen
data_Zr2Al2Pt3Au
_symmetry_space_group_name_H-M   'P 1'
_cell_length_a   4.34934800
_cell_length_b   4.34934726
_cell_length_c   8.69956400
_cell_angle_alpha   90.00000000
_cell_angle_beta   90.00000000
_cell_angle_gamma   120.00000565
_symmetry_Int_Tables_number   1
_chemical_formula_structural   Zr2Al2Pt3Au
_chemical_formula_sum   'Zr2 Al2 Pt3 Au1'
_cell_volume   142.52017136
_cell_formula_units_Z   1
loop_
 _symmetry_equiv_pos_site_id
 _symmetry_equiv_pos_as_xyz
  1  'x, y, z'
loop_
 _atom_site_type_symbol
 _atom_site_label
 _atom_site_symmetry_multiplicity
 _atom_site_fract_x
 _atom_site_fract_y
 _atom_site_fract_z
 _atom_site_occupancy
  Zr  Zr0  1  0.333333  0.666667  0.199075  1
  Zr  Zr1  1  0.666667  0.333333  0.684108  1
  Al  Al2  1  0.000000  0.000000  0.443245  1
  Al  Al3  1  0.000000  0.000000  0.913658  1
  Pt  Pt4  1  0.333333  0.666667  0.856040  1
  Pt  Pt5  1  0.333333  0.666667  0.526150  1
  Pt  Pt6  1  0.666667  0.333333  0.351659  1
  Au  Au7  1  0.666667  0.333333  0.026063  1
