# generated using pymatgen
data_Rb3AlTe3
_symmetry_space_group_name_H-M   'P 1'
_cell_length_a   14.59387200
_cell_length_b   9.05173927
_cell_length_c   11.68181678
_cell_angle_alpha   52.55991435
_cell_angle_beta   90.00000000
_cell_angle_gamma   90.00000000
_symmetry_Int_Tables_number   1
_chemical_formula_structural   Rb3AlTe3
_chemical_formula_sum   'Rb12 Al4 Te12'
_cell_volume   1225.25846854
_cell_formula_units_Z   4
loop_
 _symmetry_equiv_pos_site_id
 _symmetry_equiv_pos_as_xyz
  1  'x, y, z'
loop_
 _atom_site_type_symbol
 _atom_site_label
 _atom_site_symmetry_multiplicity
 _atom_site_fract_x
 _atom_site_fract_y
 _atom_site_fract_z
 _atom_site_occupancy
  Rb  Rb0  1  0.311119  0.148071  0.076061  1
  Rb  Rb1  1  0.688881  0.851929  0.923939  1
  Rb  Rb2  1  0.811119  0.851929  0.423939  1
  Rb  Rb3  1  0.897957  0.321663  0.398993  1
  Rb  Rb4  1  0.618153  0.373738  0.471384  1
  Rb  Rb5  1  0.118153  0.626262  0.028616  1
  Rb  Rb6  1  0.381847  0.626262  0.528616  1
  Rb  Rb7  1  0.881847  0.373738  0.971384  1
  Rb  Rb8  1  0.602043  0.321663  0.898993  1
  Rb  Rb9  1  0.102043  0.678337  0.601007  1
  Rb  Rb10  1  0.397957  0.678337  0.101007  1
  Rb  Rb11  1  0.188881  0.148071  0.576061  1
  Al  Al12  1  0.062651  0.943408  0.157289  1
  Al  Al13  1  0.562651  0.056592  0.342711  1
  Al  Al14  1  0.437349  0.943408  0.657289  1
  Al  Al15  1  0.937349  0.056592  0.842711  1
  Te  Te16  1  0.399367  0.169299  0.371177  1
  Te  Te17  1  0.899367  0.830701  0.128823  1
  Te  Te18  1  0.600633  0.830701  0.628823  1
  Te  Te19  1  0.100633  0.169299  0.871177  1
  Te  Te20  1  0.685298  0.324991  0.198664  1
  Te  Te21  1  0.185298  0.675009  0.301336  1
  Te  Te22  1  0.314702  0.675009  0.801336  1
  Te  Te23  1  0.814702  0.324991  0.698664  1
  Te  Te24  1  0.548239  0.872915  0.236900  1
  Te  Te25  1  0.048239  0.127085  0.263100  1
  Te  Te26  1  0.451761  0.127085  0.763100  1
  Te  Te27  1  0.951761  0.872915  0.736900  1
