# generated using pymatgen
data_Dy5Tm15(Cd3Pt)2
_symmetry_space_group_name_H-M   'P 1'
_cell_length_a   9.64968900
_cell_length_b   9.64968710
_cell_length_c   9.60329600
_cell_angle_alpha   90.00000000
_cell_angle_beta   90.00000000
_cell_angle_gamma   120.01154262
_symmetry_Int_Tables_number   1
_chemical_formula_structural   Dy5Tm15(Cd3Pt)2
_chemical_formula_sum   'Dy5 Tm15 Cd6 Pt2'
_cell_volume   774.33157650
_cell_formula_units_Z   1
loop_
 _symmetry_equiv_pos_site_id
 _symmetry_equiv_pos_as_xyz
  1  'x, y, z'
loop_
 _atom_site_type_symbol
 _atom_site_label
 _atom_site_symmetry_multiplicity
 _atom_site_fract_x
 _atom_site_fract_y
 _atom_site_fract_z
 _atom_site_occupancy
  Dy  Dy0  1  0.541937  0.084725  0.750000  1
  Dy  Dy1  1  0.915275  0.458063  0.750000  1
  Dy  Dy2  1  0.458015  0.541985  0.250000  1
  Dy  Dy3  1  0.457954  0.916305  0.250000  1
  Dy  Dy4  1  0.083695  0.542046  0.250000  1
  Tm  Tm5  1  0.207937  0.792063  0.940792  1
  Tm  Tm6  1  0.208655  0.415716  0.940701  1
  Tm  Tm7  1  0.584284  0.791345  0.940701  1
  Tm  Tm8  1  0.791984  0.208016  0.058923  1
  Tm  Tm9  1  0.791404  0.583768  0.058418  1
  Tm  Tm10  1  0.416232  0.208596  0.058418  1
  Tm  Tm11  1  0.791984  0.208016  0.441077  1
  Tm  Tm12  1  0.791404  0.583768  0.441582  1
  Tm  Tm13  1  0.416232  0.208596  0.441582  1
  Tm  Tm14  1  0.207937  0.792063  0.559208  1
  Tm  Tm15  1  0.208655  0.415716  0.559299  1
  Tm  Tm16  1  0.584284  0.791345  0.559299  1
  Tm  Tm17  1  0.541783  0.458217  0.750000  1
  Tm  Tm18  1  0.999990  0.000010  0.000100  1
  Tm  Tm19  1  0.999990  0.000010  0.499900  1
  Cd  Cd20  1  0.884931  0.115069  0.750000  1
  Cd  Cd21  1  0.883734  0.768886  0.750000  1
  Cd  Cd22  1  0.231114  0.116266  0.750000  1
  Cd  Cd23  1  0.114839  0.885161  0.250000  1
  Cd  Cd24  1  0.115219  0.229937  0.250000  1
  Cd  Cd25  1  0.770063  0.884781  0.250000  1
  Pt  Pt26  1  0.333604  0.666396  0.750000  1
  Pt  Pt27  1  0.666862  0.333138  0.250000  1
