# generated using pymatgen
data_Tb3SmY2NiI10
_symmetry_space_group_name_H-M   'P 1'
_cell_length_a   7.73343846
_cell_length_b   9.71760276
_cell_length_c   9.76852299
_cell_angle_alpha   107.18625783
_cell_angle_beta   96.89080030
_cell_angle_gamma   104.75159903
_symmetry_Int_Tables_number   1
_chemical_formula_structural   Tb3SmY2NiI10
_chemical_formula_sum   'Tb3 Sm1 Y2 Ni1 I10'
_cell_volume   662.90027028
_cell_formula_units_Z   1
loop_
 _symmetry_equiv_pos_site_id
 _symmetry_equiv_pos_as_xyz
  1  'x, y, z'
loop_
 _atom_site_type_symbol
 _atom_site_label
 _atom_site_symmetry_multiplicity
 _atom_site_fract_x
 _atom_site_fract_y
 _atom_site_fract_z
 _atom_site_occupancy
  Tb  Tb0  1  0.112894  0.040708  0.764773  1
  Tb  Tb1  1  0.030408  0.720141  0.915251  1
  Tb  Tb2  1  0.969624  0.279696  0.082879  1
  Sm  Sm3  1  0.886097  0.958920  0.238915  1
  Y  Y4  1  0.659231  0.878843  0.838422  1
  Y  Y5  1  0.341073  0.121527  0.161408  1
  Ni  Ni6  1  0.000189  0.999906  0.999766  1
  I  I7  1  0.647934  0.549947  0.728485  1
  I  I8  1  0.351482  0.450049  0.271438  1
  I  I9  1  0.740783  0.912407  0.541155  1
  I  I10  1  0.263114  0.089196  0.463236  1
  I  I11  1  0.085178  0.371478  0.819211  1
  I  I12  1  0.915945  0.624639  0.177881  1
  I  I13  1  0.451091  0.814652  0.090705  1
  I  I14  1  0.545955  0.184089  0.907408  1
  I  I15  1  0.225270  0.743789  0.655308  1
  I  I16  1  0.773733  0.260012  0.343762  1
