# generated using pymatgen
data_Na4ScAuO6
_symmetry_space_group_name_H-M   'P 1'
_cell_length_a   5.56519016
_cell_length_b   5.56521100
_cell_length_c   5.79682219
_cell_angle_alpha   99.34107193
_cell_angle_beta   99.34102179
_cell_angle_gamma   119.92240601
_symmetry_Int_Tables_number   1
_chemical_formula_structural   Na4ScAuO6
_chemical_formula_sum   'Na4 Sc1 Au1 O6'
_cell_volume   147.19758214
_cell_formula_units_Z   1
loop_
 _symmetry_equiv_pos_site_id
 _symmetry_equiv_pos_as_xyz
  1  'x, y, z'
loop_
 _atom_site_type_symbol
 _atom_site_label
 _atom_site_symmetry_multiplicity
 _atom_site_fract_x
 _atom_site_fract_y
 _atom_site_fract_z
 _atom_site_occupancy
  Na  Na0  1  0.500520  0.499475  0.999999  1
  Na  Na1  1  0.992502  0.007496  0.499998  1
  Na  Na2  1  0.661882  0.338113  0.499998  1
  Na  Na3  1  0.342709  0.657281  0.499995  1
  Sc  Sc4  1  0.167488  0.832542  0.000022  1
  Au  Au5  1  0.833315  0.166695  0.999999  1
  O  O6  1  0.580447  0.941835  0.210071  1
  O  O7  1  0.933073  0.561211  0.213455  1
  O  O8  1  0.201410  0.210290  0.213395  1
  O  O9  1  0.789706  0.798588  0.786603  1
  O  O10  1  0.438785  0.066923  0.786540  1
  O  O11  1  0.058166  0.419552  0.789928  1
