# generated using pymatgen
data_La3Cd2HgPt2Au
_symmetry_space_group_name_H-M   'P 1'
_cell_length_a   8.07923700
_cell_length_b   8.01736981
_cell_length_c   3.98835900
_cell_angle_alpha   90.00000000
_cell_angle_beta   90.00000000
_cell_angle_gamma   120.25559867
_symmetry_Int_Tables_number   1
_chemical_formula_structural   La3Cd2HgPt2Au
_chemical_formula_sum   'La3 Cd2 Hg1 Pt2 Au1'
_cell_volume   223.15303943
_cell_formula_units_Z   1
loop_
 _symmetry_equiv_pos_site_id
 _symmetry_equiv_pos_as_xyz
  1  'x, y, z'
loop_
 _atom_site_type_symbol
 _atom_site_label
 _atom_site_symmetry_multiplicity
 _atom_site_fract_x
 _atom_site_fract_y
 _atom_site_fract_z
 _atom_site_occupancy
  La  La0  1  0.416873  0.000000  0.000000  1
  La  La1  1  0.588254  0.589268  0.000000  1
  La  La2  1  0.998987  0.410732  0.000000  1
  Cd  Cd3  1  0.257494  0.257104  0.500000  1
  Cd  Cd4  1  0.000390  0.742896  0.500000  1
  Hg  Hg5  1  0.739302  0.000000  0.500000  1
  Pt  Pt6  1  0.665363  0.338072  0.500000  1
  Pt  Pt7  1  0.327290  0.661928  0.500000  1
  Au  Au8  1  0.006047  0.000000  0.000000  1
