# generated using pymatgen
data_Lu4U2Tc5Ir
_symmetry_space_group_name_H-M   'P 1'
_cell_length_a   5.74111397
_cell_length_b   5.74111499
_cell_length_c   8.18883300
_cell_angle_alpha   90.00000000
_cell_angle_beta   90.00000000
_cell_angle_gamma   120.50144845
_symmetry_Int_Tables_number   1
_chemical_formula_structural   Lu4U2Tc5Ir
_chemical_formula_sum   'Lu4 U2 Tc5 Ir1'
_cell_volume   232.55642873
_cell_formula_units_Z   1
loop_
 _symmetry_equiv_pos_site_id
 _symmetry_equiv_pos_as_xyz
  1  'x, y, z'
loop_
 _atom_site_type_symbol
 _atom_site_label
 _atom_site_symmetry_multiplicity
 _atom_site_fract_x
 _atom_site_fract_y
 _atom_site_fract_z
 _atom_site_occupancy
  Lu  Lu0  1  0.334149  0.665851  0.439410  1
  Lu  Lu1  1  0.667796  0.332204  0.557453  1
  Lu  Lu2  1  0.667796  0.332204  0.942547  1
  Lu  Lu3  1  0.334149  0.665851  0.060590  1
  U  U4  1  0.005474  0.994526  0.502032  1
  U  U5  1  0.005474  0.994526  0.997968  1
  Tc  Tc6  1  0.835157  0.675585  0.250000  1
  Tc  Tc7  1  0.324415  0.164843  0.250000  1
  Tc  Tc8  1  0.164735  0.835265  0.750000  1
  Tc  Tc9  1  0.166516  0.329576  0.750000  1
  Tc  Tc10  1  0.670424  0.833484  0.750000  1
  Ir  Ir11  1  0.823914  0.176086  0.250000  1
