# generated using pymatgen
data_Dy4Zn8AgHg3
_symmetry_space_group_name_H-M   'P 1'
_cell_length_a   4.43463700
_cell_length_b   7.06913536
_cell_length_c   10.18157776
_cell_angle_alpha   89.97255771
_cell_angle_beta   90.00000000
_cell_angle_gamma   90.00000000
_symmetry_Int_Tables_number   1
_chemical_formula_structural   Dy4Zn8AgHg3
_chemical_formula_sum   'Dy4 Zn8 Ag1 Hg3'
_cell_volume   319.18274580
_cell_formula_units_Z   1
loop_
 _symmetry_equiv_pos_site_id
 _symmetry_equiv_pos_as_xyz
  1  'x, y, z'
loop_
 _atom_site_type_symbol
 _atom_site_label
 _atom_site_symmetry_multiplicity
 _atom_site_fract_x
 _atom_site_fract_y
 _atom_site_fract_z
 _atom_site_occupancy
  Dy  Dy0  1  0.250000  0.288595  0.671047  1
  Dy  Dy1  1  0.750000  0.710099  0.329742  1
  Dy  Dy2  1  0.250000  0.794169  0.829725  1
  Dy  Dy3  1  0.750000  0.207248  0.170374  1
  Zn  Zn4  1  0.750000  0.302684  0.462559  1
  Zn  Zn5  1  0.250000  0.696814  0.541571  1
  Zn  Zn6  1  0.750000  0.811898  0.039288  1
  Zn  Zn7  1  0.250000  0.186680  0.960085  1
  Zn  Zn8  1  0.750000  0.584402  0.638488  1
  Zn  Zn9  1  0.250000  0.421754  0.364107  1
  Zn  Zn10  1  0.750000  0.080280  0.852036  1
  Zn  Zn11  1  0.250000  0.918920  0.141407  1
  Ag  Ag12  1  0.750000  0.963369  0.600722  1
  Hg  Hg13  1  0.250000  0.530222  0.106736  1
  Hg  Hg14  1  0.750000  0.468641  0.893921  1
  Hg  Hg15  1  0.250000  0.034223  0.398191  1
