# generated using pymatgen
data_SmY3CdCo
_symmetry_space_group_name_H-M   'P 1'
_cell_length_a   9.65508138
_cell_length_b   9.65127751
_cell_length_c   9.65192627
_cell_angle_alpha   59.90581511
_cell_angle_beta   59.92720893
_cell_angle_gamma   59.92292570
_symmetry_Int_Tables_number   1
_chemical_formula_structural   SmY3CdCo
_chemical_formula_sum   'Sm4 Y12 Cd4 Co4'
_cell_volume   634.80090805
_cell_formula_units_Z   4
loop_
 _symmetry_equiv_pos_site_id
 _symmetry_equiv_pos_as_xyz
  1  'x, y, z'
loop_
 _atom_site_type_symbol
 _atom_site_label
 _atom_site_symmetry_multiplicity
 _atom_site_fract_x
 _atom_site_fract_y
 _atom_site_fract_z
 _atom_site_occupancy
  Sm  Sm0  1  0.596179  0.596497  0.596604  1
  Sm  Sm1  1  0.597873  0.598070  0.208782  1
  Sm  Sm2  1  0.597798  0.208788  0.598163  1
  Sm  Sm3  1  0.208977  0.597892  0.598060  1
  Y  Y4  1  0.061335  0.437627  0.437564  1
  Y  Y5  1  0.435653  0.062005  0.062014  1
  Y  Y6  1  0.437493  0.061170  0.437538  1
  Y  Y7  1  0.062129  0.435843  0.061679  1
  Y  Y8  1  0.437485  0.437585  0.061157  1
  Y  Y9  1  0.062173  0.061729  0.435731  1
  Y  Y10  1  0.189249  0.812203  0.811986  1
  Y  Y11  1  0.811402  0.187719  0.187685  1
  Y  Y12  1  0.812146  0.189173  0.812211  1
  Y  Y13  1  0.187775  0.811444  0.187732  1
  Y  Y14  1  0.811997  0.812276  0.189194  1
  Y  Y15  1  0.187727  0.187715  0.811398  1
  Cd  Cd16  1  0.830068  0.830159  0.830080  1
  Cd  Cd17  1  0.830494  0.830575  0.507228  1
  Cd  Cd18  1  0.830508  0.507225  0.830520  1
  Cd  Cd19  1  0.507288  0.830552  0.830485  1
  Co  Co20  1  0.391232  0.391153  0.391240  1
  Co  Co21  1  0.392267  0.392176  0.828355  1
  Co  Co22  1  0.392299  0.828280  0.392335  1
  Co  Co23  1  0.828453  0.392147  0.392261  1
