# generated using pymatgen
data_TaNbGaB2Ru5
_symmetry_space_group_name_H-M   'P 1'
_cell_length_a   9.33539832
_cell_length_b   9.33539832
_cell_length_c   2.98887100
_cell_angle_alpha   90.00000000
_cell_angle_beta   90.00000000
_cell_angle_gamma   90.19357607
_symmetry_Int_Tables_number   1
_chemical_formula_structural   TaNbGaB2Ru5
_chemical_formula_sum   'Ta2 Nb2 Ga2 B4 Ru10'
_cell_volume   260.47761017
_cell_formula_units_Z   2
loop_
 _symmetry_equiv_pos_site_id
 _symmetry_equiv_pos_as_xyz
  1  'x, y, z'
loop_
 _atom_site_type_symbol
 _atom_site_label
 _atom_site_symmetry_multiplicity
 _atom_site_fract_x
 _atom_site_fract_y
 _atom_site_fract_z
 _atom_site_occupancy
  Ta  Ta0  1  0.323726  0.823726  0.000000  1
  Ta  Ta1  1  0.676274  0.176274  0.000000  1
  Nb  Nb2  1  0.823325  0.676675  0.000000  1
  Nb  Nb3  1  0.176675  0.323325  0.000000  1
  Ga  Ga4  1  0.500000  0.500000  0.000000  1
  Ga  Ga5  1  0.000000  0.000000  0.000000  1
  B  B6  1  0.624812  0.875188  0.000000  1
  B  B7  1  0.375188  0.124812  0.000000  1
  B  B8  1  0.124727  0.624727  0.000000  1
  B  B9  1  0.875273  0.375273  0.000000  1
  Ru  Ru10  1  0.567368  0.715266  0.500000  1
  Ru  Ru11  1  0.432632  0.284734  0.500000  1
  Ru  Ru12  1  0.069567  0.785242  0.500000  1
  Ru  Ru13  1  0.930433  0.214758  0.500000  1
  Ru  Ru14  1  0.285242  0.569567  0.500000  1
  Ru  Ru15  1  0.714758  0.430433  0.500000  1
  Ru  Ru16  1  0.215266  0.067368  0.500000  1
  Ru  Ru17  1  0.784734  0.932632  0.500000  1
  Ru  Ru18  1  0.500000  0.000000  0.500000  1
  Ru  Ru19  1  0.000000  0.500000  0.500000  1
