# generated using pymatgen
data_PrY3(Si5Os3)2
_symmetry_space_group_name_H-M   'P 1'
_cell_length_a   8.16206860
_cell_length_b   8.17659984
_cell_length_c   5.83642296
_cell_angle_alpha   70.42416945
_cell_angle_beta   70.48990069
_cell_angle_gamma   93.84545063
_symmetry_Int_Tables_number   1
_chemical_formula_structural   PrY3(Si5Os3)2
_chemical_formula_sum   'Pr1 Y3 Si10 Os6'
_cell_volume   338.82843508
_cell_formula_units_Z   1
loop_
 _symmetry_equiv_pos_site_id
 _symmetry_equiv_pos_as_xyz
  1  'x, y, z'
loop_
 _atom_site_type_symbol
 _atom_site_label
 _atom_site_symmetry_multiplicity
 _atom_site_fract_x
 _atom_site_fract_y
 _atom_site_fract_z
 _atom_site_occupancy
  Pr  Pr0  1  0.601158  0.868421  0.255040  1
  Y  Y1  1  0.868566  0.602373  0.752387  1
  Y  Y2  1  0.398000  0.132410  0.745604  1
  Y  Y3  1  0.131736  0.397422  0.247123  1
  Si  Si4  1  0.066466  0.260092  0.834965  1
  Si  Si5  1  0.739021  0.933788  0.665603  1
  Si  Si6  1  0.936076  0.738334  0.164215  1
  Si  Si7  1  0.261751  0.067743  0.333916  1
  Si  Si8  1  0.207262  0.793042  0.747741  1
  Si  Si9  1  0.794629  0.208921  0.250721  1
  Si  Si10  1  0.512342  0.486510  0.750499  1
  Si  Si11  1  0.485662  0.510018  0.252097  1
  Si  Si12  1  0.773657  0.228286  0.746967  1
  Si  Si13  1  0.223829  0.773192  0.251614  1
  Os  Os14  1  0.253999  0.541159  0.633248  1
  Os  Os15  1  0.454487  0.742234  0.871865  1
  Os  Os16  1  0.744452  0.457414  0.366954  1
  Os  Os17  1  0.544481  0.258479  0.130407  1
  Os  Os18  1  0.003708  0.997622  0.748920  1
  Os  Os19  1  0.998723  0.002539  0.250112  1
