# generated using pymatgen
data_Nd2SmTh5(ZnRh)8
_symmetry_space_group_name_H-M   'P 1'
_cell_length_a   3.93696800
_cell_length_b   7.53839153
_cell_length_c   16.56552610
_cell_angle_alpha   90.49625255
_cell_angle_beta   90.00000000
_cell_angle_gamma   90.00000000
_symmetry_Int_Tables_number   1
_chemical_formula_structural   Nd2SmTh5(ZnRh)8
_chemical_formula_sum   'Nd2 Sm1 Th5 Zn8 Rh8'
_cell_volume   491.61997226
_cell_formula_units_Z   1
loop_
 _symmetry_equiv_pos_site_id
 _symmetry_equiv_pos_as_xyz
  1  'x, y, z'
loop_
 _atom_site_type_symbol
 _atom_site_label
 _atom_site_symmetry_multiplicity
 _atom_site_fract_x
 _atom_site_fract_y
 _atom_site_fract_z
 _atom_site_occupancy
  Nd  Nd0  1  0.750000  0.442813  0.214253  1
  Nd  Nd1  1  0.250000  0.556425  0.785600  1
  Sm  Sm2  1  0.250000  0.056336  0.713134  1
  Th  Th3  1  0.250000  0.174632  0.937386  1
  Th  Th4  1  0.250000  0.672376  0.562331  1
  Th  Th5  1  0.750000  0.323904  0.439408  1
  Th  Th6  1  0.750000  0.942048  0.285084  1
  Th  Th7  1  0.750000  0.830494  0.059784  1
  Zn  Zn8  1  0.750000  0.007460  0.562004  1
  Zn  Zn9  1  0.250000  0.611476  0.345152  1
  Zn  Zn10  1  0.750000  0.381271  0.656468  1
  Zn  Zn11  1  0.250000  0.496823  0.061719  1
  Zn  Zn12  1  0.750000  0.507997  0.938386  1
  Zn  Zn13  1  0.250000  0.990526  0.442832  1
  Zn  Zn14  1  0.250000  0.121898  0.152434  1
  Zn  Zn15  1  0.750000  0.884785  0.842925  1
  Rh  Rh16  1  0.750000  0.739378  0.438937  1
  Rh  Rh17  1  0.250000  0.228340  0.319589  1
  Rh  Rh18  1  0.750000  0.248196  0.819058  1
  Rh  Rh19  1  0.750000  0.754024  0.679506  1
  Rh  Rh20  1  0.250000  0.262663  0.560305  1
  Rh  Rh21  1  0.250000  0.760548  0.185293  1
  Rh  Rh22  1  0.750000  0.242856  0.057858  1
  Rh  Rh23  1  0.250000  0.762729  0.940555  1
