# generated using pymatgen
data_Er10Ga3Bi2Pt
_symmetry_space_group_name_H-M   'P 1'
_cell_length_a   8.69898687
_cell_length_b   8.69898654
_cell_length_c   8.56979945
_cell_angle_alpha   124.43291069
_cell_angle_beta   124.43291280
_cell_angle_gamma   83.44901894
_symmetry_Int_Tables_number   1
_chemical_formula_structural   Er10Ga3Bi2Pt
_chemical_formula_sum   'Er10 Ga3 Bi2 Pt1'
_cell_volume   420.51922975
_cell_formula_units_Z   1
loop_
 _symmetry_equiv_pos_site_id
 _symmetry_equiv_pos_as_xyz
  1  'x, y, z'
loop_
 _atom_site_type_symbol
 _atom_site_label
 _atom_site_symmetry_multiplicity
 _atom_site_fract_x
 _atom_site_fract_y
 _atom_site_fract_z
 _atom_site_occupancy
  Er  Er0  1  0.998861  0.003584  0.002445  1
  Er  Er1  1  0.503584  0.498861  0.002445  1
  Er  Er2  1  0.793877  0.293877  0.807677  1
  Er  Er3  1  0.296001  0.497672  0.511921  1
  Er  Er4  1  0.997672  0.796001  0.511921  1
  Er  Er5  1  0.715920  0.514249  0.511921  1
  Er  Er6  1  0.014249  0.215920  0.511921  1
  Er  Er7  1  0.513800  0.013800  0.807677  1
  Er  Er8  1  0.200140  0.700140  0.168637  1
  Er  Er9  1  0.468497  0.968497  0.168637  1
  Ga  Ga10  1  0.860427  0.360427  0.220854  1
  Ga  Ga11  1  0.354675  0.145502  0.500177  1
  Ga  Ga12  1  0.645502  0.854675  0.500177  1
  Bi  Bi13  1  0.254155  0.254155  0.008310  1
  Bi  Bi14  1  0.754155  0.754155  0.008310  1
  Pt  Pt15  1  0.128485  0.628485  0.756970  1
