# generated using pymatgen
data_Re2Ru5Rh
_symmetry_space_group_name_H-M   'P 1'
_cell_length_a   5.50040700
_cell_length_b   5.48437438
_cell_length_c   4.34406500
_cell_angle_alpha   90.00000000
_cell_angle_beta   90.00000000
_cell_angle_gamma   120.09675612
_symmetry_Int_Tables_number   1
_chemical_formula_structural   Re2Ru5Rh
_chemical_formula_sum   'Re2 Ru5 Rh1'
_cell_volume   113.37690884
_cell_formula_units_Z   1
loop_
 _symmetry_equiv_pos_site_id
 _symmetry_equiv_pos_as_xyz
  1  'x, y, z'
loop_
 _atom_site_type_symbol
 _atom_site_label
 _atom_site_symmetry_multiplicity
 _atom_site_fract_x
 _atom_site_fract_y
 _atom_site_fract_z
 _atom_site_occupancy
  Re  Re0  1  0.335319  0.670638  0.750000  1
  Re  Re1  1  0.665351  0.330701  0.250000  1
  Ru  Ru2  1  0.664117  0.834427  0.250000  1
  Ru  Ru3  1  0.170310  0.834427  0.250000  1
  Ru  Ru4  1  0.832870  0.665740  0.750000  1
  Ru  Ru5  1  0.333285  0.165330  0.750000  1
  Ru  Ru6  1  0.832045  0.165330  0.750000  1
  Rh  Rh7  1  0.166704  0.333408  0.250000  1
