# generated using pymatgen
data_NdAlZnSi
_symmetry_space_group_name_H-M   'P 1'
_cell_length_a   9.23290682
_cell_length_b   9.23290677
_cell_length_c   4.16448600
_cell_angle_alpha   90.00000000
_cell_angle_beta   90.00000000
_cell_angle_gamma   153.64705250
_symmetry_Int_Tables_number   1
_chemical_formula_structural   NdAlZnSi
_chemical_formula_sum   'Nd2 Al2 Zn2 Si2'
_cell_volume   157.58791815
_cell_formula_units_Z   2
loop_
 _symmetry_equiv_pos_site_id
 _symmetry_equiv_pos_as_xyz
  1  'x, y, z'
loop_
 _atom_site_type_symbol
 _atom_site_label
 _atom_site_symmetry_multiplicity
 _atom_site_fract_x
 _atom_site_fract_y
 _atom_site_fract_z
 _atom_site_occupancy
  Nd  Nd0  1  0.902750  0.097250  0.750000  1
  Nd  Nd1  1  0.097250  0.902750  0.250000  1
  Al  Al2  1  0.250097  0.749903  0.750000  1
  Al  Al3  1  0.749903  0.250097  0.250000  1
  Zn  Zn4  1  0.666086  0.333914  0.750000  1
  Zn  Zn5  1  0.333914  0.666086  0.250000  1
  Si  Si6  1  0.533005  0.466995  0.750000  1
  Si  Si7  1  0.466995  0.533005  0.250000  1
