# generated using pymatgen
data_BaTbSi4N7
_symmetry_space_group_name_H-M   'P 1'
_cell_length_a   6.10901900
_cell_length_b   6.10901906
_cell_length_c   9.95282200
_cell_angle_alpha   90.00000000
_cell_angle_beta   90.00000000
_cell_angle_gamma   119.99999428
_symmetry_Int_Tables_number   1
_chemical_formula_structural   BaTbSi4N7
_chemical_formula_sum   'Ba2 Tb2 Si8 N14'
_cell_volume   321.67688125
_cell_formula_units_Z   2
loop_
 _symmetry_equiv_pos_site_id
 _symmetry_equiv_pos_as_xyz
  1  'x, y, z'
loop_
 _atom_site_type_symbol
 _atom_site_label
 _atom_site_symmetry_multiplicity
 _atom_site_fract_x
 _atom_site_fract_y
 _atom_site_fract_z
 _atom_site_occupancy
  Ba  Ba0  1  0.333333  0.666667  0.362912  1
  Ba  Ba1  1  0.666667  0.333333  0.862912  1
  Tb  Tb2  1  0.333333  0.666667  0.736299  1
  Tb  Tb3  1  0.666667  0.333333  0.236299  1
  Si  Si4  1  0.825572  0.651142  0.546050  1
  Si  Si5  1  0.174428  0.825572  0.046050  1
  Si  Si6  1  0.651142  0.825572  0.046050  1
  Si  Si7  1  0.348858  0.174428  0.546050  1
  Si  Si8  1  0.825572  0.174428  0.546050  1
  Si  Si9  1  0.174428  0.348858  0.046050  1
  Si  Si10  1  0.000000  0.000000  0.814862  1
  Si  Si11  1  0.000000  0.000000  0.314862  1
  N  N12  1  0.000000  0.000000  0.623912  1
  N  N13  1  0.000000  0.000000  0.123912  1
  N  N14  1  0.152309  0.304617  0.874349  1
  N  N15  1  0.847691  0.152309  0.374349  1
  N  N16  1  0.304617  0.152309  0.374349  1
  N  N17  1  0.695383  0.847691  0.874349  1
  N  N18  1  0.152309  0.847691  0.874349  1
  N  N19  1  0.847691  0.695383  0.374349  1
  N  N20  1  0.974478  0.487240  0.598239  1
  N  N21  1  0.487240  0.974478  0.098239  1
  N  N22  1  0.487240  0.512760  0.098239  1
  N  N23  1  0.512760  0.487240  0.598239  1
  N  N24  1  0.025522  0.512760  0.098239  1
  N  N25  1  0.512760  0.025522  0.598239  1
