# generated using pymatgen
data_Mn2Nb12(AlCu)11
_symmetry_space_group_name_H-M   'P 1'
_cell_length_a   8.71399755
_cell_length_b   8.68266217
_cell_length_c   8.10684000
_cell_angle_alpha   90.00000000
_cell_angle_beta   90.00000000
_cell_angle_gamma   120.18186571
_symmetry_Int_Tables_number   1
_chemical_formula_structural   Mn2Nb12(AlCu)11
_chemical_formula_sum   'Mn2 Nb12 Al11 Cu11'
_cell_volume   530.21713905
_cell_formula_units_Z   1
loop_
 _symmetry_equiv_pos_site_id
 _symmetry_equiv_pos_as_xyz
  1  'x, y, z'
loop_
 _atom_site_type_symbol
 _atom_site_label
 _atom_site_symmetry_multiplicity
 _atom_site_fract_x
 _atom_site_fract_y
 _atom_site_fract_z
 _atom_site_occupancy
  Mn  Mn0  1  0.000022  0.002921  0.500511  1
  Mn  Mn1  1  0.000022  0.002921  0.999489  1
  Nb  Nb2  1  0.326649  0.996858  0.064298  1
  Nb  Nb3  1  0.671576  0.001046  0.935970  1
  Nb  Nb4  1  0.999180  0.328949  0.062246  1
  Nb  Nb5  1  0.671576  0.001046  0.564030  1
  Nb  Nb6  1  0.999180  0.328949  0.437754  1
  Nb  Nb7  1  0.002126  0.671341  0.936183  1
  Nb  Nb8  1  0.326649  0.996858  0.435702  1
  Nb  Nb9  1  0.002126  0.671341  0.563817  1
  Nb  Nb10  1  0.669993  0.669523  0.064022  1
  Nb  Nb11  1  0.330096  0.328723  0.935986  1
  Nb  Nb12  1  0.330096  0.328723  0.564014  1
  Nb  Nb13  1  0.669993  0.669523  0.435978  1
  Al  Al14  1  0.157351  0.656310  0.250000  1
  Al  Al15  1  0.339955  0.666191  0.506765  1
  Al  Al16  1  0.666418  0.332788  0.499592  1
  Al  Al17  1  0.666418  0.332788  0.000408  1
  Al  Al18  1  0.339955  0.666191  0.993235  1
  Al  Al19  1  0.179020  0.000510  0.750000  1
  Al  Al20  1  0.818809  0.000642  0.250000  1
  Al  Al21  1  0.001035  0.179553  0.750000  1
  Al  Al22  1  0.993214  0.826010  0.250000  1
  Al  Al23  1  0.823178  0.821635  0.750000  1
  Al  Al24  1  0.178800  0.180318  0.250000  1
  Cu  Cu25  1  0.162562  0.498894  0.750000  1
  Cu  Cu26  1  0.835545  0.502671  0.250000  1
  Cu  Cu27  1  0.504390  0.663373  0.750000  1
  Cu  Cu28  1  0.499244  0.162871  0.750000  1
  Cu  Cu29  1  0.498097  0.335687  0.250000  1
  Cu  Cu30  1  0.497639  0.835787  0.250000  1
  Cu  Cu31  1  0.337733  0.838822  0.750000  1
  Cu  Cu32  1  0.665135  0.500842  0.750000  1
  Cu  Cu33  1  0.661576  0.162030  0.250000  1
  Cu  Cu34  1  0.337075  0.500925  0.250000  1
  Cu  Cu35  1  0.837564  0.336442  0.750000  1
