# generated using pymatgen
data_Tb3HoRuPt3F28
_symmetry_space_group_name_H-M   'P 1'
_cell_length_a   5.56818349
_cell_length_b   8.92913283
_cell_length_c   11.99642827
_cell_angle_alpha   62.58646153
_cell_angle_beta   90.12701634
_cell_angle_gamma   90.11068948
_symmetry_Int_Tables_number   1
_chemical_formula_structural   Tb3HoRuPt3F28
_chemical_formula_sum   'Tb3 Ho1 Ru1 Pt3 F28'
_cell_volume   529.47193641
_cell_formula_units_Z   1
loop_
 _symmetry_equiv_pos_site_id
 _symmetry_equiv_pos_as_xyz
  1  'x, y, z'
loop_
 _atom_site_type_symbol
 _atom_site_label
 _atom_site_symmetry_multiplicity
 _atom_site_fract_x
 _atom_site_fract_y
 _atom_site_fract_z
 _atom_site_occupancy
  Tb  Tb0  1  0.739712  0.188641  0.733028  1
  Tb  Tb1  1  0.760554  0.182229  0.236560  1
  Tb  Tb2  1  0.240300  0.812228  0.766536  1
  Ho  Ho3  1  0.259627  0.811156  0.265226  1
  Ru  Ru4  1  0.756324  0.726270  0.044952  1
  Pt  Pt5  1  0.243179  0.271119  0.957972  1
  Pt  Pt6  1  0.257838  0.273654  0.455554  1
  Pt  Pt7  1  0.742026  0.727448  0.542909  1
  F  F8  1  0.937191  0.702616  0.415844  1
  F  F9  1  0.062657  0.298300  0.582706  1
  F  F10  1  0.442104  0.297116  0.083857  1
  F  F11  1  0.551735  0.708792  0.917696  1
  F  F12  1  0.472242  0.730429  0.140635  1
  F  F13  1  0.534400  0.268183  0.866634  1
  F  F14  1  0.965855  0.274781  0.362372  1
  F  F15  1  0.034155  0.726677  0.635645  1
  F  F16  1  0.957013  0.747306  0.173257  1
  F  F17  1  0.050005  0.250362  0.827862  1
  F  F18  1  0.448333  0.255517  0.323947  1
  F  F19  1  0.553199  0.746858  0.674517  1
  F  F20  1  0.767868  0.485904  0.139671  1
  F  F21  1  0.232133  0.518047  0.857362  1
  F  F22  1  0.270814  0.521063  0.357534  1
  F  F23  1  0.727035  0.480262  0.642073  1
  F  F24  1  0.946187  0.282061  0.043765  1
  F  F25  1  0.047777  0.719365  0.953556  1
  F  F26  1  0.442101  0.720461  0.456866  1
  F  F27  1  0.557669  0.281274  0.540750  1
  F  F28  1  0.746024  0.974981  0.449656  1
  F  F29  1  0.255506  0.026390  0.549080  1
  F  F30  1  0.243604  0.023860  0.051865  1
  F  F31  1  0.756421  0.965813  0.951541  1
  F  F32  1  0.580179  0.968716  0.233408  1
  F  F33  1  0.416800  0.032295  0.766445  1
  F  F34  1  0.084128  0.026686  0.267645  1
  F  F35  1  0.917306  0.973139  0.731075  1
