# generated using pymatgen
data_NaTh(Si7Ir3)2
_symmetry_space_group_name_H-M   'P 1'
_cell_length_a   8.06201417
_cell_length_b   8.06201436
_cell_length_c   8.06201318
_cell_angle_alpha   56.77570565
_cell_angle_beta   56.77569665
_cell_angle_gamma   56.77570894
_symmetry_Int_Tables_number   1
_chemical_formula_structural   NaTh(Si7Ir3)2
_chemical_formula_sum   'Na1 Th1 Si14 Ir6'
_cell_volume   342.94659008
_cell_formula_units_Z   1
loop_
 _symmetry_equiv_pos_site_id
 _symmetry_equiv_pos_as_xyz
  1  'x, y, z'
loop_
 _atom_site_type_symbol
 _atom_site_label
 _atom_site_symmetry_multiplicity
 _atom_site_fract_x
 _atom_site_fract_y
 _atom_site_fract_z
 _atom_site_occupancy
  Na  Na0  1  0.000000  0.000000  0.000000  1
  Th  Th1  1  0.500000  0.500000  0.500000  1
  Si  Si2  1  0.749688  0.749688  0.749688  1
  Si  Si3  1  0.250312  0.250312  0.250312  1
  Si  Si4  1  0.855610  0.062534  0.676173  1
  Si  Si5  1  0.676173  0.855610  0.062534  1
  Si  Si6  1  0.062534  0.676173  0.855610  1
  Si  Si7  1  0.654901  0.830044  0.431210  1
  Si  Si8  1  0.431210  0.654901  0.830044  1
  Si  Si9  1  0.830044  0.431210  0.654901  1
  Si  Si10  1  0.169956  0.568790  0.345099  1
  Si  Si11  1  0.568790  0.345099  0.169956  1
  Si  Si12  1  0.345099  0.169956  0.568790  1
  Si  Si13  1  0.937466  0.323827  0.144390  1
  Si  Si14  1  0.323827  0.144390  0.937466  1
  Si  Si15  1  0.144390  0.937466  0.323827  1
  Ir  Ir16  1  0.072633  0.433588  0.747397  1
  Ir  Ir17  1  0.252603  0.927367  0.566412  1
  Ir  Ir18  1  0.566412  0.252603  0.927367  1
  Ir  Ir19  1  0.927367  0.566412  0.252603  1
  Ir  Ir20  1  0.433588  0.747397  0.072633  1
  Ir  Ir21  1  0.747397  0.072633  0.433588  1
