# generated using pymatgen
data_Nd5MnRuO12
_symmetry_space_group_name_H-M   'P 1'
_cell_length_a   7.08003571
_cell_length_b   7.08003581
_cell_length_c   7.55940731
_cell_angle_alpha   74.50745682
_cell_angle_beta   74.50745444
_cell_angle_gamma   50.20439963
_symmetry_Int_Tables_number   1
_chemical_formula_structural   Nd5MnRuO12
_chemical_formula_sum   'Nd5 Mn1 Ru1 O12'
_cell_volume   278.18984316
_cell_formula_units_Z   1
loop_
 _symmetry_equiv_pos_site_id
 _symmetry_equiv_pos_as_xyz
  1  'x, y, z'
loop_
 _atom_site_type_symbol
 _atom_site_label
 _atom_site_symmetry_multiplicity
 _atom_site_fract_x
 _atom_site_fract_y
 _atom_site_fract_z
 _atom_site_occupancy
  Nd  Nd0  1  0.310551  0.298671  0.357150  1
  Nd  Nd1  1  0.701329  0.689449  0.642850  1
  Nd  Nd2  1  0.694720  0.694314  0.163816  1
  Nd  Nd3  1  0.305686  0.305280  0.836184  1
  Nd  Nd4  1  0.000115  0.999885  0.500000  1
  Mn  Mn5  1  0.748014  0.251986  0.000000  1
  Ru  Ru6  1  0.237710  0.762290  0.000000  1
  O  O7  1  0.099831  0.595517  0.576076  1
  O  O8  1  0.994880  0.003691  0.173159  1
  O  O9  1  0.404483  0.900169  0.423924  1
  O  O10  1  0.501827  0.498723  0.172394  1
  O  O11  1  0.098450  0.581826  0.079452  1
  O  O12  1  0.907853  0.400976  0.422314  1
  O  O13  1  0.996309  0.005120  0.826841  1
  O  O14  1  0.599024  0.092146  0.577686  1
  O  O15  1  0.501277  0.498173  0.827606  1
  O  O16  1  0.583108  0.103341  0.077726  1
  O  O17  1  0.418174  0.901550  0.920548  1
  O  O18  1  0.896659  0.416892  0.922274  1
