# generated using pymatgen
data_YPu2UAs6Ru7
_symmetry_space_group_name_H-M   'P 1'
_cell_length_a   7.22065533
_cell_length_b   7.16474984
_cell_length_c   7.26975460
_cell_angle_alpha   109.44703924
_cell_angle_beta   109.76853805
_cell_angle_gamma   109.17951203
_symmetry_Int_Tables_number   1
_chemical_formula_structural   YPu2UAs6Ru7
_chemical_formula_sum   'Y1 Pu2 U1 As6 Ru7'
_cell_volume   289.57854303
_cell_formula_units_Z   1
loop_
 _symmetry_equiv_pos_site_id
 _symmetry_equiv_pos_as_xyz
  1  'x, y, z'
loop_
 _atom_site_type_symbol
 _atom_site_label
 _atom_site_symmetry_multiplicity
 _atom_site_fract_x
 _atom_site_fract_y
 _atom_site_fract_z
 _atom_site_occupancy
  Y  Y0  1  0.000000  0.500000  0.000000  1
  Pu  Pu1  1  0.500000  0.000000  0.000000  1
  Pu  Pu2  1  0.500000  0.500000  0.500000  1
  U  U3  1  0.000000  0.000000  0.500000  1
  As  As4  1  0.312835  0.998750  0.310309  1
  As  As5  1  0.000000  0.313019  0.310183  1
  As  As6  1  0.000000  0.686981  0.689817  1
  As  As7  1  0.312835  0.314083  0.002525  1
  As  As8  1  0.687165  0.685917  0.997475  1
  As  As9  1  0.687165  0.001250  0.689691  1
  Ru  Ru10  1  0.749726  0.502740  0.253766  1
  Ru  Ru11  1  0.509037  0.754518  0.254518  1
  Ru  Ru12  1  0.490963  0.245482  0.745482  1
  Ru  Ru13  1  0.749726  0.246985  0.495960  1
  Ru  Ru14  1  0.250274  0.753015  0.504040  1
  Ru  Ru15  1  0.250274  0.497260  0.746234  1
  Ru  Ru16  1  0.000000  0.000000  0.000000  1
