# generated using pymatgen
data_Ho20NiRh11
_symmetry_space_group_name_H-M   'P 1'
_cell_length_a   10.86761030
_cell_length_b   10.86765675
_cell_length_c   6.30446206
_cell_angle_alpha   89.93813480
_cell_angle_beta   89.93736032
_cell_angle_gamma   89.55769777
_symmetry_Int_Tables_number   1
_chemical_formula_structural   Ho20NiRh11
_chemical_formula_sum   'Ho20 Ni1 Rh11'
_cell_volume   744.56832277
_cell_formula_units_Z   1
loop_
 _symmetry_equiv_pos_site_id
 _symmetry_equiv_pos_as_xyz
  1  'x, y, z'
loop_
 _atom_site_type_symbol
 _atom_site_label
 _atom_site_symmetry_multiplicity
 _atom_site_fract_x
 _atom_site_fract_y
 _atom_site_fract_z
 _atom_site_occupancy
  Ho  Ho0  1  0.290926  0.089358  0.377994  1
  Ho  Ho1  1  0.291525  0.910873  0.878150  1
  Ho  Ho2  1  0.708900  0.088633  0.878109  1
  Ho  Ho3  1  0.708588  0.910709  0.378280  1
  Ho  Ho4  1  0.590134  0.791203  0.879191  1
  Ho  Ho5  1  0.588830  0.209606  0.377487  1
  Ho  Ho6  1  0.411345  0.790814  0.380631  1
  Ho  Ho7  1  0.410216  0.209528  0.878440  1
  Ho  Ho8  1  0.208797  0.409859  0.620804  1
  Ho  Ho9  1  0.209188  0.588649  0.119372  1
  Ho  Ho10  1  0.790396  0.411165  0.122513  1
  Ho  Ho11  1  0.790471  0.589777  0.621568  1
  Ho  Ho12  1  0.910648  0.709072  0.122011  1
  Ho  Ho13  1  0.911373  0.291099  0.621890  1
  Ho  Ho14  1  0.089132  0.708473  0.621851  1
  Ho  Ho15  1  0.089296  0.291412  0.121717  1
  Ho  Ho16  1  0.999957  0.999794  0.499709  1
  Ho  Ho17  1  0.000207  0.000046  0.000290  1
  Ho  Ho18  1  0.499039  0.500954  0.998012  1
  Ho  Ho19  1  0.499043  0.500960  0.501987  1
  Ni  Ni20  1  0.346477  0.653519  0.749982  1
  Rh  Rh21  1  0.845740  0.154259  0.250005  1
  Rh  Rh22  1  0.846131  0.845896  0.749562  1
  Rh  Rh23  1  0.154121  0.153869  0.750432  1
  Rh  Rh24  1  0.155822  0.844177  0.249998  1
  Rh  Rh25  1  0.654774  0.345223  0.750007  1
  Rh  Rh26  1  0.653252  0.654285  0.249713  1
  Rh  Rh27  1  0.345706  0.346752  0.250288  1
  Rh  Rh28  1  0.499009  0.999286  0.125324  1
  Rh  Rh29  1  0.499812  0.999569  0.625951  1
  Rh  Rh30  1  0.000432  0.500188  0.874052  1
  Rh  Rh31  1  0.000713  0.500992  0.374679  1
