# generated using pymatgen
data_ErVF7
_symmetry_space_group_name_H-M   'P 1'
_cell_length_a   5.47531400
_cell_length_b   8.75488820
_cell_length_c   11.73224809
_cell_angle_alpha   63.49965343
_cell_angle_beta   90.00000000
_cell_angle_gamma   90.00000000
_symmetry_Int_Tables_number   1
_chemical_formula_structural   ErVF7
_chemical_formula_sum   'Er4 V4 F28'
_cell_volume   503.30442212
_cell_formula_units_Z   4
loop_
 _symmetry_equiv_pos_site_id
 _symmetry_equiv_pos_as_xyz
  1  'x, y, z'
loop_
 _atom_site_type_symbol
 _atom_site_label
 _atom_site_symmetry_multiplicity
 _atom_site_fract_x
 _atom_site_fract_y
 _atom_site_fract_z
 _atom_site_occupancy
  Er  Er0  1  0.758332  0.808414  0.770379  1
  Er  Er1  1  0.258332  0.191586  0.729621  1
  Er  Er2  1  0.241668  0.191586  0.229621  1
  Er  Er3  1  0.741668  0.808414  0.270379  1
  V  V4  1  0.754908  0.273182  0.954796  1
  V  V5  1  0.254908  0.726818  0.545204  1
  V  V6  1  0.245092  0.726818  0.045204  1
  V  V7  1  0.745092  0.273182  0.454796  1
  F  F8  1  0.450093  0.706121  0.922873  1
  F  F9  1  0.950093  0.293879  0.577127  1
  F  F10  1  0.549907  0.293879  0.077127  1
  F  F11  1  0.049907  0.706121  0.422873  1
  F  F12  1  0.458686  0.282152  0.545488  1
  F  F13  1  0.958686  0.717848  0.954512  1
  F  F14  1  0.541314  0.717848  0.454512  1
  F  F15  1  0.041314  0.282152  0.045488  1
  F  F16  1  0.769442  0.507407  0.862260  1
  F  F17  1  0.269442  0.492593  0.637740  1
  F  F18  1  0.230558  0.492593  0.137740  1
  F  F19  1  0.730558  0.507407  0.362260  1
  F  F20  1  0.756403  0.041435  0.045729  1
  F  F21  1  0.256403  0.958565  0.454271  1
  F  F22  1  0.243597  0.958565  0.954271  1
  F  F23  1  0.743597  0.041435  0.545729  1
  F  F24  1  0.977822  0.731224  0.641438  1
  F  F25  1  0.477822  0.268776  0.858562  1
  F  F26  1  0.022178  0.268776  0.358562  1
  F  F27  1  0.522178  0.731224  0.141438  1
  F  F28  1  0.041986  0.748536  0.170238  1
  F  F29  1  0.541986  0.251464  0.329762  1
  F  F30  1  0.958014  0.251464  0.829762  1
  F  F31  1  0.458014  0.748536  0.670238  1
  F  F32  1  0.422344  0.973338  0.231536  1
  F  F33  1  0.922344  0.026662  0.268464  1
  F  F34  1  0.577656  0.026662  0.768464  1
  F  F35  1  0.077656  0.973338  0.731536  1
