# generated using pymatgen
data_Er4Al18Ir5Pt
_symmetry_space_group_name_H-M   'P 1'
_cell_length_a   7.55421825
_cell_length_b   7.55421823
_cell_length_c   9.44072401
_cell_angle_alpha   89.97164990
_cell_angle_beta   89.97164517
_cell_angle_gamma   119.60095295
_symmetry_Int_Tables_number   1
_chemical_formula_structural   Er4Al18Ir5Pt
_chemical_formula_sum   'Er4 Al18 Ir5 Pt1'
_cell_volume   468.43258380
_cell_formula_units_Z   1
loop_
 _symmetry_equiv_pos_site_id
 _symmetry_equiv_pos_as_xyz
  1  'x, y, z'
loop_
 _atom_site_type_symbol
 _atom_site_label
 _atom_site_symmetry_multiplicity
 _atom_site_fract_x
 _atom_site_fract_y
 _atom_site_fract_z
 _atom_site_occupancy
  Er  Er0  1  0.995224  0.671196  0.250473  1
  Er  Er1  1  0.004484  0.328841  0.749528  1
  Er  Er2  1  0.671159  0.995516  0.250472  1
  Er  Er3  1  0.328804  0.004776  0.749527  1
  Al  Al4  1  0.128073  0.127320  0.250348  1
  Al  Al5  1  0.872680  0.871927  0.749652  1
  Al  Al6  1  0.003953  0.335363  0.076511  1
  Al  Al7  1  0.002168  0.668155  0.923546  1
  Al  Al8  1  0.000020  0.664826  0.574759  1
  Al  Al9  1  0.335174  0.999980  0.425241  1
  Al  Al10  1  0.000528  0.334683  0.424699  1
  Al  Al11  1  0.665317  0.999472  0.575301  1
  Al  Al12  1  0.664637  0.996047  0.923489  1
  Al  Al13  1  0.331845  0.997832  0.076454  1
  Al  Al14  1  0.332952  0.332806  0.552954  1
  Al  Al15  1  0.667194  0.667048  0.447046  1
  Al  Al16  1  0.666382  0.669573  0.056150  1
  Al  Al17  1  0.330427  0.333618  0.943850  1
  Al  Al18  1  0.340192  0.549481  0.250340  1
  Al  Al19  1  0.660098  0.452924  0.747507  1
  Al  Al20  1  0.547076  0.339902  0.252493  1
  Al  Al21  1  0.450519  0.659808  0.749660  1
  Ir  Ir22  1  0.328130  0.671870  0.000000  1
  Ir  Ir23  1  0.328433  0.671567  0.500000  1
  Ir  Ir24  1  0.672111  0.327889  0.500000  1
  Ir  Ir25  1  0.999752  0.000248  0.000000  1
  Ir  Ir26  1  0.000345  0.999655  0.500000  1
  Pt  Pt27  1  0.672323  0.327677  0.000000  1
