# generated using pymatgen
data_ZnRh2F12
_symmetry_space_group_name_H-M   'P 1'
_cell_length_a   5.52149827
_cell_length_b   11.00631875
_cell_length_c   5.52538060
_cell_angle_alpha   56.96342530
_cell_angle_beta   57.03388485
_cell_angle_gamma   57.07179114
_symmetry_Int_Tables_number   1
_chemical_formula_structural   ZnRh2F12
_chemical_formula_sum   'Zn1 Rh2 F12'
_cell_volume   221.13915562
_cell_formula_units_Z   1
loop_
 _symmetry_equiv_pos_site_id
 _symmetry_equiv_pos_as_xyz
  1  'x, y, z'
loop_
 _atom_site_type_symbol
 _atom_site_label
 _atom_site_symmetry_multiplicity
 _atom_site_fract_x
 _atom_site_fract_y
 _atom_site_fract_z
 _atom_site_occupancy
  Zn  Zn0  1  0.000000  0.500000  0.000000  1
  Rh  Rh1  1  0.497679  0.246363  0.506814  1
  Rh  Rh2  1  0.502321  0.753637  0.493186  1
  F  F3  1  0.152028  0.187915  0.735312  1
  F  F4  1  0.148252  0.683805  0.741416  1
  F  F5  1  0.366944  0.371927  0.147578  1
  F  F6  1  0.374593  0.866563  0.155501  1
  F  F7  1  0.734702  0.079328  0.371271  1
  F  F8  1  0.742426  0.571473  0.369492  1
  F  F9  1  0.257574  0.428527  0.630508  1
  F  F10  1  0.265298  0.920672  0.628729  1
  F  F11  1  0.625407  0.133437  0.844499  1
  F  F12  1  0.633056  0.628073  0.852422  1
  F  F13  1  0.851748  0.316195  0.258584  1
  F  F14  1  0.847972  0.812085  0.264688  1
