# generated using pymatgen
data_Tb3HoAl18(Ir2Pd)2
_symmetry_space_group_name_H-M   'P 1'
_cell_length_a   7.58811795
_cell_length_b   7.59109385
_cell_length_c   9.48893719
_cell_angle_alpha   89.96062594
_cell_angle_beta   89.93516839
_cell_angle_gamma   119.61305114
_symmetry_Int_Tables_number   1
_chemical_formula_structural   Tb3HoAl18(Ir2Pd)2
_chemical_formula_sum   'Tb3 Ho1 Al18 Ir4 Pd2'
_cell_volume   475.18871919
_cell_formula_units_Z   1
loop_
 _symmetry_equiv_pos_site_id
 _symmetry_equiv_pos_as_xyz
  1  'x, y, z'
loop_
 _atom_site_type_symbol
 _atom_site_label
 _atom_site_symmetry_multiplicity
 _atom_site_fract_x
 _atom_site_fract_y
 _atom_site_fract_z
 _atom_site_occupancy
  Tb  Tb0  1  0.995558  0.670716  0.251518  1
  Tb  Tb1  1  0.004622  0.329371  0.748465  1
  Tb  Tb2  1  0.670561  0.995458  0.251541  1
  Ho  Ho3  1  0.329221  0.004555  0.748332  1
  Al  Al4  1  0.127992  0.127994  0.250623  1
  Al  Al5  1  0.872407  0.872162  0.749384  1
  Al  Al6  1  0.001389  0.331498  0.077432  1
  Al  Al7  1  0.998991  0.668866  0.922313  1
  Al  Al8  1  0.000235  0.665262  0.574515  1
  Al  Al9  1  0.335066  0.000064  0.426089  1
  Al  Al10  1  0.000128  0.335095  0.425720  1
  Al  Al11  1  0.664546  0.999919  0.574538  1
  Al  Al12  1  0.668091  0.998682  0.922313  1
  Al  Al13  1  0.331568  0.001316  0.077109  1
  Al  Al14  1  0.332669  0.332382  0.549978  1
  Al  Al15  1  0.667328  0.667327  0.450328  1
  Al  Al16  1  0.668664  0.668608  0.058093  1
  Al  Al17  1  0.331362  0.331094  0.941535  1
  Al  Al18  1  0.340191  0.547079  0.253138  1
  Al  Al19  1  0.659428  0.452379  0.746907  1
  Al  Al20  1  0.547116  0.340204  0.253106  1
  Al  Al21  1  0.452688  0.659976  0.746928  1
  Ir  Ir22  1  0.328201  0.671888  0.500131  1
  Ir  Ir23  1  0.671688  0.328044  0.500104  1
  Ir  Ir24  1  0.000180  0.000041  0.999835  1
  Ir  Ir25  1  0.000173  0.000050  0.500182  1
  Pd  Pd26  1  0.672197  0.327652  0.999911  1
  Pd  Pd27  1  0.327742  0.672319  0.999932  1
