# generated using pymatgen
data_Dy3Y7Cd3Os
_symmetry_space_group_name_H-M   'P 1'
_cell_length_a   9.63441000
_cell_length_b   9.63440930
_cell_length_c   9.90443200
_cell_angle_alpha   90.00000000
_cell_angle_beta   90.00000000
_cell_angle_gamma   120.00000241
_symmetry_Int_Tables_number   1
_chemical_formula_structural   Dy3Y7Cd3Os
_chemical_formula_sum   'Dy6 Y14 Cd6 Os2'
_cell_volume   796.17843890
_cell_formula_units_Z   2
loop_
 _symmetry_equiv_pos_site_id
 _symmetry_equiv_pos_as_xyz
  1  'x, y, z'
loop_
 _atom_site_type_symbol
 _atom_site_label
 _atom_site_symmetry_multiplicity
 _atom_site_fract_x
 _atom_site_fract_y
 _atom_site_fract_z
 _atom_site_occupancy
  Dy  Dy0  1  0.209909  0.790091  0.440329  1
  Dy  Dy1  1  0.209909  0.419818  0.440329  1
  Dy  Dy2  1  0.580182  0.790091  0.440329  1
  Dy  Dy3  1  0.790091  0.209909  0.559671  1
  Dy  Dy4  1  0.790091  0.580182  0.559671  1
  Dy  Dy5  1  0.419818  0.209909  0.559671  1
  Y  Y6  1  0.000000  0.000000  0.500000  1
  Y  Y7  1  0.000000  0.000000  0.000000  1
  Y  Y8  1  0.790355  0.209645  0.940477  1
  Y  Y9  1  0.790355  0.580711  0.940477  1
  Y  Y10  1  0.419289  0.209645  0.940477  1
  Y  Y11  1  0.209645  0.790355  0.059523  1
  Y  Y12  1  0.209645  0.419289  0.059523  1
  Y  Y13  1  0.580711  0.790355  0.059523  1
  Y  Y14  1  0.540137  0.459863  0.250438  1
  Y  Y15  1  0.540137  0.080275  0.250438  1
  Y  Y16  1  0.919725  0.459863  0.250438  1
  Y  Y17  1  0.459863  0.540137  0.749562  1
  Y  Y18  1  0.459863  0.919725  0.749562  1
  Y  Y19  1  0.080275  0.540137  0.749562  1
  Cd  Cd20  1  0.885457  0.114543  0.249841  1
  Cd  Cd21  1  0.885457  0.770916  0.249841  1
  Cd  Cd22  1  0.229084  0.114543  0.249841  1
  Cd  Cd23  1  0.114543  0.885457  0.750159  1
  Cd  Cd24  1  0.114543  0.229084  0.750159  1
  Cd  Cd25  1  0.770916  0.885457  0.750159  1
  Os  Os26  1  0.333333  0.666667  0.251599  1
  Os  Os27  1  0.666667  0.333333  0.748401  1
