# generated using pymatgen
data_Pr7TmSc12Si15Rh
_symmetry_space_group_name_H-M   'P 1'
_cell_length_a   7.25456233
_cell_length_b   7.49068538
_cell_length_c   14.20957493
_cell_angle_alpha   89.85767579
_cell_angle_beta   89.86253296
_cell_angle_gamma   90.27661570
_symmetry_Int_Tables_number   1
_chemical_formula_structural   Pr7TmSc12Si15Rh
_chemical_formula_sum   'Pr7 Tm1 Sc12 Si15 Rh1'
_cell_volume   772.15803570
_cell_formula_units_Z   1
loop_
 _symmetry_equiv_pos_site_id
 _symmetry_equiv_pos_as_xyz
  1  'x, y, z'
loop_
 _atom_site_type_symbol
 _atom_site_label
 _atom_site_symmetry_multiplicity
 _atom_site_fract_x
 _atom_site_fract_y
 _atom_site_fract_z
 _atom_site_occupancy
  Pr  Pr0  1  0.012637  0.171577  0.097670  1
  Pr  Pr1  1  0.987691  0.827786  0.900473  1
  Pr  Pr2  1  0.486039  0.672677  0.902617  1
  Pr  Pr3  1  0.991366  0.823014  0.595915  1
  Pr  Pr4  1  0.512566  0.328656  0.096309  1
  Pr  Pr5  1  0.011869  0.177145  0.405029  1
  Pr  Pr6  1  0.508438  0.326686  0.404309  1
  Tm  Tm7  1  0.485931  0.669757  0.600624  1
  Sc  Sc8  1  0.162969  0.499094  0.743341  1
  Sc  Sc9  1  0.838331  0.500612  0.252260  1
  Sc  Sc10  1  0.339686  0.995899  0.251010  1
  Sc  Sc11  1  0.661871  0.000095  0.747778  1
  Sc  Sc12  1  0.332073  0.187670  0.621881  1
  Sc  Sc13  1  0.668286  0.823312  0.374863  1
  Sc  Sc14  1  0.169659  0.665798  0.378116  1
  Sc  Sc15  1  0.671879  0.825330  0.126594  1
  Sc  Sc16  1  0.831774  0.328607  0.622686  1
  Sc  Sc17  1  0.328927  0.176189  0.873984  1
  Sc  Sc18  1  0.830791  0.323237  0.873889  1
  Sc  Sc19  1  0.170019  0.676624  0.125431  1
  Si  Si20  1  0.035918  0.124361  0.748751  1
  Si  Si21  1  0.967997  0.874847  0.252174  1
  Si  Si22  1  0.465081  0.623368  0.249067  1
  Si  Si23  1  0.538410  0.379254  0.750777  1
  Si  Si24  1  0.291629  0.883499  0.747577  1
  Si  Si25  1  0.711341  0.119628  0.250210  1
  Si  Si26  1  0.213067  0.380174  0.249310  1
  Si  Si27  1  0.781836  0.619093  0.749135  1
  Si  Si28  1  0.839457  0.538985  0.459789  1
  Si  Si29  1  0.350421  0.955537  0.463022  1
  Si  Si30  1  0.849979  0.538060  0.039116  1
  Si  Si31  1  0.648807  0.030259  0.541445  1
  Si  Si32  1  0.149050  0.463191  0.960517  1
  Si  Si33  1  0.651247  0.036711  0.960487  1
  Si  Si34  1  0.350097  0.963082  0.039478  1
  Rh  Rh35  1  0.152860  0.470186  0.544365  1
