# generated using pymatgen
data_TaTi4Co16Si7Tc
_symmetry_space_group_name_H-M   'P 1'
_cell_length_a   7.83158200
_cell_length_b   7.83671923
_cell_length_c   7.84356734
_cell_angle_alpha   59.92775207
_cell_angle_beta   60.04329174
_cell_angle_gamma   60.07952024
_symmetry_Int_Tables_number   1
_chemical_formula_structural   TaTi4Co16Si7Tc
_chemical_formula_sum   'Ta1 Ti4 Co16 Si7 Tc1'
_cell_volume   340.52317097
_cell_formula_units_Z   1
loop_
 _symmetry_equiv_pos_site_id
 _symmetry_equiv_pos_as_xyz
  1  'x, y, z'
loop_
 _atom_site_type_symbol
 _atom_site_label
 _atom_site_symmetry_multiplicity
 _atom_site_fract_x
 _atom_site_fract_y
 _atom_site_fract_z
 _atom_site_occupancy
  Ta  Ta0  1  0.802804  0.797844  0.197196  1
  Ti  Ti1  1  0.793242  0.207839  0.206758  1
  Ti  Ti2  1  0.203670  0.198718  0.796330  1
  Ti  Ti3  1  0.801151  0.200246  0.795137  1
  Ti  Ti4  1  0.204863  0.796534  0.198849  1
  Co  Co5  1  0.619965  0.618302  0.142425  1
  Co  Co6  1  0.165446  0.496058  0.172772  1
  Co  Co7  1  0.857575  0.380691  0.380035  1
  Co  Co8  1  0.503284  0.833976  0.834799  1
  Co  Co9  1  0.507228  0.164728  0.165445  1
  Co  Co10  1  0.834555  0.837403  0.492772  1
  Co  Co11  1  0.165201  0.172058  0.496716  1
  Co  Co12  1  0.144960  0.619360  0.619021  1
  Co  Co13  1  0.162298  0.164870  0.166367  1
  Co  Co14  1  0.380979  0.383341  0.855040  1
  Co  Co15  1  0.616539  0.619247  0.618829  1
  Co  Co16  1  0.381171  0.854615  0.383461  1
  Co  Co17  1  0.382046  0.379744  0.379873  1
  Co  Co18  1  0.827228  0.834276  0.834554  1
  Co  Co19  1  0.620127  0.141664  0.617954  1
  Co  Co20  1  0.833633  0.493536  0.837702  1
  Si  Si21  1  0.495078  0.997016  0.504922  1
  Si  Si22  1  0.495920  0.503191  0.996316  1
  Si  Si23  1  0.501915  0.496876  0.498085  1
  Si  Si24  1  0.003684  0.995427  0.504080  1
  Si  Si25  1  0.005898  0.501288  0.994102  1
  Si  Si26  1  0.999292  0.501084  0.504102  1
  Si  Si27  1  0.495898  0.004478  0.000708  1
  Tc  Tc28  1  0.194353  0.805585  0.805647  1
