# generated using pymatgen
data_HoEr11(GaCo2)2
_symmetry_space_group_name_H-M   'P 1'
_cell_length_a   8.20307794
_cell_length_b   8.20307810
_cell_length_c   8.20485036
_cell_angle_alpha   111.95929333
_cell_angle_beta   109.58486178
_cell_angle_gamma   106.89964671
_symmetry_Int_Tables_number   1
_chemical_formula_structural   HoEr11(GaCo2)2
_chemical_formula_sum   'Ho1 Er11 Ga2 Co4'
_cell_volume   424.23390569
_cell_formula_units_Z   1
loop_
 _symmetry_equiv_pos_site_id
 _symmetry_equiv_pos_as_xyz
  1  'x, y, z'
loop_
 _atom_site_type_symbol
 _atom_site_label
 _atom_site_symmetry_multiplicity
 _atom_site_fract_x
 _atom_site_fract_y
 _atom_site_fract_z
 _atom_site_occupancy
  Ho  Ho0  1  0.819347  0.219419  0.038766  1
  Er  Er1  1  0.958496  0.261322  0.697092  1
  Er  Er2  1  0.041629  0.738815  0.302903  1
  Er  Er3  1  0.673494  0.861368  0.187919  1
  Er  Er4  1  0.326551  0.514425  0.187919  1
  Er  Er5  1  0.326359  0.138557  0.812007  1
  Er  Er6  1  0.673449  0.485647  0.812007  1
  Er  Er7  1  0.564087  0.261273  0.302903  1
  Er  Er8  1  0.435770  0.738596  0.697092  1
  Er  Er9  1  0.180584  0.780539  0.961123  1
  Er  Er10  1  0.819387  0.780534  0.599922  1
  Er  Er11  1  0.180695  0.219460  0.400154  1
  Ga  Ga12  1  0.000075  0.500136  0.500211  1
  Ga  Ga13  1  0.499994  0.000003  0.499997  1
  Co  Co14  1  0.115344  0.115199  0.999970  1
  Co  Co15  1  0.884771  0.884626  0.999970  1
  Co  Co16  1  0.663536  0.500053  0.163589  1
  Co  Co17  1  0.336429  0.500027  0.836456  1
