# generated using pymatgen
data_ThHg(SeO4)3
_symmetry_space_group_name_H-M   'P 1'
_cell_length_a   9.54817500
_cell_length_b   9.54818299
_cell_length_c   6.36329500
_cell_angle_alpha   90.00000000
_cell_angle_beta   90.00000000
_cell_angle_gamma   120.00009031
_symmetry_Int_Tables_number   1
_chemical_formula_structural   ThHg(SeO4)3
_chemical_formula_sum   'Th2 Hg2 Se6 O24'
_cell_volume   502.40435750
_cell_formula_units_Z   2
loop_
 _symmetry_equiv_pos_site_id
 _symmetry_equiv_pos_as_xyz
  1  'x, y, z'
loop_
 _atom_site_type_symbol
 _atom_site_label
 _atom_site_symmetry_multiplicity
 _atom_site_fract_x
 _atom_site_fract_y
 _atom_site_fract_z
 _atom_site_occupancy
  Th  Th0  1  0.333335  0.666669  0.250000  1
  Th  Th1  1  0.666665  0.333331  0.749999  1
  Hg  Hg2  1  0.000000  0.000000  0.000000  1
  Hg  Hg3  1  0.000000  0.000000  0.500001  1
  Se  Se4  1  0.705093  0.099593  0.250000  1
  Se  Se5  1  0.394499  0.294907  0.250000  1
  Se  Se6  1  0.900407  0.605500  0.250000  1
  Se  Se7  1  0.099593  0.394501  0.749999  1
  Se  Se8  1  0.605500  0.705093  0.749999  1
  Se  Se9  1  0.294907  0.900407  0.749999  1
  O  O10  1  0.786045  0.539862  0.035244  1
  O  O11  1  0.753819  0.213956  0.035245  1
  O  O12  1  0.460135  0.246180  0.035244  1
  O  O13  1  0.819550  0.008236  0.250000  1
  O  O14  1  0.188684  0.180450  0.250000  1
  O  O15  1  0.447334  0.489744  0.250000  1
  O  O16  1  0.042409  0.552664  0.250000  1
  O  O17  1  0.991765  0.811315  0.250000  1
  O  O18  1  0.510254  0.957589  0.250000  1
  O  O19  1  0.460135  0.246180  0.464755  1
  O  O20  1  0.753819  0.213956  0.464754  1
  O  O21  1  0.786045  0.539862  0.464756  1
  O  O22  1  0.213956  0.460137  0.535245  1
  O  O23  1  0.246181  0.786044  0.535246  1
  O  O24  1  0.539864  0.753819  0.535245  1
  O  O25  1  0.489746  0.042411  0.749999  1
  O  O26  1  0.008236  0.188684  0.749999  1
  O  O27  1  0.957591  0.447337  0.749999  1
  O  O28  1  0.552666  0.510256  0.749999  1
  O  O29  1  0.811316  0.819550  0.749999  1
  O  O30  1  0.180449  0.991763  0.749999  1
  O  O31  1  0.539864  0.753819  0.964756  1
  O  O32  1  0.246181  0.786044  0.964754  1
  O  O33  1  0.213956  0.460137  0.964756  1
