# generated using pymatgen
data_Pr4FeCo16(P4Ru)3
_symmetry_space_group_name_H-M   'P 1'
_cell_length_a   3.73244900
_cell_length_b   10.51281433
_cell_length_c   11.92548231
_cell_angle_alpha   89.85626488
_cell_angle_beta   90.00000000
_cell_angle_gamma   90.00000000
_symmetry_Int_Tables_number   1
_chemical_formula_structural   Pr4FeCo16(P4Ru)3
_chemical_formula_sum   'Pr4 Fe1 Co16 P12 Ru3'
_cell_volume   467.93708209
_cell_formula_units_Z   1
loop_
 _symmetry_equiv_pos_site_id
 _symmetry_equiv_pos_as_xyz
  1  'x, y, z'
loop_
 _atom_site_type_symbol
 _atom_site_label
 _atom_site_symmetry_multiplicity
 _atom_site_fract_x
 _atom_site_fract_y
 _atom_site_fract_z
 _atom_site_occupancy
  Pr  Pr0  1  0.250000  0.586096  0.702410  1
  Pr  Pr1  1  0.250000  0.913203  0.204232  1
  Pr  Pr2  1  0.750000  0.414568  0.296525  1
  Pr  Pr3  1  0.750000  0.083637  0.799007  1
  Fe  Fe4  1  0.250000  0.708866  0.987951  1
  Co  Co5  1  0.250000  0.407303  0.491966  1
  Co  Co6  1  0.250000  0.093842  0.992383  1
  Co  Co7  1  0.750000  0.592109  0.508520  1
  Co  Co8  1  0.750000  0.904763  0.010882  1
  Co  Co9  1  0.250000  0.221191  0.175266  1
  Co  Co10  1  0.250000  0.279671  0.675512  1
  Co  Co11  1  0.750000  0.779190  0.824786  1
  Co  Co12  1  0.750000  0.719610  0.325218  1
  Co  Co13  1  0.250000  0.886598  0.700961  1
  Co  Co14  1  0.250000  0.615960  0.197910  1
  Co  Co15  1  0.750000  0.113617  0.298089  1
  Co  Co16  1  0.750000  0.386726  0.799739  1
  Co  Co17  1  0.250000  0.468832  0.932801  1
  Co  Co18  1  0.250000  0.034089  0.431772  1
  Co  Co19  1  0.750000  0.534422  0.066139  1
  Co  Co20  1  0.750000  0.966777  0.567890  1
  P  P21  1  0.250000  0.420114  0.109946  1
  P  P22  1  0.250000  0.080569  0.609849  1
  P  P23  1  0.750000  0.582998  0.889962  1
  P  P24  1  0.750000  0.919044  0.390716  1
  P  P25  1  0.250000  0.277825  0.866281  1
  P  P26  1  0.250000  0.222712  0.366043  1
  P  P27  1  0.750000  0.723831  0.132350  1
  P  P28  1  0.750000  0.777977  0.634259  1
  P  P29  1  0.250000  0.600345  0.391446  1
  P  P30  1  0.250000  0.893571  0.895193  1
  P  P31  1  0.750000  0.400114  0.608001  1
  P  P32  1  0.750000  0.099104  0.106994  1
  Ru  Ru33  1  0.250000  0.786430  0.490763  1
  Ru  Ru34  1  0.750000  0.289371  0.010713  1
  Ru  Ru35  1  0.750000  0.214923  0.507524  1
