# generated using pymatgen
data_Sc4Mn2Co3B4Ir7
_symmetry_space_group_name_H-M   'P 1'
_cell_length_a   3.02094300
_cell_length_b   9.19140450
_cell_length_c   9.24377207
_cell_angle_alpha   90.31479744
_cell_angle_beta   90.00000000
_cell_angle_gamma   90.00000000
_symmetry_Int_Tables_number   1
_chemical_formula_structural   Sc4Mn2Co3B4Ir7
_chemical_formula_sum   'Sc4 Mn2 Co3 B4 Ir7'
_cell_volume   256.66525583
_cell_formula_units_Z   1
loop_
 _symmetry_equiv_pos_site_id
 _symmetry_equiv_pos_as_xyz
  1  'x, y, z'
loop_
 _atom_site_type_symbol
 _atom_site_label
 _atom_site_symmetry_multiplicity
 _atom_site_fract_x
 _atom_site_fract_y
 _atom_site_fract_z
 _atom_site_occupancy
  Sc  Sc0  1  0.000000  0.672505  0.173489  1
  Sc  Sc1  1  0.000000  0.175458  0.320587  1
  Sc  Sc2  1  0.000000  0.824050  0.676123  1
  Sc  Sc3  1  0.000000  0.322232  0.830301  1
  Mn  Mn4  1  0.000000  0.014280  0.004036  1
  Mn  Mn5  1  0.000000  0.499181  0.497829  1
  Co  Co6  1  0.499997  0.496964  0.000057  1
  Co  Co7  1  0.499997  0.225559  0.066262  1
  Co  Co8  1  0.499997  0.999976  0.500254  1
  B  B9  1  0.000000  0.375708  0.109529  1
  B  B10  1  0.000000  0.888477  0.386718  1
  B  B11  1  0.000000  0.113340  0.612505  1
  B  B12  1  0.000000  0.614319  0.889132  1
  Ir  Ir13  1  0.499997  0.935900  0.220379  1
  Ir  Ir14  1  0.499997  0.430850  0.274098  1
  Ir  Ir15  1  0.499997  0.721290  0.434037  1
  Ir  Ir16  1  0.499997  0.278712  0.565116  1
  Ir  Ir17  1  0.499997  0.563883  0.722408  1
  Ir  Ir18  1  0.499997  0.065325  0.779920  1
  Ir  Ir19  1  0.499997  0.781987  0.937219  1
