# generated using pymatgen
data_Pa5SiSn2Bi
_symmetry_space_group_name_H-M   'P 1'
_cell_length_a   9.18585000
_cell_length_b   9.17902508
_cell_length_c   6.21563600
_cell_angle_alpha   90.00000000
_cell_angle_beta   90.00000000
_cell_angle_gamma   119.97542097
_symmetry_Int_Tables_number   1
_chemical_formula_structural   Pa5SiSn2Bi
_chemical_formula_sum   'Pa10 Si2 Sn4 Bi2'
_cell_volume   453.98303224
_cell_formula_units_Z   2
loop_
 _symmetry_equiv_pos_site_id
 _symmetry_equiv_pos_as_xyz
  1  'x, y, z'
loop_
 _atom_site_type_symbol
 _atom_site_label
 _atom_site_symmetry_multiplicity
 _atom_site_fract_x
 _atom_site_fract_y
 _atom_site_fract_z
 _atom_site_occupancy
  Pa  Pa0  1  0.669948  0.335900  0.005068  1
  Pa  Pa1  1  0.330052  0.665953  0.005068  1
  Pa  Pa2  1  0.330052  0.665953  0.494932  1
  Pa  Pa3  1  0.669948  0.335900  0.494932  1
  Pa  Pa4  1  0.743228  0.738920  0.750000  1
  Pa  Pa5  1  0.256772  0.995694  0.750000  1
  Pa  Pa6  1  0.000000  0.261555  0.750000  1
  Pa  Pa7  1  0.261161  0.261646  0.250000  1
  Pa  Pa8  1  0.738839  0.000485  0.250000  1
  Pa  Pa9  1  0.000000  0.737648  0.250000  1
  Si  Si10  1  0.000000  0.000527  0.002042  1
  Si  Si11  1  0.000000  0.000527  0.497958  1
  Sn  Sn12  1  0.000000  0.610992  0.750000  1
  Sn  Sn13  1  0.614578  0.615394  0.250000  1
  Sn  Sn14  1  0.385422  0.000816  0.250000  1
  Sn  Sn15  1  0.000000  0.385458  0.250000  1
  Bi  Bi16  1  0.388491  0.387562  0.750000  1
  Bi  Bi17  1  0.611509  0.999070  0.750000  1
