# generated using pymatgen
data_Dy4Tm3Lu(ReC2)4
_symmetry_space_group_name_H-M   'P 1'
_cell_length_a   5.06935200
_cell_length_b   6.56209393
_cell_length_c   9.77553339
_cell_angle_alpha   89.93890393
_cell_angle_beta   90.00000000
_cell_angle_gamma   90.00000000
_symmetry_Int_Tables_number   1
_chemical_formula_structural   Dy4Tm3Lu(ReC2)4
_chemical_formula_sum   'Dy4 Tm3 Lu1 Re4 C8'
_cell_volume   325.18844674
_cell_formula_units_Z   1
loop_
 _symmetry_equiv_pos_site_id
 _symmetry_equiv_pos_as_xyz
  1  'x, y, z'
loop_
 _atom_site_type_symbol
 _atom_site_label
 _atom_site_symmetry_multiplicity
 _atom_site_fract_x
 _atom_site_fract_y
 _atom_site_fract_z
 _atom_site_occupancy
  Dy  Dy0  1  0.250000  0.465777  0.214918  1
  Dy  Dy1  1  0.250000  0.965483  0.285356  1
  Dy  Dy2  1  0.750000  0.534581  0.784880  1
  Dy  Dy3  1  0.750000  0.034206  0.714607  1
  Tm  Tm4  1  0.250000  0.824273  0.942198  1
  Tm  Tm5  1  0.250000  0.324514  0.557610  1
  Tm  Tm6  1  0.750000  0.175620  0.057856  1
  Lu  Lu7  1  0.750000  0.674318  0.441535  1
  Re  Re8  1  0.250000  0.280211  0.867682  1
  Re  Re9  1  0.250000  0.780280  0.631765  1
  Re  Re10  1  0.750000  0.720118  0.132754  1
  Re  Re11  1  0.750000  0.219626  0.368119  1
  C  C12  1  0.250000  0.048433  0.740068  1
  C  C13  1  0.250000  0.548524  0.759705  1
  C  C14  1  0.750000  0.951192  0.260549  1
  C  C15  1  0.750000  0.451927  0.240678  1
  C  C16  1  0.250000  0.671567  0.448780  1
  C  C17  1  0.250000  0.171787  0.050911  1
  C  C18  1  0.750000  0.329332  0.550768  1
  C  C19  1  0.750000  0.828230  0.949260  1
