# generated using pymatgen
data_Ba5Dy7YMn4O21
_symmetry_space_group_name_H-M   'P 1'
_cell_length_a   10.34122942
_cell_length_b   10.34122897
_cell_length_c   10.34233909
_cell_angle_alpha   94.51695057
_cell_angle_beta   94.52862228
_cell_angle_gamma   147.38080754
_symmetry_Int_Tables_number   1
_chemical_formula_structural   Ba5Dy7YMn4O21
_chemical_formula_sum   'Ba5 Dy7 Y1 Mn4 O21'
_cell_volume   572.21652641
_cell_formula_units_Z   1
loop_
 _symmetry_equiv_pos_site_id
 _symmetry_equiv_pos_as_xyz
  1  'x, y, z'
loop_
 _atom_site_type_symbol
 _atom_site_label
 _atom_site_symmetry_multiplicity
 _atom_site_fract_x
 _atom_site_fract_y
 _atom_site_fract_z
 _atom_site_occupancy
  Ba  Ba0  1  0.000002  0.999967  0.999969  1
  Ba  Ba1  1  0.139257  0.533710  0.672967  1
  Ba  Ba2  1  0.860740  0.466279  0.327019  1
  Ba  Ba3  1  0.466280  0.139262  0.605543  1
  Ba  Ba4  1  0.533762  0.860798  0.394560  1
  Dy  Dy5  1  0.170022  0.248482  0.418504  1
  Dy  Dy6  1  0.830004  0.751543  0.581547  1
  Dy  Dy7  1  0.751491  0.169986  0.921477  1
  Dy  Dy8  1  0.248440  0.830046  0.078488  1
  Dy  Dy9  1  0.359237  0.410255  0.769492  1
  Dy  Dy10  1  0.640806  0.589681  0.230487  1
  Dy  Dy11  1  0.589709  0.359246  0.948955  1
  Y  Y12  1  0.410313  0.640701  0.051014  1
  Mn  Mn13  1  0.248195  0.040277  0.288473  1
  Mn  Mn14  1  0.751786  0.959683  0.711469  1
  Mn  Mn15  1  0.959732  0.248325  0.208057  1
  Mn  Mn16  1  0.040282  0.751802  0.792085  1
  O  O17  1  0.500132  0.499803  0.999935  1
  O  O18  1  0.961444  0.627075  0.588519  1
  O  O19  1  0.038563  0.372937  0.411501  1
  O  O20  1  0.372934  0.961430  0.334365  1
  O  O21  1  0.627054  0.038568  0.665621  1
  O  O22  1  0.299785  0.428817  0.225761  1
  O  O23  1  0.203439  0.074324  0.774436  1
  O  O24  1  0.073693  0.299240  0.870530  1
  O  O25  1  0.429007  0.203434  0.129122  1
  O  O26  1  0.700111  0.570997  0.774436  1
  O  O27  1  0.796943  0.925977  0.225761  1
  O  O28  1  0.925689  0.700116  0.129122  1
  O  O29  1  0.571290  0.796836  0.870530  1
  O  O30  1  0.492620  0.598991  0.594200  1
  O  O31  1  0.004778  0.898404  0.405764  1
  O  O32  1  0.898439  0.492636  0.893632  1
  O  O33  1  0.599342  0.005421  0.106532  1
  O  O34  1  0.507360  0.400987  0.405764  1
  O  O35  1  0.995210  0.101580  0.594200  1
  O  O36  1  0.101111  0.507190  0.106532  1
  O  O37  1  0.400996  0.995194  0.893632  1
