# generated using pymatgen
data_Zr6Ta4Al12Fe5CoRu
_symmetry_space_group_name_H-M   'P 1'
_cell_length_a   8.62908323
_cell_length_b   8.64743932
_cell_length_c   8.64744000
_cell_angle_alpha   59.91958592
_cell_angle_beta   60.07621645
_cell_angle_gamma   60.07622083
_symmetry_Int_Tables_number   1
_chemical_formula_structural   Zr6Ta4Al12Fe5CoRu
_chemical_formula_sum   'Zr6 Ta4 Al12 Fe5 Co1 Ru1'
_cell_volume   456.51901725
_cell_formula_units_Z   1
loop_
 _symmetry_equiv_pos_site_id
 _symmetry_equiv_pos_as_xyz
  1  'x, y, z'
loop_
 _atom_site_type_symbol
 _atom_site_label
 _atom_site_symmetry_multiplicity
 _atom_site_fract_x
 _atom_site_fract_y
 _atom_site_fract_z
 _atom_site_occupancy
  Zr  Zr0  1  0.696095  0.301838  0.302158  1
  Zr  Zr1  1  0.696230  0.303672  0.698084  1
  Zr  Zr2  1  0.694549  0.695850  0.305771  1
  Zr  Zr3  1  0.303881  0.697889  0.698428  1
  Zr  Zr4  1  0.305250  0.694584  0.303446  1
  Zr  Zr5  1  0.307108  0.304959  0.693236  1
  Ta  Ta6  1  0.642226  0.118423  0.120229  1
  Ta  Ta7  1  0.120904  0.643042  0.121613  1
  Ta  Ta8  1  0.121028  0.119968  0.643169  1
  Ta  Ta9  1  0.122509  0.115051  0.118394  1
  Al  Al10  1  0.361037  0.880289  0.878712  1
  Al  Al11  1  0.878547  0.360060  0.878197  1
  Al  Al12  1  0.878486  0.879697  0.360454  1
  Al  Al13  1  0.877979  0.883030  0.879431  1
  Al  Al14  1  0.989247  0.333401  0.341794  1
  Al  Al15  1  0.335676  0.989610  0.337976  1
  Al  Al16  1  0.340738  0.334536  0.991152  1
  Al  Al17  1  0.336672  0.335692  0.335881  1
  Al  Al18  1  0.003079  0.668577  0.660213  1
  Al  Al19  1  0.666098  0.003271  0.665514  1
  Al  Al20  1  0.661057  0.668851  0.001083  1
  Al  Al21  1  0.666376  0.665798  0.666470  1
  Fe  Fe22  1  0.000750  0.999892  0.000073  1
  Fe  Fe23  1  0.494325  0.004109  0.004595  1
  Fe  Fe24  1  0.495511  0.004050  0.496527  1
  Fe  Fe25  1  0.495265  0.496697  0.004314  1
  Fe  Fe26  1  0.004455  0.496050  0.495449  1
  Co  Co27  1  0.003366  0.002869  0.496261  1
  Ru  Ru28  1  0.001553  0.498245  0.001378  1
