# generated using pymatgen
data_Rb2Lu7BCl18
_symmetry_space_group_name_H-M   'P 1'
_cell_length_a   9.95258033
_cell_length_b   9.95257970
_cell_length_c   10.78995700
_cell_angle_alpha   117.46434295
_cell_angle_beta   62.53565894
_cell_angle_gamma   120.00000072
_symmetry_Int_Tables_number   1
_chemical_formula_structural   Rb2Lu7BCl18
_chemical_formula_sum   'Rb2 Lu7 B1 Cl18'
_cell_volume   783.42711016
_cell_formula_units_Z   1
loop_
 _symmetry_equiv_pos_site_id
 _symmetry_equiv_pos_as_xyz
  1  'x, y, z'
loop_
 _atom_site_type_symbol
 _atom_site_label
 _atom_site_symmetry_multiplicity
 _atom_site_fract_x
 _atom_site_fract_y
 _atom_site_fract_z
 _atom_site_occupancy
  Rb  Rb0  1  0.222092  0.777908  0.333727  1
  Rb  Rb1  1  0.777909  0.222091  0.666273  1
  Lu  Lu2  1  0.772387  0.110861  0.158896  1
  Lu  Lu3  1  0.889138  0.820422  0.158896  1
  Lu  Lu4  1  0.179579  0.227613  0.158896  1
  Lu  Lu5  1  0.500000  0.500000  0.500000  1
  Lu  Lu6  1  0.820422  0.772388  0.841104  1
  Lu  Lu7  1  0.110861  0.179577  0.841104  1
  Lu  Lu8  1  0.227612  0.889137  0.841104  1
  B  B9  1  0.000000  0.000000  0.000000  1
  Cl  Cl10  1  0.285063  0.423571  0.008724  1
  Cl  Cl11  1  0.576427  0.870215  0.008724  1
  Cl  Cl12  1  0.129786  0.714938  0.008724  1
  Cl  Cl13  1  0.947098  0.347187  0.332692  1
  Cl  Cl14  1  0.067397  0.052902  0.332692  1
  Cl  Cl15  1  0.652812  0.932603  0.332692  1
  Cl  Cl16  1  0.524588  0.218022  0.336476  1
  Cl  Cl17  1  0.781977  0.643042  0.336476  1
  Cl  Cl18  1  0.356958  0.475411  0.336476  1
  Cl  Cl19  1  0.643042  0.524589  0.663524  1
  Cl  Cl20  1  0.218024  0.356960  0.663524  1
  Cl  Cl21  1  0.475411  0.781977  0.663524  1
  Cl  Cl22  1  0.347187  0.067396  0.667307  1
  Cl  Cl23  1  0.932604  0.947097  0.667307  1
  Cl  Cl24  1  0.052902  0.652812  0.667307  1
  Cl  Cl25  1  0.870216  0.285063  0.991276  1
  Cl  Cl26  1  0.423571  0.129784  0.991276  1
  Cl  Cl27  1  0.714937  0.576429  0.991276  1
