# generated using pymatgen
data_Er3Tm(NiPt)2
_symmetry_space_group_name_H-M   'P 1'
_cell_length_a   4.33566600
_cell_length_b   5.44169655
_cell_length_c   6.99016006
_cell_angle_alpha   90.16639393
_cell_angle_beta   90.00000000
_cell_angle_gamma   90.00000000
_symmetry_Int_Tables_number   1
_chemical_formula_structural   Er3Tm(NiPt)2
_chemical_formula_sum   'Er3 Tm1 Ni2 Pt2'
_cell_volume   164.92079832
_cell_formula_units_Z   1
loop_
 _symmetry_equiv_pos_site_id
 _symmetry_equiv_pos_as_xyz
  1  'x, y, z'
loop_
 _atom_site_type_symbol
 _atom_site_label
 _atom_site_symmetry_multiplicity
 _atom_site_fract_x
 _atom_site_fract_y
 _atom_site_fract_z
 _atom_site_occupancy
  Er  Er0  1  0.250000  0.135305  0.181925  1
  Er  Er1  1  0.750000  0.867096  0.820269  1
  Er  Er2  1  0.750000  0.633337  0.320746  1
  Tm  Tm3  1  0.250000  0.364880  0.681000  1
  Ni  Ni4  1  0.750000  0.354921  0.957091  1
  Ni  Ni5  1  0.750000  0.145030  0.458455  1
  Pt  Pt6  1  0.250000  0.634545  0.039436  1
  Pt  Pt7  1  0.250000  0.864887  0.541080  1
