# generated using pymatgen
data_Nd6SiGeI6
_symmetry_space_group_name_H-M   'P 1'
_cell_length_a   10.82239390
_cell_length_b   10.82239287
_cell_length_c   10.85365612
_cell_angle_alpha   109.43388107
_cell_angle_beta   109.43388075
_cell_angle_gamma   109.42910018
_symmetry_Int_Tables_number   1
_chemical_formula_structural   Nd6SiGeI6
_chemical_formula_sum   'Nd12 Si2 Ge2 I12'
_cell_volume   979.99812376
_cell_formula_units_Z   2
loop_
 _symmetry_equiv_pos_site_id
 _symmetry_equiv_pos_as_xyz
  1  'x, y, z'
loop_
 _atom_site_type_symbol
 _atom_site_label
 _atom_site_symmetry_multiplicity
 _atom_site_fract_x
 _atom_site_fract_y
 _atom_site_fract_z
 _atom_site_occupancy
  Nd  Nd0  1  0.267959  0.017959  0.035917  1
  Nd  Nd1  1  0.034143  0.265351  0.019031  1
  Nd  Nd2  1  0.484888  0.753681  0.019031  1
  Nd  Nd3  1  0.746410  0.231303  0.265288  1
  Nd  Nd4  1  0.018878  0.033984  0.265288  1
  Nd  Nd5  1  0.016019  0.483981  0.750000  1
  Nd  Nd6  1  0.233981  0.266019  0.750000  1
  Nd  Nd7  1  0.268697  0.753590  0.234712  1
  Nd  Nd8  1  0.234649  0.465857  0.480969  1
  Nd  Nd9  1  0.466016  0.481122  0.234712  1
  Nd  Nd10  1  0.746319  0.015112  0.480969  1
  Nd  Nd11  1  0.482041  0.232041  0.464083  1
  Si  Si12  1  0.500039  0.999961  0.250000  1
  Si  Si13  1  0.249961  0.250039  0.250000  1
  Ge  Ge14  1  0.000094  0.250094  0.500189  1
  Ge  Ge15  1  0.249906  0.499906  0.999811  1
  I  I16  1  0.757509  0.742491  0.250000  1
  I  I17  1  0.507651  0.250121  0.992362  1
  I  I18  1  0.249879  0.992349  0.507638  1
  I  I19  1  0.515035  0.507532  0.757629  1
  I  I20  1  0.992468  0.984965  0.742371  1
  I  I21  1  0.742309  0.992309  0.984618  1
  I  I22  1  0.507691  0.757691  0.515382  1
  I  I23  1  0.757758  0.515288  0.507638  1
  I  I24  1  0.992491  0.507509  0.250000  1
  I  I25  1  0.984712  0.742242  0.992362  1
  I  I26  1  0.249903  0.757405  0.742371  1
  I  I27  1  0.742595  0.250097  0.757629  1
