# generated using pymatgen
data_LiAcP7Ru12
_symmetry_space_group_name_H-M   'P 1'
_cell_length_a   9.52893000
_cell_length_b   9.52892898
_cell_length_c   3.92626400
_cell_angle_alpha   90.00000000
_cell_angle_beta   90.00000000
_cell_angle_gamma   119.99999475
_symmetry_Int_Tables_number   1
_chemical_formula_structural   LiAcP7Ru12
_chemical_formula_sum   'Li1 Ac1 P7 Ru12'
_cell_volume   308.74389530
_cell_formula_units_Z   1
loop_
 _symmetry_equiv_pos_site_id
 _symmetry_equiv_pos_as_xyz
  1  'x, y, z'
loop_
 _atom_site_type_symbol
 _atom_site_label
 _atom_site_symmetry_multiplicity
 _atom_site_fract_x
 _atom_site_fract_y
 _atom_site_fract_z
 _atom_site_occupancy
  Li  Li0  1  0.666667  0.333333  0.500000  1
  Ac  Ac1  1  0.333333  0.666667  0.000000  1
  P  P2  1  0.611399  0.708387  0.500000  1
  P  P3  1  0.000000  0.000000  0.000000  1
  P  P4  1  0.291613  0.903012  0.500000  1
  P  P5  1  0.096988  0.388601  0.500000  1
  P  P6  1  0.898221  0.587676  0.000000  1
  P  P7  1  0.412324  0.310544  0.000000  1
  P  P8  1  0.689456  0.101779  0.000000  1
  Ru  Ru9  1  0.563248  0.958593  0.500000  1
  Ru  Ru10  1  0.395347  0.436752  0.500000  1
  Ru  Ru11  1  0.909512  0.114011  0.500000  1
  Ru  Ru12  1  0.204499  0.090488  0.500000  1
  Ru  Ru13  1  0.885989  0.795501  0.500000  1
  Ru  Ru14  1  0.727094  0.877951  0.000000  1
  Ru  Ru15  1  0.122049  0.849143  0.000000  1
  Ru  Ru16  1  0.150857  0.272906  0.000000  1
  Ru  Ru17  1  0.435441  0.083433  0.000000  1
  Ru  Ru18  1  0.916567  0.352009  0.000000  1
  Ru  Ru19  1  0.647991  0.564559  0.000000  1
  Ru  Ru20  1  0.041407  0.604653  0.500000  1
