# generated using pymatgen
data_KNdPPt8
_symmetry_space_group_name_H-M   'P 1'
_cell_length_a   9.29758970
_cell_length_b   9.34086635
_cell_length_c   4.27642500
_cell_angle_alpha   90.00000000
_cell_angle_beta   90.00000000
_cell_angle_gamma   145.67399311
_symmetry_Int_Tables_number   1
_chemical_formula_structural   KNdPPt8
_chemical_formula_sum   'K1 Nd1 P1 Pt8'
_cell_volume   209.43112713
_cell_formula_units_Z   1
loop_
 _symmetry_equiv_pos_site_id
 _symmetry_equiv_pos_as_xyz
  1  'x, y, z'
loop_
 _atom_site_type_symbol
 _atom_site_label
 _atom_site_symmetry_multiplicity
 _atom_site_fract_x
 _atom_site_fract_y
 _atom_site_fract_z
 _atom_site_occupancy
  K  K0  1  0.612749  0.376543  0.500000  1
  Nd  Nd1  1  0.371191  0.623017  0.500000  1
  P  P2  1  0.220130  0.214550  0.000000  1
  Pt  Pt3  1  0.109087  0.887075  0.000000  1
  Pt  Pt4  1  0.895298  0.111137  0.000000  1
  Pt  Pt5  1  0.493860  0.981356  0.000000  1
  Pt  Pt6  1  0.997708  0.490205  0.000000  1
  Pt  Pt7  1  0.195291  0.789848  0.500000  1
  Pt  Pt8  1  0.793775  0.193557  0.500000  1
  Pt  Pt9  1  0.011300  0.013838  0.500000  1
  Pt  Pt10  1  0.613209  0.632473  0.000000  1
