# generated using pymatgen
data_TbYFeCo16
_symmetry_space_group_name_H-M   'P 1'
_cell_length_a   6.27080562
_cell_length_b   6.27080478
_cell_length_c   6.27080564
_cell_angle_alpha   83.07928715
_cell_angle_beta   83.07929887
_cell_angle_gamma   83.07929292
_symmetry_Int_Tables_number   1
_chemical_formula_structural   TbYFeCo16
_chemical_formula_sum   'Tb1 Y1 Fe1 Co16'
_cell_volume   241.59743804
_cell_formula_units_Z   1
loop_
 _symmetry_equiv_pos_site_id
 _symmetry_equiv_pos_as_xyz
  1  'x, y, z'
loop_
 _atom_site_type_symbol
 _atom_site_label
 _atom_site_symmetry_multiplicity
 _atom_site_fract_x
 _atom_site_fract_y
 _atom_site_fract_z
 _atom_site_occupancy
  Tb  Tb0  1  0.654837  0.654837  0.654837  1
  Y  Y1  1  0.345439  0.345439  0.345439  1
  Fe  Fe2  1  0.095953  0.095953  0.095953  1
  Co  Co3  1  0.346895  0.849430  0.346895  1
  Co  Co4  1  0.346895  0.346895  0.849430  1
  Co  Co5  1  0.849430  0.346895  0.346895  1
  Co  Co6  1  0.654313  0.149138  0.654313  1
  Co  Co7  1  0.654313  0.654313  0.149138  1
  Co  Co8  1  0.149138  0.654313  0.654313  1
  Co  Co9  1  0.711463  0.288995  0.999208  1
  Co  Co10  1  0.999208  0.711463  0.288995  1
  Co  Co11  1  0.288995  0.999208  0.711463  1
  Co  Co12  1  0.999208  0.288995  0.711463  1
  Co  Co13  1  0.711463  0.999208  0.288995  1
  Co  Co14  1  0.288995  0.711463  0.999208  1
  Co  Co15  1  0.000003  0.000003  0.501410  1
  Co  Co16  1  0.501410  0.000003  0.000003  1
  Co  Co17  1  0.000003  0.501410  0.000003  1
  Co  Co18  1  0.902040  0.902040  0.902040  1
