# generated using pymatgen
data_Dy3Al12FeRh3
_symmetry_space_group_name_H-M   'P 1'
_cell_length_a   8.79664200
_cell_length_b   8.79664112
_cell_length_c   9.44390100
_cell_angle_alpha   90.00000000
_cell_angle_beta   90.00000000
_cell_angle_gamma   119.99999579
_symmetry_Int_Tables_number   1
_chemical_formula_structural   Dy3Al12FeRh3
_chemical_formula_sum   'Dy6 Al24 Fe2 Rh6'
_cell_volume   632.87197964
_cell_formula_units_Z   2
loop_
 _symmetry_equiv_pos_site_id
 _symmetry_equiv_pos_as_xyz
  1  'x, y, z'
loop_
 _atom_site_type_symbol
 _atom_site_label
 _atom_site_symmetry_multiplicity
 _atom_site_fract_x
 _atom_site_fract_y
 _atom_site_fract_z
 _atom_site_occupancy
  Dy  Dy0  1  0.192583  0.807417  0.250000  1
  Dy  Dy1  1  0.192583  0.385166  0.250000  1
  Dy  Dy2  1  0.614834  0.807417  0.250000  1
  Dy  Dy3  1  0.807417  0.192583  0.750000  1
  Dy  Dy4  1  0.807417  0.614834  0.750000  1
  Dy  Dy5  1  0.385166  0.192583  0.750000  1
  Al  Al6  1  0.562375  0.437625  0.250000  1
  Al  Al7  1  0.562375  0.124749  0.250000  1
  Al  Al8  1  0.875251  0.437625  0.250000  1
  Al  Al9  1  0.437625  0.562375  0.750000  1
  Al  Al10  1  0.437625  0.875251  0.750000  1
  Al  Al11  1  0.124749  0.562375  0.750000  1
  Al  Al12  1  0.319957  0.159979  0.424952  1
  Al  Al13  1  0.840021  0.159979  0.424952  1
  Al  Al14  1  0.840021  0.680043  0.424952  1
  Al  Al15  1  0.680043  0.840021  0.575048  1
  Al  Al16  1  0.159979  0.840021  0.575048  1
  Al  Al17  1  0.159979  0.319957  0.575048  1
  Al  Al18  1  0.680043  0.840021  0.924952  1
  Al  Al19  1  0.159979  0.840021  0.924952  1
  Al  Al20  1  0.159979  0.319957  0.924952  1
  Al  Al21  1  0.319957  0.159979  0.075048  1
  Al  Al22  1  0.840021  0.159979  0.075048  1
  Al  Al23  1  0.840021  0.680043  0.075048  1
  Al  Al24  1  0.666667  0.333333  0.527072  1
  Al  Al25  1  0.333333  0.666667  0.472928  1
  Al  Al26  1  0.333333  0.666667  0.027072  1
  Al  Al27  1  0.666667  0.333333  0.972928  1
  Al  Al28  1  0.000000  0.000000  0.250000  1
  Al  Al29  1  0.000000  0.000000  0.750000  1
  Fe  Fe30  1  0.000000  0.000000  0.500000  1
  Fe  Fe31  1  0.000000  0.000000  0.000000  1
  Rh  Rh32  1  0.500000  0.500000  0.500000  1
  Rh  Rh33  1  0.500000  0.000000  0.500000  1
  Rh  Rh34  1  0.000000  0.500000  0.500000  1
  Rh  Rh35  1  0.500000  0.500000  0.000000  1
  Rh  Rh36  1  0.500000  0.000000  0.000000  1
  Rh  Rh37  1  0.000000  0.500000  0.000000  1
