# generated using pymatgen
data_Lu4B3(Rh5Au)2
_symmetry_space_group_name_H-M   'P 1'
_cell_length_a   4.19126200
_cell_length_b   4.19126200
_cell_length_c   16.62982400
_cell_angle_alpha   90.00000000
_cell_angle_beta   90.00000000
_cell_angle_gamma   90.00000000
_symmetry_Int_Tables_number   1
_chemical_formula_structural   Lu4B3(Rh5Au)2
_chemical_formula_sum   'Lu4 B3 Rh10 Au2'
_cell_volume   292.13074931
_cell_formula_units_Z   1
loop_
 _symmetry_equiv_pos_site_id
 _symmetry_equiv_pos_as_xyz
  1  'x, y, z'
loop_
 _atom_site_type_symbol
 _atom_site_label
 _atom_site_symmetry_multiplicity
 _atom_site_fract_x
 _atom_site_fract_y
 _atom_site_fract_z
 _atom_site_occupancy
  Lu  Lu0  1  0.000000  0.000000  0.868281  1
  Lu  Lu1  1  0.000000  0.000000  0.131719  1
  Lu  Lu2  1  0.000000  0.000000  0.375411  1
  Lu  Lu3  1  0.000000  0.000000  0.624589  1
  B  B4  1  0.500000  0.500000  0.243289  1
  B  B5  1  0.500000  0.500000  0.500000  1
  B  B6  1  0.500000  0.500000  0.756711  1
  Rh  Rh7  1  0.500000  0.500000  0.878830  1
  Rh  Rh8  1  0.500000  0.500000  0.121170  1
  Rh  Rh9  1  0.500000  0.500000  0.373907  1
  Rh  Rh10  1  0.500000  0.500000  0.626093  1
  Rh  Rh11  1  0.500000  0.000000  0.250711  1
  Rh  Rh12  1  0.500000  0.000000  0.500000  1
  Rh  Rh13  1  0.500000  0.000000  0.749289  1
  Rh  Rh14  1  0.000000  0.500000  0.250711  1
  Rh  Rh15  1  0.000000  0.500000  0.500000  1
  Rh  Rh16  1  0.000000  0.500000  0.749289  1
  Au  Au17  1  0.500000  0.000000  0.000000  1
  Au  Au18  1  0.000000  0.500000  0.000000  1
