# generated using pymatgen
data_Ho4Er2MnSi24Ru7
_symmetry_space_group_name_H-M   'P 1'
_cell_length_a   10.09163959
_cell_length_b   10.09163979
_cell_length_c   8.09430601
_cell_angle_alpha   90.02687416
_cell_angle_beta   90.02687190
_cell_angle_gamma   132.67765282
_symmetry_Int_Tables_number   1
_chemical_formula_structural   Ho4Er2MnSi24Ru7
_chemical_formula_sum   'Ho4 Er2 Mn1 Si24 Ru7'
_cell_volume   606.03249782
_cell_formula_units_Z   1
loop_
 _symmetry_equiv_pos_site_id
 _symmetry_equiv_pos_as_xyz
  1  'x, y, z'
loop_
 _atom_site_type_symbol
 _atom_site_label
 _atom_site_symmetry_multiplicity
 _atom_site_fract_x
 _atom_site_fract_y
 _atom_site_fract_z
 _atom_site_occupancy
  Ho  Ho0  1  0.498156  0.997524  0.248855  1
  Ho  Ho1  1  0.003099  0.501847  0.750885  1
  Ho  Ho2  1  0.501847  0.003099  0.750885  1
  Ho  Ho3  1  0.997524  0.498156  0.248855  1
  Er  Er4  1  0.501857  0.501857  0.500443  1
  Er  Er5  1  0.999471  0.999471  0.997825  1
  Mn  Mn6  1  0.624770  0.624770  0.874115  1
  Si  Si7  1  0.387188  0.154209  0.005147  1
  Si  Si8  1  0.654378  0.887551  0.494696  1
  Si  Si9  1  0.112649  0.345432  0.506158  1
  Si  Si10  1  0.842162  0.614602  0.989126  1
  Si  Si11  1  0.614602  0.842162  0.989126  1
  Si  Si12  1  0.345432  0.112649  0.506158  1
  Si  Si13  1  0.887551  0.654378  0.494696  1
  Si  Si14  1  0.154209  0.387188  0.005147  1
  Si  Si15  1  0.612033  0.378081  0.229074  1
  Si  Si16  1  0.877220  0.110471  0.271125  1
  Si  Si17  1  0.888566  0.121926  0.728794  1
  Si  Si18  1  0.624726  0.396645  0.772160  1
  Si  Si19  1  0.396645  0.624726  0.772160  1
  Si  Si20  1  0.121926  0.888566  0.728794  1
  Si  Si21  1  0.704471  0.294688  0.000158  1
  Si  Si22  1  0.794744  0.205163  0.499957  1
  Si  Si23  1  0.294688  0.704471  0.000158  1
  Si  Si24  1  0.205163  0.794744  0.499957  1
  Si  Si25  1  0.166712  0.166712  0.333791  1
  Si  Si26  1  0.668019  0.668019  0.161093  1
  Si  Si27  1  0.338130  0.338130  0.832721  1
  Si  Si28  1  0.825773  0.825773  0.673456  1
  Si  Si29  1  0.378081  0.612033  0.229074  1
  Si  Si30  1  0.110471  0.877220  0.271125  1
  Ru  Ru31  1  0.125068  0.125068  0.628856  1
  Ru  Ru32  1  0.871757  0.871757  0.374254  1
  Ru  Ru33  1  0.373834  0.373834  0.127404  1
  Ru  Ru34  1  0.330528  0.669530  0.502134  1
  Ru  Ru35  1  0.167871  0.829143  0.999752  1
  Ru  Ru36  1  0.669530  0.330528  0.502134  1
  Ru  Ru37  1  0.829143  0.167871  0.999752  1
