# generated using pymatgen
data_Zr9Nb(Sn3P)2
_symmetry_space_group_name_H-M   'P 1'
_cell_length_a   8.60936500
_cell_length_b   8.60936529
_cell_length_c   5.91414100
_cell_angle_alpha   90.00000000
_cell_angle_beta   90.00000000
_cell_angle_gamma   119.99998736
_symmetry_Int_Tables_number   1
_chemical_formula_structural   Zr9Nb(Sn3P)2
_chemical_formula_sum   'Zr9 Nb1 Sn6 P2'
_cell_volume   379.63357685
_cell_formula_units_Z   1
loop_
 _symmetry_equiv_pos_site_id
 _symmetry_equiv_pos_as_xyz
  1  'x, y, z'
loop_
 _atom_site_type_symbol
 _atom_site_label
 _atom_site_symmetry_multiplicity
 _atom_site_fract_x
 _atom_site_fract_y
 _atom_site_fract_z
 _atom_site_occupancy
  Zr  Zr0  1  0.333333  0.666667  0.000000  1
  Zr  Zr1  1  0.333333  0.666667  0.500000  1
  Zr  Zr2  1  0.666667  0.333333  0.500000  1
  Zr  Zr3  1  0.749425  0.748562  0.750458  1
  Zr  Zr4  1  0.251438  0.000863  0.750458  1
  Zr  Zr5  1  0.999137  0.250575  0.750458  1
  Zr  Zr6  1  0.251438  0.250575  0.249542  1
  Zr  Zr7  1  0.749425  0.000863  0.249542  1
  Zr  Zr8  1  0.999137  0.748562  0.249542  1
  Nb  Nb9  1  0.666667  0.333333  0.000000  1
  Sn  Sn10  1  0.401393  0.398976  0.752613  1
  Sn  Sn11  1  0.601024  0.002417  0.752613  1
  Sn  Sn12  1  0.997583  0.598607  0.752613  1
  Sn  Sn13  1  0.601024  0.598607  0.247387  1
  Sn  Sn14  1  0.401393  0.002417  0.247387  1
  Sn  Sn15  1  0.997583  0.398976  0.247387  1
  P  P16  1  0.000000  0.000000  0.000000  1
  P  P17  1  0.000000  0.000000  0.500000  1
