# generated using pymatgen
data_Ce2HoHfSn2Ir3
_symmetry_space_group_name_H-M   'P 1'
_cell_length_a   7.58091725
_cell_length_b   7.35531451
_cell_length_c   4.11752300
_cell_angle_alpha   90.00000000
_cell_angle_beta   90.00000000
_cell_angle_gamma   119.79862890
_symmetry_Int_Tables_number   1
_chemical_formula_structural   Ce2HoHfSn2Ir3
_chemical_formula_sum   'Ce2 Ho1 Hf1 Sn2 Ir3'
_cell_volume   199.23578531
_cell_formula_units_Z   1
loop_
 _symmetry_equiv_pos_site_id
 _symmetry_equiv_pos_as_xyz
  1  'x, y, z'
loop_
 _atom_site_type_symbol
 _atom_site_label
 _atom_site_symmetry_multiplicity
 _atom_site_fract_x
 _atom_site_fract_y
 _atom_site_fract_z
 _atom_site_occupancy
  Ce  Ce0  1  0.580881  0.997979  0.000000  1
  Ce  Ce1  1  0.997724  0.593461  0.000000  1
  Ho  Ho2  1  0.411515  0.413011  0.000000  1
  Hf  Hf3  1  0.004796  0.248864  0.500000  1
  Sn  Sn4  1  0.742316  0.746319  0.500000  1
  Sn  Sn5  1  0.255662  0.008568  0.500000  1
  Ir  Ir6  1  0.001040  0.020193  0.000000  1
  Ir  Ir7  1  0.687795  0.322516  0.500000  1
  Ir  Ir8  1  0.318270  0.649091  0.500000  1
