# generated using pymatgen
data_Y10(IrRh)3
_symmetry_space_group_name_H-M   'P 1'
_cell_length_a   10.94055118
_cell_length_b   10.94086600
_cell_length_c   6.40420111
_cell_angle_alpha   90.00000000
_cell_angle_beta   89.97896660
_cell_angle_gamma   90.00000000
_symmetry_Int_Tables_number   1
_chemical_formula_structural   Y10(IrRh)3
_chemical_formula_sum   'Y20 Ir6 Rh6'
_cell_volume   766.57708583
_cell_formula_units_Z   2
loop_
 _symmetry_equiv_pos_site_id
 _symmetry_equiv_pos_as_xyz
  1  'x, y, z'
loop_
 _atom_site_type_symbol
 _atom_site_label
 _atom_site_symmetry_multiplicity
 _atom_site_fract_x
 _atom_site_fract_y
 _atom_site_fract_z
 _atom_site_occupancy
  Y  Y0  1  0.290254  0.088909  0.379298  1
  Y  Y1  1  0.290254  0.911091  0.879298  1
  Y  Y2  1  0.708301  0.090144  0.878771  1
  Y  Y3  1  0.708301  0.909856  0.378771  1
  Y  Y4  1  0.587508  0.790063  0.879616  1
  Y  Y5  1  0.587508  0.209937  0.379616  1
  Y  Y6  1  0.410714  0.790442  0.379387  1
  Y  Y7  1  0.410714  0.209558  0.879387  1
  Y  Y8  1  0.209725  0.410839  0.620400  1
  Y  Y9  1  0.209725  0.589161  0.120400  1
  Y  Y10  1  0.790162  0.412472  0.120577  1
  Y  Y11  1  0.790162  0.587528  0.620577  1
  Y  Y12  1  0.911511  0.709063  0.121485  1
  Y  Y13  1  0.911511  0.290937  0.621485  1
  Y  Y14  1  0.090532  0.708998  0.620508  1
  Y  Y15  1  0.090532  0.291002  0.120508  1
  Y  Y16  1  0.000469  0.999849  0.500047  1
  Y  Y17  1  0.000469  0.000151  0.000047  1
  Y  Y18  1  0.500078  0.499745  0.999987  1
  Y  Y19  1  0.500078  0.500255  0.499987  1
  Ir  Ir20  1  0.153397  0.154118  0.749993  1
  Ir  Ir21  1  0.153397  0.845882  0.249993  1
  Ir  Ir22  1  0.654867  0.345392  0.749862  1
  Ir  Ir23  1  0.654867  0.654608  0.249862  1
  Ir  Ir24  1  0.346086  0.345816  0.250194  1
  Ir  Ir25  1  0.346086  0.654184  0.750194  1
  Rh  Rh26  1  0.845883  0.153520  0.249898  1
  Rh  Rh27  1  0.845883  0.846480  0.749898  1
  Rh  Rh28  1  0.500936  0.000034  0.124628  1
  Rh  Rh29  1  0.500936  0.999966  0.624628  1
  Rh  Rh30  1  0.999576  0.500135  0.875346  1
  Rh  Rh31  1  0.999576  0.499865  0.375346  1
