# generated using pymatgen
data_Pd2SCl12
_symmetry_space_group_name_H-M   'P 1'
_cell_length_a   8.58582801
_cell_length_b   11.23996000
_cell_length_c   9.37710665
_cell_angle_alpha   90.00000000
_cell_angle_beta   91.75114624
_cell_angle_gamma   90.00000000
_symmetry_Int_Tables_number   1
_chemical_formula_structural   Pd2SCl12
_chemical_formula_sum   'Pd4 S2 Cl24'
_cell_volume   904.50908629
_cell_formula_units_Z   2
loop_
 _symmetry_equiv_pos_site_id
 _symmetry_equiv_pos_as_xyz
  1  'x, y, z'
loop_
 _atom_site_type_symbol
 _atom_site_label
 _atom_site_symmetry_multiplicity
 _atom_site_fract_x
 _atom_site_fract_y
 _atom_site_fract_z
 _atom_site_occupancy
  Pd  Pd0  1  0.125340  0.750000  0.357538  1
  Pd  Pd1  1  0.635905  0.250000  0.385444  1
  Pd  Pd2  1  0.364095  0.750000  0.614556  1
  Pd  Pd3  1  0.874660  0.250000  0.642462  1
  S  S4  1  0.834125  0.750000  0.065399  1
  S  S5  1  0.165876  0.250000  0.934602  1
  Cl  Cl6  1  0.164049  0.110046  0.071871  1
  Cl  Cl7  1  0.164049  0.389954  0.071871  1
  Cl  Cl8  1  0.192253  0.750000  0.120323  1
  Cl  Cl9  1  0.610865  0.750000  0.126388  1
  Cl  Cl10  1  0.616050  0.105203  0.213796  1
  Cl  Cl11  1  0.616050  0.394797  0.213796  1
  Cl  Cl12  1  0.940823  0.603787  0.310146  1
  Cl  Cl13  1  0.940823  0.896212  0.310146  1
  Cl  Cl14  1  0.918634  0.250000  0.390536  1
  Cl  Cl15  1  0.323001  0.607935  0.422993  1
  Cl  Cl16  1  0.323001  0.892064  0.422993  1
  Cl  Cl17  1  0.371902  0.250000  0.410523  1
  Cl  Cl18  1  0.628098  0.750000  0.589477  1
  Cl  Cl19  1  0.676999  0.107936  0.577006  1
  Cl  Cl20  1  0.676999  0.392065  0.577006  1
  Cl  Cl21  1  0.081366  0.750000  0.609464  1
  Cl  Cl22  1  0.059176  0.103788  0.689854  1
  Cl  Cl23  1  0.059176  0.396213  0.689854  1
  Cl  Cl24  1  0.383950  0.605203  0.786204  1
  Cl  Cl25  1  0.383950  0.894797  0.786204  1
  Cl  Cl26  1  0.389136  0.250000  0.873612  1
  Cl  Cl27  1  0.807747  0.250000  0.879676  1
  Cl  Cl28  1  0.835952  0.610046  0.928129  1
  Cl  Cl29  1  0.835952  0.889954  0.928129  1
