# generated using pymatgen
data_CaTb2Yb(AlPd)4
_symmetry_space_group_name_H-M   'P 1'
_cell_length_a   4.34049800
_cell_length_b   7.04895943
_cell_length_c   7.93634299
_cell_angle_alpha   90.12849049
_cell_angle_beta   90.00000000
_cell_angle_gamma   90.00000000
_symmetry_Int_Tables_number   1
_chemical_formula_structural   CaTb2Yb(AlPd)4
_chemical_formula_sum   'Ca1 Tb2 Yb1 Al4 Pd4'
_cell_volume   242.81969437
_cell_formula_units_Z   1
loop_
 _symmetry_equiv_pos_site_id
 _symmetry_equiv_pos_as_xyz
  1  'x, y, z'
loop_
 _atom_site_type_symbol
 _atom_site_label
 _atom_site_symmetry_multiplicity
 _atom_site_fract_x
 _atom_site_fract_y
 _atom_site_fract_z
 _atom_site_occupancy
  Ca  Ca0  1  0.750000  0.968123  0.678860  1
  Tb  Tb1  1  0.250000  0.032964  0.321339  1
  Tb  Tb2  1  0.250000  0.532790  0.178515  1
  Yb  Yb3  1  0.750000  0.467517  0.822276  1
  Al  Al4  1  0.250000  0.137903  0.940159  1
  Al  Al5  1  0.250000  0.638678  0.559866  1
  Al  Al6  1  0.750000  0.861949  0.062620  1
  Al  Al7  1  0.750000  0.361674  0.437380  1
  Pd  Pd8  1  0.250000  0.277069  0.621137  1
  Pd  Pd9  1  0.250000  0.772338  0.880322  1
  Pd  Pd10  1  0.750000  0.723568  0.373187  1
  Pd  Pd11  1  0.750000  0.225429  0.124340  1
