# generated using pymatgen
data_Sm3Er3(Si3Ru)8
_symmetry_space_group_name_H-M   'P 1'
_cell_length_a   10.12983019
_cell_length_b   10.12983029
_cell_length_c   8.16136942
_cell_angle_alpha   90.09604997
_cell_angle_beta   89.90394833
_cell_angle_gamma   132.46205273
_symmetry_Int_Tables_number   1
_chemical_formula_structural   Sm3Er3(Si3Ru)8
_chemical_formula_sum   'Sm3 Er3 Si24 Ru8'
_cell_volume   617.81851751
_cell_formula_units_Z   1
loop_
 _symmetry_equiv_pos_site_id
 _symmetry_equiv_pos_as_xyz
  1  'x, y, z'
loop_
 _atom_site_type_symbol
 _atom_site_label
 _atom_site_symmetry_multiplicity
 _atom_site_fract_x
 _atom_site_fract_y
 _atom_site_fract_z
 _atom_site_occupancy
  Sm  Sm0  1  0.497486  0.997486  0.250000  1
  Sm  Sm1  1  0.002465  0.502465  0.750000  1
  Sm  Sm2  1  0.502881  0.002881  0.750000  1
  Er  Er3  1  0.997750  0.497750  0.250000  1
  Er  Er4  1  0.499918  0.499998  0.499682  1
  Er  Er5  1  0.999998  0.999918  0.000318  1
  Si  Si6  1  0.387468  0.154380  0.004839  1
  Si  Si7  1  0.654380  0.887468  0.495161  1
  Si  Si8  1  0.111775  0.343732  0.503480  1
  Si  Si9  1  0.843732  0.611775  0.996520  1
  Si  Si10  1  0.612706  0.845755  0.995135  1
  Si  Si11  1  0.345755  0.112706  0.504865  1
  Si  Si12  1  0.888232  0.655865  0.494033  1
  Si  Si13  1  0.155865  0.388232  0.005967  1
  Si  Si14  1  0.612581  0.379524  0.227773  1
  Si  Si15  1  0.879524  0.112581  0.272227  1
  Si  Si16  1  0.886800  0.120187  0.728895  1
  Si  Si17  1  0.620187  0.386800  0.771105  1
  Si  Si18  1  0.388257  0.621941  0.771511  1
  Si  Si19  1  0.121941  0.888257  0.728489  1
  Si  Si20  1  0.706605  0.295976  0.001489  1
  Si  Si21  1  0.795976  0.206605  0.498511  1
  Si  Si22  1  0.293467  0.704250  0.001496  1
  Si  Si23  1  0.204250  0.793467  0.498504  1
  Si  Si24  1  0.168183  0.168163  0.332913  1
  Si  Si25  1  0.668163  0.668183  0.167087  1
  Si  Si26  1  0.331874  0.331802  0.832765  1
  Si  Si27  1  0.831802  0.831874  0.667235  1
  Si  Si28  1  0.378485  0.611929  0.228276  1
  Si  Si29  1  0.111929  0.878485  0.271724  1
  Ru  Ru30  1  0.625661  0.625771  0.872928  1
  Ru  Ru31  1  0.125771  0.125661  0.627072  1
  Ru  Ru32  1  0.874145  0.874131  0.373203  1
  Ru  Ru33  1  0.374131  0.374145  0.126797  1
  Ru  Ru34  1  0.329444  0.665539  0.499167  1
  Ru  Ru35  1  0.165539  0.829444  0.000833  1
  Ru  Ru36  1  0.670539  0.334334  0.497982  1
  Ru  Ru37  1  0.834334  0.170539  0.002018  1
