# generated using pymatgen
data_TbGd3(TcC2)2
_symmetry_space_group_name_H-M   'P 1'
_cell_length_a   5.14920000
_cell_length_b   6.59097800
_cell_length_c   9.95473400
_cell_angle_alpha   90.00000000
_cell_angle_beta   90.00000000
_cell_angle_gamma   90.00000000
_symmetry_Int_Tables_number   1
_chemical_formula_structural   TbGd3(TcC2)2
_chemical_formula_sum   'Tb2 Gd6 Tc4 C8'
_cell_volume   337.84638972
_cell_formula_units_Z   2
loop_
 _symmetry_equiv_pos_site_id
 _symmetry_equiv_pos_as_xyz
  1  'x, y, z'
loop_
 _atom_site_type_symbol
 _atom_site_label
 _atom_site_symmetry_multiplicity
 _atom_site_fract_x
 _atom_site_fract_y
 _atom_site_fract_z
 _atom_site_occupancy
  Tb  Tb0  1  0.750000  0.968724  0.716029  1
  Tb  Tb1  1  0.250000  0.531276  0.216029  1
  Gd  Gd2  1  0.750000  0.818832  0.055547  1
  Gd  Gd3  1  0.250000  0.681168  0.555547  1
  Gd  Gd4  1  0.750000  0.319827  0.444562  1
  Gd  Gd5  1  0.250000  0.180173  0.944562  1
  Gd  Gd6  1  0.750000  0.468972  0.784410  1
  Gd  Gd7  1  0.250000  0.031028  0.284410  1
  Tc  Tc8  1  0.750000  0.279870  0.135674  1
  Tc  Tc9  1  0.250000  0.220130  0.635674  1
  Tc  Tc10  1  0.750000  0.779831  0.364093  1
  Tc  Tc11  1  0.250000  0.720169  0.864093  1
  C  C12  1  0.750000  0.180403  0.953917  1
  C  C13  1  0.250000  0.818789  0.046114  1
  C  C14  1  0.750000  0.681211  0.546114  1
  C  C15  1  0.250000  0.319597  0.453917  1
  C  C16  1  0.750000  0.045878  0.257747  1
  C  C17  1  0.250000  0.454122  0.757747  1
  C  C18  1  0.750000  0.545682  0.241908  1
  C  C19  1  0.250000  0.954318  0.741908  1
