# generated using pymatgen
data_Ti2Nb8Ge6B
_symmetry_space_group_name_H-M   'P 1'
_cell_length_a   7.69604700
_cell_length_b   7.69604707
_cell_length_c   5.31029700
_cell_angle_alpha   90.00000000
_cell_angle_beta   90.00000000
_cell_angle_gamma   120.00000401
_symmetry_Int_Tables_number   1
_chemical_formula_structural   Ti2Nb8Ge6B
_chemical_formula_sum   'Ti2 Nb8 Ge6 B1'
_cell_volume   272.38604384
_cell_formula_units_Z   1
loop_
 _symmetry_equiv_pos_site_id
 _symmetry_equiv_pos_as_xyz
  1  'x, y, z'
loop_
 _atom_site_type_symbol
 _atom_site_label
 _atom_site_symmetry_multiplicity
 _atom_site_fract_x
 _atom_site_fract_y
 _atom_site_fract_z
 _atom_site_occupancy
  Ti  Ti0  1  0.666667  0.333333  0.000000  1
  Ti  Ti1  1  0.333333  0.666667  0.000000  1
  Nb  Nb2  1  0.000000  0.757230  0.253255  1
  Nb  Nb3  1  0.242770  0.242770  0.253255  1
  Nb  Nb4  1  0.757230  0.000000  0.253255  1
  Nb  Nb5  1  0.000000  0.242770  0.746745  1
  Nb  Nb6  1  0.757230  0.757230  0.746745  1
  Nb  Nb7  1  0.242770  0.000000  0.746745  1
  Nb  Nb8  1  0.333333  0.666667  0.500000  1
  Nb  Nb9  1  0.666667  0.333333  0.500000  1
  Ge  Ge10  1  0.000000  0.398671  0.239439  1
  Ge  Ge11  1  0.601329  0.601329  0.239439  1
  Ge  Ge12  1  0.398671  0.000000  0.239439  1
  Ge  Ge13  1  0.000000  0.601329  0.760561  1
  Ge  Ge14  1  0.398671  0.398671  0.760561  1
  Ge  Ge15  1  0.601329  0.000000  0.760561  1
  B  B16  1  0.000000  0.000000  0.500000  1
