# generated using pymatgen
data_CaYbDyZn11
_symmetry_space_group_name_H-M   'P 1'
_cell_length_a   4.40120624
_cell_length_b   8.23122673
_cell_length_c   8.23122790
_cell_angle_alpha   65.68808828
_cell_angle_beta   74.49346100
_cell_angle_gamma   74.49346325
_symmetry_Int_Tables_number   1
_chemical_formula_structural   CaYbDyZn11
_chemical_formula_sum   'Ca1 Yb1 Dy1 Zn11'
_cell_volume   257.62473607
_cell_formula_units_Z   1
loop_
 _symmetry_equiv_pos_site_id
 _symmetry_equiv_pos_as_xyz
  1  'x, y, z'
loop_
 _atom_site_type_symbol
 _atom_site_label
 _atom_site_symmetry_multiplicity
 _atom_site_fract_x
 _atom_site_fract_y
 _atom_site_fract_z
 _atom_site_occupancy
  Ca  Ca0  1  0.999786  0.000214  0.000214  1
  Yb  Yb1  1  0.296582  0.703418  0.703418  1
  Dy  Dy2  1  0.704018  0.295982  0.295982  1
  Zn  Zn3  1  0.001058  0.498942  0.498942  1
  Zn  Zn4  1  0.499419  0.686187  0.314975  1
  Zn  Zn5  1  0.499419  0.314975  0.686187  1
  Zn  Zn6  1  0.663390  0.694245  0.978976  1
  Zn  Zn7  1  0.335841  0.307789  0.020530  1
  Zn  Zn8  1  0.663390  0.978976  0.694245  1
  Zn  Zn9  1  0.335841  0.020530  0.307789  1
  Zn  Zn10  1  0.865439  0.419793  0.849329  1
  Zn  Zn11  1  0.135191  0.576353  0.153266  1
  Zn  Zn12  1  0.865439  0.849329  0.419793  1
  Zn  Zn13  1  0.135191  0.153266  0.576353  1
