# generated using pymatgen
data_NdInSnI6
_symmetry_space_group_name_H-M   'P 1'
_cell_length_a   8.86628230
_cell_length_b   8.86621943
_cell_length_c   8.86634628
_cell_angle_alpha   55.31617994
_cell_angle_beta   55.31712203
_cell_angle_gamma   55.31689189
_symmetry_Int_Tables_number   1
_chemical_formula_structural   NdInSnI6
_chemical_formula_sum   'Nd1 In1 Sn1 I6'
_cell_volume   439.21192636
_cell_formula_units_Z   1
loop_
 _symmetry_equiv_pos_site_id
 _symmetry_equiv_pos_as_xyz
  1  'x, y, z'
loop_
 _atom_site_type_symbol
 _atom_site_label
 _atom_site_symmetry_multiplicity
 _atom_site_fract_x
 _atom_site_fract_y
 _atom_site_fract_z
 _atom_site_occupancy
  Nd  Nd0  1  0.999638  0.999646  0.999640  1
  In  In1  1  0.670196  0.670194  0.670198  1
  Sn  Sn2  1  0.331134  0.331136  0.331137  1
  I  I3  1  0.221442  0.596637  0.940660  1
  I  I4  1  0.596636  0.940659  0.221441  1
  I  I5  1  0.940657  0.221437  0.596635  1
  I  I6  1  0.750315  0.373623  0.116355  1
  I  I7  1  0.373615  0.116359  0.750320  1
  I  I8  1  0.116370  0.750310  0.373613  1
