# generated using pymatgen
data_Y2Ho6Ti12Si15As
_symmetry_space_group_name_H-M   'P 1'
_cell_length_a   7.05124719
_cell_length_b   7.04418380
_cell_length_c   12.95215013
_cell_angle_alpha   89.97363499
_cell_angle_beta   89.81910356
_cell_angle_gamma   89.92734363
_symmetry_Int_Tables_number   1
_chemical_formula_structural   Y2Ho6Ti12Si15As
_chemical_formula_sum   'Y2 Ho6 Ti12 Si15 As1'
_cell_volume   643.33314802
_cell_formula_units_Z   1
loop_
 _symmetry_equiv_pos_site_id
 _symmetry_equiv_pos_as_xyz
  1  'x, y, z'
loop_
 _atom_site_type_symbol
 _atom_site_label
 _atom_site_symmetry_multiplicity
 _atom_site_fract_x
 _atom_site_fract_y
 _atom_site_fract_z
 _atom_site_occupancy
  Y  Y0  1  0.341380  0.002385  0.466030  1
  Y  Y1  1  0.496844  0.841919  0.717540  1
  Ho  Ho2  1  0.502380  0.158952  0.216362  1
  Ho  Ho3  1  0.840645  0.497182  0.283228  1
  Ho  Ho4  1  0.158502  0.501516  0.783497  1
  Ho  Ho5  1  0.660369  0.995439  0.967589  1
  Ho  Ho6  1  0.999499  0.343688  0.531960  1
  Ho  Ho7  1  0.998044  0.659020  0.033529  1
  Ti  Ti8  1  0.325895  0.326510  0.999763  1
  Ti  Ti9  1  0.173022  0.826931  0.249815  1
  Ti  Ti10  1  0.824042  0.173876  0.750282  1
  Ti  Ti11  1  0.673567  0.672704  0.499910  1
  Ti  Ti12  1  0.153627  0.009104  0.875636  1
  Ti  Ti13  1  0.491923  0.651526  0.125768  1
  Ti  Ti14  1  0.509182  0.347948  0.627035  1
  Ti  Ti15  1  0.654168  0.494274  0.874907  1
  Ti  Ti16  1  0.347684  0.507658  0.373927  1
  Ti  Ti17  1  0.847545  0.992360  0.375675  1
  Ti  Ti18  1  0.007811  0.151620  0.124142  1
  Ti  Ti19  1  0.989753  0.844110  0.623290  1
  Si  Si20  1  0.368373  0.703037  0.933924  1
  Si  Si21  1  0.630584  0.298135  0.434351  1
  Si  Si22  1  0.702980  0.369277  0.066199  1
  Si  Si23  1  0.296922  0.629835  0.565891  1
  Si  Si24  1  0.797119  0.869262  0.184365  1
  Si  Si25  1  0.130417  0.203076  0.315771  1
  Si  Si26  1  0.870602  0.797669  0.815717  1
  Si  Si27  1  0.290875  0.952810  0.064544  1
  Si  Si28  1  0.547752  0.790170  0.314284  1
  Si  Si29  1  0.461083  0.211682  0.819567  1
  Si  Si30  1  0.791294  0.546690  0.685193  1
  Si  Si31  1  0.208891  0.452655  0.185361  1
  Si  Si32  1  0.709841  0.046783  0.564098  1
  Si  Si33  1  0.953429  0.290696  0.935519  1
  Si  Si34  1  0.046551  0.709323  0.434913  1
  As  As35  1  0.197404  0.130179  0.680420  1
