# generated using pymatgen
data_Dy6Y14Si15Pd
_symmetry_space_group_name_H-M   'P 1'
_cell_length_a   7.47032490
_cell_length_b   7.70624422
_cell_length_c   14.67748300
_cell_angle_alpha   89.82816246
_cell_angle_beta   89.45990114
_cell_angle_gamma   90.15706558
_symmetry_Int_Tables_number   1
_chemical_formula_structural   Dy6Y14Si15Pd
_chemical_formula_sum   'Dy6 Y14 Si15 Pd1'
_cell_volume   844.91093306
_cell_formula_units_Z   1
loop_
 _symmetry_equiv_pos_site_id
 _symmetry_equiv_pos_as_xyz
  1  'x, y, z'
loop_
 _atom_site_type_symbol
 _atom_site_label
 _atom_site_symmetry_multiplicity
 _atom_site_fract_x
 _atom_site_fract_y
 _atom_site_fract_z
 _atom_site_occupancy
  Dy  Dy0  1  0.819265  0.329669  0.120833  1
  Dy  Dy1  1  0.317441  0.178174  0.377026  1
  Dy  Dy2  1  0.322340  0.179392  0.123315  1
  Dy  Dy3  1  0.819058  0.320439  0.377626  1
  Dy  Dy4  1  0.177759  0.674795  0.878198  1
  Dy  Dy5  1  0.682215  0.820145  0.622333  1
  Y  Y6  1  0.648878  0.992487  0.249649  1
  Y  Y7  1  0.149515  0.510283  0.248069  1
  Y  Y8  1  0.848050  0.489178  0.753357  1
  Y  Y9  1  0.350007  0.010473  0.750431  1
  Y  Y10  1  0.975019  0.820656  0.100019  1
  Y  Y11  1  0.471140  0.683023  0.401330  1
  Y  Y12  1  0.524859  0.319156  0.899432  1
  Y  Y13  1  0.029666  0.182405  0.598739  1
  Y  Y14  1  0.027741  0.180142  0.900655  1
  Y  Y15  1  0.529942  0.317291  0.598542  1
  Y  Y16  1  0.474389  0.682301  0.099780  1
  Y  Y17  1  0.969181  0.817263  0.400174  1
  Y  Y18  1  0.678211  0.818416  0.879411  1
  Y  Y19  1  0.181748  0.679852  0.621368  1
  Si  Si20  1  0.765486  0.628436  0.251749  1
  Si  Si21  1  0.266421  0.873393  0.251052  1
  Si  Si22  1  0.733353  0.124401  0.748567  1
  Si  Si23  1  0.232348  0.373404  0.747174  1
  Si  Si24  1  0.021878  0.106512  0.250069  1
  Si  Si25  1  0.523776  0.395650  0.252058  1
  Si  Si26  1  0.473883  0.604959  0.747536  1
  Si  Si27  1  0.976523  0.893260  0.748572  1
  Si  Si28  1  0.355700  0.972034  0.540194  1
  Si  Si29  1  0.649289  0.029089  0.041358  1
  Si  Si30  1  0.146097  0.470157  0.459617  1
  Si  Si31  1  0.155452  0.470931  0.041609  1
  Si  Si32  1  0.644531  0.028972  0.459274  1
  Si  Si33  1  0.351534  0.969032  0.960961  1
  Si  Si34  1  0.855467  0.529272  0.539099  1
  Pd  Pd35  1  0.851832  0.524957  0.960824  1
