# generated using pymatgen
data_PrNd5Ho4(In2Pd)4
_symmetry_space_group_name_H-M   'P 1'
_cell_length_a   3.72536100
_cell_length_b   8.30460119
_cell_length_c   18.46894542
_cell_angle_alpha   90.02444780
_cell_angle_beta   90.00000000
_cell_angle_gamma   90.00000000
_symmetry_Int_Tables_number   1
_chemical_formula_structural   PrNd5Ho4(In2Pd)4
_chemical_formula_sum   'Pr1 Nd5 Ho4 In8 Pd4'
_cell_volume   571.38548438
_cell_formula_units_Z   1
loop_
 _symmetry_equiv_pos_site_id
 _symmetry_equiv_pos_as_xyz
  1  'x, y, z'
loop_
 _atom_site_type_symbol
 _atom_site_label
 _atom_site_symmetry_multiplicity
 _atom_site_fract_x
 _atom_site_fract_y
 _atom_site_fract_z
 _atom_site_occupancy
  Pr  Pr0  1  0.000000  0.500000  0.500000  1
  Nd  Nd1  1  0.000000  0.000000  0.000000  1
  Nd  Nd2  1  0.000000  0.736531  0.284849  1
  Nd  Nd3  1  0.000000  0.263469  0.715151  1
  Nd  Nd4  1  0.000000  0.763505  0.784873  1
  Nd  Nd5  1  0.000000  0.236495  0.215127  1
  Ho  Ho6  1  0.000000  0.617879  0.085082  1
  Ho  Ho7  1  0.000000  0.382121  0.914918  1
  Ho  Ho8  1  0.000000  0.882021  0.585095  1
  Ho  Ho9  1  0.000000  0.117979  0.414905  1
  In  In10  1  0.500000  0.696677  0.936692  1
  In  In11  1  0.500000  0.303323  0.063308  1
  In  In12  1  0.500000  0.804094  0.436484  1
  In  In13  1  0.500000  0.195906  0.563516  1
  In  In14  1  0.500000  0.589511  0.652388  1
  In  In15  1  0.500000  0.410489  0.347612  1
  In  In16  1  0.500000  0.910619  0.152085  1
  In  In17  1  0.500000  0.089381  0.847915  1
  Pd  Pd18  1  0.500000  0.524668  0.193284  1
  Pd  Pd19  1  0.500000  0.475332  0.806716  1
  Pd  Pd20  1  0.500000  0.975357  0.693352  1
  Pd  Pd21  1  0.500000  0.024643  0.306648  1
