# generated using pymatgen
data_Dy3Sn2SbIr3
_symmetry_space_group_name_H-M   'P 1'
_cell_length_a   7.44973107
_cell_length_b   7.44973103
_cell_length_c   4.00267400
_cell_angle_alpha   90.00000000
_cell_angle_beta   90.00000000
_cell_angle_gamma   119.95702445
_symmetry_Int_Tables_number   1
_chemical_formula_structural   Dy3Sn2SbIr3
_chemical_formula_sum   'Dy3 Sn2 Sb1 Ir3'
_cell_volume   192.46419543
_cell_formula_units_Z   1
loop_
 _symmetry_equiv_pos_site_id
 _symmetry_equiv_pos_as_xyz
  1  'x, y, z'
loop_
 _atom_site_type_symbol
 _atom_site_label
 _atom_site_symmetry_multiplicity
 _atom_site_fract_x
 _atom_site_fract_y
 _atom_site_fract_z
 _atom_site_occupancy
  Dy  Dy0  1  0.402293  0.402293  0.500000  1
  Dy  Dy1  1  0.595075  0.002315  0.500000  1
  Dy  Dy2  1  0.002315  0.595075  0.500000  1
  Sn  Sn3  1  0.260216  0.001155  0.000000  1
  Sn  Sn4  1  0.001155  0.260216  0.000000  1
  Sb  Sb5  1  0.739640  0.739640  0.000000  1
  Ir  Ir6  1  0.667176  0.334683  0.000000  1
  Ir  Ir7  1  0.334683  0.667176  0.000000  1
  Ir  Ir8  1  0.997448  0.997448  0.500000  1
