# generated using pymatgen
data_Yb11ErSi11Ag12Ge
_symmetry_space_group_name_H-M   'P 1'
_cell_length_a   4.51133900
_cell_length_b   7.71678645
_cell_length_c   21.26066817
_cell_angle_alpha   89.90882626
_cell_angle_beta   90.00000000
_cell_angle_gamma   90.00000000
_symmetry_Int_Tables_number   1
_chemical_formula_structural   Yb11ErSi11Ag12Ge
_chemical_formula_sum   'Yb11 Er1 Si11 Ag12 Ge1'
_cell_volume   740.14754737
_cell_formula_units_Z   1
loop_
 _symmetry_equiv_pos_site_id
 _symmetry_equiv_pos_as_xyz
  1  'x, y, z'
loop_
 _atom_site_type_symbol
 _atom_site_label
 _atom_site_symmetry_multiplicity
 _atom_site_fract_x
 _atom_site_fract_y
 _atom_site_fract_z
 _atom_site_occupancy
  Yb  Yb0  1  0.250000  0.220481  0.000201  1
  Yb  Yb1  1  0.250000  0.279067  0.500025  1
  Yb  Yb2  1  0.750000  0.777344  0.001148  1
  Yb  Yb3  1  0.750000  0.717800  0.499795  1
  Yb  Yb4  1  0.250000  0.204499  0.333452  1
  Yb  Yb5  1  0.250000  0.290225  0.832514  1
  Yb  Yb6  1  0.750000  0.795079  0.666598  1
  Yb  Yb7  1  0.750000  0.704859  0.166446  1
  Yb  Yb8  1  0.250000  0.209313  0.666509  1
  Yb  Yb9  1  0.250000  0.292731  0.166969  1
  Yb  Yb10  1  0.750000  0.792090  0.332834  1
  Er  Er11  1  0.750000  0.710102  0.833579  1
  Si  Si12  1  0.250000  0.582227  0.728091  1
  Si  Si13  1  0.250000  0.918754  0.224097  1
  Si  Si14  1  0.750000  0.418560  0.275668  1
  Si  Si15  1  0.750000  0.076544  0.775701  1
  Si  Si16  1  0.250000  0.913655  0.106157  1
  Si  Si17  1  0.250000  0.587138  0.608435  1
  Si  Si18  1  0.750000  0.084574  0.893512  1
  Si  Si19  1  0.750000  0.413087  0.393607  1
  Si  Si20  1  0.250000  0.594543  0.917228  1
  Si  Si21  1  0.250000  0.908949  0.428712  1
  Si  Si22  1  0.750000  0.410227  0.070329  1
  Ag  Ag23  1  0.250000  0.911771  0.762174  1
  Ag  Ag24  1  0.250000  0.587890  0.262333  1
  Ag  Ag25  1  0.750000  0.088505  0.238163  1
  Ag  Ag26  1  0.750000  0.411234  0.738598  1
  Ag  Ag27  1  0.250000  0.922069  0.906236  1
  Ag  Ag28  1  0.250000  0.581695  0.405754  1
  Ag  Ag29  1  0.750000  0.082680  0.094345  1
  Ag  Ag30  1  0.750000  0.426589  0.595285  1
  Ag  Ag31  1  0.250000  0.908396  0.564168  1
  Ag  Ag32  1  0.250000  0.583763  0.068015  1
  Ag  Ag33  1  0.750000  0.083619  0.432505  1
  Ag  Ag34  1  0.750000  0.416672  0.936474  1
  Ge  Ge35  1  0.750000  0.093268  0.574344  1
