# generated using pymatgen
data_CsNp3F12
_symmetry_space_group_name_H-M   'P 1'
_cell_length_a   6.87854876
_cell_length_b   6.87854966
_cell_length_c   6.87854900
_cell_angle_alpha   108.83870637
_cell_angle_beta   108.83870892
_cell_angle_gamma   110.74380092
_symmetry_Int_Tables_number   1
_chemical_formula_structural   CsNp3F12
_chemical_formula_sum   'Cs1 Np3 F12'
_cell_volume   250.44217579
_cell_formula_units_Z   1
loop_
 _symmetry_equiv_pos_site_id
 _symmetry_equiv_pos_as_xyz
  1  'x, y, z'
loop_
 _atom_site_type_symbol
 _atom_site_label
 _atom_site_symmetry_multiplicity
 _atom_site_fract_x
 _atom_site_fract_y
 _atom_site_fract_z
 _atom_site_occupancy
  Cs  Cs0  1  0.000000  0.000000  0.000000  1
  Np  Np1  1  0.251045  0.751200  0.500174  1
  Np  Np2  1  0.500000  0.500000  0.000000  1
  Np  Np3  1  0.748955  0.248800  0.499826  1
  F  F4  1  0.553144  0.381887  0.282938  1
  F  F5  1  0.268690  0.557096  0.173428  1
  F  F6  1  0.383652  0.094911  0.827103  1
  F  F7  1  0.099147  0.269852  0.716512  1
  F  F8  1  0.349376  0.047035  0.396519  1
  F  F9  1  0.957513  0.349882  0.306927  1
  F  F10  1  0.042487  0.650118  0.693073  1
  F  F11  1  0.650624  0.952965  0.603481  1
  F  F12  1  0.900853  0.730148  0.283488  1
  F  F13  1  0.616348  0.905089  0.172897  1
  F  F14  1  0.731310  0.442904  0.826572  1
  F  F15  1  0.446856  0.618113  0.717062  1
