# generated using pymatgen
data_Tm2Re2C3
_symmetry_space_group_name_H-M   'P 1'
_cell_length_a   6.00636813
_cell_length_b   6.00636790
_cell_length_c   5.61554410
_cell_angle_alpha   68.03181116
_cell_angle_beta   68.03180868
_cell_angle_gamma   31.69504388
_symmetry_Int_Tables_number   1
_chemical_formula_structural   Tm2Re2C3
_chemical_formula_sum   'Tm2 Re2 C3'
_cell_volume   98.06213898
_cell_formula_units_Z   1
loop_
 _symmetry_equiv_pos_site_id
 _symmetry_equiv_pos_as_xyz
  1  'x, y, z'
loop_
 _atom_site_type_symbol
 _atom_site_label
 _atom_site_symmetry_multiplicity
 _atom_site_fract_x
 _atom_site_fract_y
 _atom_site_fract_z
 _atom_site_occupancy
  Tm  Tm0  1  0.609444  0.609444  0.178223  1
  Tm  Tm1  1  0.390556  0.390556  0.821777  1
  Re  Re2  1  0.844168  0.844168  0.322493  1
  Re  Re3  1  0.155832  0.155832  0.677507  1
  C  C4  1  0.753558  0.753558  0.734489  1
  C  C5  1  0.246442  0.246442  0.265511  1
  C  C6  1  0.000000  0.000000  0.000000  1
