# generated using pymatgen
data_Tb20IrPt8Rh3
_symmetry_space_group_name_H-M   'P 1'
_cell_length_a   11.10609700
_cell_length_b   11.10609700
_cell_length_c   6.35923700
_cell_angle_alpha   90.00000000
_cell_angle_beta   90.00000000
_cell_angle_gamma   90.00000000
_symmetry_Int_Tables_number   1
_chemical_formula_structural   Tb20IrPt8Rh3
_chemical_formula_sum   'Tb20 Ir1 Pt8 Rh3'
_cell_volume   784.38257151
_cell_formula_units_Z   1
loop_
 _symmetry_equiv_pos_site_id
 _symmetry_equiv_pos_as_xyz
  1  'x, y, z'
loop_
 _atom_site_type_symbol
 _atom_site_label
 _atom_site_symmetry_multiplicity
 _atom_site_fract_x
 _atom_site_fract_y
 _atom_site_fract_z
 _atom_site_occupancy
  Tb  Tb0  1  0.293918  0.088370  0.375196  1
  Tb  Tb1  1  0.293986  0.911551  0.875159  1
  Tb  Tb2  1  0.706014  0.088449  0.875159  1
  Tb  Tb3  1  0.706082  0.911630  0.375196  1
  Tb  Tb4  1  0.588449  0.793986  0.875159  1
  Tb  Tb5  1  0.588370  0.206082  0.375196  1
  Tb  Tb6  1  0.411630  0.793918  0.375196  1
  Tb  Tb7  1  0.411551  0.206014  0.875159  1
  Tb  Tb8  1  0.205632  0.411800  0.623986  1
  Tb  Tb9  1  0.205682  0.588272  0.125939  1
  Tb  Tb10  1  0.794318  0.411728  0.125939  1
  Tb  Tb11  1  0.794368  0.588200  0.623986  1
  Tb  Tb12  1  0.911728  0.705682  0.125939  1
  Tb  Tb13  1  0.911800  0.294368  0.623986  1
  Tb  Tb14  1  0.088200  0.705632  0.623986  1
  Tb  Tb15  1  0.088272  0.294318  0.125939  1
  Tb  Tb16  1  0.000000  0.000000  0.499978  1
  Tb  Tb17  1  0.000000  0.000000  0.999933  1
  Tb  Tb18  1  0.500000  0.500000  0.999933  1
  Tb  Tb19  1  0.500000  0.500000  0.499978  1
  Ir  Ir20  1  0.000000  0.500000  0.380610  1
  Pt  Pt21  1  0.845678  0.153704  0.249793  1
  Pt  Pt22  1  0.845828  0.846089  0.749821  1
  Pt  Pt23  1  0.154172  0.153911  0.749821  1
  Pt  Pt24  1  0.154322  0.846296  0.249793  1
  Pt  Pt25  1  0.653911  0.345828  0.749821  1
  Pt  Pt26  1  0.653704  0.654322  0.249793  1
  Pt  Pt27  1  0.346296  0.345678  0.249793  1
  Pt  Pt28  1  0.346089  0.654172  0.749821  1
  Rh  Rh29  1  0.500000  0.000000  0.119574  1
  Rh  Rh30  1  0.500000  0.000000  0.619528  1
  Rh  Rh31  1  0.000000  0.500000  0.880890  1
