# generated using pymatgen
data_Na3Tb4YbTe8
_symmetry_space_group_name_H-M   'P 1'
_cell_length_a   8.93586231
_cell_length_b   8.93586381
_cell_length_c   8.93586178
_cell_angle_alpha   59.73278853
_cell_angle_beta   59.73278524
_cell_angle_gamma   59.73278766
_symmetry_Int_Tables_number   1
_chemical_formula_structural   Na3Tb4YbTe8
_chemical_formula_sum   'Na3 Tb4 Yb1 Te8'
_cell_volume   501.47688000
_cell_formula_units_Z   1
loop_
 _symmetry_equiv_pos_site_id
 _symmetry_equiv_pos_as_xyz
  1  'x, y, z'
loop_
 _atom_site_type_symbol
 _atom_site_label
 _atom_site_symmetry_multiplicity
 _atom_site_fract_x
 _atom_site_fract_y
 _atom_site_fract_z
 _atom_site_occupancy
  Na  Na0  1  0.125000  0.625000  0.125000  1
  Na  Na1  1  0.125000  0.125000  0.625000  1
  Na  Na2  1  0.625000  0.125000  0.125000  1
  Tb  Tb3  1  0.625000  0.125000  0.625000  1
  Tb  Tb4  1  0.625000  0.625000  0.625000  1
  Tb  Tb5  1  0.125000  0.625000  0.625000  1
  Tb  Tb6  1  0.625000  0.625000  0.125000  1
  Yb  Yb7  1  0.125000  0.125000  0.125000  1
  Te  Te8  1  0.377337  0.866841  0.377337  1
  Te  Te9  1  0.872663  0.383159  0.872663  1
  Te  Te10  1  0.872663  0.872663  0.383159  1
  Te  Te11  1  0.871260  0.871260  0.871260  1
  Te  Te12  1  0.866841  0.377337  0.377337  1
  Te  Te13  1  0.377337  0.377337  0.866841  1
  Te  Te14  1  0.378740  0.378740  0.378740  1
  Te  Te15  1  0.383159  0.872663  0.872663  1
