# generated using pymatgen
data_KPa2Se5
_symmetry_space_group_name_H-M   'P 1'
_cell_length_a   7.81139700
_cell_length_b   8.85162310
_cell_length_c   12.36188076
_cell_angle_alpha   89.77363195
_cell_angle_beta   90.00000000
_cell_angle_gamma   90.00000000
_symmetry_Int_Tables_number   1
_chemical_formula_structural   KPa2Se5
_chemical_formula_sum   'K4 Pa8 Se20'
_cell_volume   854.73755149
_cell_formula_units_Z   4
loop_
 _symmetry_equiv_pos_site_id
 _symmetry_equiv_pos_as_xyz
  1  'x, y, z'
loop_
 _atom_site_type_symbol
 _atom_site_label
 _atom_site_symmetry_multiplicity
 _atom_site_fract_x
 _atom_site_fract_y
 _atom_site_fract_z
 _atom_site_occupancy
  K  K0  1  0.054876  0.490250  0.332100  1
  K  K1  1  0.554876  0.509750  0.167900  1
  K  K2  1  0.945124  0.509750  0.667900  1
  K  K3  1  0.445124  0.490250  0.832100  1
  Pa  Pa4  1  0.026122  0.998934  0.318303  1
  Pa  Pa5  1  0.526122  0.001066  0.181697  1
  Pa  Pa6  1  0.973878  0.001066  0.681697  1
  Pa  Pa7  1  0.473878  0.998934  0.818303  1
  Pa  Pa8  1  0.070441  0.748260  0.008187  1
  Pa  Pa9  1  0.570441  0.251740  0.491813  1
  Pa  Pa10  1  0.929559  0.251740  0.991813  1
  Pa  Pa11  1  0.429559  0.748260  0.508187  1
  Se  Se12  1  0.663607  0.955453  0.403503  1
  Se  Se13  1  0.163607  0.044547  0.096497  1
  Se  Se14  1  0.336393  0.044547  0.596497  1
  Se  Se15  1  0.836393  0.955453  0.903503  1
  Se  Se16  1  0.450272  0.794595  0.002588  1
  Se  Se17  1  0.950272  0.205405  0.497412  1
  Se  Se18  1  0.549728  0.205405  0.997412  1
  Se  Se19  1  0.049728  0.794595  0.502588  1
  Se  Se20  1  0.836262  0.790255  0.184741  1
  Se  Se21  1  0.336262  0.209745  0.315259  1
  Se  Se22  1  0.163738  0.209745  0.815259  1
  Se  Se23  1  0.663738  0.790255  0.684741  1
  Se  Se24  1  0.308964  0.779399  0.284910  1
  Se  Se25  1  0.808964  0.220601  0.215090  1
  Se  Se26  1  0.691036  0.220601  0.715090  1
  Se  Se27  1  0.191036  0.779399  0.784910  1
  Se  Se28  1  0.175303  0.459894  0.073001  1
  Se  Se29  1  0.675303  0.540106  0.426999  1
  Se  Se30  1  0.824697  0.540106  0.926999  1
  Se  Se31  1  0.324697  0.459894  0.573001  1
