# generated using pymatgen
data_Er3Co8
_symmetry_space_group_name_H-M   'P 1'
_cell_length_a   7.53243811
_cell_length_b   7.53243773
_cell_length_c   7.53243800
_cell_angle_alpha   109.47121599
_cell_angle_beta   109.47121497
_cell_angle_gamma   109.47122351
_symmetry_Int_Tables_number   1
_chemical_formula_structural   Er3Co8
_chemical_formula_sum   'Er6 Co16'
_cell_volume   328.99162049
_cell_formula_units_Z   2
loop_
 _symmetry_equiv_pos_site_id
 _symmetry_equiv_pos_as_xyz
  1  'x, y, z'
loop_
 _atom_site_type_symbol
 _atom_site_label
 _atom_site_symmetry_multiplicity
 _atom_site_fract_x
 _atom_site_fract_y
 _atom_site_fract_z
 _atom_site_occupancy
  Er  Er0  1  0.716759  0.716759  0.000000  1
  Er  Er1  1  0.283241  0.000000  0.283241  1
  Er  Er2  1  0.000000  0.283241  0.283241  1
  Er  Er3  1  0.283241  0.283241  0.000000  1
  Er  Er4  1  0.716759  0.000000  0.716759  1
  Er  Er5  1  0.000000  0.716759  0.716759  1
  Co  Co6  1  0.000000  0.000000  0.500000  1
  Co  Co7  1  0.000000  0.500000  0.000000  1
  Co  Co8  1  0.500000  0.000000  0.000000  1
  Co  Co9  1  0.500000  0.500000  0.500000  1
  Co  Co10  1  0.336198  0.336198  0.672394  1
  Co  Co11  1  0.663802  0.000000  0.336198  1
  Co  Co12  1  0.000000  0.663802  0.336198  1
  Co  Co13  1  0.663802  0.336198  0.000000  1
  Co  Co14  1  0.336198  0.672394  0.336198  1
  Co  Co15  1  0.000000  0.336198  0.663802  1
  Co  Co16  1  0.336198  0.663802  0.000000  1
  Co  Co17  1  0.336198  0.000000  0.663802  1
  Co  Co18  1  0.672394  0.336198  0.336198  1
  Co  Co19  1  0.663802  0.663802  0.327606  1
  Co  Co20  1  0.663802  0.327606  0.663802  1
  Co  Co21  1  0.327606  0.663802  0.663802  1
