# generated using pymatgen
data_Sr4TaVO8
_symmetry_space_group_name_H-M   'P 1'
_cell_length_a   6.95698493
_cell_length_b   6.95698485
_cell_length_c   5.64985400
_cell_angle_alpha   90.00000000
_cell_angle_beta   90.00000000
_cell_angle_gamma   131.76319240
_symmetry_Int_Tables_number   1
_chemical_formula_structural   Sr4TaVO8
_chemical_formula_sum   'Sr4 Ta1 V1 O8'
_cell_volume   203.96812419
_cell_formula_units_Z   1
loop_
 _symmetry_equiv_pos_site_id
 _symmetry_equiv_pos_as_xyz
  1  'x, y, z'
loop_
 _atom_site_type_symbol
 _atom_site_label
 _atom_site_symmetry_multiplicity
 _atom_site_fract_x
 _atom_site_fract_y
 _atom_site_fract_z
 _atom_site_occupancy
  Sr  Sr0  1  0.647596  0.352404  0.000000  1
  Sr  Sr1  1  0.144303  0.855697  0.500000  1
  Sr  Sr2  1  0.855697  0.144303  0.500000  1
  Sr  Sr3  1  0.352404  0.647596  0.000000  1
  Ta  Ta4  1  0.500000  0.500000  0.500000  1
  V  V5  1  0.000000  0.000000  0.000000  1
  O  O6  1  0.746566  0.746566  0.746207  1
  O  O7  1  0.253434  0.253434  0.253793  1
  O  O8  1  0.253434  0.253434  0.746207  1
  O  O9  1  0.746566  0.746566  0.253793  1
  O  O10  1  0.838885  0.161115  0.000000  1
  O  O11  1  0.339485  0.660515  0.500000  1
  O  O12  1  0.660515  0.339485  0.500000  1
  O  O13  1  0.161115  0.838885  0.000000  1
