# generated using pymatgen
data_Tb8TaTi3(Si2W)8
_symmetry_space_group_name_H-M   'P 1'
_cell_length_a   6.93403775
_cell_length_b   6.93403755
_cell_length_c   12.86666934
_cell_angle_alpha   89.97369861
_cell_angle_beta   90.02629881
_cell_angle_gamma   89.97446421
_symmetry_Int_Tables_number   1
_chemical_formula_structural   Tb8TaTi3(Si2W)8
_chemical_formula_sum   'Tb8 Ta1 Ti3 Si16 W8'
_cell_volume   618.64056916
_cell_formula_units_Z   1
loop_
 _symmetry_equiv_pos_site_id
 _symmetry_equiv_pos_as_xyz
  1  'x, y, z'
loop_
 _atom_site_type_symbol
 _atom_site_label
 _atom_site_symmetry_multiplicity
 _atom_site_fract_x
 _atom_site_fract_y
 _atom_site_fract_z
 _atom_site_occupancy
  Tb  Tb0  1  0.338664  0.001729  0.468645  1
  Tb  Tb1  1  0.498342  0.837807  0.718265  1
  Tb  Tb2  1  0.500708  0.161476  0.218352  1
  Tb  Tb3  1  0.837807  0.498342  0.281735  1
  Tb  Tb4  1  0.161476  0.500708  0.781648  1
  Tb  Tb5  1  0.661630  0.998500  0.968868  1
  Tb  Tb6  1  0.001729  0.338664  0.531355  1
  Tb  Tb7  1  0.998500  0.661630  0.031132  1
  Ta  Ta8  1  0.331230  0.331230  0.000000  1
  Ti  Ti9  1  0.168709  0.831904  0.249779  1
  Ti  Ti10  1  0.831904  0.168709  0.750221  1
  Ti  Ti11  1  0.669007  0.669007  0.500000  1
  Si  Si12  1  0.200457  0.126842  0.682970  1
  Si  Si13  1  0.374059  0.702847  0.932241  1
  Si  Si14  1  0.627047  0.298811  0.433640  1
  Si  Si15  1  0.702847  0.374059  0.067759  1
  Si  Si16  1  0.298811  0.627047  0.566360  1
  Si  Si17  1  0.798105  0.873170  0.183955  1
  Si  Si18  1  0.126842  0.200457  0.317030  1
  Si  Si19  1  0.873170  0.798105  0.816045  1
  Si  Si20  1  0.289169  0.958623  0.064135  1
  Si  Si21  1  0.540052  0.790463  0.313976  1
  Si  Si22  1  0.461189  0.208816  0.812141  1
  Si  Si23  1  0.790463  0.540052  0.686024  1
  Si  Si24  1  0.208816  0.461189  0.187859  1
  Si  Si25  1  0.710219  0.040304  0.563662  1
  Si  Si26  1  0.958623  0.289169  0.935865  1
  Si  Si27  1  0.040304  0.710219  0.436338  1
  W  W28  1  0.161047  0.006005  0.874072  1
  W  W29  1  0.493246  0.661690  0.124450  1
  W  W30  1  0.506622  0.339463  0.624289  1
  W  W31  1  0.661690  0.493246  0.875550  1
  W  W32  1  0.339463  0.506622  0.375711  1
  W  W33  1  0.838912  0.993138  0.374608  1
  W  W34  1  0.006005  0.161047  0.125928  1
  W  W35  1  0.993138  0.838912  0.625392  1
