# generated using pymatgen
data_LuInBPt6
_symmetry_space_group_name_H-M   'P 1'
_cell_length_a   5.88858098
_cell_length_b   5.88858057
_cell_length_c   5.88858100
_cell_angle_alpha   60.00000319
_cell_angle_beta   60.00000549
_cell_angle_gamma   60.00000137
_symmetry_Int_Tables_number   1
_chemical_formula_structural   LuInBPt6
_chemical_formula_sum   'Lu1 In1 B1 Pt6'
_cell_volume   144.38329929
_cell_formula_units_Z   1
loop_
 _symmetry_equiv_pos_site_id
 _symmetry_equiv_pos_as_xyz
  1  'x, y, z'
loop_
 _atom_site_type_symbol
 _atom_site_label
 _atom_site_symmetry_multiplicity
 _atom_site_fract_x
 _atom_site_fract_y
 _atom_site_fract_z
 _atom_site_occupancy
  Lu  Lu0  1  0.250000  0.250000  0.250000  1
  In  In1  1  0.750000  0.750000  0.750000  1
  B  B2  1  0.499999  0.499999  0.499999  1
  Pt  Pt3  1  0.243975  0.756024  0.243975  1
  Pt  Pt4  1  0.756024  0.756024  0.243975  1
  Pt  Pt5  1  0.756024  0.243975  0.243975  1
  Pt  Pt6  1  0.243975  0.243975  0.756024  1
  Pt  Pt7  1  0.756024  0.243975  0.756024  1
  Pt  Pt8  1  0.243975  0.756024  0.756024  1
