# generated using pymatgen
data_Y2Al20ReRuRh2
_symmetry_space_group_name_H-M   'P 1'
_cell_length_a   6.87990925
_cell_length_b   6.87088117
_cell_length_c   9.18234739
_cell_angle_alpha   90.71797946
_cell_angle_beta   90.47754368
_cell_angle_gamma   96.83190358
_symmetry_Int_Tables_number   1
_chemical_formula_structural   Y2Al20ReRuRh2
_chemical_formula_sum   'Y2 Al20 Re1 Ru1 Rh2'
_cell_volume   430.92209082
_cell_formula_units_Z   1
loop_
 _symmetry_equiv_pos_site_id
 _symmetry_equiv_pos_as_xyz
  1  'x, y, z'
loop_
 _atom_site_type_symbol
 _atom_site_label
 _atom_site_symmetry_multiplicity
 _atom_site_fract_x
 _atom_site_fract_y
 _atom_site_fract_z
 _atom_site_occupancy
  Y  Y0  1  0.872773  0.130619  0.751016  1
  Y  Y1  1  0.127227  0.869381  0.248984  1
  Al  Al2  1  0.620644  0.376477  0.549112  1
  Al  Al3  1  0.379356  0.623523  0.450888  1
  Al  Al4  1  0.376503  0.620444  0.048760  1
  Al  Al5  1  0.623497  0.379556  0.951240  1
  Al  Al6  1  0.224817  0.223373  0.499599  1
  Al  Al7  1  0.775183  0.776627  0.500401  1
  Al  Al8  1  0.775845  0.776111  0.000543  1
  Al  Al9  1  0.224155  0.223889  0.999457  1
  Al  Al10  1  0.844893  0.157109  0.100907  1
  Al  Al11  1  0.155107  0.842891  0.899093  1
  Al  Al12  1  0.158110  0.845310  0.601421  1
  Al  Al13  1  0.841890  0.154690  0.398579  1
  Al  Al14  1  0.857206  0.588676  0.749633  1
  Al  Al15  1  0.142794  0.411324  0.250367  1
  Al  Al16  1  0.411737  0.142110  0.749397  1
  Al  Al17  1  0.588263  0.857890  0.250603  1
  Al  Al18  1  0.221382  0.480017  0.753321  1
  Al  Al19  1  0.778618  0.519983  0.246679  1
  Al  Al20  1  0.519500  0.778375  0.746200  1
  Al  Al21  1  0.480500  0.221625  0.253800  1
  Re  Re22  1  0.000000  0.500000  0.000000  1
  Ru  Ru23  1  0.500000  0.000000  0.500000  1
  Rh  Rh24  1  0.000000  0.500000  0.500000  1
  Rh  Rh25  1  0.500000  0.000000  0.000000  1
