# generated using pymatgen
data_Na16HfTiSb8
_symmetry_space_group_name_H-M   'P 1'
_cell_length_a   10.42495182
_cell_length_b   10.42496466
_cell_length_c   10.42495559
_cell_angle_alpha   60.19700104
_cell_angle_beta   60.19705170
_cell_angle_gamma   60.19700761
_symmetry_Int_Tables_number   1
_chemical_formula_structural   Na16HfTiSb8
_chemical_formula_sum   'Na16 Hf1 Ti1 Sb8'
_cell_volume   804.71314798
_cell_formula_units_Z   1
loop_
 _symmetry_equiv_pos_site_id
 _symmetry_equiv_pos_as_xyz
  1  'x, y, z'
loop_
 _atom_site_type_symbol
 _atom_site_label
 _atom_site_symmetry_multiplicity
 _atom_site_fract_x
 _atom_site_fract_y
 _atom_site_fract_z
 _atom_site_occupancy
  Na  Na0  1  0.623332  0.129985  0.623332  1
  Na  Na1  1  0.623332  0.623332  0.129986  1
  Na  Na2  1  0.129985  0.623332  0.623332  1
  Na  Na3  1  0.623314  0.623314  0.623314  1
  Na  Na4  1  0.025459  0.025459  0.474629  1
  Na  Na5  1  0.774349  0.225489  0.225489  1
  Na  Na6  1  0.225650  0.774513  0.774513  1
  Na  Na7  1  0.774512  0.774512  0.225650  1
  Na  Na8  1  0.774513  0.225651  0.774512  1
  Na  Na9  1  0.225489  0.774349  0.225489  1
  Na  Na10  1  0.474553  0.025245  0.474553  1
  Na  Na11  1  0.474630  0.025459  0.025459  1
  Na  Na12  1  0.025243  0.474555  0.474555  1
  Na  Na13  1  0.025459  0.474629  0.025460  1
  Na  Na14  1  0.225489  0.225489  0.774348  1
  Na  Na15  1  0.474557  0.474556  0.025242  1
  Hf  Hf16  1  0.750000  0.750000  0.750000  1
  Ti  Ti17  1  0.499963  0.499963  0.499964  1
  Sb  Sb18  1  0.420714  0.859917  0.859916  1
  Sb  Sb19  1  0.860021  0.860021  0.860022  1
  Sb  Sb20  1  0.818543  0.393715  0.393716  1
  Sb  Sb21  1  0.393628  0.393627  0.393628  1
  Sb  Sb22  1  0.393715  0.393715  0.818544  1
  Sb  Sb23  1  0.859917  0.420715  0.859917  1
  Sb  Sb24  1  0.859916  0.859917  0.420714  1
  Sb  Sb25  1  0.393715  0.818543  0.393715  1
