# generated using pymatgen
data_Tb4CeHgPd14
_symmetry_space_group_name_H-M   'P 1'
_cell_length_a   4.18016400
_cell_length_b   4.13100800
_cell_length_c   20.91287900
_cell_angle_alpha   90.00000000
_cell_angle_beta   90.00000000
_cell_angle_gamma   90.00000000
_symmetry_Int_Tables_number   1
_chemical_formula_structural   Tb4CeHgPd14
_chemical_formula_sum   'Tb4 Ce1 Hg1 Pd14'
_cell_volume   361.12967866
_cell_formula_units_Z   1
loop_
 _symmetry_equiv_pos_site_id
 _symmetry_equiv_pos_as_xyz
  1  'x, y, z'
loop_
 _atom_site_type_symbol
 _atom_site_label
 _atom_site_symmetry_multiplicity
 _atom_site_fract_x
 _atom_site_fract_y
 _atom_site_fract_z
 _atom_site_occupancy
  Tb  Tb0  1  0.000000  0.000000  0.197398  1
  Tb  Tb1  1  0.000000  0.000000  0.389729  1
  Tb  Tb2  1  0.000000  0.000000  0.610271  1
  Tb  Tb3  1  0.000000  0.000000  0.802602  1
  Ce  Ce4  1  0.000000  0.000000  0.000000  1
  Hg  Hg5  1  0.500000  0.000000  0.500000  1
  Pd  Pd6  1  0.500000  0.500000  0.000000  1
  Pd  Pd7  1  0.500000  0.500000  0.198787  1
  Pd  Pd8  1  0.500000  0.500000  0.397127  1
  Pd  Pd9  1  0.500000  0.500000  0.602873  1
  Pd  Pd10  1  0.500000  0.500000  0.801213  1
  Pd  Pd11  1  0.500000  0.000000  0.098691  1
  Pd  Pd12  1  0.500000  0.000000  0.297042  1
  Pd  Pd13  1  0.500000  0.000000  0.702958  1
  Pd  Pd14  1  0.500000  0.000000  0.901309  1
  Pd  Pd15  1  0.000000  0.500000  0.098455  1
  Pd  Pd16  1  0.000000  0.500000  0.297160  1
  Pd  Pd17  1  0.000000  0.500000  0.500000  1
  Pd  Pd18  1  0.000000  0.500000  0.702840  1
  Pd  Pd19  1  0.000000  0.500000  0.901545  1
