# generated using pymatgen
data_Nb12AlCo12Re
_symmetry_space_group_name_H-M   'P 1'
_cell_length_a   4.94837857
_cell_length_b   4.94837793
_cell_length_c   17.68639523
_cell_angle_alpha   98.04161970
_cell_angle_beta   98.04161976
_cell_angle_gamma   59.99999741
_symmetry_Int_Tables_number   1
_chemical_formula_structural   Nb12AlCo12Re
_chemical_formula_sum   'Nb12 Al1 Co12 Re1'
_cell_volume   370.13012128
_cell_formula_units_Z   1
loop_
 _symmetry_equiv_pos_site_id
 _symmetry_equiv_pos_as_xyz
  1  'x, y, z'
loop_
 _atom_site_type_symbol
 _atom_site_label
 _atom_site_symmetry_multiplicity
 _atom_site_fract_x
 _atom_site_fract_y
 _atom_site_fract_z
 _atom_site_occupancy
  Nb  Nb0  1  0.415868  0.415868  0.247605  1
  Nb  Nb1  1  0.917463  0.917463  0.752387  1
  Nb  Nb2  1  0.082537  0.082537  0.247613  1
  Nb  Nb3  1  0.584132  0.584132  0.752395  1
  Nb  Nb4  1  0.773732  0.773732  0.321197  1
  Nb  Nb5  1  0.275754  0.275754  0.827261  1
  Nb  Nb6  1  0.724246  0.724246  0.172739  1
  Nb  Nb7  1  0.226268  0.226268  0.678803  1
  Nb  Nb8  1  0.826841  0.826841  0.480521  1
  Nb  Nb9  1  0.327519  0.327519  0.982556  1
  Nb  Nb10  1  0.672481  0.672481  0.017444  1
  Nb  Nb11  1  0.173159  0.173159  0.519479  1
  Al  Al12  1  0.000000  0.000000  0.000000  1
  Co  Co13  1  0.702610  0.205782  0.114173  1
  Co  Co14  1  0.199566  0.708031  0.615630  1
  Co  Co15  1  0.205782  0.205782  0.114173  1
  Co  Co16  1  0.708031  0.708031  0.615630  1
  Co  Co17  1  0.205782  0.702610  0.114173  1
  Co  Co18  1  0.708031  0.199566  0.615630  1
  Co  Co19  1  0.800434  0.291969  0.384370  1
  Co  Co20  1  0.297390  0.794218  0.885827  1
  Co  Co21  1  0.291969  0.291969  0.384370  1
  Co  Co22  1  0.794218  0.794218  0.885827  1
  Co  Co23  1  0.291969  0.800434  0.384370  1
  Co  Co24  1  0.794218  0.297390  0.885827  1
  Re  Re25  1  0.500000  0.500000  0.500000  1
