# generated using pymatgen
data_LiMg4V(SbPt)6
_symmetry_space_group_name_H-M   'P 1'
_cell_length_a   7.70455454
_cell_length_b   7.70600565
_cell_length_c   7.72061803
_cell_angle_alpha   99.61603109
_cell_angle_beta   99.63001241
_cell_angle_gamma   119.98688073
_symmetry_Int_Tables_number   1
_chemical_formula_structural   LiMg4V(SbPt)6
_chemical_formula_sum   'Li1 Mg4 V1 Sb6 Pt6'
_cell_volume   374.18720112
_cell_formula_units_Z   1
loop_
 _symmetry_equiv_pos_site_id
 _symmetry_equiv_pos_as_xyz
  1  'x, y, z'
loop_
 _atom_site_type_symbol
 _atom_site_label
 _atom_site_symmetry_multiplicity
 _atom_site_fract_x
 _atom_site_fract_y
 _atom_site_fract_z
 _atom_site_occupancy
  Li  Li0  1  0.830448  0.668236  0.997061  1
  Mg  Mg1  1  0.331636  0.165504  0.501536  1
  Mg  Mg2  1  0.003299  0.501584  0.502074  1
  Mg  Mg3  1  0.163165  0.330455  0.996635  1
  Mg  Mg4  1  0.501772  0.997590  0.996637  1
  V  V5  1  0.667139  0.834565  0.503544  1
  Sb  Sb6  1  0.917093  0.079648  0.246306  1
  Sb  Sb7  1  0.243597  0.749045  0.247484  1
  Sb  Sb8  1  0.585206  0.417307  0.246723  1
  Sb  Sb9  1  0.088598  0.913533  0.750782  1
  Sb  Sb10  1  0.751002  0.264852  0.751420  1
  Sb  Sb11  1  0.416410  0.578152  0.760401  1
  Pt  Pt12  1  0.212262  0.044604  0.125550  1
  Pt  Pt13  1  0.875079  0.372892  0.126620  1
  Pt  Pt14  1  0.544026  0.713647  0.143940  1
  Pt  Pt15  1  0.022050  0.189859  0.618699  1
  Pt  Pt16  1  0.392947  0.873038  0.619326  1
  Pt  Pt17  1  0.704267  0.555488  0.615261  1
