# generated using pymatgen
data_Ce4FeSi6Au
_symmetry_space_group_name_H-M   'P 1'
_cell_length_a   8.19373800
_cell_length_b   8.19373827
_cell_length_c   4.15668100
_cell_angle_alpha   90.00000000
_cell_angle_beta   90.00000000
_cell_angle_gamma   120.00000696
_symmetry_Int_Tables_number   1
_chemical_formula_structural   Ce4FeSi6Au
_chemical_formula_sum   'Ce4 Fe1 Si6 Au1'
_cell_volume   241.68041505
_cell_formula_units_Z   1
loop_
 _symmetry_equiv_pos_site_id
 _symmetry_equiv_pos_as_xyz
  1  'x, y, z'
loop_
 _atom_site_type_symbol
 _atom_site_label
 _atom_site_symmetry_multiplicity
 _atom_site_fract_x
 _atom_site_fract_y
 _atom_site_fract_z
 _atom_site_occupancy
  Ce  Ce0  1  0.510710  0.489290  0.000000  1
  Ce  Ce1  1  0.978580  0.489290  0.000000  1
  Ce  Ce2  1  0.510710  0.021420  0.000000  1
  Ce  Ce3  1  0.000000  0.000000  0.000000  1
  Fe  Fe4  1  0.666667  0.333333  0.500000  1
  Si  Si5  1  0.829042  0.658085  0.500000  1
  Si  Si6  1  0.161213  0.838787  0.500000  1
  Si  Si7  1  0.677573  0.838787  0.500000  1
  Si  Si8  1  0.161213  0.322427  0.500000  1
  Si  Si9  1  0.829042  0.170958  0.500000  1
  Si  Si10  1  0.341915  0.170958  0.500000  1
  Au  Au11  1  0.333333  0.666667  0.500000  1
