# generated using pymatgen
data_BaNb8VS16
_symmetry_space_group_name_H-M   'P 1'
_cell_length_a   6.73409900
_cell_length_b   6.73410028
_cell_length_c   14.12169700
_cell_angle_alpha   90.00000000
_cell_angle_beta   90.00000000
_cell_angle_gamma   119.99999860
_symmetry_Int_Tables_number   1
_chemical_formula_structural   BaNb8VS16
_chemical_formula_sum   'Ba1 Nb8 V1 S16'
_cell_volume   554.59583423
_cell_formula_units_Z   1
loop_
 _symmetry_equiv_pos_site_id
 _symmetry_equiv_pos_as_xyz
  1  'x, y, z'
loop_
 _atom_site_type_symbol
 _atom_site_label
 _atom_site_symmetry_multiplicity
 _atom_site_fract_x
 _atom_site_fract_y
 _atom_site_fract_z
 _atom_site_occupancy
  Ba  Ba0  1  0.000000  0.000000  0.000000  1
  Nb  Nb1  1  0.000000  0.000000  0.280712  1
  Nb  Nb2  1  0.000000  0.000000  0.719288  1
  Nb  Nb3  1  0.504181  0.008362  0.283681  1
  Nb  Nb4  1  0.495819  0.991638  0.716319  1
  Nb  Nb5  1  0.991638  0.495819  0.283681  1
  Nb  Nb6  1  0.008362  0.504181  0.716319  1
  Nb  Nb7  1  0.504181  0.495819  0.283681  1
  Nb  Nb8  1  0.495819  0.504181  0.716319  1
  V  V9  1  0.000000  0.000000  0.500000  1
  S  S10  1  0.333333  0.666667  0.605271  1
  S  S11  1  0.666667  0.333333  0.394729  1
  S  S12  1  0.666667  0.333333  0.170100  1
  S  S13  1  0.333333  0.666667  0.829900  1
  S  S14  1  0.169176  0.338352  0.172112  1
  S  S15  1  0.830824  0.661648  0.827888  1
  S  S16  1  0.661648  0.830824  0.172112  1
  S  S17  1  0.835378  0.670756  0.606755  1
  S  S18  1  0.338352  0.169176  0.827888  1
  S  S19  1  0.164622  0.329244  0.393245  1
  S  S20  1  0.169176  0.830824  0.172112  1
  S  S21  1  0.329244  0.164622  0.606755  1
  S  S22  1  0.830824  0.169176  0.827888  1
  S  S23  1  0.670756  0.835378  0.393245  1
  S  S24  1  0.835378  0.164622  0.606755  1
  S  S25  1  0.164622  0.835378  0.393245  1
