# generated using pymatgen
data_MnOs3Pb4O13
_symmetry_space_group_name_H-M   'P 1'
_cell_length_a   7.43768598
_cell_length_b   7.37904202
_cell_length_c   7.43768600
_cell_angle_alpha   59.73675301
_cell_angle_beta   59.99999992
_cell_angle_gamma   59.73675304
_symmetry_Int_Tables_number   1
_chemical_formula_structural   MnOs3Pb4O13
_chemical_formula_sum   'Mn1 Os3 Pb4 O13'
_cell_volume   287.48891709
_cell_formula_units_Z   1
loop_
 _symmetry_equiv_pos_site_id
 _symmetry_equiv_pos_as_xyz
  1  'x, y, z'
loop_
 _atom_site_type_symbol
 _atom_site_label
 _atom_site_symmetry_multiplicity
 _atom_site_fract_x
 _atom_site_fract_y
 _atom_site_fract_z
 _atom_site_occupancy
  Mn  Mn0  1  0.874846  0.375461  0.874846  1
  Os  Os1  1  0.874585  0.874771  0.376060  1
  Os  Os2  1  0.874585  0.874771  0.874585  1
  Os  Os3  1  0.376060  0.874771  0.874585  1
  Pb  Pb4  1  0.877462  0.377000  0.372769  1
  Pb  Pb5  1  0.372769  0.377000  0.372769  1
  Pb  Pb6  1  0.372769  0.377000  0.877462  1
  Pb  Pb7  1  0.370553  0.888342  0.370553  1
  O  O8  1  0.193955  0.820064  0.792026  1
  O  O9  1  0.193955  0.820064  0.193955  1
  O  O10  1  0.563097  0.921670  0.952136  1
  O  O11  1  0.563097  0.921670  0.563097  1
  O  O12  1  0.952136  0.921670  0.563097  1
  O  O13  1  0.792026  0.820064  0.193955  1
  O  O14  1  0.531405  0.558436  0.955079  1
  O  O15  1  0.794928  0.190363  0.794928  1
  O  O16  1  0.794928  0.190363  0.219780  1
  O  O17  1  0.955079  0.558436  0.955079  1
  O  O18  1  0.955079  0.558436  0.531405  1
  O  O19  1  0.219780  0.190363  0.794928  1
  O  O20  1  0.496907  0.509279  0.496907  1
