# generated using pymatgen
data_Zn8GePt3O16
_symmetry_space_group_name_H-M   'P 1'
_cell_length_a   6.12079800
_cell_length_b   6.12065208
_cell_length_c   8.58331142
_cell_angle_alpha   89.55194481
_cell_angle_beta   90.00000000
_cell_angle_gamma   90.00000000
_symmetry_Int_Tables_number   1
_chemical_formula_structural   Zn8GePt3O16
_chemical_formula_sum   'Zn8 Ge1 Pt3 O16'
_cell_volume   321.54912407
_cell_formula_units_Z   1
loop_
 _symmetry_equiv_pos_site_id
 _symmetry_equiv_pos_as_xyz
  1  'x, y, z'
loop_
 _atom_site_type_symbol
 _atom_site_label
 _atom_site_symmetry_multiplicity
 _atom_site_fract_x
 _atom_site_fract_y
 _atom_site_fract_z
 _atom_site_occupancy
  Zn  Zn0  1  0.999530  0.233988  0.997672  1
  Zn  Zn1  1  0.999530  0.766012  0.502328  1
  Zn  Zn2  1  0.256020  0.249378  0.627484  1
  Zn  Zn3  1  0.256020  0.750622  0.872516  1
  Zn  Zn4  1  0.230009  0.000000  0.250000  1
  Zn  Zn5  1  0.767651  0.000000  0.750000  1
  Zn  Zn6  1  0.746046  0.252437  0.376955  1
  Zn  Zn7  1  0.746046  0.747563  0.123045  1
  Ge  Ge8  1  0.766859  0.500000  0.750000  1
  Pt  Pt9  1  0.244102  0.500000  0.250000  1
  Pt  Pt10  1  0.501345  0.748823  0.503138  1
  Pt  Pt11  1  0.501345  0.251177  0.996862  1
  O  O12  1  0.530944  0.731509  0.738733  1
  O  O13  1  0.530944  0.268491  0.761267  1
  O  O14  1  0.740224  0.979823  0.507711  1
  O  O15  1  0.740224  0.020177  0.992289  1
  O  O16  1  0.740093  0.513898  0.524188  1
  O  O17  1  0.740093  0.486102  0.975812  1
  O  O18  1  0.976029  0.727954  0.750543  1
  O  O19  1  0.976029  0.272046  0.749457  1
  O  O20  1  0.012753  0.738937  0.256705  1
  O  O21  1  0.012753  0.261063  0.243295  1
  O  O22  1  0.254073  0.520937  0.487879  1
  O  O23  1  0.254073  0.479063  0.012121  1
  O  O24  1  0.262178  0.980775  0.496782  1
  O  O25  1  0.262178  0.019225  0.003218  1
  O  O26  1  0.476454  0.744193  0.264089  1
  O  O27  1  0.476454  0.255807  0.235911  1
