# generated using pymatgen
data_Li3Al(FePd5)2
_symmetry_space_group_name_H-M   'P 1'
_cell_length_a   4.09875600
_cell_length_b   5.33653954
_cell_length_c   10.39648078
_cell_angle_alpha   88.57035325
_cell_angle_beta   90.00000000
_cell_angle_gamma   90.00000000
_symmetry_Int_Tables_number   1
_chemical_formula_structural   Li3Al(FePd5)2
_chemical_formula_sum   'Li3 Al1 Fe2 Pd10'
_cell_volume   227.33323992
_cell_formula_units_Z   1
loop_
 _symmetry_equiv_pos_site_id
 _symmetry_equiv_pos_as_xyz
  1  'x, y, z'
loop_
 _atom_site_type_symbol
 _atom_site_label
 _atom_site_symmetry_multiplicity
 _atom_site_fract_x
 _atom_site_fract_y
 _atom_site_fract_z
 _atom_site_occupancy
  Li  Li0  1  0.000000  0.000000  0.000000  1
  Li  Li1  1  0.500000  0.163780  0.363753  1
  Li  Li2  1  0.500000  0.836220  0.636247  1
  Al  Al3  1  0.000000  0.500000  0.500000  1
  Fe  Fe4  1  0.500000  0.666444  0.137834  1
  Fe  Fe5  1  0.500000  0.333556  0.862166  1
  Pd  Pd6  1  0.500000  0.179567  0.106111  1
  Pd  Pd7  1  0.500000  0.820433  0.893889  1
  Pd  Pd8  1  0.500000  0.675369  0.389126  1
  Pd  Pd9  1  0.500000  0.324631  0.610874  1
  Pd  Pd10  1  0.000000  0.000000  0.500000  1
  Pd  Pd11  1  0.000000  0.500000  0.000000  1
  Pd  Pd12  1  0.000000  0.894048  0.235286  1
  Pd  Pd13  1  0.000000  0.105952  0.764714  1
  Pd  Pd14  1  0.000000  0.393071  0.262056  1
  Pd  Pd15  1  0.000000  0.606929  0.737944  1
