# generated using pymatgen
data_Hf3Zr7BeGaSb6
_symmetry_space_group_name_H-M   'P 1'
_cell_length_a   8.62370400
_cell_length_b   8.62370299
_cell_length_c   5.81543700
_cell_angle_alpha   90.00000000
_cell_angle_beta   90.00000000
_cell_angle_gamma   120.00001153
_symmetry_Int_Tables_number   1
_chemical_formula_structural   Hf3Zr7BeGaSb6
_chemical_formula_sum   'Hf3 Zr7 Be1 Ga1 Sb6'
_cell_volume   374.54203742
_cell_formula_units_Z   1
loop_
 _symmetry_equiv_pos_site_id
 _symmetry_equiv_pos_as_xyz
  1  'x, y, z'
loop_
 _atom_site_type_symbol
 _atom_site_label
 _atom_site_symmetry_multiplicity
 _atom_site_fract_x
 _atom_site_fract_y
 _atom_site_fract_z
 _atom_site_occupancy
  Hf  Hf0  1  0.333333  0.666667  0.000000  1
  Hf  Hf1  1  0.333333  0.666667  0.500000  1
  Hf  Hf2  1  0.666667  0.333333  0.500000  1
  Zr  Zr3  1  0.739183  0.739536  0.761187  1
  Zr  Zr4  1  0.260464  0.999647  0.761187  1
  Zr  Zr5  1  0.000353  0.260817  0.761187  1
  Zr  Zr6  1  0.260464  0.260817  0.238813  1
  Zr  Zr7  1  0.739183  0.999647  0.238813  1
  Zr  Zr8  1  0.000353  0.739536  0.238813  1
  Zr  Zr9  1  0.666667  0.333333  0.000000  1
  Be  Be10  1  0.000000  0.000000  0.000000  1
  Ga  Ga11  1  0.000000  0.000000  0.500000  1
  Sb  Sb12  1  0.390647  0.391260  0.746174  1
  Sb  Sb13  1  0.608740  0.999386  0.746174  1
  Sb  Sb14  1  0.000614  0.609353  0.746174  1
  Sb  Sb15  1  0.608740  0.609353  0.253826  1
  Sb  Sb16  1  0.390647  0.999386  0.253826  1
  Sb  Sb17  1  0.000614  0.391260  0.253826  1
