# generated using pymatgen
data_Tb2DyIn3HgIr2
_symmetry_space_group_name_H-M   'P 1'
_cell_length_a   7.81892115
_cell_length_b   7.82037607
_cell_length_c   3.88145100
_cell_angle_alpha   90.00000000
_cell_angle_beta   90.00000000
_cell_angle_gamma   120.01607366
_symmetry_Int_Tables_number   1
_chemical_formula_structural   Tb2DyIn3HgIr2
_chemical_formula_sum   'Tb2 Dy1 In3 Hg1 Ir2'
_cell_volume   205.50805360
_cell_formula_units_Z   1
loop_
 _symmetry_equiv_pos_site_id
 _symmetry_equiv_pos_as_xyz
  1  'x, y, z'
loop_
 _atom_site_type_symbol
 _atom_site_label
 _atom_site_symmetry_multiplicity
 _atom_site_fract_x
 _atom_site_fract_y
 _atom_site_fract_z
 _atom_site_occupancy
  Tb  Tb0  1  0.584799  0.614784  0.000000  1
  Tb  Tb1  1  0.385165  0.970028  0.000000  1
  Dy  Dy2  1  0.030396  0.415163  0.000000  1
  In  In3  1  0.001630  0.745019  0.500000  1
  In  In4  1  0.254629  0.256603  0.500000  1
  In  In5  1  0.743663  0.998505  0.500000  1
  Hg  Hg6  1  0.666977  0.333397  0.500000  1
  Ir  Ir7  1  0.000022  0.000307  0.000000  1
  Ir  Ir8  1  0.332718  0.666193  0.500000  1
