# generated using pymatgen
data_Ce12Si5AgRu6
_symmetry_space_group_name_H-M   'P 1'
_cell_length_a   7.68389900
_cell_length_b   7.68389811
_cell_length_c   9.75472100
_cell_angle_alpha   90.00000000
_cell_angle_beta   90.00000000
_cell_angle_gamma   119.99999951
_symmetry_Int_Tables_number   1
_chemical_formula_structural   Ce12Si5AgRu6
_chemical_formula_sum   'Ce12 Si5 Ag1 Ru6'
_cell_volume   498.77965628
_cell_formula_units_Z   1
loop_
 _symmetry_equiv_pos_site_id
 _symmetry_equiv_pos_as_xyz
  1  'x, y, z'
loop_
 _atom_site_type_symbol
 _atom_site_label
 _atom_site_symmetry_multiplicity
 _atom_site_fract_x
 _atom_site_fract_y
 _atom_site_fract_z
 _atom_site_occupancy
  Ce  Ce0  1  0.000000  0.593352  0.502976  1
  Ce  Ce1  1  0.593352  0.000000  0.502976  1
  Ce  Ce2  1  0.406648  0.406648  0.502976  1
  Ce  Ce3  1  0.000000  0.413229  0.005752  1
  Ce  Ce4  1  0.413229  0.000000  0.005752  1
  Ce  Ce5  1  0.586771  0.586771  0.005752  1
  Ce  Ce6  1  0.000000  0.733479  0.177010  1
  Ce  Ce7  1  0.733479  0.000000  0.177010  1
  Ce  Ce8  1  0.266521  0.266521  0.177010  1
  Ce  Ce9  1  0.000000  0.261753  0.672113  1
  Ce  Ce10  1  0.261753  0.000000  0.672113  1
  Ce  Ce11  1  0.738247  0.738247  0.672113  1
  Si  Si12  1  0.666667  0.333333  0.275080  1
  Si  Si13  1  0.333333  0.666667  0.275080  1
  Si  Si14  1  0.333333  0.666667  0.770182  1
  Si  Si15  1  0.666667  0.333333  0.770182  1
  Si  Si16  1  0.000000  0.000000  0.418800  1
  Ag  Ag17  1  0.000000  0.000000  0.925652  1
  Ru  Ru18  1  0.000000  0.340058  0.339626  1
  Ru  Ru19  1  0.340058  0.000000  0.339626  1
  Ru  Ru20  1  0.659942  0.659942  0.339626  1
  Ru  Ru21  1  0.000000  0.641621  0.833948  1
  Ru  Ru22  1  0.641621  0.000000  0.833948  1
  Ru  Ru23  1  0.358379  0.358379  0.833948  1
