# generated using pymatgen
data_Sc2B2SbRuRh4
_symmetry_space_group_name_H-M   'P 1'
_cell_length_a   9.41290000
_cell_length_b   9.41290000
_cell_length_c   3.19892000
_cell_angle_alpha   90.00000000
_cell_angle_beta   90.00000000
_cell_angle_gamma   90.00000000
_symmetry_Int_Tables_number   1
_chemical_formula_structural   Sc2B2SbRuRh4
_chemical_formula_sum   'Sc4 B4 Sb2 Ru2 Rh8'
_cell_volume   283.43290561
_cell_formula_units_Z   2
loop_
 _symmetry_equiv_pos_site_id
 _symmetry_equiv_pos_as_xyz
  1  'x, y, z'
loop_
 _atom_site_type_symbol
 _atom_site_label
 _atom_site_symmetry_multiplicity
 _atom_site_fract_x
 _atom_site_fract_y
 _atom_site_fract_z
 _atom_site_occupancy
  Sc  Sc0  1  0.672170  0.172170  0.000000  1
  Sc  Sc1  1  0.327830  0.827830  0.000000  1
  Sc  Sc2  1  0.172170  0.327830  0.000000  1
  Sc  Sc3  1  0.827830  0.672170  0.000000  1
  B  B4  1  0.121396  0.621396  0.000000  1
  B  B5  1  0.878604  0.378604  0.000000  1
  B  B6  1  0.621396  0.878604  0.000000  1
  B  B7  1  0.378604  0.121396  0.000000  1
  Sb  Sb8  1  0.500000  0.500000  0.000000  1
  Sb  Sb9  1  0.000000  0.000000  0.000000  1
  Ru  Ru10  1  0.500000  0.000000  0.500000  1
  Ru  Ru11  1  0.000000  0.500000  0.500000  1
  Rh  Rh12  1  0.573826  0.720339  0.500000  1
  Rh  Rh13  1  0.426174  0.279661  0.500000  1
  Rh  Rh14  1  0.073826  0.779661  0.500000  1
  Rh  Rh15  1  0.926174  0.220339  0.500000  1
  Rh  Rh16  1  0.279661  0.573826  0.500000  1
  Rh  Rh17  1  0.720339  0.426174  0.500000  1
  Rh  Rh18  1  0.220339  0.073826  0.500000  1
  Rh  Rh19  1  0.779661  0.926174  0.500000  1
