# generated using pymatgen
data_Tb3Ho9Ga2(TcNi)2
_symmetry_space_group_name_H-M   'P 1'
_cell_length_a   8.34631268
_cell_length_b   8.34628410
_cell_length_c   8.34628300
_cell_angle_alpha   104.31203330
_cell_angle_beta   111.07593853
_cell_angle_gamma   113.15312404
_symmetry_Int_Tables_number   1
_chemical_formula_structural   Tb3Ho9Ga2(TcNi)2
_chemical_formula_sum   'Tb3 Ho9 Ga2 Tc2 Ni2'
_cell_volume   444.71871557
_cell_formula_units_Z   1
loop_
 _symmetry_equiv_pos_site_id
 _symmetry_equiv_pos_as_xyz
  1  'x, y, z'
loop_
 _atom_site_type_symbol
 _atom_site_label
 _atom_site_symmetry_multiplicity
 _atom_site_fract_x
 _atom_site_fract_y
 _atom_site_fract_z
 _atom_site_occupancy
  Tb  Tb0  1  0.961314  0.781328  0.179987  1
  Tb  Tb1  1  0.038589  0.218771  0.819817  1
  Tb  Tb2  1  0.399498  0.219073  0.180426  1
  Ho  Ho3  1  0.690399  0.256586  0.947425  1
  Ho  Ho4  1  0.309813  0.742935  0.052224  1
  Ho  Ho5  1  0.690399  0.742975  0.433814  1
  Ho  Ho6  1  0.309813  0.257589  0.566877  1
  Ho  Ho7  1  0.815253  0.147631  0.332204  1
  Ho  Ho8  1  0.815253  0.483049  0.667622  1
  Ho  Ho9  1  0.185112  0.852052  0.667695  1
  Ho  Ho10  1  0.185112  0.517417  0.333059  1
  Ho  Ho11  1  0.600662  0.780779  0.819882  1
  Ga  Ga12  1  0.500367  0.500583  0.999784  1
  Ga  Ga13  1  0.499945  0.999982  0.499963  1
  Tc  Tc14  1  0.821174  0.500043  0.321131  1
  Tc  Tc15  1  0.179082  0.500219  0.678863  1
  Ni  Ni16  1  0.999107  0.117132  0.117253  1
  Ni  Ni17  1  0.999107  0.881854  0.881975  1
