# generated using pymatgen
data_CeNd7Zn8Ir7Rh
_symmetry_space_group_name_H-M   'P 1'
_cell_length_a   4.00723100
_cell_length_b   7.35833577
_cell_length_c   16.59844776
_cell_angle_alpha   89.98758532
_cell_angle_beta   90.00000000
_cell_angle_gamma   90.00000000
_symmetry_Int_Tables_number   1
_chemical_formula_structural   CeNd7Zn8Ir7Rh
_chemical_formula_sum   'Ce1 Nd7 Zn8 Ir7 Rh1'
_cell_volume   489.43096798
_cell_formula_units_Z   1
loop_
 _symmetry_equiv_pos_site_id
 _symmetry_equiv_pos_as_xyz
  1  'x, y, z'
loop_
 _atom_site_type_symbol
 _atom_site_label
 _atom_site_symmetry_multiplicity
 _atom_site_fract_x
 _atom_site_fract_y
 _atom_site_fract_z
 _atom_site_occupancy
  Ce  Ce0  1  0.750000  0.328125  0.439940  1
  Nd  Nd1  1  0.250000  0.168102  0.939175  1
  Nd  Nd2  1  0.250000  0.666051  0.560854  1
  Nd  Nd3  1  0.750000  0.952266  0.283859  1
  Nd  Nd4  1  0.750000  0.833877  0.061155  1
  Nd  Nd5  1  0.750000  0.454426  0.216833  1
  Nd  Nd6  1  0.250000  0.049525  0.715791  1
  Nd  Nd7  1  0.250000  0.548082  0.783122  1
  Zn  Zn8  1  0.750000  0.998085  0.559676  1
  Zn  Zn9  1  0.250000  0.622019  0.349145  1
  Zn  Zn10  1  0.750000  0.376759  0.649881  1
  Zn  Zn11  1  0.250000  0.498816  0.060069  1
  Zn  Zn12  1  0.750000  0.500171  0.939958  1
  Zn  Zn13  1  0.250000  0.992764  0.438999  1
  Zn  Zn14  1  0.250000  0.122240  0.150603  1
  Zn  Zn15  1  0.750000  0.875119  0.848548  1
  Ir  Ir16  1  0.750000  0.751125  0.434735  1
  Ir  Ir17  1  0.250000  0.252506  0.321937  1
  Ir  Ir18  1  0.750000  0.256341  0.812301  1
  Ir  Ir19  1  0.750000  0.758311  0.687580  1
  Ir  Ir20  1  0.250000  0.247722  0.558487  1
  Ir  Ir21  1  0.250000  0.747903  0.185999  1
  Ir  Ir22  1  0.750000  0.256333  0.066178  1
  Rh  Rh23  1  0.250000  0.743330  0.935177  1
