# generated using pymatgen
data_Mg2Ga2NiRu
_symmetry_space_group_name_H-M   'P 1'
_cell_length_a   5.12516200
_cell_length_b   5.23519508
_cell_length_c   8.28979600
_cell_angle_alpha   90.00000000
_cell_angle_beta   90.00000000
_cell_angle_gamma   121.58087618
_symmetry_Int_Tables_number   1
_chemical_formula_structural   Mg2Ga2NiRu
_chemical_formula_sum   'Mg4 Ga4 Ni2 Ru2'
_cell_volume   189.48456334
_cell_formula_units_Z   2
loop_
 _symmetry_equiv_pos_site_id
 _symmetry_equiv_pos_as_xyz
  1  'x, y, z'
loop_
 _atom_site_type_symbol
 _atom_site_label
 _atom_site_symmetry_multiplicity
 _atom_site_fract_x
 _atom_site_fract_y
 _atom_site_fract_z
 _atom_site_occupancy
  Mg  Mg0  1  0.678612  0.330557  0.070572  1
  Mg  Mg1  1  0.321388  0.669443  0.929428  1
  Mg  Mg2  1  0.321388  0.669443  0.570572  1
  Mg  Mg3  1  0.678612  0.330557  0.429428  1
  Ga  Ga4  1  0.379514  0.192447  0.750000  1
  Ga  Ga5  1  0.620486  0.807553  0.250000  1
  Ga  Ga6  1  0.000000  0.000000  0.500000  1
  Ga  Ga7  1  0.000000  0.000000  0.000000  1
  Ni  Ni8  1  0.857889  0.669723  0.750000  1
  Ni  Ni9  1  0.142111  0.330277  0.250000  1
  Ru  Ru10  1  0.853420  0.172475  0.750000  1
  Ru  Ru11  1  0.146580  0.827525  0.250000  1
