# generated using pymatgen
data_Cs4OsRuBr12
_symmetry_space_group_name_H-M   'P 1'
_cell_length_a   7.72763700
_cell_length_b   7.72763700
_cell_length_c   11.07824600
_cell_angle_alpha   90.00000000
_cell_angle_beta   90.00000000
_cell_angle_gamma   90.00000000
_symmetry_Int_Tables_number   1
_chemical_formula_structural   Cs4OsRuBr12
_chemical_formula_sum   'Cs4 Os1 Ru1 Br12'
_cell_volume   661.55267701
_cell_formula_units_Z   1
loop_
 _symmetry_equiv_pos_site_id
 _symmetry_equiv_pos_as_xyz
  1  'x, y, z'
loop_
 _atom_site_type_symbol
 _atom_site_label
 _atom_site_symmetry_multiplicity
 _atom_site_fract_x
 _atom_site_fract_y
 _atom_site_fract_z
 _atom_site_occupancy
  Cs  Cs0  1  0.500000  0.000000  0.744797  1
  Cs  Cs1  1  0.000000  0.500000  0.255203  1
  Cs  Cs2  1  0.500000  0.000000  0.255203  1
  Cs  Cs3  1  0.000000  0.500000  0.744797  1
  Os  Os4  1  0.000000  0.000000  0.000000  1
  Ru  Ru5  1  0.500000  0.500000  0.500000  1
  Br  Br6  1  0.000000  0.000000  0.772955  1
  Br  Br7  1  0.500000  0.500000  0.271355  1
  Br  Br8  1  0.730373  0.730373  0.500000  1
  Br  Br9  1  0.229297  0.229297  0.000000  1
  Br  Br10  1  0.730373  0.269627  0.500000  1
  Br  Br11  1  0.229297  0.770703  0.000000  1
  Br  Br12  1  0.000000  0.000000  0.227045  1
  Br  Br13  1  0.500000  0.500000  0.728645  1
  Br  Br14  1  0.269627  0.269627  0.500000  1
  Br  Br15  1  0.770703  0.770703  0.000000  1
  Br  Br16  1  0.269627  0.730373  0.500000  1
  Br  Br17  1  0.770703  0.229297  0.000000  1
