# generated using pymatgen
data_Pr5(PtO6)2
_symmetry_space_group_name_H-M   'P 1'
_cell_length_a   7.18671138
_cell_length_b   7.18671194
_cell_length_c   7.60200625
_cell_angle_alpha   74.60379877
_cell_angle_beta   74.60380093
_cell_angle_gamma   50.95226359
_symmetry_Int_Tables_number   1
_chemical_formula_structural   Pr5(PtO6)2
_chemical_formula_sum   'Pr5 Pt2 O12'
_cell_volume   291.44405022
_cell_formula_units_Z   1
loop_
 _symmetry_equiv_pos_site_id
 _symmetry_equiv_pos_as_xyz
  1  'x, y, z'
loop_
 _atom_site_type_symbol
 _atom_site_label
 _atom_site_symmetry_multiplicity
 _atom_site_fract_x
 _atom_site_fract_y
 _atom_site_fract_z
 _atom_site_occupancy
  Pr  Pr0  1  0.302015  0.302015  0.358627  1
  Pr  Pr1  1  0.697985  0.697985  0.641373  1
  Pr  Pr2  1  0.696070  0.696070  0.163293  1
  Pr  Pr3  1  0.303930  0.303930  0.836707  1
  Pr  Pr4  1  0.000000  0.000000  0.500000  1
  Pt  Pt5  1  0.753074  0.246926  0.000000  1
  Pt  Pt6  1  0.246926  0.753074  0.000000  1
  O  O7  1  0.095423  0.599263  0.575637  1
  O  O8  1  0.999422  0.999422  0.172572  1
  O  O9  1  0.400737  0.904577  0.424363  1
  O  O10  1  0.500165  0.500165  0.174910  1
  O  O11  1  0.100036  0.574774  0.080921  1
  O  O12  1  0.904577  0.400737  0.424363  1
  O  O13  1  0.000578  0.000578  0.827428  1
  O  O14  1  0.599263  0.095422  0.575637  1
  O  O15  1  0.499835  0.499835  0.825090  1
  O  O16  1  0.574774  0.100036  0.080921  1
  O  O17  1  0.425226  0.899964  0.919079  1
  O  O18  1  0.899964  0.425226  0.919079  1
