# generated using pymatgen
data_Tm8Ti11NbSi16
_symmetry_space_group_name_H-M   'P 1'
_cell_length_a   7.00614439
_cell_length_b   7.00614455
_cell_length_c   12.87575900
_cell_angle_alpha   89.96408375
_cell_angle_beta   90.03591627
_cell_angle_gamma   90.01508641
_symmetry_Int_Tables_number   1
_chemical_formula_structural   Tm8Ti11NbSi16
_chemical_formula_sum   'Tm8 Ti11 Nb1 Si16'
_cell_volume   632.02001337
_cell_formula_units_Z   1
loop_
 _symmetry_equiv_pos_site_id
 _symmetry_equiv_pos_as_xyz
  1  'x, y, z'
loop_
 _atom_site_type_symbol
 _atom_site_label
 _atom_site_symmetry_multiplicity
 _atom_site_fract_x
 _atom_site_fract_y
 _atom_site_fract_z
 _atom_site_occupancy
  Tm  Tm0  1  0.340937  0.002442  0.466724  1
  Tm  Tm1  1  0.497685  0.840730  0.716862  1
  Tm  Tm2  1  0.501735  0.158644  0.216481  1
  Tm  Tm3  1  0.840730  0.497685  0.283138  1
  Tm  Tm4  1  0.158644  0.501735  0.783519  1
  Tm  Tm5  1  0.658199  0.998416  0.966625  1
  Tm  Tm6  1  0.002442  0.340937  0.533276  1
  Tm  Tm7  1  0.998416  0.658199  0.033375  1
  Ti  Ti8  1  0.173388  0.826813  0.250101  1
  Ti  Ti9  1  0.826813  0.173388  0.749899  1
  Ti  Ti10  1  0.672880  0.672880  0.500000  1
  Ti  Ti11  1  0.152550  0.008309  0.875876  1
  Ti  Ti12  1  0.492051  0.650587  0.124943  1
  Ti  Ti13  1  0.507693  0.349039  0.625535  1
  Ti  Ti14  1  0.650587  0.492051  0.875057  1
  Ti  Ti15  1  0.349039  0.507693  0.374465  1
  Ti  Ti16  1  0.848418  0.992689  0.375652  1
  Ti  Ti17  1  0.008309  0.152550  0.124124  1
  Ti  Ti18  1  0.992689  0.848418  0.624348  1
  Nb  Nb19  1  0.326873  0.326873  0.000000  1
  Si  Si20  1  0.202983  0.131415  0.683349  1
  Si  Si21  1  0.368546  0.703986  0.933243  1
  Si  Si22  1  0.631478  0.297179  0.433601  1
  Si  Si23  1  0.703986  0.368546  0.066757  1
  Si  Si24  1  0.297179  0.631478  0.566399  1
  Si  Si25  1  0.797047  0.868535  0.183725  1
  Si  Si26  1  0.131415  0.202983  0.316651  1
  Si  Si27  1  0.868535  0.797047  0.816275  1
  Si  Si28  1  0.291490  0.951949  0.064935  1
  Si  Si29  1  0.546823  0.791644  0.314836  1
  Si  Si30  1  0.454028  0.207401  0.813223  1
  Si  Si31  1  0.791644  0.546823  0.685164  1
  Si  Si32  1  0.207401  0.454028  0.186777  1
  Si  Si33  1  0.708493  0.046926  0.564601  1
  Si  Si34  1  0.951949  0.291490  0.935065  1
  Si  Si35  1  0.046926  0.708493  0.435399  1
