# generated using pymatgen
data_Tb7Ho3(Tl3Br)2
_symmetry_space_group_name_H-M   'P 1'
_cell_length_a   9.20781800
_cell_length_b   9.20781774
_cell_length_c   6.62246300
_cell_angle_alpha   90.00000000
_cell_angle_beta   90.00000000
_cell_angle_gamma   120.00000094
_symmetry_Int_Tables_number   1
_chemical_formula_structural   Tb7Ho3(Tl3Br)2
_chemical_formula_sum   'Tb7 Ho3 Tl6 Br2'
_cell_volume   486.25447244
_cell_formula_units_Z   1
loop_
 _symmetry_equiv_pos_site_id
 _symmetry_equiv_pos_as_xyz
  1  'x, y, z'
loop_
 _atom_site_type_symbol
 _atom_site_label
 _atom_site_symmetry_multiplicity
 _atom_site_fract_x
 _atom_site_fract_y
 _atom_site_fract_z
 _atom_site_occupancy
  Tb  Tb0  1  0.267695  0.267824  0.749887  1
  Tb  Tb1  1  0.000129  0.732305  0.749887  1
  Tb  Tb2  1  0.732176  0.999871  0.749887  1
  Tb  Tb3  1  0.000129  0.267824  0.250113  1
  Tb  Tb4  1  0.732176  0.732305  0.250113  1
  Tb  Tb5  1  0.267695  0.999871  0.250113  1
  Tb  Tb6  1  0.666667  0.333333  0.000000  1
  Ho  Ho7  1  0.333333  0.666667  0.500000  1
  Ho  Ho8  1  0.666667  0.333333  0.500000  1
  Ho  Ho9  1  0.333333  0.666667  0.000000  1
  Tl  Tl10  1  0.609609  0.999458  0.250271  1
  Tl  Tl11  1  0.000542  0.390391  0.749729  1
  Tl  Tl12  1  0.389849  0.999458  0.749729  1
  Tl  Tl13  1  0.609609  0.610151  0.749729  1
  Tl  Tl14  1  0.000542  0.610151  0.250271  1
  Tl  Tl15  1  0.389849  0.390391  0.250271  1
  Br  Br16  1  0.000000  0.000000  0.000000  1
  Br  Br17  1  0.000000  0.000000  0.500000  1
