# generated using pymatgen
data_TbTm4In3Cl
_symmetry_space_group_name_H-M   'P 1'
_cell_length_a   9.04623629
_cell_length_b   9.04623739
_cell_length_c   6.58763900
_cell_angle_alpha   90.00000000
_cell_angle_beta   90.00000000
_cell_angle_gamma   119.97077190
_symmetry_Int_Tables_number   1
_chemical_formula_structural   TbTm4In3Cl
_chemical_formula_sum   'Tb2 Tm8 In6 Cl2'
_cell_volume   467.00783371
_cell_formula_units_Z   2
loop_
 _symmetry_equiv_pos_site_id
 _symmetry_equiv_pos_as_xyz
  1  'x, y, z'
loop_
 _atom_site_type_symbol
 _atom_site_label
 _atom_site_symmetry_multiplicity
 _atom_site_fract_x
 _atom_site_fract_y
 _atom_site_fract_z
 _atom_site_occupancy
  Tb  Tb0  1  0.999837  0.257812  0.250000  1
  Tb  Tb1  1  0.257812  0.999837  0.250000  1
  Tm  Tm2  1  0.742022  0.742022  0.250000  1
  Tm  Tm3  1  0.000082  0.741816  0.750000  1
  Tm  Tm4  1  0.741816  0.000082  0.750000  1
  Tm  Tm5  1  0.333767  0.666942  0.500358  1
  Tm  Tm6  1  0.258317  0.258317  0.750000  1
  Tm  Tm7  1  0.666942  0.333767  0.500358  1
  Tm  Tm8  1  0.333767  0.666942  0.999642  1
  Tm  Tm9  1  0.666942  0.333767  0.999642  1
  In  In10  1  0.393978  0.999892  0.750000  1
  In  In11  1  0.998919  0.605427  0.250000  1
  In  In12  1  0.605427  0.998919  0.250000  1
  In  In13  1  0.999892  0.393978  0.750000  1
  In  In14  1  0.395893  0.395893  0.250000  1
  In  In15  1  0.606027  0.606027  0.750000  1
  Cl  Cl16  1  0.999281  0.999281  0.501945  1
  Cl  Cl17  1  0.999281  0.999281  0.998055  1
