# generated using pymatgen
data_LaYbVIr3
_symmetry_space_group_name_H-M   'P 1'
_cell_length_a   5.16308973
_cell_length_b   5.16308833
_cell_length_c   5.16308912
_cell_angle_alpha   66.56714664
_cell_angle_beta   66.56714800
_cell_angle_gamma   66.56713480
_symmetry_Int_Tables_number   1
_chemical_formula_structural   LaYbVIr3
_chemical_formula_sum   'La1 Yb1 V1 Ir3'
_cell_volume   111.07970635
_cell_formula_units_Z   1
loop_
 _symmetry_equiv_pos_site_id
 _symmetry_equiv_pos_as_xyz
  1  'x, y, z'
loop_
 _atom_site_type_symbol
 _atom_site_label
 _atom_site_symmetry_multiplicity
 _atom_site_fract_x
 _atom_site_fract_y
 _atom_site_fract_z
 _atom_site_occupancy
  La  La0  1  0.249061  0.249061  0.249061  1
  Yb  Yb1  1  0.998345  0.998345  0.998345  1
  V  V2  1  0.624661  0.624661  0.624661  1
  Ir  Ir3  1  0.627237  0.627237  0.123461  1
  Ir  Ir4  1  0.627237  0.123461  0.627237  1
  Ir  Ir5  1  0.123461  0.627237  0.627237  1
