# generated using pymatgen
data_Mg2Zr(GaRh2)3
_symmetry_space_group_name_H-M   'P 1'
_cell_length_a   4.41193802
_cell_length_b   6.18270102
_cell_length_c   13.17895200
_cell_angle_alpha   90.00206338
_cell_angle_beta   89.99949237
_cell_angle_gamma   90.01002631
_symmetry_Int_Tables_number   1
_chemical_formula_structural   Mg2Zr(GaRh2)3
_chemical_formula_sum   'Mg4 Zr2 Ga6 Rh12'
_cell_volume   359.49141023
_cell_formula_units_Z   2
loop_
 _symmetry_equiv_pos_site_id
 _symmetry_equiv_pos_as_xyz
  1  'x, y, z'
loop_
 _atom_site_type_symbol
 _atom_site_label
 _atom_site_symmetry_multiplicity
 _atom_site_fract_x
 _atom_site_fract_y
 _atom_site_fract_z
 _atom_site_occupancy
  Mg  Mg0  1  0.999714  0.000021  0.337310  1
  Mg  Mg1  1  0.500012  0.499977  0.501604  1
  Mg  Mg2  1  0.000217  0.000022  0.664996  1
  Mg  Mg3  1  0.500246  0.499982  0.829359  1
  Zr  Zr4  1  0.000038  0.000006  0.995840  1
  Zr  Zr5  1  0.499746  0.499992  0.170829  1
  Ga  Ga6  1  0.000013  0.499997  0.996388  1
  Ga  Ga7  1  0.499792  0.000014  0.170233  1
  Ga  Ga8  1  0.999728  0.499987  0.341335  1
  Ga  Ga9  1  0.500024  0.000023  0.505805  1
  Ga  Ga10  1  0.000244  0.499981  0.660912  1
  Ga  Ga11  1  0.500245  0.000012  0.825362  1
  Rh  Rh12  1  0.500064  0.253642  0.997049  1
  Rh  Rh13  1  0.499997  0.746367  0.997060  1
  Rh  Rh14  1  0.999710  0.246355  0.169588  1
  Rh  Rh15  1  0.999779  0.753631  0.169577  1
  Rh  Rh16  1  0.499771  0.247246  0.336437  1
  Rh  Rh17  1  0.499703  0.752739  0.336424  1
  Rh  Rh18  1  0.000028  0.249135  0.500295  1
  Rh  Rh19  1  0.999986  0.750861  0.500295  1
  Rh  Rh20  1  0.500206  0.250865  0.666408  1
  Rh  Rh21  1  0.500247  0.749138  0.666412  1
  Rh  Rh22  1  0.000211  0.252703  0.830232  1
  Rh  Rh23  1  0.000277  0.747316  0.830248  1
