# generated using pymatgen
data_DyHo15InAg3Rh4
_symmetry_space_group_name_H-M   'P 1'
_cell_length_a   9.54188238
_cell_length_b   9.51618359
_cell_length_c   9.54968200
_cell_angle_alpha   59.88348585
_cell_angle_beta   59.97295665
_cell_angle_gamma   59.83159333
_symmetry_Int_Tables_number   1
_chemical_formula_structural   DyHo15InAg3Rh4
_chemical_formula_sum   'Dy1 Ho15 In1 Ag3 Rh4'
_cell_volume   611.70724528
_cell_formula_units_Z   1
loop_
 _symmetry_equiv_pos_site_id
 _symmetry_equiv_pos_as_xyz
  1  'x, y, z'
loop_
 _atom_site_type_symbol
 _atom_site_label
 _atom_site_symmetry_multiplicity
 _atom_site_fract_x
 _atom_site_fract_y
 _atom_site_fract_z
 _atom_site_occupancy
  Dy  Dy0  1  0.188401  0.181597  0.815001  1
  Ho  Ho1  1  0.601650  0.600922  0.196482  1
  Ho  Ho2  1  0.437106  0.062681  0.438220  1
  Ho  Ho3  1  0.440647  0.438300  0.060526  1
  Ho  Ho4  1  0.814546  0.181768  0.815112  1
  Ho  Ho5  1  0.186746  0.812060  0.186631  1
  Ho  Ho6  1  0.437106  0.062681  0.061995  1
  Ho  Ho7  1  0.186746  0.812060  0.814561  1
  Ho  Ho8  1  0.059782  0.438803  0.060481  1
  Ho  Ho9  1  0.814721  0.812045  0.186617  1
  Ho  Ho10  1  0.196863  0.600573  0.601282  1
  Ho  Ho11  1  0.059782  0.438803  0.440934  1
  Ho  Ho12  1  0.061168  0.062508  0.438162  1
  Ho  Ho13  1  0.814546  0.181768  0.188575  1
  Ho  Ho14  1  0.602404  0.195129  0.601233  1
  Ho  Ho15  1  0.601650  0.600922  0.600946  1
  In  In16  1  0.829260  0.511458  0.829641  1
  Ag  Ag17  1  0.832513  0.834708  0.832190  1
  Ag  Ag18  1  0.832513  0.834708  0.500589  1
  Ag  Ag19  1  0.500785  0.834189  0.832513  1
  Rh  Rh20  1  0.393034  0.821601  0.392683  1
  Rh  Rh21  1  0.393088  0.393312  0.391481  1
  Rh  Rh22  1  0.821853  0.394093  0.392026  1
  Rh  Rh23  1  0.393088  0.393312  0.822118  1
