# generated using pymatgen
data_Dy10Ir3Os2Pt
_symmetry_space_group_name_H-M   'P 1'
_cell_length_a   10.88400243
_cell_length_b   10.87753300
_cell_length_c   6.44445504
_cell_angle_alpha   90.00000000
_cell_angle_beta   90.09105103
_cell_angle_gamma   90.00000000
_symmetry_Int_Tables_number   1
_chemical_formula_structural   Dy10Ir3Os2Pt
_chemical_formula_sum   'Dy20 Ir6 Os4 Pt2'
_cell_volume   762.96512911
_cell_formula_units_Z   2
loop_
 _symmetry_equiv_pos_site_id
 _symmetry_equiv_pos_as_xyz
  1  'x, y, z'
loop_
 _atom_site_type_symbol
 _atom_site_label
 _atom_site_symmetry_multiplicity
 _atom_site_fract_x
 _atom_site_fract_y
 _atom_site_fract_z
 _atom_site_occupancy
  Dy  Dy0  1  0.293922  0.086382  0.377582  1
  Dy  Dy1  1  0.293922  0.913618  0.877582  1
  Dy  Dy2  1  0.702986  0.088043  0.875097  1
  Dy  Dy3  1  0.702986  0.911957  0.375097  1
  Dy  Dy4  1  0.583539  0.793499  0.878333  1
  Dy  Dy5  1  0.583539  0.206501  0.378333  1
  Dy  Dy6  1  0.413025  0.793454  0.378498  1
  Dy  Dy7  1  0.413025  0.206546  0.878498  1
  Dy  Dy8  1  0.206493  0.413352  0.621710  1
  Dy  Dy9  1  0.206493  0.586648  0.121710  1
  Dy  Dy10  1  0.793423  0.416363  0.121421  1
  Dy  Dy11  1  0.793423  0.583637  0.621421  1
  Dy  Dy12  1  0.914810  0.704642  0.126310  1
  Dy  Dy13  1  0.914810  0.295358  0.626310  1
  Dy  Dy14  1  0.088905  0.704696  0.621032  1
  Dy  Dy15  1  0.088905  0.295304  0.121032  1
  Dy  Dy16  1  0.003169  0.999566  0.500134  1
  Dy  Dy17  1  0.003169  0.000434  0.000134  1
  Dy  Dy18  1  0.499749  0.499987  0.000132  1
  Dy  Dy19  1  0.499749  0.500013  0.500132  1
  Ir  Ir20  1  0.150864  0.151188  0.749865  1
  Ir  Ir21  1  0.150864  0.848812  0.249865  1
  Ir  Ir22  1  0.652675  0.347355  0.749938  1
  Ir  Ir23  1  0.652675  0.652645  0.249938  1
  Ir  Ir24  1  0.347960  0.348123  0.249707  1
  Ir  Ir25  1  0.347960  0.651877  0.749707  1
  Os  Os26  1  0.500709  0.000138  0.124672  1
  Os  Os27  1  0.500709  0.999862  0.624672  1
  Os  Os28  1  0.000061  0.500074  0.875291  1
  Os  Os29  1  0.000061  0.499926  0.375291  1
  Pt  Pt30  1  0.847710  0.151938  0.250277  1
  Pt  Pt31  1  0.847710  0.848062  0.750277  1
