# generated using pymatgen
data_Sr5HgAu2
_symmetry_space_group_name_H-M   'P 1'
_cell_length_a   8.57169400
_cell_length_b   8.57169400
_cell_length_c   15.68196400
_cell_angle_alpha   90.00000000
_cell_angle_beta   90.00000000
_cell_angle_gamma   90.00000000
_symmetry_Int_Tables_number   1
_chemical_formula_structural   Sr5HgAu2
_chemical_formula_sum   'Sr20 Hg4 Au8'
_cell_volume   1152.21565112
_cell_formula_units_Z   4
loop_
 _symmetry_equiv_pos_site_id
 _symmetry_equiv_pos_as_xyz
  1  'x, y, z'
loop_
 _atom_site_type_symbol
 _atom_site_label
 _atom_site_symmetry_multiplicity
 _atom_site_fract_x
 _atom_site_fract_y
 _atom_site_fract_z
 _atom_site_occupancy
  Sr  Sr0  1  0.000000  0.000000  0.754235  1
  Sr  Sr1  1  0.500000  0.500000  0.250952  1
  Sr  Sr2  1  0.000000  0.000000  0.245765  1
  Sr  Sr3  1  0.500000  0.500000  0.749048  1
  Sr  Sr4  1  0.167676  0.661993  0.109731  1
  Sr  Sr5  1  0.665094  0.165305  0.611283  1
  Sr  Sr6  1  0.832324  0.338007  0.109731  1
  Sr  Sr7  1  0.334906  0.834695  0.611283  1
  Sr  Sr8  1  0.338007  0.167676  0.109731  1
  Sr  Sr9  1  0.834695  0.665094  0.611283  1
  Sr  Sr10  1  0.661993  0.832324  0.109731  1
  Sr  Sr11  1  0.165305  0.334906  0.611283  1
  Sr  Sr12  1  0.338007  0.832324  0.890269  1
  Sr  Sr13  1  0.834695  0.334906  0.388717  1
  Sr  Sr14  1  0.661993  0.167676  0.890269  1
  Sr  Sr15  1  0.165305  0.665094  0.388717  1
  Sr  Sr16  1  0.167676  0.338007  0.890269  1
  Sr  Sr17  1  0.665094  0.834695  0.388717  1
  Sr  Sr18  1  0.832324  0.661993  0.890269  1
  Sr  Sr19  1  0.334906  0.165305  0.388717  1
  Hg  Hg20  1  0.000000  0.000000  0.500000  1
  Hg  Hg21  1  0.000000  0.000000  0.000000  1
  Hg  Hg22  1  0.500000  0.500000  0.500000  1
  Hg  Hg23  1  0.500000  0.500000  0.000000  1
  Au  Au24  1  0.628435  0.128309  0.248794  1
  Au  Au25  1  0.128309  0.628435  0.751206  1
  Au  Au26  1  0.871691  0.371565  0.751206  1
  Au  Au27  1  0.371565  0.871691  0.248794  1
  Au  Au28  1  0.371565  0.128309  0.751206  1
  Au  Au29  1  0.871691  0.628435  0.248794  1
  Au  Au30  1  0.128309  0.371565  0.248794  1
  Au  Au31  1  0.628435  0.871691  0.751206  1
