# generated using pymatgen
data_Rb2LuNpO6
_symmetry_space_group_name_H-M   'P 1'
_cell_length_a   6.08651509
_cell_length_b   6.08651485
_cell_length_c   6.08651500
_cell_angle_alpha   60.00000462
_cell_angle_beta   60.00000591
_cell_angle_gamma   90.00000139
_symmetry_Int_Tables_number   1
_chemical_formula_structural   Rb2LuNpO6
_chemical_formula_sum   'Rb2 Lu1 Np1 O6'
_cell_volume   159.43774803
_cell_formula_units_Z   1
loop_
 _symmetry_equiv_pos_site_id
 _symmetry_equiv_pos_as_xyz
  1  'x, y, z'
loop_
 _atom_site_type_symbol
 _atom_site_label
 _atom_site_symmetry_multiplicity
 _atom_site_fract_x
 _atom_site_fract_y
 _atom_site_fract_z
 _atom_site_occupancy
  Rb  Rb0  1  0.250001  0.749999  0.499999  1
  Rb  Rb1  1  0.749999  0.249999  0.500002  1
  Lu  Lu2  1  0.499999  0.499999  0.000000  1
  Np  Np3  1  0.000000  0.000000  0.000000  1
  O  O4  1  0.238104  0.238104  0.000000  1
  O  O5  1  0.761893  0.238107  0.000000  1
  O  O6  1  0.238104  0.761894  0.000000  1
  O  O7  1  0.761894  0.761894  0.000000  1
  O  O8  1  0.761895  0.761895  0.476210  1
  O  O9  1  0.238105  0.238105  0.523788  1
