# generated using pymatgen
data_Tb3Ho9Ni4
_symmetry_space_group_name_H-M   'P 1'
_cell_length_a   6.31159901
_cell_length_b   6.81148702
_cell_length_c   9.52931500
_cell_angle_alpha   90.00000000
_cell_angle_beta   90.00000000
_cell_angle_gamma   90.00612466
_symmetry_Int_Tables_number   1
_chemical_formula_structural   Tb3Ho9Ni4
_chemical_formula_sum   'Tb3 Ho9 Ni4'
_cell_volume   409.67834915
_cell_formula_units_Z   1
loop_
 _symmetry_equiv_pos_site_id
 _symmetry_equiv_pos_as_xyz
  1  'x, y, z'
loop_
 _atom_site_type_symbol
 _atom_site_label
 _atom_site_symmetry_multiplicity
 _atom_site_fract_x
 _atom_site_fract_y
 _atom_site_fract_z
 _atom_site_occupancy
  Tb  Tb0  1  0.862293  0.532312  0.250000  1
  Tb  Tb1  1  0.638716  0.032660  0.250000  1
  Tb  Tb2  1  0.138376  0.467588  0.750000  1
  Ho  Ho3  1  0.321568  0.678335  0.066160  1
  Ho  Ho4  1  0.179188  0.177594  0.433775  1
  Ho  Ho5  1  0.678172  0.321973  0.566842  1
  Ho  Ho6  1  0.820479  0.822210  0.933301  1
  Ho  Ho7  1  0.678172  0.321973  0.933158  1
  Ho  Ho8  1  0.820479  0.822210  0.566699  1
  Ho  Ho9  1  0.321568  0.678335  0.433840  1
  Ho  Ho10  1  0.179188  0.177594  0.066225  1
  Ho  Ho11  1  0.361043  0.966972  0.750000  1
  Ni  Ni12  1  0.057018  0.890894  0.250000  1
  Ni  Ni13  1  0.443641  0.391366  0.250000  1
  Ni  Ni14  1  0.944805  0.108454  0.750000  1
  Ni  Ni15  1  0.555293  0.609531  0.750000  1
