# generated using pymatgen
data_Pa2Si3Ni14H3
_symmetry_space_group_name_H-M   'P 1'
_cell_length_a   6.25640830
_cell_length_b   6.25640847
_cell_length_c   6.25641000
_cell_angle_alpha   83.52502906
_cell_angle_beta   83.52502888
_cell_angle_gamma   83.52502462
_symmetry_Int_Tables_number   1
_chemical_formula_structural   Pa2Si3Ni14H3
_chemical_formula_sum   'Pa2 Si3 Ni14 H3'
_cell_volume   240.53343449
_cell_formula_units_Z   1
loop_
 _symmetry_equiv_pos_site_id
 _symmetry_equiv_pos_as_xyz
  1  'x, y, z'
loop_
 _atom_site_type_symbol
 _atom_site_label
 _atom_site_symmetry_multiplicity
 _atom_site_fract_x
 _atom_site_fract_y
 _atom_site_fract_z
 _atom_site_occupancy
  Pa  Pa0  1  0.652029  0.652029  0.652029  1
  Pa  Pa1  1  0.347971  0.347971  0.347971  1
  Si  Si2  1  0.000000  0.000000  0.500000  1
  Si  Si3  1  0.000000  0.500000  0.000000  1
  Si  Si4  1  0.500000  0.000000  0.000000  1
  Ni  Ni5  1  0.291918  0.708082  0.000000  1
  Ni  Ni6  1  0.708082  0.000000  0.291918  1
  Ni  Ni7  1  0.000000  0.291918  0.708082  1
  Ni  Ni8  1  0.291918  0.000000  0.708082  1
  Ni  Ni9  1  0.000000  0.708082  0.291918  1
  Ni  Ni10  1  0.708082  0.291918  0.000000  1
  Ni  Ni11  1  0.344274  0.344274  0.856976  1
  Ni  Ni12  1  0.344274  0.856976  0.344274  1
  Ni  Ni13  1  0.856976  0.344274  0.344274  1
  Ni  Ni14  1  0.655726  0.655726  0.143024  1
  Ni  Ni15  1  0.655726  0.143024  0.655726  1
  Ni  Ni16  1  0.143024  0.655726  0.655726  1
  Ni  Ni17  1  0.898089  0.898089  0.898089  1
  Ni  Ni18  1  0.101911  0.101911  0.101911  1
  H  H19  1  0.500000  0.500000  0.000000  1
  H  H20  1  0.500000  0.000000  0.500000  1
  H  H21  1  0.000000  0.500000  0.500000  1
