# generated using pymatgen
data_Ho10Si3Hg4Os
_symmetry_space_group_name_H-M   'P 1'
_cell_length_a   8.73241754
_cell_length_b   8.73241787
_cell_length_c   7.56684316
_cell_angle_alpha   90.31870980
_cell_angle_beta   90.31871343
_cell_angle_gamma   128.84403287
_symmetry_Int_Tables_number   1
_chemical_formula_structural   Ho10Si3Hg4Os
_chemical_formula_sum   'Ho10 Si3 Hg4 Os1'
_cell_volume   449.37091000
_cell_formula_units_Z   1
loop_
 _symmetry_equiv_pos_site_id
 _symmetry_equiv_pos_as_xyz
  1  'x, y, z'
loop_
 _atom_site_type_symbol
 _atom_site_label
 _atom_site_symmetry_multiplicity
 _atom_site_fract_x
 _atom_site_fract_y
 _atom_site_fract_z
 _atom_site_occupancy
  Ho  Ho0  1  0.062158  0.312383  0.317035  1
  Ho  Ho1  1  0.946552  0.689473  0.676357  1
  Ho  Ho2  1  0.447089  0.197818  0.830908  1
  Ho  Ho3  1  0.798883  0.547757  0.173598  1
  Ho  Ho4  1  0.547757  0.798883  0.173598  1
  Ho  Ho5  1  0.197818  0.447089  0.830908  1
  Ho  Ho6  1  0.689473  0.946552  0.676357  1
  Ho  Ho7  1  0.312383  0.062158  0.317035  1
  Ho  Ho8  1  0.006063  0.006063  0.006372  1
  Ho  Ho9  1  0.494739  0.494739  0.491767  1
  Si  Si10  1  0.621547  0.621547  0.876910  1
  Si  Si11  1  0.110818  0.110818  0.621299  1
  Si  Si12  1  0.882549  0.882549  0.388013  1
  Hg  Hg13  1  0.783352  0.214812  0.998189  1
  Hg  Hg14  1  0.214812  0.783352  0.998189  1
  Hg  Hg15  1  0.718469  0.282926  0.501361  1
  Hg  Hg16  1  0.282926  0.718469  0.501361  1
  Os  Os17  1  0.382613  0.382613  0.120741  1
