# generated using pymatgen
data_Mg2TcH7
_symmetry_space_group_name_H-M   'P 1'
_cell_length_a   4.88829098
_cell_length_b   4.90609097
_cell_length_c   6.84707236
_cell_angle_alpha   45.80079954
_cell_angle_beta   45.94035617
_cell_angle_gamma   61.49198128
_symmetry_Int_Tables_number   1
_chemical_formula_structural   Mg2TcH7
_chemical_formula_sum   'Mg2 Tc1 H7'
_cell_volume   84.59003222
_cell_formula_units_Z   1
loop_
 _symmetry_equiv_pos_site_id
 _symmetry_equiv_pos_as_xyz
  1  'x, y, z'
loop_
 _atom_site_type_symbol
 _atom_site_label
 _atom_site_symmetry_multiplicity
 _atom_site_fract_x
 _atom_site_fract_y
 _atom_site_fract_z
 _atom_site_occupancy
  Mg  Mg0  1  0.927711  0.037497  0.602091  1
  Mg  Mg1  1  0.921458  0.027840  0.134395  1
  Tc  Tc2  1  0.399312  0.556710  0.870843  1
  H  H3  1  0.295747  0.554380  0.679182  1
  H  H4  1  0.327062  0.060976  0.155923  1
  H  H5  1  0.808282  0.498160  0.574634  1
  H  H6  1  0.770238  0.511892  0.858181  1
  H  H7  1  0.271830  0.566574  0.167812  1
  H  H8  1  0.917682  0.650443  0.059595  1
  H  H9  1  0.482368  0.047847  0.578014  1
