# generated using pymatgen
data_Tm3Lu13(In3Ir)2
_symmetry_space_group_name_H-M   'P 1'
_cell_length_a   10.20855800
_cell_length_b   10.20855838
_cell_length_c   6.91870800
_cell_angle_alpha   90.00000000
_cell_angle_beta   90.00000000
_cell_angle_gamma   119.99999878
_symmetry_Int_Tables_number   1
_chemical_formula_structural   Tm3Lu13(In3Ir)2
_chemical_formula_sum   'Tm3 Lu13 In6 Ir2'
_cell_volume   624.43100078
_cell_formula_units_Z   1
loop_
 _symmetry_equiv_pos_site_id
 _symmetry_equiv_pos_as_xyz
  1  'x, y, z'
loop_
 _atom_site_type_symbol
 _atom_site_label
 _atom_site_symmetry_multiplicity
 _atom_site_fract_x
 _atom_site_fract_y
 _atom_site_fract_z
 _atom_site_occupancy
  Tm  Tm0  1  0.532159  0.064318  0.523650  1
  Tm  Tm1  1  0.935682  0.467841  0.523650  1
  Tm  Tm2  1  0.532159  0.467841  0.523650  1
  Lu  Lu3  1  0.467404  0.934809  0.023451  1
  Lu  Lu4  1  0.065191  0.532596  0.023451  1
  Lu  Lu5  1  0.467404  0.532596  0.023451  1
  Lu  Lu6  1  0.176859  0.353718  0.729970  1
  Lu  Lu7  1  0.646282  0.823141  0.729970  1
  Lu  Lu8  1  0.176859  0.823141  0.729970  1
  Lu  Lu9  1  0.823178  0.646357  0.229023  1
  Lu  Lu10  1  0.353643  0.176822  0.229023  1
  Lu  Lu11  1  0.823178  0.176822  0.229023  1
  Lu  Lu12  1  0.666667  0.333333  0.903650  1
  Lu  Lu13  1  0.333333  0.666667  0.403351  1
  Lu  Lu14  1  0.000000  0.000000  0.507072  1
  Lu  Lu15  1  0.000000  0.000000  0.007198  1
  In  In16  1  0.837376  0.674752  0.770001  1
  In  In17  1  0.325248  0.162624  0.770001  1
  In  In18  1  0.837376  0.162624  0.770001  1
  In  In19  1  0.162786  0.325573  0.269696  1
  In  In20  1  0.674427  0.837214  0.269696  1
  In  In21  1  0.162786  0.837214  0.269696  1
  Ir  Ir22  1  0.666667  0.333333  0.297843  1
  Ir  Ir23  1  0.333333  0.666667  0.799198  1
