# generated using pymatgen
data_Nd6P13Rh20
_symmetry_space_group_name_H-M   'P 1'
_cell_length_a   13.46553700
_cell_length_b   13.46553665
_cell_length_c   3.97399100
_cell_angle_alpha   90.00000000
_cell_angle_beta   90.00000000
_cell_angle_gamma   119.99999841
_symmetry_Int_Tables_number   1
_chemical_formula_structural   Nd6P13Rh20
_chemical_formula_sum   'Nd6 P13 Rh20'
_cell_volume   624.02912776
_cell_formula_units_Z   1
loop_
 _symmetry_equiv_pos_site_id
 _symmetry_equiv_pos_as_xyz
  1  'x, y, z'
loop_
 _atom_site_type_symbol
 _atom_site_label
 _atom_site_symmetry_multiplicity
 _atom_site_fract_x
 _atom_site_fract_y
 _atom_site_fract_z
 _atom_site_occupancy
  Nd  Nd0  1  0.530177  0.717359  0.247095  1
  Nd  Nd1  1  0.282641  0.812818  0.247095  1
  Nd  Nd2  1  0.187182  0.469823  0.247095  1
  Nd  Nd3  1  0.469823  0.282641  0.752905  1
  Nd  Nd4  1  0.717359  0.187182  0.752905  1
  Nd  Nd5  1  0.812818  0.530177  0.752905  1
  P  P6  1  0.522656  0.136302  0.251092  1
  P  P7  1  0.863698  0.386355  0.251092  1
  P  P8  1  0.613645  0.477344  0.251092  1
  P  P9  1  0.947932  0.718496  0.255016  1
  P  P10  1  0.281504  0.229436  0.255016  1
  P  P11  1  0.770564  0.052068  0.255016  1
  P  P12  1  0.386355  0.522656  0.748908  1
  P  P13  1  0.477344  0.863698  0.748908  1
  P  P14  1  0.136302  0.613645  0.748908  1
  P  P15  1  0.718496  0.770564  0.744984  1
  P  P16  1  0.229436  0.947932  0.744984  1
  P  P17  1  0.052068  0.281504  0.744984  1
  P  P18  1  0.000000  0.000000  0.000000  1
  Rh  Rh19  1  0.333333  0.666667  0.750872  1
  Rh  Rh20  1  0.922824  0.249182  0.255382  1
  Rh  Rh21  1  0.750818  0.673642  0.255382  1
  Rh  Rh22  1  0.326358  0.077176  0.255382  1
  Rh  Rh23  1  0.439398  0.024416  0.751841  1
  Rh  Rh24  1  0.975584  0.414983  0.751841  1
  Rh  Rh25  1  0.585017  0.560602  0.751841  1
  Rh  Rh26  1  0.666667  0.333333  0.249128  1
  Rh  Rh27  1  0.093229  0.185751  0.245920  1
  Rh  Rh28  1  0.814249  0.907478  0.245920  1
  Rh  Rh29  1  0.092522  0.906771  0.245920  1
  Rh  Rh30  1  0.024416  0.585017  0.248159  1
  Rh  Rh31  1  0.414983  0.439398  0.248159  1
  Rh  Rh32  1  0.560602  0.975584  0.248159  1
  Rh  Rh33  1  0.673642  0.922824  0.744618  1
  Rh  Rh34  1  0.077176  0.750818  0.744618  1
  Rh  Rh35  1  0.249182  0.326358  0.744618  1
  Rh  Rh36  1  0.906771  0.814249  0.754080  1
  Rh  Rh37  1  0.185751  0.092522  0.754080  1
  Rh  Rh38  1  0.907478  0.093229  0.754080  1
