# generated using pymatgen
data_Tb5SmPtI10
_symmetry_space_group_name_H-M   'P 1'
_cell_length_a   7.77918755
_cell_length_b   9.79997374
_cell_length_c   9.85747425
_cell_angle_alpha   107.28278033
_cell_angle_beta   96.87441183
_cell_angle_gamma   104.84331348
_symmetry_Int_Tables_number   1
_chemical_formula_structural   Tb5SmPtI10
_chemical_formula_sum   'Tb5 Sm1 Pt1 I10'
_cell_volume   677.83097951
_cell_formula_units_Z   1
loop_
 _symmetry_equiv_pos_site_id
 _symmetry_equiv_pos_as_xyz
  1  'x, y, z'
loop_
 _atom_site_type_symbol
 _atom_site_label
 _atom_site_symmetry_multiplicity
 _atom_site_fract_x
 _atom_site_fract_y
 _atom_site_fract_z
 _atom_site_occupancy
  Tb  Tb0  1  0.115530  0.040758  0.758602  1
  Tb  Tb1  1  0.349806  0.126152  0.165559  1
  Tb  Tb2  1  0.650760  0.874294  0.833963  1
  Tb  Tb3  1  0.971444  0.287201  0.085947  1
  Tb  Tb4  1  0.028931  0.712565  0.911977  1
  Sm  Sm5  1  0.883240  0.958617  0.244594  1
  Pt  Pt6  1  0.000338  0.999876  0.999567  1
  I  I7  1  0.354703  0.452615  0.272180  1
  I  I8  1  0.644844  0.547426  0.727835  1
  I  I9  1  0.915619  0.624359  0.176683  1
  I  I10  1  0.085364  0.371955  0.820549  1
  I  I11  1  0.450325  0.816446  0.089645  1
  I  I12  1  0.546462  0.182296  0.908269  1
  I  I13  1  0.264000  0.089022  0.464471  1
  I  I14  1  0.739709  0.912490  0.541039  1
  I  I15  1  0.778753  0.262431  0.346102  1
  I  I16  1  0.220172  0.741495  0.653018  1
