# generated using pymatgen
data_Bi4RuRh3O14
_symmetry_space_group_name_H-M   'P 1'
_cell_length_a   7.35916060
_cell_length_b   7.35916034
_cell_length_c   7.35915940
_cell_angle_alpha   59.89764848
_cell_angle_beta   59.89764891
_cell_angle_gamma   59.89764444
_symmetry_Int_Tables_number   1
_chemical_formula_structural   Bi4RuRh3O14
_chemical_formula_sum   'Bi4 Ru1 Rh3 O14'
_cell_volume   281.16426208
_cell_formula_units_Z   1
loop_
 _symmetry_equiv_pos_site_id
 _symmetry_equiv_pos_as_xyz
  1  'x, y, z'
loop_
 _atom_site_type_symbol
 _atom_site_label
 _atom_site_symmetry_multiplicity
 _atom_site_fract_x
 _atom_site_fract_y
 _atom_site_fract_z
 _atom_site_occupancy
  Bi  Bi0  1  0.125000  0.125000  0.625000  1
  Bi  Bi1  1  0.125000  0.625000  0.125000  1
  Bi  Bi2  1  0.625000  0.125000  0.125000  1
  Bi  Bi3  1  0.125000  0.125000  0.125000  1
  Ru  Ru4  1  0.625000  0.625000  0.625000  1
  Rh  Rh5  1  0.625000  0.625000  0.125000  1
  Rh  Rh6  1  0.625000  0.125000  0.625000  1
  Rh  Rh7  1  0.125000  0.625000  0.625000  1
  O  O8  1  0.250090  0.250090  0.250090  1
  O  O9  1  0.999910  0.999910  0.999910  1
  O  O10  1  0.545542  0.951562  0.545542  1
  O  O11  1  0.291724  0.706495  0.291724  1
  O  O12  1  0.545542  0.545542  0.951562  1
  O  O13  1  0.951562  0.545542  0.545542  1
  O  O14  1  0.543505  0.958276  0.958276  1
  O  O15  1  0.958276  0.958276  0.543505  1
  O  O16  1  0.958276  0.543505  0.958276  1
  O  O17  1  0.706495  0.291724  0.291724  1
  O  O18  1  0.298438  0.704458  0.704458  1
  O  O19  1  0.704458  0.298438  0.704458  1
  O  O20  1  0.291724  0.291724  0.706495  1
  O  O21  1  0.704458  0.704458  0.298438  1
