# generated using pymatgen
data_YbPr3(Si5Os3)2
_symmetry_space_group_name_H-M   'P 1'
_cell_length_a   8.23383388
_cell_length_b   8.23604809
_cell_length_c   5.86071773
_cell_angle_alpha   70.37430780
_cell_angle_beta   70.39017425
_cell_angle_gamma   93.77143769
_symmetry_Int_Tables_number   1
_chemical_formula_structural   YbPr3(Si5Os3)2
_chemical_formula_sum   'Yb1 Pr3 Si10 Os6'
_cell_volume   345.42944757
_cell_formula_units_Z   1
loop_
 _symmetry_equiv_pos_site_id
 _symmetry_equiv_pos_as_xyz
  1  'x, y, z'
loop_
 _atom_site_type_symbol
 _atom_site_label
 _atom_site_symmetry_multiplicity
 _atom_site_fract_x
 _atom_site_fract_y
 _atom_site_fract_z
 _atom_site_occupancy
  Yb  Yb0  1  0.601963  0.868231  0.256817  1
  Pr  Pr1  1  0.867807  0.603503  0.753204  1
  Pr  Pr2  1  0.397704  0.133285  0.744919  1
  Pr  Pr3  1  0.132734  0.395885  0.246105  1
  Si  Si4  1  0.061502  0.261700  0.835769  1
  Si  Si5  1  0.738401  0.937453  0.668016  1
  Si  Si6  1  0.933243  0.741313  0.163878  1
  Si  Si7  1  0.259725  0.059414  0.337105  1
  Si  Si8  1  0.208170  0.790539  0.752974  1
  Si  Si9  1  0.788444  0.205809  0.249524  1
  Si  Si10  1  0.513273  0.490128  0.746762  1
  Si  Si11  1  0.493072  0.516487  0.245418  1
  Si  Si12  1  0.771856  0.224472  0.755332  1
  Si  Si13  1  0.231091  0.771976  0.246900  1
  Os  Os14  1  0.258982  0.543978  0.629547  1
  Os  Os15  1  0.459614  0.742919  0.865484  1
  Os  Os16  1  0.744257  0.456375  0.369899  1
  Os  Os17  1  0.539950  0.255517  0.131984  1
  Os  Os18  1  0.002469  0.997698  0.750166  1
  Os  Os19  1  0.995743  0.003320  0.250198  1
