# generated using pymatgen
data_Sm(UPd4)3
_symmetry_space_group_name_H-M   'P 1'
_cell_length_a   5.85523900
_cell_length_b   5.85523949
_cell_length_c   9.66955300
_cell_angle_alpha   90.00000000
_cell_angle_beta   90.00000000
_cell_angle_gamma   120.00000286
_symmetry_Int_Tables_number   1
_chemical_formula_structural   Sm(UPd4)3
_chemical_formula_sum   'Sm1 U3 Pd12'
_cell_volume   287.09544865
_cell_formula_units_Z   1
loop_
 _symmetry_equiv_pos_site_id
 _symmetry_equiv_pos_as_xyz
  1  'x, y, z'
loop_
 _atom_site_type_symbol
 _atom_site_label
 _atom_site_symmetry_multiplicity
 _atom_site_fract_x
 _atom_site_fract_y
 _atom_site_fract_z
 _atom_site_occupancy
  Sm  Sm0  1  0.000000  0.000000  0.500000  1
  U  U1  1  0.000000  0.000000  0.000000  1
  U  U2  1  0.333333  0.666667  0.746458  1
  U  U3  1  0.666667  0.333333  0.253542  1
  Pd  Pd4  1  0.500000  0.500000  0.500000  1
  Pd  Pd5  1  0.500000  0.000000  0.500000  1
  Pd  Pd6  1  0.000000  0.500000  0.500000  1
  Pd  Pd7  1  0.500000  0.500000  0.000000  1
  Pd  Pd8  1  0.500000  0.000000  0.000000  1
  Pd  Pd9  1  0.000000  0.500000  0.000000  1
  Pd  Pd10  1  0.172667  0.827333  0.246898  1
  Pd  Pd11  1  0.172667  0.345336  0.246898  1
  Pd  Pd12  1  0.654664  0.827333  0.246898  1
  Pd  Pd13  1  0.827333  0.172667  0.753102  1
  Pd  Pd14  1  0.827333  0.654664  0.753102  1
  Pd  Pd15  1  0.345336  0.172667  0.753102  1
