# generated using pymatgen
data_Ho5ErSi4(GeRu2)2
_symmetry_space_group_name_H-M   'P 1'
_cell_length_a   5.73514911
_cell_length_b   5.73514868
_cell_length_c   13.85959830
_cell_angle_alpha   90.02225728
_cell_angle_beta   89.97774209
_cell_angle_gamma   137.33773803
_symmetry_Int_Tables_number   1
_chemical_formula_structural   Ho5ErSi4(GeRu2)2
_chemical_formula_sum   'Ho5 Er1 Si4 Ge2 Ru4'
_cell_volume   308.93119573
_cell_formula_units_Z   1
loop_
 _symmetry_equiv_pos_site_id
 _symmetry_equiv_pos_as_xyz
  1  'x, y, z'
loop_
 _atom_site_type_symbol
 _atom_site_label
 _atom_site_symmetry_multiplicity
 _atom_site_fract_x
 _atom_site_fract_y
 _atom_site_fract_z
 _atom_site_occupancy
  Ho  Ho0  1  0.924712  0.075288  0.387147  1
  Ho  Ho1  1  0.075271  0.924729  0.612929  1
  Ho  Ho2  1  0.924741  0.075259  0.112728  1
  Ho  Ho3  1  0.645027  0.354973  0.249940  1
  Ho  Ho4  1  0.355029  0.644971  0.750112  1
  Er  Er5  1  0.075474  0.924526  0.887397  1
  Si  Si6  1  0.617167  0.382833  0.461240  1
  Si  Si7  1  0.382825  0.617175  0.538794  1
  Si  Si8  1  0.617062  0.382938  0.038582  1
  Si  Si9  1  0.383005  0.616995  0.961209  1
  Ge  Ge10  1  0.337830  0.662170  0.249962  1
  Ge  Ge11  1  0.661906  0.338094  0.750249  1
  Ru  Ru12  1  0.788351  0.211649  0.920737  1
  Ru  Ru13  1  0.211627  0.788373  0.078936  1
  Ru  Ru14  1  0.788210  0.211790  0.579181  1
  Ru  Ru15  1  0.211762  0.788238  0.420858  1
