# generated using pymatgen
data_U4Mn7As6
_symmetry_space_group_name_H-M   'P 1'
_cell_length_a   6.95198903
_cell_length_b   6.95198889
_cell_length_c   6.95198900
_cell_angle_alpha   109.47122388
_cell_angle_beta   109.47122346
_cell_angle_gamma   109.47121822
_symmetry_Int_Tables_number   1
_chemical_formula_structural   U4Mn7As6
_chemical_formula_sum   'U4 Mn7 As6'
_cell_volume   258.64573016
_cell_formula_units_Z   1
loop_
 _symmetry_equiv_pos_site_id
 _symmetry_equiv_pos_as_xyz
  1  'x, y, z'
loop_
 _atom_site_type_symbol
 _atom_site_label
 _atom_site_symmetry_multiplicity
 _atom_site_fract_x
 _atom_site_fract_y
 _atom_site_fract_z
 _atom_site_occupancy
  U  U0  1  0.000000  0.000000  0.500000  1
  U  U1  1  0.500000  0.000000  0.000000  1
  U  U2  1  0.000000  0.500000  0.000000  1
  U  U3  1  0.500000  0.500000  0.500000  1
  Mn  Mn4  1  0.750000  0.500000  0.250000  1
  Mn  Mn5  1  0.500000  0.750000  0.250000  1
  Mn  Mn6  1  0.500000  0.250000  0.750000  1
  Mn  Mn7  1  0.750000  0.250000  0.500000  1
  Mn  Mn8  1  0.250000  0.750000  0.500000  1
  Mn  Mn9  1  0.250000  0.500000  0.750000  1
  Mn  Mn10  1  0.000000  0.000000  0.000000  1
  As  As11  1  0.313344  0.000000  0.313344  1
  As  As12  1  0.000000  0.313344  0.313344  1
  As  As13  1  0.000000  0.686656  0.686656  1
  As  As14  1  0.313344  0.313344  0.000000  1
  As  As15  1  0.686656  0.686656  0.000000  1
  As  As16  1  0.686656  0.000000  0.686656  1
