# generated using pymatgen
data_HoTh3(Ni2Hg)2
_symmetry_space_group_name_H-M   'P 1'
_cell_length_a   7.55813581
_cell_length_b   7.55813536
_cell_length_c   3.66609500
_cell_angle_alpha   90.00000000
_cell_angle_beta   90.00000000
_cell_angle_gamma   91.28393394
_symmetry_Int_Tables_number   1
_chemical_formula_structural   HoTh3(Ni2Hg)2
_chemical_formula_sum   'Ho1 Th3 Ni4 Hg2'
_cell_volume   209.37461232
_cell_formula_units_Z   1
loop_
 _symmetry_equiv_pos_site_id
 _symmetry_equiv_pos_as_xyz
  1  'x, y, z'
loop_
 _atom_site_type_symbol
 _atom_site_label
 _atom_site_symmetry_multiplicity
 _atom_site_fract_x
 _atom_site_fract_y
 _atom_site_fract_z
 _atom_site_occupancy
  Ho  Ho0  1  0.826575  0.673425  0.500000  1
  Th  Th1  1  0.675415  0.173794  0.500000  1
  Th  Th2  1  0.326206  0.824585  0.500000  1
  Th  Th3  1  0.171857  0.328143  0.500000  1
  Ni  Ni4  1  0.880300  0.375176  0.000000  1
  Ni  Ni5  1  0.124824  0.619700  0.000000  1
  Ni  Ni6  1  0.375639  0.124361  0.000000  1
  Ni  Ni7  1  0.615419  0.884581  0.000000  1
  Hg  Hg8  1  0.509988  0.506222  0.000000  1
  Hg  Hg9  1  0.993778  0.990012  0.000000  1
