# generated using pymatgen
data_Ho8Zn3Si12Pt
_symmetry_space_group_name_H-M   'P 1'
_cell_length_a   8.09800500
_cell_length_b   8.09800471
_cell_length_c   8.01300500
_cell_angle_alpha   90.00000000
_cell_angle_beta   90.00000000
_cell_angle_gamma   119.99999711
_symmetry_Int_Tables_number   1
_chemical_formula_structural   Ho8Zn3Si12Pt
_chemical_formula_sum   'Ho8 Zn3 Si12 Pt1'
_cell_volume   455.07410486
_cell_formula_units_Z   1
loop_
 _symmetry_equiv_pos_site_id
 _symmetry_equiv_pos_as_xyz
  1  'x, y, z'
loop_
 _atom_site_type_symbol
 _atom_site_label
 _atom_site_symmetry_multiplicity
 _atom_site_fract_x
 _atom_site_fract_y
 _atom_site_fract_z
 _atom_site_occupancy
  Ho  Ho0  1  0.501262  0.002523  0.249003  1
  Ho  Ho1  1  0.498933  0.997867  0.750997  1
  Ho  Ho2  1  0.997477  0.498738  0.249003  1
  Ho  Ho3  1  0.002133  0.501067  0.750997  1
  Ho  Ho4  1  0.501262  0.498738  0.249003  1
  Ho  Ho5  1  0.498933  0.501067  0.750997  1
  Ho  Ho6  1  0.000000  0.000000  0.249019  1
  Ho  Ho7  1  0.000000  0.000000  0.751112  1
  Zn  Zn8  1  0.333333  0.666667  0.007014  1
  Zn  Zn9  1  0.666667  0.333333  0.993435  1
  Zn  Zn10  1  0.666667  0.333333  0.502546  1
  Si  Si11  1  0.166535  0.333068  0.998420  1
  Si  Si12  1  0.832762  0.665525  0.001465  1
  Si  Si13  1  0.666932  0.833465  0.998420  1
  Si  Si14  1  0.834725  0.669453  0.501759  1
  Si  Si15  1  0.334475  0.167238  0.001465  1
  Si  Si16  1  0.166880  0.333760  0.498123  1
  Si  Si17  1  0.166535  0.833465  0.998420  1
  Si  Si18  1  0.330547  0.165275  0.501759  1
  Si  Si19  1  0.832762  0.167238  0.001465  1
  Si  Si20  1  0.666240  0.833120  0.498123  1
  Si  Si21  1  0.834725  0.165275  0.501759  1
  Si  Si22  1  0.166880  0.833120  0.498123  1
  Pt  Pt23  1  0.333333  0.666667  0.497573  1
