# generated using pymatgen
data_SrDy3Pt3RhO14
_symmetry_space_group_name_H-M   'P 1'
_cell_length_a   7.33570359
_cell_length_b   7.31979746
_cell_length_c   7.31979661
_cell_angle_alpha   59.98269591
_cell_angle_beta   59.96717392
_cell_angle_gamma   59.96717625
_symmetry_Int_Tables_number   1
_chemical_formula_structural   SrDy3Pt3RhO14
_chemical_formula_sum   'Sr1 Dy3 Pt3 Rh1 O14'
_cell_volume   277.74895343
_cell_formula_units_Z   1
loop_
 _symmetry_equiv_pos_site_id
 _symmetry_equiv_pos_as_xyz
  1  'x, y, z'
loop_
 _atom_site_type_symbol
 _atom_site_label
 _atom_site_symmetry_multiplicity
 _atom_site_fract_x
 _atom_site_fract_y
 _atom_site_fract_z
 _atom_site_occupancy
  Sr  Sr0  1  0.125000  0.125000  0.125000  1
  Dy  Dy1  1  0.125000  0.625000  0.125000  1
  Dy  Dy2  1  0.125000  0.125000  0.625000  1
  Dy  Dy3  1  0.625000  0.125000  0.125000  1
  Pt  Pt4  1  0.625000  0.625000  0.625000  1
  Pt  Pt5  1  0.625000  0.125000  0.625000  1
  Pt  Pt6  1  0.625000  0.625000  0.125000  1
  Rh  Rh7  1  0.125000  0.625000  0.625000  1
  O  O8  1  0.291524  0.709531  0.709531  1
  O  O9  1  0.553950  0.959504  0.959504  1
  O  O10  1  0.713637  0.287417  0.713400  1
  O  O11  1  0.293027  0.294125  0.692711  1
  O  O12  1  0.713637  0.713400  0.287417  1
  O  O13  1  0.993446  0.992285  0.992285  1
  O  O14  1  0.293027  0.692711  0.294125  1
  O  O15  1  0.956973  0.557289  0.955875  1
  O  O16  1  0.956973  0.955875  0.557289  1
  O  O17  1  0.536363  0.536600  0.962583  1
  O  O18  1  0.256554  0.257715  0.257715  1
  O  O19  1  0.536363  0.962583  0.536600  1
  O  O20  1  0.696050  0.290496  0.290496  1
  O  O21  1  0.958476  0.540469  0.540469  1
