# generated using pymatgen
data_Tm3Sc3TaBi2
_symmetry_space_group_name_H-M   'P 1'
_cell_length_a   7.90648500
_cell_length_b   7.90648450
_cell_length_c   4.39781900
_cell_angle_alpha   90.00000000
_cell_angle_beta   90.00000000
_cell_angle_gamma   120.00000627
_symmetry_Int_Tables_number   1
_chemical_formula_structural   Tm3Sc3TaBi2
_chemical_formula_sum   'Tm3 Sc3 Ta1 Bi2'
_cell_volume   238.08653293
_cell_formula_units_Z   1
loop_
 _symmetry_equiv_pos_site_id
 _symmetry_equiv_pos_as_xyz
  1  'x, y, z'
loop_
 _atom_site_type_symbol
 _atom_site_label
 _atom_site_symmetry_multiplicity
 _atom_site_fract_x
 _atom_site_fract_y
 _atom_site_fract_z
 _atom_site_occupancy
  Tm  Tm0  1  0.603535  0.000000  0.000000  1
  Tm  Tm1  1  0.000000  0.603535  0.000000  1
  Tm  Tm2  1  0.396465  0.396465  0.000000  1
  Sc  Sc3  1  0.233811  0.000000  0.500000  1
  Sc  Sc4  1  0.000000  0.233811  0.500000  1
  Sc  Sc5  1  0.766189  0.766189  0.500000  1
  Ta  Ta6  1  0.000000  0.000000  0.000000  1
  Bi  Bi7  1  0.333333  0.666667  0.500000  1
  Bi  Bi8  1  0.666667  0.333333  0.500000  1
