# generated using pymatgen
data_Ho8CdInPt2
_symmetry_space_group_name_H-M   'P 1'
_cell_length_a   9.68248793
_cell_length_b   9.68248730
_cell_length_c   9.67174900
_cell_angle_alpha   60.03667669
_cell_angle_beta   60.03667882
_cell_angle_gamma   60.20039641
_symmetry_Int_Tables_number   1
_chemical_formula_structural   Ho8CdInPt2
_chemical_formula_sum   'Ho16 Cd2 In2 Pt4'
_cell_volume   642.47852756
_cell_formula_units_Z   2
loop_
 _symmetry_equiv_pos_site_id
 _symmetry_equiv_pos_as_xyz
  1  'x, y, z'
loop_
 _atom_site_type_symbol
 _atom_site_label
 _atom_site_symmetry_multiplicity
 _atom_site_fract_x
 _atom_site_fract_y
 _atom_site_fract_z
 _atom_site_occupancy
  Ho  Ho0  1  0.351263  0.351263  0.350502  1
  Ho  Ho1  1  0.351251  0.351251  0.946959  1
  Ho  Ho2  1  0.352546  0.943537  0.351951  1
  Ho  Ho3  1  0.943537  0.352546  0.351951  1
  Ho  Ho4  1  0.809805  0.191361  0.189590  1
  Ho  Ho5  1  0.191381  0.809811  0.809217  1
  Ho  Ho6  1  0.191361  0.809805  0.189590  1
  Ho  Ho7  1  0.809811  0.191381  0.809217  1
  Ho  Ho8  1  0.189729  0.189729  0.810288  1
  Ho  Ho9  1  0.808282  0.808282  0.191705  1
  Ho  Ho10  1  0.937201  0.565130  0.563776  1
  Ho  Ho11  1  0.565143  0.937213  0.933879  1
  Ho  Ho12  1  0.565130  0.937201  0.563776  1
  Ho  Ho13  1  0.937213  0.565142  0.933879  1
  Ho  Ho14  1  0.565342  0.565342  0.934667  1
  Ho  Ho15  1  0.938546  0.938546  0.561417  1
  Cd  Cd16  1  0.582032  0.249755  0.584123  1
  Cd  Cd17  1  0.249755  0.582032  0.584123  1
  In  In18  1  0.581727  0.581727  0.583820  1
  In  In19  1  0.581738  0.581738  0.252740  1
  Pt  Pt20  1  0.141984  0.141984  0.145074  1
  Pt  Pt21  1  0.141995  0.141995  0.571023  1
  Pt  Pt22  1  0.141364  0.571864  0.143366  1
  Pt  Pt23  1  0.571864  0.141364  0.143366  1
