# generated using pymatgen
data_Zr3ScTc5Os3
_symmetry_space_group_name_H-M   'P 1'
_cell_length_a   5.22975523
_cell_length_b   5.22975544
_cell_length_c   8.76502889
_cell_angle_alpha   90.04469537
_cell_angle_beta   89.95530334
_cell_angle_gamma   120.83669367
_symmetry_Int_Tables_number   1
_chemical_formula_structural   Zr3ScTc5Os3
_chemical_formula_sum   'Zr3 Sc1 Tc5 Os3'
_cell_volume   205.83673589
_cell_formula_units_Z   1
loop_
 _symmetry_equiv_pos_site_id
 _symmetry_equiv_pos_as_xyz
  1  'x, y, z'
loop_
 _atom_site_type_symbol
 _atom_site_label
 _atom_site_symmetry_multiplicity
 _atom_site_fract_x
 _atom_site_fract_y
 _atom_site_fract_z
 _atom_site_occupancy
  Zr  Zr0  1  0.334163  0.665837  0.430155  1
  Zr  Zr1  1  0.666128  0.333872  0.565086  1
  Zr  Zr2  1  0.666198  0.333802  0.938344  1
  Sc  Sc3  1  0.334820  0.665180  0.064347  1
  Tc  Tc4  1  0.171408  0.345414  0.750020  1
  Tc  Tc5  1  0.171850  0.828150  0.750250  1
  Tc  Tc6  1  0.342640  0.171532  0.249872  1
  Tc  Tc7  1  0.828468  0.657360  0.249872  1
  Tc  Tc8  1  0.654586  0.828592  0.750020  1
  Os  Os9  1  0.000687  0.999313  0.001639  1
  Os  Os10  1  0.827407  0.172593  0.250439  1
  Os  Os11  1  0.001643  0.998357  0.499955  1
