# generated using pymatgen
data_HoPa(Al5Os)4
_symmetry_space_group_name_H-M   'P 1'
_cell_length_a   6.85783301
_cell_length_b   6.85783330
_cell_length_c   9.17513200
_cell_angle_alpha   90.00000000
_cell_angle_beta   90.00000000
_cell_angle_gamma   97.06250733
_symmetry_Int_Tables_number   1
_chemical_formula_structural   HoPa(Al5Os)4
_chemical_formula_sum   'Ho1 Pa1 Al20 Os4'
_cell_volume   428.23131535
_cell_formula_units_Z   1
loop_
 _symmetry_equiv_pos_site_id
 _symmetry_equiv_pos_as_xyz
  1  'x, y, z'
loop_
 _atom_site_type_symbol
 _atom_site_label
 _atom_site_symmetry_multiplicity
 _atom_site_fract_x
 _atom_site_fract_y
 _atom_site_fract_z
 _atom_site_occupancy
  Ho  Ho0  1  0.132243  0.867757  0.250000  1
  Pa  Pa1  1  0.872453  0.127547  0.750000  1
  Al  Al2  1  0.516461  0.781354  0.750000  1
  Al  Al3  1  0.782283  0.518307  0.250000  1
  Al  Al4  1  0.481693  0.217717  0.250000  1
  Al  Al5  1  0.218646  0.483539  0.750000  1
  Al  Al6  1  0.622836  0.377164  0.954023  1
  Al  Al7  1  0.374925  0.625075  0.046509  1
  Al  Al8  1  0.622836  0.377164  0.545977  1
  Al  Al9  1  0.374925  0.625075  0.453491  1
  Al  Al10  1  0.410791  0.146427  0.750000  1
  Al  Al11  1  0.148974  0.418813  0.250000  1
  Al  Al12  1  0.581187  0.851026  0.250000  1
  Al  Al13  1  0.853573  0.589209  0.750000  1
  Al  Al14  1  0.844827  0.155173  0.396609  1
  Al  Al15  1  0.153572  0.846428  0.600948  1
  Al  Al16  1  0.844827  0.155173  0.103391  1
  Al  Al17  1  0.153572  0.846428  0.899052  1
  Al  Al18  1  0.778968  0.776725  0.001621  1
  Al  Al19  1  0.778968  0.776725  0.498379  1
  Al  Al20  1  0.223275  0.221032  0.001621  1
  Al  Al21  1  0.223275  0.221032  0.498379  1
  Os  Os22  1  0.503144  0.000701  0.998570  1
  Os  Os23  1  0.999299  0.496856  0.998570  1
  Os  Os24  1  0.503144  0.000701  0.501430  1
  Os  Os25  1  0.999299  0.496856  0.501430  1
