# generated using pymatgen
data_Ac3SiS2
_symmetry_space_group_name_H-M   'P 1'
_cell_length_a   7.63342560
_cell_length_b   7.63342555
_cell_length_c   7.63342521
_cell_angle_alpha   146.03657039
_cell_angle_beta   131.92068056
_cell_angle_gamma   60.16555906
_symmetry_Int_Tables_number   1
_chemical_formula_structural   Ac3SiS2
_chemical_formula_sum   'Ac3 Si1 S2'
_cell_volume   183.17060066
_cell_formula_units_Z   1
loop_
 _symmetry_equiv_pos_site_id
 _symmetry_equiv_pos_as_xyz
  1  'x, y, z'
loop_
 _atom_site_type_symbol
 _atom_site_label
 _atom_site_symmetry_multiplicity
 _atom_site_fract_x
 _atom_site_fract_y
 _atom_site_fract_z
 _atom_site_occupancy
  Ac  Ac0  1  0.000000  0.000000  0.000000  1
  Ac  Ac1  1  0.665558  0.665558  0.000000  1
  Ac  Ac2  1  0.334442  0.334442  0.000000  1
  Si  Si3  1  0.500000  0.000000  0.500000  1
  S  S4  1  0.165432  0.665432  0.500000  1
  S  S5  1  0.834568  0.334568  0.500000  1
