# generated using pymatgen
data_Tb3Y9(IrPt)2
_symmetry_space_group_name_H-M   'P 1'
_cell_length_a   6.46628144
_cell_length_b   7.17316713
_cell_length_c   9.50872636
_cell_angle_alpha   89.94241783
_cell_angle_beta   89.97888151
_cell_angle_gamma   90.13236717
_symmetry_Int_Tables_number   1
_chemical_formula_structural   Tb3Y9(IrPt)2
_chemical_formula_sum   'Tb3 Y9 Ir2 Pt2'
_cell_volume   441.04864706
_cell_formula_units_Z   1
loop_
 _symmetry_equiv_pos_site_id
 _symmetry_equiv_pos_as_xyz
  1  'x, y, z'
loop_
 _atom_site_type_symbol
 _atom_site_label
 _atom_site_symmetry_multiplicity
 _atom_site_fract_x
 _atom_site_fract_y
 _atom_site_fract_z
 _atom_site_occupancy
  Tb  Tb0  1  0.172080  0.177265  0.061763  1
  Tb  Tb1  1  0.827828  0.822642  0.938309  1
  Tb  Tb2  1  0.676712  0.318904  0.936505  1
  Y  Y3  1  0.634511  0.029212  0.249983  1
  Y  Y4  1  0.365383  0.970872  0.749962  1
  Y  Y5  1  0.130231  0.463844  0.749852  1
  Y  Y6  1  0.869684  0.536417  0.249997  1
  Y  Y7  1  0.827729  0.822511  0.561315  1
  Y  Y8  1  0.323470  0.681107  0.063416  1
  Y  Y9  1  0.172307  0.177329  0.438639  1
  Y  Y10  1  0.323213  0.681040  0.436721  1
  Y  Y11  1  0.676737  0.318949  0.563089  1
  Ir  Ir12  1  0.951560  0.114070  0.750372  1
  Ir  Ir13  1  0.048273  0.886107  0.249878  1
  Pt  Pt14  1  0.452628  0.385568  0.250000  1
  Pt  Pt15  1  0.547656  0.614163  0.750199  1
