# generated using pymatgen
data_Nd3Dy2Er3(CdPt)2
_symmetry_space_group_name_H-M   'P 1'
_cell_length_a   9.75826938
_cell_length_b   9.75826995
_cell_length_c   9.75826900
_cell_angle_alpha   59.99999984
_cell_angle_beta   59.99999790
_cell_angle_gamma   59.99999859
_symmetry_Int_Tables_number   1
_chemical_formula_structural   Nd3Dy2Er3(CdPt)2
_chemical_formula_sum   'Nd6 Dy4 Er6 Cd4 Pt4'
_cell_volume   657.05754545
_cell_formula_units_Z   2
loop_
 _symmetry_equiv_pos_site_id
 _symmetry_equiv_pos_as_xyz
  1  'x, y, z'
loop_
 _atom_site_type_symbol
 _atom_site_label
 _atom_site_symmetry_multiplicity
 _atom_site_fract_x
 _atom_site_fract_y
 _atom_site_fract_z
 _atom_site_occupancy
  Nd  Nd0  1  0.937980  0.562020  0.562020  1
  Nd  Nd1  1  0.562020  0.937980  0.937980  1
  Nd  Nd2  1  0.562020  0.937980  0.562020  1
  Nd  Nd3  1  0.937980  0.562020  0.937980  1
  Nd  Nd4  1  0.562020  0.562020  0.937980  1
  Nd  Nd5  1  0.937980  0.937980  0.562020  1
  Dy  Dy6  1  0.350370  0.350370  0.350370  1
  Dy  Dy7  1  0.350370  0.350370  0.948891  1
  Dy  Dy8  1  0.350370  0.948891  0.350370  1
  Dy  Dy9  1  0.948891  0.350370  0.350370  1
  Er  Er10  1  0.812665  0.187335  0.187335  1
  Er  Er11  1  0.187335  0.812665  0.812665  1
  Er  Er12  1  0.187335  0.812665  0.187335  1
  Er  Er13  1  0.812665  0.187335  0.812665  1
  Er  Er14  1  0.187335  0.187335  0.812665  1
  Er  Er15  1  0.812665  0.812665  0.187335  1
  Cd  Cd16  1  0.579757  0.579757  0.579757  1
  Cd  Cd17  1  0.579757  0.579757  0.260731  1
  Cd  Cd18  1  0.579757  0.260731  0.579757  1
  Cd  Cd19  1  0.260731  0.579757  0.579757  1
  Pt  Pt20  1  0.142115  0.142115  0.142115  1
  Pt  Pt21  1  0.142115  0.142115  0.573656  1
  Pt  Pt22  1  0.142115  0.573656  0.142115  1
  Pt  Pt23  1  0.573656  0.142115  0.142115  1
