# generated using pymatgen
data_Tb6Th2MgZnRh2
_symmetry_space_group_name_H-M   'P 1'
_cell_length_a   9.71892636
_cell_length_b   9.71892663
_cell_length_c   9.73089200
_cell_angle_alpha   59.95927263
_cell_angle_beta   59.95927172
_cell_angle_gamma   60.15905104
_symmetry_Int_Tables_number   1
_chemical_formula_structural   Tb6Th2MgZnRh2
_chemical_formula_sum   'Tb12 Th4 Mg2 Zn2 Rh4'
_cell_volume   650.31727948
_cell_formula_units_Z   2
loop_
 _symmetry_equiv_pos_site_id
 _symmetry_equiv_pos_as_xyz
  1  'x, y, z'
loop_
 _atom_site_type_symbol
 _atom_site_label
 _atom_site_symmetry_multiplicity
 _atom_site_fract_x
 _atom_site_fract_y
 _atom_site_fract_z
 _atom_site_occupancy
  Tb  Tb0  1  0.812251  0.187195  0.188773  1
  Tb  Tb1  1  0.187195  0.812251  0.811781  1
  Tb  Tb2  1  0.187195  0.812251  0.188773  1
  Tb  Tb3  1  0.812251  0.187195  0.811781  1
  Tb  Tb4  1  0.187876  0.187876  0.812124  1
  Tb  Tb5  1  0.810245  0.810245  0.189755  1
  Tb  Tb6  1  0.931222  0.564041  0.566510  1
  Tb  Tb7  1  0.564041  0.931222  0.938227  1
  Tb  Tb8  1  0.564041  0.931222  0.566510  1
  Tb  Tb9  1  0.931222  0.564041  0.938227  1
  Tb  Tb10  1  0.565531  0.565531  0.934469  1
  Tb  Tb11  1  0.934850  0.934850  0.565150  1
  Th  Th12  1  0.350511  0.350511  0.347856  1
  Th  Th13  1  0.350511  0.350511  0.951123  1
  Th  Th14  1  0.354172  0.944154  0.350837  1
  Th  Th15  1  0.944154  0.354172  0.350837  1
  Mg  Mg16  1  0.578870  0.270530  0.575300  1
  Mg  Mg17  1  0.270530  0.578870  0.575300  1
  Zn  Zn18  1  0.582723  0.582723  0.584619  1
  Zn  Zn19  1  0.582723  0.582723  0.249935  1
  Rh  Rh20  1  0.144456  0.144456  0.146433  1
  Rh  Rh21  1  0.144456  0.144456  0.564652  1
  Rh  Rh22  1  0.143086  0.565888  0.145512  1
  Rh  Rh23  1  0.565888  0.143086  0.145512  1
