# generated using pymatgen
data_CePr(Al5Os)4
_symmetry_space_group_name_H-M   'P 1'
_cell_length_a   6.88440601
_cell_length_b   6.88440462
_cell_length_c   9.18813500
_cell_angle_alpha   90.00000000
_cell_angle_beta   90.00000000
_cell_angle_gamma   96.87993375
_symmetry_Int_Tables_number   1
_chemical_formula_structural   CePr(Al5Os)4
_chemical_formula_sum   'Ce1 Pr1 Al20 Os4'
_cell_volume   432.33631546
_cell_formula_units_Z   1
loop_
 _symmetry_equiv_pos_site_id
 _symmetry_equiv_pos_as_xyz
  1  'x, y, z'
loop_
 _atom_site_type_symbol
 _atom_site_label
 _atom_site_symmetry_multiplicity
 _atom_site_fract_x
 _atom_site_fract_y
 _atom_site_fract_z
 _atom_site_occupancy
  Ce  Ce0  1  0.627003  0.372997  0.750000  1
  Pr  Pr1  1  0.372812  0.627188  0.250000  1
  Al  Al2  1  0.281116  0.018109  0.750000  1
  Al  Al3  1  0.016811  0.280994  0.250000  1
  Al  Al4  1  0.719006  0.983189  0.250000  1
  Al  Al5  1  0.981891  0.718884  0.750000  1
  Al  Al6  1  0.877216  0.122784  0.949352  1
  Al  Al7  1  0.123007  0.876993  0.046009  1
  Al  Al8  1  0.877216  0.122784  0.550648  1
  Al  Al9  1  0.123007  0.876993  0.453991  1
  Al  Al10  1  0.643211  0.912018  0.750000  1
  Al  Al11  1  0.914172  0.645553  0.250000  1
  Al  Al12  1  0.354447  0.085828  0.250000  1
  Al  Al13  1  0.087982  0.356789  0.750000  1
  Al  Al14  1  0.342175  0.657825  0.897441  1
  Al  Al15  1  0.660184  0.339816  0.102639  1
  Al  Al16  1  0.342175  0.657825  0.602559  1
  Al  Al17  1  0.660184  0.339816  0.397361  1
  Al  Al18  1  0.724720  0.725392  0.999927  1
  Al  Al19  1  0.724720  0.725392  0.500073  1
  Al  Al20  1  0.274608  0.275280  0.999927  1
  Al  Al21  1  0.274608  0.275280  0.500073  1
  Os  Os22  1  0.500494  0.001629  0.998915  1
  Os  Os23  1  0.998371  0.499506  0.998915  1
  Os  Os24  1  0.500494  0.001629  0.501085  1
  Os  Os25  1  0.998371  0.499506  0.501085  1
