# generated using pymatgen
data_K3SrF12
_symmetry_space_group_name_H-M   'P 1'
_cell_length_a   6.82495740
_cell_length_b   4.52627780
_cell_length_c   8.73231200
_cell_angle_alpha   90.10639455
_cell_angle_beta   90.39158962
_cell_angle_gamma   89.78724784
_symmetry_Int_Tables_number   1
_chemical_formula_structural   K3SrF12
_chemical_formula_sum   'K3 Sr1 F12'
_cell_volume   269.74694104
_cell_formula_units_Z   1
loop_
 _symmetry_equiv_pos_site_id
 _symmetry_equiv_pos_as_xyz
  1  'x, y, z'
loop_
 _atom_site_type_symbol
 _atom_site_label
 _atom_site_symmetry_multiplicity
 _atom_site_fract_x
 _atom_site_fract_y
 _atom_site_fract_z
 _atom_site_occupancy
  K  K0  1  0.284660  0.348167  0.874971  1
  K  K1  1  0.749830  0.758576  0.600621  1
  K  K2  1  0.754160  0.708354  0.150032  1
  Sr  Sr3  1  0.188352  0.163268  0.375185  1
  F  F4  1  0.078641  0.056710  0.094281  1
  F  F5  1  0.411997  0.449055  0.578114  1
  F  F6  1  0.550706  0.911092  0.883966  1
  F  F7  1  0.032754  0.653385  0.377748  1
  F  F8  1  0.540965  0.996431  0.366216  1
  F  F9  1  0.890341  0.481481  0.866070  1
  F  F10  1  0.101496  0.039433  0.656114  1
  F  F11  1  0.392026  0.467064  0.170298  1
  F  F12  1  0.242128  0.761007  0.125313  1
  F  F13  1  0.264259  0.744720  0.623043  1
  F  F14  1  0.722723  0.198998  0.874869  1
  F  F15  1  0.792538  0.262258  0.383156  1
