# generated using pymatgen
data_Dy2YEr(CrB4)4
_symmetry_space_group_name_H-M   'P 1'
_cell_length_a   5.93044101
_cell_length_b   11.45793391
_cell_length_c   3.44071400
_cell_angle_alpha   90.00000000
_cell_angle_beta   90.00000000
_cell_angle_gamma   90.01999167
_symmetry_Int_Tables_number   1
_chemical_formula_structural   Dy2YEr(CrB4)4
_chemical_formula_sum   'Dy2 Y1 Er1 Cr4 B16'
_cell_volume   233.79857032
_cell_formula_units_Z   1
loop_
 _symmetry_equiv_pos_site_id
 _symmetry_equiv_pos_as_xyz
  1  'x, y, z'
loop_
 _atom_site_type_symbol
 _atom_site_label
 _atom_site_symmetry_multiplicity
 _atom_site_fract_x
 _atom_site_fract_y
 _atom_site_fract_z
 _atom_site_occupancy
  Dy  Dy0  1  0.124440  0.150677  0.000000  1
  Dy  Dy1  1  0.875574  0.849098  0.000000  1
  Y  Y2  1  0.624307  0.349345  0.000000  1
  Er  Er3  1  0.375534  0.650722  0.000000  1
  Cr  Cr4  1  0.623631  0.080281  0.000000  1
  Cr  Cr5  1  0.376240  0.919112  0.000000  1
  Cr  Cr6  1  0.123864  0.419867  0.000000  1
  Cr  Cr7  1  0.876430  0.580790  0.000000  1
  B  B8  1  0.780654  0.183882  0.500000  1
  B  B9  1  0.219601  0.815471  0.500000  1
  B  B10  1  0.280421  0.316089  0.500000  1
  B  B11  1  0.718578  0.684037  0.500000  1
  B  B12  1  0.862591  0.032264  0.500000  1
  B  B13  1  0.137404  0.967331  0.500000  1
  B  B14  1  0.362833  0.468196  0.500000  1
  B  B15  1  0.636942  0.532878  0.500000  1
  B  B16  1  0.886999  0.453571  0.500000  1
  B  B17  1  0.114071  0.547315  0.500000  1
  B  B18  1  0.386590  0.046656  0.500000  1
  B  B19  1  0.613142  0.952931  0.500000  1
  B  B20  1  0.975103  0.308627  0.500000  1
  B  B21  1  0.025649  0.691577  0.500000  1
  B  B22  1  0.474820  0.191329  0.500000  1
  B  B23  1  0.524583  0.807952  0.500000  1
