# generated using pymatgen
data_TbYCo9P6Os
_symmetry_space_group_name_H-M   'P 1'
_cell_length_a   3.68214800
_cell_length_b   10.34221500
_cell_length_c   11.73458700
_cell_angle_alpha   90.00000000
_cell_angle_beta   90.00000000
_cell_angle_gamma   90.00000000
_symmetry_Int_Tables_number   1
_chemical_formula_structural   TbYCo9P6Os
_chemical_formula_sum   'Tb2 Y2 Co18 P12 Os2'
_cell_volume   446.87145258
_cell_formula_units_Z   2
loop_
 _symmetry_equiv_pos_site_id
 _symmetry_equiv_pos_as_xyz
  1  'x, y, z'
loop_
 _atom_site_type_symbol
 _atom_site_label
 _atom_site_symmetry_multiplicity
 _atom_site_fract_x
 _atom_site_fract_y
 _atom_site_fract_z
 _atom_site_occupancy
  Tb  Tb0  1  0.250000  0.582564  0.701844  1
  Tb  Tb1  1  0.250000  0.917436  0.201844  1
  Y  Y2  1  0.750000  0.413365  0.295529  1
  Y  Y3  1  0.750000  0.086635  0.795529  1
  Co  Co4  1  0.750000  0.284085  0.009193  1
  Co  Co5  1  0.750000  0.215915  0.509193  1
  Co  Co6  1  0.250000  0.405997  0.488402  1
  Co  Co7  1  0.250000  0.094003  0.988402  1
  Co  Co8  1  0.750000  0.592047  0.509507  1
  Co  Co9  1  0.750000  0.907953  0.009507  1
  Co  Co10  1  0.250000  0.220197  0.176758  1
  Co  Co11  1  0.250000  0.279803  0.676758  1
  Co  Co12  1  0.750000  0.777529  0.822972  1
  Co  Co13  1  0.750000  0.722471  0.322972  1
  Co  Co14  1  0.250000  0.887305  0.701613  1
  Co  Co15  1  0.250000  0.612695  0.201613  1
  Co  Co16  1  0.750000  0.115874  0.301421  1
  Co  Co17  1  0.750000  0.384126  0.801421  1
  Co  Co18  1  0.250000  0.465388  0.932832  1
  Co  Co19  1  0.250000  0.034612  0.432832  1
  Co  Co20  1  0.750000  0.533269  0.068601  1
  Co  Co21  1  0.750000  0.966731  0.568601  1
  P  P22  1  0.250000  0.416142  0.112082  1
  P  P23  1  0.250000  0.083858  0.612082  1
  P  P24  1  0.750000  0.578576  0.886894  1
  P  P25  1  0.750000  0.921424  0.386894  1
  P  P26  1  0.250000  0.271310  0.869550  1
  P  P27  1  0.250000  0.228690  0.369550  1
  P  P28  1  0.750000  0.728436  0.132419  1
  P  P29  1  0.750000  0.771564  0.632419  1
  P  P30  1  0.250000  0.594181  0.390340  1
  P  P31  1  0.250000  0.905819  0.890340  1
  P  P32  1  0.750000  0.396753  0.608420  1
  P  P33  1  0.750000  0.103247  0.108420  1
  Os  Os34  1  0.250000  0.714807  0.991622  1
  Os  Os35  1  0.250000  0.785193  0.491622  1
