# generated using pymatgen
data_Nd8Cd2NiOs
_symmetry_space_group_name_H-M   'P 1'
_cell_length_a   9.88152331
_cell_length_b   9.88152446
_cell_length_c   9.98173500
_cell_angle_alpha   59.66395751
_cell_angle_beta   59.66395361
_cell_angle_gamma   59.60544761
_symmetry_Int_Tables_number   1
_chemical_formula_structural   Nd8Cd2NiOs
_chemical_formula_sum   'Nd16 Cd4 Ni2 Os2'
_cell_volume   683.62144754
_cell_formula_units_Z   2
loop_
 _symmetry_equiv_pos_site_id
 _symmetry_equiv_pos_as_xyz
  1  'x, y, z'
loop_
 _atom_site_type_symbol
 _atom_site_label
 _atom_site_symmetry_multiplicity
 _atom_site_fract_x
 _atom_site_fract_y
 _atom_site_fract_z
 _atom_site_occupancy
  Nd  Nd0  1  0.599532  0.599532  0.595199  1
  Nd  Nd1  1  0.599532  0.599532  0.205737  1
  Nd  Nd2  1  0.599494  0.206532  0.596986  1
  Nd  Nd3  1  0.206532  0.599494  0.596986  1
  Nd  Nd4  1  0.060532  0.437683  0.441589  1
  Nd  Nd5  1  0.437683  0.060532  0.060196  1
  Nd  Nd6  1  0.437683  0.060532  0.441589  1
  Nd  Nd7  1  0.060532  0.437683  0.060196  1
  Nd  Nd8  1  0.439768  0.439768  0.060232  1
  Nd  Nd9  1  0.057069  0.057069  0.442931  1
  Nd  Nd10  1  0.189755  0.805202  0.815385  1
  Nd  Nd11  1  0.805202  0.189755  0.189658  1
  Nd  Nd12  1  0.805202  0.189755  0.815385  1
  Nd  Nd13  1  0.189755  0.805202  0.189658  1
  Nd  Nd14  1  0.814698  0.814698  0.185302  1
  Nd  Nd15  1  0.192198  0.192198  0.807802  1
  Cd  Cd16  1  0.828972  0.828972  0.831706  1
  Cd  Cd17  1  0.828972  0.828972  0.510348  1
  Cd  Cd18  1  0.829594  0.509423  0.830491  1
  Cd  Cd19  1  0.509423  0.829594  0.830491  1
  Ni  Ni20  1  0.394281  0.826328  0.389697  1
  Ni  Ni21  1  0.826328  0.394281  0.389697  1
  Os  Os22  1  0.393632  0.393632  0.386912  1
  Os  Os23  1  0.393632  0.393632  0.825825  1
