# generated using pymatgen
data_Y2Ho2Co5Si10Ru
_symmetry_space_group_name_H-M   'P 1'
_cell_length_a   7.94598550
_cell_length_b   7.94552908
_cell_length_c   7.94552984
_cell_angle_alpha   139.16027581
_cell_angle_beta   106.31948066
_cell_angle_gamma   87.84810898
_symmetry_Int_Tables_number   1
_chemical_formula_structural   Y2Ho2Co5Si10Ru
_chemical_formula_sum   'Y2 Ho2 Co5 Si10 Ru1'
_cell_volume   302.33708449
_cell_formula_units_Z   1
loop_
 _symmetry_equiv_pos_site_id
 _symmetry_equiv_pos_as_xyz
  1  'x, y, z'
loop_
 _atom_site_type_symbol
 _atom_site_label
 _atom_site_symmetry_multiplicity
 _atom_site_fract_x
 _atom_site_fract_y
 _atom_site_fract_z
 _atom_site_occupancy
  Y  Y0  1  0.598121  0.874090  0.741481  1
  Y  Y1  1  0.401879  0.143360  0.275968  1
  Ho  Ho2  1  0.867411  0.626208  0.223767  1
  Ho  Ho3  1  0.132589  0.356357  0.758798  1
  Co  Co4  1  0.743730  0.127499  0.593624  1
  Co  Co5  1  0.534580  0.650016  0.907218  1
  Co  Co6  1  0.465420  0.372638  0.115436  1
  Co  Co7  1  0.000000  0.749794  0.749794  1
  Co  Co8  1  0.256270  0.849893  0.383768  1
  Si  Si9  1  0.061483  0.884383  0.149051  1
  Si  Si10  1  0.938517  0.087567  0.822898  1
  Si  Si11  1  0.264010  0.614920  0.677050  1
  Si  Si12  1  0.735990  0.413040  0.350909  1
  Si  Si13  1  0.227253  0.977632  0.749267  1
  Si  Si14  1  0.772747  0.522014  0.750380  1
  Si  Si15  1  0.777840  0.027283  0.250734  1
  Si  Si16  1  0.500000  0.250246  0.750246  1
  Si  Si17  1  0.500000  0.749943  0.249943  1
  Si  Si18  1  0.222160  0.472893  0.249443  1
  Ru  Ru19  1  0.000000  0.250222  0.250222  1
