# generated using pymatgen
data_La5NdAl24(OsPt)4
_symmetry_space_group_name_H-M   'P 1'
_cell_length_a   9.01840722
_cell_length_b   8.96479080
_cell_length_c   9.70259900
_cell_angle_alpha   90.00000000
_cell_angle_beta   90.00000000
_cell_angle_gamma   119.82663767
_symmetry_Int_Tables_number   1
_chemical_formula_structural   La5NdAl24(OsPt)4
_chemical_formula_sum   'La5 Nd1 Al24 Os4 Pt4'
_cell_volume   680.52603218
_cell_formula_units_Z   1
loop_
 _symmetry_equiv_pos_site_id
 _symmetry_equiv_pos_as_xyz
  1  'x, y, z'
loop_
 _atom_site_type_symbol
 _atom_site_label
 _atom_site_symmetry_multiplicity
 _atom_site_fract_x
 _atom_site_fract_y
 _atom_site_fract_z
 _atom_site_occupancy
  La  La0  1  0.186667  0.378565  0.250000  1
  La  La1  1  0.813463  0.621850  0.750000  1
  La  La2  1  0.621899  0.810125  0.250000  1
  La  La3  1  0.378143  0.189444  0.750000  1
  La  La4  1  0.186757  0.806023  0.250000  1
  Nd  Nd5  1  0.812667  0.194473  0.750000  1
  Al  Al6  1  0.328716  0.663593  0.022891  1
  Al  Al7  1  0.672118  0.335514  0.974464  1
  Al  Al8  1  0.672118  0.335514  0.525536  1
  Al  Al9  1  0.328716  0.663593  0.477109  1
  Al  Al10  1  0.157257  0.326657  0.575475  1
  Al  Al11  1  0.841278  0.672493  0.425409  1
  Al  Al12  1  0.676309  0.839038  0.574429  1
  Al  Al13  1  0.841278  0.672493  0.074591  1
  Al  Al14  1  0.324318  0.162392  0.426229  1
  Al  Al15  1  0.157257  0.326657  0.924525  1
  Al  Al16  1  0.158736  0.831817  0.576714  1
  Al  Al17  1  0.324318  0.162392  0.073771  1
  Al  Al18  1  0.841211  0.168246  0.424902  1
  Al  Al19  1  0.676309  0.839038  0.925571  1
  Al  Al20  1  0.841211  0.168246  0.075098  1
  Al  Al21  1  0.158736  0.831817  0.923286  1
  Al  Al22  1  0.566604  0.130113  0.250000  1
  Al  Al23  1  0.435238  0.871436  0.750000  1
  Al  Al24  1  0.872175  0.435070  0.250000  1
  Al  Al25  1  0.126276  0.563214  0.750000  1
  Al  Al26  1  0.565096  0.435428  0.250000  1
  Al  Al27  1  0.434945  0.564452  0.750000  1
  Al  Al28  1  0.994740  0.996524  0.250000  1
  Al  Al29  1  0.003619  0.004679  0.750000  1
  Os  Os30  1  0.999991  0.499742  0.999849  1
  Os  Os31  1  0.999991  0.499742  0.500151  1
  Os  Os32  1  0.999847  0.000195  0.999812  1
  Os  Os33  1  0.999847  0.000195  0.500188  1
  Pt  Pt34  1  0.500604  0.000105  0.999860  1
  Pt  Pt35  1  0.500604  0.000105  0.500140  1
  Pt  Pt36  1  0.500469  0.499508  0.999464  1
  Pt  Pt37  1  0.500469  0.499508  0.500536  1
