# generated using pymatgen
data_CeHf(PBr9)2
_symmetry_space_group_name_H-M   'P 1'
_cell_length_a   8.04749121
_cell_length_b   10.77662736
_cell_length_c   10.39484500
_cell_angle_alpha   103.64053689
_cell_angle_beta   98.00253576
_cell_angle_gamma   88.42257428
_symmetry_Int_Tables_number   1
_chemical_formula_structural   CeHf(PBr9)2
_chemical_formula_sum   'Ce1 Hf1 P2 Br18'
_cell_volume   867.51953216
_cell_formula_units_Z   1
loop_
 _symmetry_equiv_pos_site_id
 _symmetry_equiv_pos_as_xyz
  1  'x, y, z'
loop_
 _atom_site_type_symbol
 _atom_site_label
 _atom_site_symmetry_multiplicity
 _atom_site_fract_x
 _atom_site_fract_y
 _atom_site_fract_z
 _atom_site_occupancy
  Ce  Ce0  1  0.397202  0.345637  0.346262  1
  Hf  Hf1  1  0.605359  0.661049  0.658416  1
  P  P2  1  0.054018  0.188703  0.780919  1
  P  P3  1  0.945135  0.807288  0.215506  1
  Br  Br4  1  0.908555  0.735327  0.724110  1
  Br  Br5  1  0.830965  0.651404  0.053200  1
  Br  Br6  1  0.348512  0.522825  0.183714  1
  Br  Br7  1  0.652419  0.488358  0.806055  1
  Br  Br8  1  0.476492  0.181009  0.506556  1
  Br  Br9  1  0.529608  0.803888  0.497714  1
  Br  Br10  1  0.066193  0.270169  0.283668  1
  Br  Br11  1  0.480362  0.813945  0.848658  1
  Br  Br12  1  0.522936  0.176128  0.138245  1
  Br  Br13  1  0.299501  0.540556  0.568407  1
  Br  Br14  1  0.178232  0.868777  0.165276  1
  Br  Br15  1  0.713319  0.477279  0.455990  1
  Br  Br16  1  0.009767  0.236047  0.587091  1
  Br  Br17  1  0.994953  0.756205  0.406968  1
  Br  Br18  1  0.225540  0.027381  0.772440  1
  Br  Br19  1  0.771491  0.967362  0.226753  1
  Br  Br20  1  0.820152  0.133922  0.835037  1
  Br  Br21  1  0.169289  0.346741  0.939017  1
