# generated using pymatgen
data_Ta3Ti17(Si7Ge)2
_symmetry_space_group_name_H-M   'P 1'
_cell_length_a   6.73838434
_cell_length_b   6.73888107
_cell_length_c   12.29040765
_cell_angle_alpha   90.15657972
_cell_angle_beta   89.99841528
_cell_angle_gamma   89.97679193
_symmetry_Int_Tables_number   1
_chemical_formula_structural   Ta3Ti17(Si7Ge)2
_chemical_formula_sum   'Ta3 Ti17 Si14 Ge2'
_cell_volume   558.09508862
_cell_formula_units_Z   1
loop_
 _symmetry_equiv_pos_site_id
 _symmetry_equiv_pos_as_xyz
  1  'x, y, z'
loop_
 _atom_site_type_symbol
 _atom_site_label
 _atom_site_symmetry_multiplicity
 _atom_site_fract_x
 _atom_site_fract_y
 _atom_site_fract_z
 _atom_site_occupancy
  Ta  Ta0  1  0.171644  0.164934  0.000832  1
  Ta  Ta1  1  0.330141  0.671333  0.252278  1
  Ta  Ta2  1  0.667026  0.328509  0.748608  1
  Ti  Ti3  1  0.995312  0.149950  0.619315  1
  Ti  Ti4  1  0.353089  0.495814  0.870112  1
  Ti  Ti5  1  0.649559  0.505186  0.371914  1
  Ti  Ti6  1  0.497032  0.348568  0.129686  1
  Ti  Ti7  1  0.505070  0.650014  0.628145  1
  Ti  Ti8  1  0.004413  0.851527  0.122519  1
  Ti  Ti9  1  0.150464  0.995144  0.379150  1
  Ti  Ti10  1  0.847186  0.002642  0.879053  1
  Ti  Ti11  1  0.001994  0.342635  0.221562  1
  Ti  Ti12  1  0.156520  0.504530  0.468568  1
  Ti  Ti13  1  0.835980  0.496338  0.970600  1
  Ti  Ti14  1  0.505578  0.155992  0.530962  1
  Ti  Ti15  1  0.496926  0.845382  0.030886  1
  Ti  Ti16  1  0.995192  0.659870  0.718066  1
  Ti  Ti17  1  0.348283  0.003138  0.780053  1
  Ti  Ti18  1  0.656195  0.995666  0.281112  1
  Ti  Ti19  1  0.830286  0.829837  0.500103  1
  Si  Si20  1  0.803109  0.457420  0.561391  1
  Si  Si21  1  0.545063  0.198708  0.937857  1
  Si  Si22  1  0.457902  0.803200  0.439201  1
  Si  Si23  1  0.953004  0.699870  0.314351  1
  Si  Si24  1  0.301934  0.045026  0.188893  1
  Si  Si25  1  0.701046  0.953199  0.685473  1
  Si  Si26  1  0.295059  0.358896  0.668613  1
  Si  Si27  1  0.141249  0.795351  0.918996  1
  Si  Si28  1  0.857783  0.204786  0.422684  1
  Si  Si29  1  0.793806  0.141090  0.078018  1
  Si  Si30  1  0.205714  0.858417  0.577158  1
  Si  Si31  1  0.706750  0.641122  0.172621  1
  Si  Si32  1  0.359200  0.292969  0.328632  1
  Si  Si33  1  0.640910  0.707228  0.827084  1
  Ge  Ge34  1  0.043103  0.302837  0.812758  1
  Ge  Ge35  1  0.196473  0.542868  0.062746  1
