# generated using pymatgen
data_Zr10ZnSi(Sn2Bi)2
_symmetry_space_group_name_H-M   'P 1'
_cell_length_a   8.74911956
_cell_length_b   8.74222678
_cell_length_c   5.92378050
_cell_angle_alpha   89.91821688
_cell_angle_beta   90.04085627
_cell_angle_gamma   119.97394054
_symmetry_Int_Tables_number   1
_chemical_formula_structural   Zr10ZnSi(Sn2Bi)2
_chemical_formula_sum   'Zr10 Zn1 Si1 Sn4 Bi2'
_cell_volume   392.49086149
_cell_formula_units_Z   1
loop_
 _symmetry_equiv_pos_site_id
 _symmetry_equiv_pos_as_xyz
  1  'x, y, z'
loop_
 _atom_site_type_symbol
 _atom_site_label
 _atom_site_symmetry_multiplicity
 _atom_site_fract_x
 _atom_site_fract_y
 _atom_site_fract_z
 _atom_site_occupancy
  Zr  Zr0  1  0.669594  0.335606  0.003292  1
  Zr  Zr1  1  0.330406  0.666013  0.003292  1
  Zr  Zr2  1  0.330771  0.666124  0.496978  1
  Zr  Zr3  1  0.669229  0.335352  0.496978  1
  Zr  Zr4  1  0.744042  0.738754  0.743897  1
  Zr  Zr5  1  0.255958  0.994713  0.743897  1
  Zr  Zr6  1  0.000000  0.261970  0.744779  1
  Zr  Zr7  1  0.262880  0.263637  0.255331  1
  Zr  Zr8  1  0.737120  0.000757  0.255331  1
  Zr  Zr9  1  0.000000  0.735759  0.254885  1
  Zn  Zn10  1  0.000000  0.000198  0.005160  1
  Si  Si11  1  0.000000  0.000525  0.495251  1
  Sn  Sn12  1  0.000000  0.607982  0.752978  1
  Sn  Sn13  1  0.612132  0.612788  0.246844  1
  Sn  Sn14  1  0.387868  0.000656  0.246844  1
  Sn  Sn15  1  0.000000  0.389198  0.246800  1
  Bi  Bi16  1  0.391366  0.390668  0.753732  1
  Bi  Bi17  1  0.608634  0.999301  0.753732  1
