# generated using pymatgen
data_Tm4Lu6CuGePb6
_symmetry_space_group_name_H-M   'P 1'
_cell_length_a   9.06319774
_cell_length_b   9.06319737
_cell_length_c   6.62426803
_cell_angle_alpha   89.99470203
_cell_angle_beta   89.99470398
_cell_angle_gamma   120.04608595
_symmetry_Int_Tables_number   1
_chemical_formula_structural   Tm4Lu6CuGePb6
_chemical_formula_sum   'Tm4 Lu6 Cu1 Ge1 Pb6'
_cell_volume   471.00936618
_cell_formula_units_Z   1
loop_
 _symmetry_equiv_pos_site_id
 _symmetry_equiv_pos_as_xyz
  1  'x, y, z'
loop_
 _atom_site_type_symbol
 _atom_site_label
 _atom_site_symmetry_multiplicity
 _atom_site_fract_x
 _atom_site_fract_y
 _atom_site_fract_z
 _atom_site_occupancy
  Tm  Tm0  1  0.250136  0.000048  0.742919  1
  Tm  Tm1  1  0.749864  0.999952  0.257081  1
  Tm  Tm2  1  0.000048  0.250136  0.742919  1
  Tm  Tm3  1  0.999952  0.749864  0.257081  1
  Lu  Lu4  1  0.750391  0.750391  0.742627  1
  Lu  Lu5  1  0.249609  0.249609  0.257373  1
  Lu  Lu6  1  0.333432  0.666568  0.500000  1
  Lu  Lu7  1  0.666568  0.333432  0.500000  1
  Lu  Lu8  1  0.666585  0.333415  0.000000  1
  Lu  Lu9  1  0.333415  0.666585  0.000000  1
  Cu  Cu10  1  0.000000  0.000000  0.000000  1
  Ge  Ge11  1  0.000000  0.000000  0.500000  1
  Pb  Pb12  1  0.605550  0.999656  0.749416  1
  Pb  Pb13  1  0.394450  0.000344  0.250584  1
  Pb  Pb14  1  0.999656  0.605550  0.749416  1
  Pb  Pb15  1  0.000344  0.394450  0.250584  1
  Pb  Pb16  1  0.395178  0.395178  0.749561  1
  Pb  Pb17  1  0.604822  0.604822  0.250439  1
