# generated using pymatgen
data_Tm3U(TcB4)4
_symmetry_space_group_name_H-M   'P 1'
_cell_length_a   3.58129000
_cell_length_b   5.93603913
_cell_length_c   11.47060969
_cell_angle_alpha   90.02161661
_cell_angle_beta   90.00000000
_cell_angle_gamma   90.00000000
_symmetry_Int_Tables_number   1
_chemical_formula_structural   Tm3U(TcB4)4
_chemical_formula_sum   'Tm3 U1 Tc4 B16'
_cell_volume   243.84997542
_cell_formula_units_Z   1
loop_
 _symmetry_equiv_pos_site_id
 _symmetry_equiv_pos_as_xyz
  1  'x, y, z'
loop_
 _atom_site_type_symbol
 _atom_site_label
 _atom_site_symmetry_multiplicity
 _atom_site_fract_x
 _atom_site_fract_y
 _atom_site_fract_z
 _atom_site_occupancy
  Tm  Tm0  1  0.000000  0.628437  0.350207  1
  Tm  Tm1  1  0.000000  0.372390  0.648311  1
  Tm  Tm2  1  0.000000  0.129808  0.150197  1
  U  U3  1  0.000000  0.871942  0.849782  1
  Tc  Tc4  1  0.000000  0.639159  0.087884  1
  Tc  Tc5  1  0.000000  0.360750  0.906632  1
  Tc  Tc6  1  0.000000  0.136346  0.411687  1
  Tc  Tc7  1  0.000000  0.865329  0.591522  1
  B  B8  1  0.500000  0.787869  0.186469  1
  B  B9  1  0.500000  0.207853  0.814389  1
  B  B10  1  0.500000  0.289315  0.314736  1
  B  B11  1  0.500000  0.711448  0.687145  1
  B  B12  1  0.500000  0.864683  0.030536  1
  B  B13  1  0.500000  0.132834  0.967908  1
  B  B14  1  0.500000  0.365663  0.469312  1
  B  B15  1  0.500000  0.635778  0.531300  1
  B  B16  1  0.500000  0.886938  0.452673  1
  B  B17  1  0.500000  0.114417  0.547239  1
  B  B18  1  0.500000  0.385978  0.048154  1
  B  B19  1  0.500000  0.612759  0.952779  1
  B  B20  1  0.500000  0.976973  0.307227  1
  B  B21  1  0.500000  0.020651  0.693548  1
  B  B22  1  0.500000  0.476333  0.192762  1
  B  B23  1  0.500000  0.526347  0.807601  1
