# generated using pymatgen
data_Sm2MnCo11As7
_symmetry_space_group_name_H-M   'P 1'
_cell_length_a   9.40503946
_cell_length_b   9.44345090
_cell_length_c   3.77513300
_cell_angle_alpha   90.00000000
_cell_angle_beta   90.00000000
_cell_angle_gamma   120.16484811
_symmetry_Int_Tables_number   1
_chemical_formula_structural   Sm2MnCo11As7
_chemical_formula_sum   'Sm2 Mn1 Co11 As7'
_cell_volume   289.88812351
_cell_formula_units_Z   1
loop_
 _symmetry_equiv_pos_site_id
 _symmetry_equiv_pos_as_xyz
  1  'x, y, z'
loop_
 _atom_site_type_symbol
 _atom_site_label
 _atom_site_symmetry_multiplicity
 _atom_site_fract_x
 _atom_site_fract_y
 _atom_site_fract_z
 _atom_site_occupancy
  Sm  Sm0  1  0.667252  0.331922  0.000000  1
  Sm  Sm1  1  0.335048  0.669396  0.500000  1
  Mn  Mn2  1  0.112295  0.214882  0.500000  1
  Co  Co3  1  0.057175  0.627515  0.000000  1
  Co  Co4  1  0.569465  0.943434  0.000000  1
  Co  Co5  1  0.373954  0.432323  0.000000  1
  Co  Co6  1  0.276041  0.120709  0.000000  1
  Co  Co7  1  0.845346  0.721171  0.000000  1
  Co  Co8  1  0.880220  0.152820  0.000000  1
  Co  Co9  1  0.431180  0.051295  0.500000  1
  Co  Co10  1  0.620913  0.571073  0.500000  1
  Co  Co11  1  0.949854  0.381293  0.500000  1
  Co  Co12  1  0.099690  0.878564  0.500000  1
  Co  Co13  1  0.777848  0.901094  0.500000  1
  As  As14  1  0.294467  0.887924  0.000000  1
  As  As15  1  0.593330  0.706296  0.000000  1
  As  As16  1  0.113347  0.411636  0.000000  1
  As  As17  1  0.407608  0.295348  0.500000  1
  As  As18  1  0.889244  0.596821  0.500000  1
  As  As19  1  0.708234  0.110833  0.500000  1
  As  As20  1  0.997486  0.993651  0.000000  1
