# generated using pymatgen
data_K4PuPaTe6
_symmetry_space_group_name_H-M   'P 1'
_cell_length_a   7.91492346
_cell_length_b   7.91541816
_cell_length_c   8.43419000
_cell_angle_alpha   80.84928388
_cell_angle_beta   80.85121466
_cell_angle_gamma   120.02343794
_symmetry_Int_Tables_number   1
_chemical_formula_structural   K4PuPaTe6
_chemical_formula_sum   'K4 Pu1 Pa1 Te6'
_cell_volume   433.73035198
_cell_formula_units_Z   1
loop_
 _symmetry_equiv_pos_site_id
 _symmetry_equiv_pos_as_xyz
  1  'x, y, z'
loop_
 _atom_site_type_symbol
 _atom_site_label
 _atom_site_symmetry_multiplicity
 _atom_site_fract_x
 _atom_site_fract_y
 _atom_site_fract_z
 _atom_site_occupancy
  K  K0  1  0.346392  0.653535  0.499999  1
  K  K1  1  0.654420  0.345258  0.500074  1
  K  K2  1  0.999363  0.000990  0.499959  1
  K  K3  1  0.499744  0.499919  0.000012  1
  Pu  Pu4  1  0.830721  0.168029  0.999974  1
  Pa  Pa5  1  0.167678  0.831769  0.999960  1
  Te  Te6  1  0.797050  0.787599  0.214589  1
  Te  Te7  1  0.415779  0.055267  0.219822  1
  Te  Te8  1  0.065188  0.434641  0.220132  1
  Te  Te9  1  0.565740  0.934842  0.779754  1
  Te  Te10  1  0.945321  0.584729  0.780295  1
  Te  Te11  1  0.212605  0.203423  0.785429  1
