# generated using pymatgen
data_TiCrCo4(P2W)2
_symmetry_space_group_name_H-M   'P 1'
_cell_length_a   3.58703700
_cell_length_b   5.88648291
_cell_length_c   6.80559188
_cell_angle_alpha   90.24832709
_cell_angle_beta   90.00000000
_cell_angle_gamma   90.00000000
_symmetry_Int_Tables_number   1
_chemical_formula_structural   TiCrCo4(P2W)2
_chemical_formula_sum   'Ti1 Cr1 Co4 P4 W2'
_cell_volume   143.69894060
_cell_formula_units_Z   1
loop_
 _symmetry_equiv_pos_site_id
 _symmetry_equiv_pos_as_xyz
  1  'x, y, z'
loop_
 _atom_site_type_symbol
 _atom_site_label
 _atom_site_symmetry_multiplicity
 _atom_site_fract_x
 _atom_site_fract_y
 _atom_site_fract_z
 _atom_site_occupancy
  Ti  Ti0  1  0.750000  0.524458  0.825484  1
  Cr  Cr1  1  0.750000  0.026321  0.669235  1
  Co  Co2  1  0.250000  0.856093  0.933315  1
  Co  Co3  1  0.250000  0.354529  0.566772  1
  Co  Co4  1  0.750000  0.145097  0.064359  1
  Co  Co5  1  0.750000  0.644191  0.438762  1
  P  P6  1  0.250000  0.223549  0.873223  1
  P  P7  1  0.250000  0.737284  0.622713  1
  P  P8  1  0.750000  0.773703  0.125287  1
  P  P9  1  0.750000  0.270974  0.381215  1
  W  W10  1  0.250000  0.972639  0.331780  1
  W  W11  1  0.250000  0.471163  0.167855  1
