# generated using pymatgen
data_La3NdIn2(BiO7)2
_symmetry_space_group_name_H-M   'P 1'
_cell_length_a   7.75845241
_cell_length_b   7.78138856
_cell_length_c   7.87297700
_cell_angle_alpha   59.60987106
_cell_angle_beta   59.51048368
_cell_angle_gamma   59.44934302
_symmetry_Int_Tables_number   1
_chemical_formula_structural   La3NdIn2(BiO7)2
_chemical_formula_sum   'La3 Nd1 In2 Bi2 O14'
_cell_volume   332.44540758
_cell_formula_units_Z   1
loop_
 _symmetry_equiv_pos_site_id
 _symmetry_equiv_pos_as_xyz
  1  'x, y, z'
loop_
 _atom_site_type_symbol
 _atom_site_label
 _atom_site_symmetry_multiplicity
 _atom_site_fract_x
 _atom_site_fract_y
 _atom_site_fract_z
 _atom_site_occupancy
  La  La0  1  0.625000  0.125000  0.125000  1
  La  La1  1  0.125000  0.125000  0.125000  1
  La  La2  1  0.125000  0.125000  0.625000  1
  Nd  Nd3  1  0.125000  0.625000  0.125000  1
  In  In4  1  0.625000  0.125000  0.625000  1
  In  In5  1  0.125000  0.625000  0.625000  1
  Bi  Bi6  1  0.625000  0.625000  0.125000  1
  Bi  Bi7  1  0.625000  0.625000  0.625000  1
  O  O8  1  0.707241  0.291401  0.282115  1
  O  O9  1  0.711339  0.705587  0.291537  1
  O  O10  1  0.289792  0.705155  0.281585  1
  O  O11  1  0.999319  0.995746  0.002468  1
  O  O12  1  0.707241  0.291401  0.719242  1
  O  O13  1  0.960208  0.544845  0.526531  1
  O  O14  1  0.289792  0.705155  0.723469  1
  O  O15  1  0.542759  0.958599  0.530758  1
  O  O16  1  0.250681  0.254254  0.247532  1
  O  O17  1  0.960208  0.544845  0.968415  1
  O  O18  1  0.538661  0.544413  0.958463  1
  O  O19  1  0.969766  0.968836  0.530699  1
  O  O20  1  0.542759  0.958599  0.967885  1
  O  O21  1  0.280234  0.281164  0.719301  1
