# generated using pymatgen
data_Pr3SeOF5
_symmetry_space_group_name_H-M   'P 1'
_cell_length_a   3.92559900
_cell_length_b   9.91479970
_cell_length_c   9.96472299
_cell_angle_alpha   60.24918012
_cell_angle_beta   90.00000000
_cell_angle_gamma   90.00000000
_symmetry_Int_Tables_number   1
_chemical_formula_structural   Pr3SeOF5
_chemical_formula_sum   'Pr6 Se2 O2 F10'
_cell_volume   336.72142127
_cell_formula_units_Z   2
loop_
 _symmetry_equiv_pos_site_id
 _symmetry_equiv_pos_as_xyz
  1  'x, y, z'
loop_
 _atom_site_type_symbol
 _atom_site_label
 _atom_site_symmetry_multiplicity
 _atom_site_fract_x
 _atom_site_fract_y
 _atom_site_fract_z
 _atom_site_occupancy
  Pr  Pr0  1  0.000000  0.585999  0.129206  1
  Pr  Pr1  1  0.000000  0.127264  0.272284  1
  Pr  Pr2  1  0.000000  0.300939  0.588674  1
  Pr  Pr3  1  0.500000  0.402739  0.900340  1
  Pr  Pr4  1  0.500000  0.882588  0.713059  1
  Pr  Pr5  1  0.500000  0.703037  0.399896  1
  Se  Se6  1  0.000000  0.670385  0.666758  1
  Se  Se7  1  0.500000  0.326650  0.338188  1
  O  O8  1  0.000000  0.564109  0.385636  1
  O  O9  1  0.000000  0.381382  0.053488  1
  F  F10  1  0.000000  0.841220  0.878051  1
  F  F11  1  0.000000  0.884729  0.274666  1
  F  F12  1  0.000000  0.277243  0.839042  1
  F  F13  1  0.500000  0.143812  0.120742  1
  F  F14  1  0.500000  0.124257  0.714045  1
  F  F15  1  0.500000  0.726067  0.148227  1
  F  F16  1  0.000000  0.047588  0.568009  1
  F  F17  1  0.500000  0.430472  0.626020  1
  F  F18  1  0.500000  0.623927  0.952047  1
  F  F19  1  0.500000  0.955592  0.431624  1
