# generated using pymatgen
data_Hf16Ta3Ni4Rh
_symmetry_space_group_name_H-M   'P 1'
_cell_length_a   8.70677908
_cell_length_b   8.70677864
_cell_length_c   8.70677959
_cell_angle_alpha   60.58695322
_cell_angle_beta   60.58695344
_cell_angle_gamma   60.58695804
_symmetry_Int_Tables_number   1
_chemical_formula_structural   Hf16Ta3Ni4Rh
_chemical_formula_sum   'Hf16 Ta3 Ni4 Rh1'
_cell_volume   472.90884220
_cell_formula_units_Z   1
loop_
 _symmetry_equiv_pos_site_id
 _symmetry_equiv_pos_as_xyz
  1  'x, y, z'
loop_
 _atom_site_type_symbol
 _atom_site_label
 _atom_site_symmetry_multiplicity
 _atom_site_fract_x
 _atom_site_fract_y
 _atom_site_fract_z
 _atom_site_occupancy
  Hf  Hf0  1  0.697094  0.100769  0.100769  1
  Hf  Hf1  1  0.100769  0.697094  0.100769  1
  Hf  Hf2  1  0.100769  0.100769  0.697094  1
  Hf  Hf3  1  0.102973  0.102973  0.102973  1
  Hf  Hf4  1  0.315151  0.315151  0.683173  1
  Hf  Hf5  1  0.684970  0.684970  0.314970  1
  Hf  Hf6  1  0.315151  0.683173  0.315151  1
  Hf  Hf7  1  0.684970  0.314970  0.684970  1
  Hf  Hf8  1  0.683173  0.315151  0.315151  1
  Hf  Hf9  1  0.314970  0.684970  0.684970  1
  Hf  Hf10  1  0.952228  0.952228  0.547009  1
  Hf  Hf11  1  0.551598  0.551598  0.948321  1
  Hf  Hf12  1  0.952228  0.547009  0.952228  1
  Hf  Hf13  1  0.551598  0.948321  0.551598  1
  Hf  Hf14  1  0.547009  0.952228  0.952228  1
  Hf  Hf15  1  0.948321  0.551598  0.551598  1
  Ta  Ta16  1  0.999609  0.333421  0.333421  1
  Ta  Ta17  1  0.333421  0.999609  0.333421  1
  Ta  Ta18  1  0.333421  0.333421  0.999609  1
  Ni  Ni19  1  0.325223  0.889649  0.889649  1
  Ni  Ni20  1  0.889649  0.325223  0.889649  1
  Ni  Ni21  1  0.889649  0.889649  0.325223  1
  Ni  Ni22  1  0.891429  0.891429  0.891429  1
  Rh  Rh23  1  0.334627  0.334627  0.334627  1
