# generated using pymatgen
data_SmDy3(Al8Pt3)3
_symmetry_space_group_name_H-M   'P 1'
_cell_length_a   7.53528831
_cell_length_b   7.55334365
_cell_length_c   13.20426200
_cell_angle_alpha   84.60769872
_cell_angle_beta   79.10180946
_cell_angle_gamma   59.91600478
_symmetry_Int_Tables_number   1
_chemical_formula_structural   SmDy3(Al8Pt3)3
_chemical_formula_sum   'Sm1 Dy3 Al24 Pt9'
_cell_volume   638.57417898
_cell_formula_units_Z   1
loop_
 _symmetry_equiv_pos_site_id
 _symmetry_equiv_pos_as_xyz
  1  'x, y, z'
loop_
 _atom_site_type_symbol
 _atom_site_label
 _atom_site_symmetry_multiplicity
 _atom_site_fract_x
 _atom_site_fract_y
 _atom_site_fract_z
 _atom_site_occupancy
  Sm  Sm0  1  0.393316  0.168248  0.808311  1
  Dy  Dy1  1  0.606305  0.831884  0.192263  1
  Dy  Dy2  1  0.733646  0.498693  0.807700  1
  Dy  Dy3  1  0.266292  0.501281  0.192383  1
  Al  Al4  1  0.684679  0.833250  0.945215  1
  Al  Al5  1  0.315424  0.166178  0.055803  1
  Al  Al6  1  0.146710  0.832452  0.561052  1
  Al  Al7  1  0.853500  0.167542  0.438360  1
  Al  Al8  1  0.480041  0.166666  0.558248  1
  Al  Al9  1  0.520251  0.833266  0.441098  1
  Al  Al10  1  0.217167  0.165291  0.329929  1
  Al  Al11  1  0.783506  0.834325  0.669327  1
  Al  Al12  1  0.437699  0.506759  0.669270  1
  Al  Al13  1  0.562643  0.493633  0.329804  1
  Al  Al14  1  0.109464  0.159984  0.668109  1
  Al  Al15  1  0.890559  0.839906  0.330937  1
  Al  Al16  1  0.352544  0.500047  0.945230  1
  Al  Al17  1  0.646909  0.500679  0.055826  1
  Al  Al18  1  0.014525  0.167497  0.954240  1
  Al  Al19  1  0.984266  0.832484  0.047125  1
  Al  Al20  1  0.186725  0.499251  0.441114  1
  Al  Al21  1  0.813450  0.500683  0.558413  1
  Al  Al22  1  0.734555  0.164020  0.183861  1
  Al  Al23  1  0.266216  0.833792  0.816342  1
  Al  Al24  1  0.059565  0.632656  0.815328  1
  Al  Al25  1  0.938455  0.368909  0.184867  1
  Al  Al26  1  0.856992  0.042307  0.816052  1
  Al  Al27  1  0.144613  0.958266  0.184180  1
  Pt  Pt28  1  0.119575  0.492832  0.638086  1
  Pt  Pt29  1  0.879982  0.508197  0.361269  1
  Pt  Pt30  1  0.657329  0.171329  0.000489  1
  Pt  Pt31  1  0.342426  0.828379  0.000441  1
  Pt  Pt32  1  0.537828  0.166748  0.361402  1
  Pt  Pt33  1  0.462223  0.832499  0.638058  1
  Pt  Pt34  1  0.779747  0.174788  0.636722  1
  Pt  Pt35  1  0.221369  0.824891  0.362618  1
  Pt  Pt36  1  0.999503  0.500387  0.000529  1
