# generated using pymatgen
data_DyY3(PdPt)2
_symmetry_space_group_name_H-M   'P 1'
_cell_length_a   4.60057300
_cell_length_b   5.56794638
_cell_length_c   7.01442546
_cell_angle_alpha   89.95808428
_cell_angle_beta   90.00000000
_cell_angle_gamma   90.00000000
_symmetry_Int_Tables_number   1
_chemical_formula_structural   DyY3(PdPt)2
_chemical_formula_sum   'Dy1 Y3 Pd2 Pt2'
_cell_volume   179.67967727
_cell_formula_units_Z   1
loop_
 _symmetry_equiv_pos_site_id
 _symmetry_equiv_pos_as_xyz
  1  'x, y, z'
loop_
 _atom_site_type_symbol
 _atom_site_label
 _atom_site_symmetry_multiplicity
 _atom_site_fract_x
 _atom_site_fract_y
 _atom_site_fract_z
 _atom_site_occupancy
  Dy  Dy0  1  0.000000  0.895063  0.182930  1
  Y  Y1  1  0.000000  0.104705  0.682947  1
  Y  Y2  1  0.500000  0.387093  0.318193  1
  Y  Y3  1  0.500000  0.612888  0.818340  1
  Pd  Pd4  1  0.000000  0.595770  0.541248  1
  Pd  Pd5  1  0.000000  0.405472  0.043355  1
  Pt  Pt6  1  0.500000  0.897526  0.455198  1
  Pt  Pt7  1  0.500000  0.101483  0.957790  1
