# generated using pymatgen
data_LuSc19Bi11Pb
_symmetry_space_group_name_H-M   'P 1'
_cell_length_a   7.79789125
_cell_length_b   9.02797022
_cell_length_c   11.41052402
_cell_angle_alpha   90.00384031
_cell_angle_beta   89.96762695
_cell_angle_gamma   90.02486889
_symmetry_Int_Tables_number   1
_chemical_formula_structural   LuSc19Bi11Pb
_chemical_formula_sum   'Lu1 Sc19 Bi11 Pb1'
_cell_volume   803.29075782
_cell_formula_units_Z   1
loop_
 _symmetry_equiv_pos_site_id
 _symmetry_equiv_pos_as_xyz
  1  'x, y, z'
loop_
 _atom_site_type_symbol
 _atom_site_label
 _atom_site_symmetry_multiplicity
 _atom_site_fract_x
 _atom_site_fract_y
 _atom_site_fract_z
 _atom_site_occupancy
  Lu  Lu0  1  0.686179  0.249840  0.719239  1
  Sc  Sc1  1  0.020198  0.249494  0.509997  1
  Sc  Sc2  1  0.979765  0.751473  0.486669  1
  Sc  Sc3  1  0.477921  0.749925  0.011605  1
  Sc  Sc4  1  0.521267  0.250123  0.989883  1
  Sc  Sc5  1  0.350850  0.249010  0.279588  1
  Sc  Sc6  1  0.647453  0.750186  0.718819  1
  Sc  Sc7  1  0.149172  0.750046  0.782010  1
  Sc  Sc8  1  0.853465  0.248722  0.220197  1
  Sc  Sc9  1  0.187210  0.249978  0.781295  1
  Sc  Sc10  1  0.813357  0.750225  0.219474  1
  Sc  Sc11  1  0.311587  0.751096  0.281305  1
  Sc  Sc12  1  0.195950  0.066511  0.061492  1
  Sc  Sc13  1  0.803952  0.932655  0.940128  1
  Sc  Sc14  1  0.304526  0.932471  0.559849  1
  Sc  Sc15  1  0.804188  0.567327  0.940096  1
  Sc  Sc16  1  0.697052  0.066966  0.438995  1
  Sc  Sc17  1  0.195901  0.434000  0.060487  1
  Sc  Sc18  1  0.695295  0.433329  0.439396  1
  Sc  Sc19  1  0.305631  0.567040  0.560132  1
  Bi  Bi20  1  0.402821  0.249880  0.536917  1
  Bi  Bi21  1  0.593141  0.749920  0.459607  1
  Bi  Bi22  1  0.092468  0.750051  0.040545  1
  Bi  Bi23  1  0.908283  0.250083  0.961551  1
  Bi  Bi24  1  0.937254  0.992822  0.673786  1
  Bi  Bi25  1  0.431529  0.994295  0.826907  1
  Bi  Bi26  1  0.937022  0.507156  0.673524  1
  Bi  Bi27  1  0.566433  0.003983  0.174071  1
  Bi  Bi28  1  0.066321  0.496100  0.325703  1
  Bi  Bi29  1  0.566782  0.496058  0.174244  1
  Bi  Bi30  1  0.431362  0.505670  0.826976  1
  Pb  Pb31  1  0.065666  0.003567  0.325513  1
