# generated using pymatgen
data_La4PrNd5(Al2Ru3)2
_symmetry_space_group_name_H-M   'P 1'
_cell_length_a   8.51353495
_cell_length_b   8.62650161
_cell_length_c   8.60100224
_cell_angle_alpha   109.47451219
_cell_angle_beta   109.09950306
_cell_angle_gamma   109.23784896
_symmetry_Int_Tables_number   1
_chemical_formula_structural   La4PrNd5(Al2Ru3)2
_chemical_formula_sum   'La4 Pr1 Nd5 Al4 Ru6'
_cell_volume   489.83779654
_cell_formula_units_Z   1
loop_
 _symmetry_equiv_pos_site_id
 _symmetry_equiv_pos_as_xyz
  1  'x, y, z'
loop_
 _atom_site_type_symbol
 _atom_site_label
 _atom_site_symmetry_multiplicity
 _atom_site_fract_x
 _atom_site_fract_y
 _atom_site_fract_z
 _atom_site_occupancy
  La  La0  1  0.253135  0.690075  0.441237  1
  La  La1  1  0.752722  0.813860  0.060404  1
  La  La2  1  0.439800  0.248277  0.687865  1
  La  La3  1  0.691332  0.440052  0.252880  1
  Pr  Pr4  1  0.000042  0.285951  0.504192  1
  Nd  Nd5  1  0.065809  0.751393  0.816447  1
  Nd  Nd6  1  0.817167  0.064047  0.750666  1
  Nd  Nd7  1  0.215556  0.216658  0.213243  1
  Nd  Nd8  1  0.499119  0.995322  0.283477  1
  Nd  Nd9  1  0.287140  0.501613  0.999228  1
  Al  Al10  1  0.590415  0.588529  0.589530  1
  Al  Al11  1  0.499880  0.003424  0.914980  1
  Al  Al12  1  0.915453  0.497433  0.998415  1
  Al  Al13  1  0.998748  0.912196  0.499685  1
  Ru  Ru14  1  0.248150  0.122417  0.860562  1
  Ru  Ru15  1  0.738702  0.374414  0.633046  1
  Ru  Ru16  1  0.862328  0.254285  0.121898  1
  Ru  Ru17  1  0.112100  0.861858  0.244111  1
  Ru  Ru18  1  0.629431  0.738707  0.376314  1
  Ru  Ru19  1  0.382969  0.639489  0.751821  1
