# generated using pymatgen
data_U3Sn3Ir2Ru
_symmetry_space_group_name_H-M   'P 1'
_cell_length_a   7.34504800
_cell_length_b   7.34504736
_cell_length_c   4.08198300
_cell_angle_alpha   90.00000000
_cell_angle_beta   90.00000000
_cell_angle_gamma   119.99999387
_symmetry_Int_Tables_number   1
_chemical_formula_structural   U3Sn3Ir2Ru
_chemical_formula_sum   'U3 Sn3 Ir2 Ru1'
_cell_volume   190.71773880
_cell_formula_units_Z   1
loop_
 _symmetry_equiv_pos_site_id
 _symmetry_equiv_pos_as_xyz
  1  'x, y, z'
loop_
 _atom_site_type_symbol
 _atom_site_label
 _atom_site_symmetry_multiplicity
 _atom_site_fract_x
 _atom_site_fract_y
 _atom_site_fract_z
 _atom_site_occupancy
  U  U0  1  0.000000  0.416578  0.500000  1
  U  U1  1  0.583422  0.583422  0.500000  1
  U  U2  1  0.416578  0.000000  0.500000  1
  Sn  Sn3  1  0.000000  0.748762  0.000000  1
  Sn  Sn4  1  0.251238  0.251238  0.000000  1
  Sn  Sn5  1  0.748762  0.000000  0.000000  1
  Ir  Ir6  1  0.333333  0.666667  0.000000  1
  Ir  Ir7  1  0.666667  0.333333  0.000000  1
  Ru  Ru8  1  0.000000  0.000000  0.500000  1
