# generated using pymatgen
data_Ba(PdO2)8
_symmetry_space_group_name_H-M   'P 1'
_cell_length_a   6.32861976
_cell_length_b   7.39955840
_cell_length_c   7.39487048
_cell_angle_alpha   87.35126896
_cell_angle_beta   77.61701885
_cell_angle_gamma   77.66215419
_symmetry_Int_Tables_number   1
_chemical_formula_structural   Ba(PdO2)8
_chemical_formula_sum   'Ba1 Pd8 O16'
_cell_volume   330.42638557
_cell_formula_units_Z   1
loop_
 _symmetry_equiv_pos_site_id
 _symmetry_equiv_pos_as_xyz
  1  'x, y, z'
loop_
 _atom_site_type_symbol
 _atom_site_label
 _atom_site_symmetry_multiplicity
 _atom_site_fract_x
 _atom_site_fract_y
 _atom_site_fract_z
 _atom_site_occupancy
  Ba  Ba0  1  0.237908  0.000178  0.000479  1
  Pd  Pd1  1  0.079889  0.183340  0.483894  1
  Pd  Pd2  1  0.581578  0.183367  0.477934  1
  Pd  Pd3  1  0.321480  0.516282  0.183805  1
  Pd  Pd4  1  0.820810  0.522488  0.182951  1
  Pd  Pd5  1  0.172489  0.483689  0.815998  1
  Pd  Pd6  1  0.672621  0.477796  0.816887  1
  Pd  Pd7  1  0.413902  0.816708  0.516095  1
  Pd  Pd8  1  0.912089  0.816410  0.522258  1
  O  O9  1  0.392238  0.049014  0.347453  1
  O  O10  1  0.902732  0.047296  0.350782  1
  O  O11  1  0.082990  0.369314  0.277118  1
  O  O12  1  0.585868  0.373472  0.278715  1
  O  O13  1  0.077086  0.652208  0.047721  1
  O  O14  1  0.567216  0.649625  0.048136  1
  O  O15  1  0.271101  0.277736  0.630157  1
  O  O16  1  0.769089  0.276737  0.628559  1
  O  O17  1  0.222662  0.722433  0.369791  1
  O  O18  1  0.724731  0.723097  0.371500  1
  O  O19  1  0.416746  0.348052  0.951960  1
  O  O20  1  0.926286  0.350315  0.951459  1
  O  O21  1  0.410605  0.630832  0.722888  1
  O  O22  1  0.907957  0.626580  0.721406  1
  O  O23  1  0.591276  0.952059  0.649173  1
  O  O24  1  0.101228  0.950972  0.652881  1
