# generated using pymatgen
data_Hf2CuNi3Rh2
_symmetry_space_group_name_H-M   'P 1'
_cell_length_a   3.89361100
_cell_length_b   5.34909300
_cell_length_c   10.70853400
_cell_angle_alpha   90.00000000
_cell_angle_beta   90.00000000
_cell_angle_gamma   90.00000000
_symmetry_Int_Tables_number   1
_chemical_formula_structural   Hf2CuNi3Rh2
_chemical_formula_sum   'Hf4 Cu2 Ni6 Rh4'
_cell_volume   223.02971466
_cell_formula_units_Z   2
loop_
 _symmetry_equiv_pos_site_id
 _symmetry_equiv_pos_as_xyz
  1  'x, y, z'
loop_
 _atom_site_type_symbol
 _atom_site_label
 _atom_site_symmetry_multiplicity
 _atom_site_fract_x
 _atom_site_fract_y
 _atom_site_fract_z
 _atom_site_occupancy
  Hf  Hf0  1  0.500000  0.229035  0.629769  1
  Hf  Hf1  1  0.500000  0.770965  0.370231  1
  Hf  Hf2  1  0.500000  0.729035  0.870231  1
  Hf  Hf3  1  0.500000  0.270965  0.129769  1
  Cu  Cu4  1  0.000000  0.500000  0.500000  1
  Cu  Cu5  1  0.000000  0.000000  0.000000  1
  Ni  Ni6  1  0.000000  0.477114  0.750932  1
  Ni  Ni7  1  0.000000  0.522886  0.249068  1
  Ni  Ni8  1  0.000000  0.000000  0.500000  1
  Ni  Ni9  1  0.000000  0.500000  0.000000  1
  Ni  Ni10  1  0.000000  0.022886  0.250932  1
  Ni  Ni11  1  0.000000  0.977114  0.749068  1
  Rh  Rh12  1  0.500000  0.233432  0.878152  1
  Rh  Rh13  1  0.500000  0.766568  0.121848  1
  Rh  Rh14  1  0.500000  0.733432  0.621848  1
  Rh  Rh15  1  0.500000  0.266568  0.378152  1
