# generated using pymatgen
data_Hf4Fe3Si4Ir
_symmetry_space_group_name_H-M   'P 1'
_cell_length_a   3.95038800
_cell_length_b   6.38086732
_cell_length_c   7.11103188
_cell_angle_alpha   89.42235021
_cell_angle_beta   90.00000000
_cell_angle_gamma   90.00000000
_symmetry_Int_Tables_number   1
_chemical_formula_structural   Hf4Fe3Si4Ir
_chemical_formula_sum   'Hf4 Fe3 Si4 Ir1'
_cell_volume   179.23797182
_cell_formula_units_Z   1
loop_
 _symmetry_equiv_pos_site_id
 _symmetry_equiv_pos_as_xyz
  1  'x, y, z'
loop_
 _atom_site_type_symbol
 _atom_site_label
 _atom_site_symmetry_multiplicity
 _atom_site_fract_x
 _atom_site_fract_y
 _atom_site_fract_z
 _atom_site_occupancy
  Hf  Hf0  1  0.250000  0.996537  0.309776  1
  Hf  Hf1  1  0.250000  0.507141  0.200799  1
  Hf  Hf2  1  0.750000  0.993643  0.686636  1
  Hf  Hf3  1  0.750000  0.497731  0.799998  1
  Fe  Fe4  1  0.250000  0.657463  0.564452  1
  Fe  Fe5  1  0.750000  0.845415  0.065788  1
  Fe  Fe6  1  0.750000  0.346180  0.434345  1
  Si  Si7  1  0.250000  0.290629  0.598910  1
  Si  Si8  1  0.250000  0.779906  0.890052  1
  Si  Si9  1  0.750000  0.711303  0.390678  1
  Si  Si10  1  0.750000  0.214631  0.124924  1
  Ir  Ir11  1  0.250000  0.159423  0.933640  1
