# generated using pymatgen
data_Er2Sc6Ga3Ni
_symmetry_space_group_name_H-M   'P 1'
_cell_length_a   9.55134078
_cell_length_b   9.55134105
_cell_length_c   6.55510000
_cell_angle_alpha   90.00000000
_cell_angle_beta   90.00000000
_cell_angle_gamma   120.10484952
_symmetry_Int_Tables_number   1
_chemical_formula_structural   Er2Sc6Ga3Ni
_chemical_formula_sum   'Er4 Sc12 Ga6 Ni2'
_cell_volume   517.34330009
_cell_formula_units_Z   2
loop_
 _symmetry_equiv_pos_site_id
 _symmetry_equiv_pos_as_xyz
  1  'x, y, z'
loop_
 _atom_site_type_symbol
 _atom_site_label
 _atom_site_symmetry_multiplicity
 _atom_site_fract_x
 _atom_site_fract_y
 _atom_site_fract_z
 _atom_site_occupancy
  Er  Er0  1  0.467525  0.934907  0.293435  1
  Er  Er1  1  0.065093  0.532475  0.293435  1
  Er  Er2  1  0.934907  0.467525  0.793435  1
  Er  Er3  1  0.532475  0.065093  0.793435  1
  Sc  Sc4  1  0.999932  0.000068  0.268538  1
  Sc  Sc5  1  0.000068  0.999932  0.768538  1
  Sc  Sc6  1  0.170348  0.829652  0.990360  1
  Sc  Sc7  1  0.829652  0.170348  0.490360  1
  Sc  Sc8  1  0.176242  0.343218  0.992609  1
  Sc  Sc9  1  0.656782  0.823758  0.992609  1
  Sc  Sc10  1  0.343218  0.176242  0.492609  1
  Sc  Sc11  1  0.823758  0.656782  0.492609  1
  Sc  Sc12  1  0.335931  0.664069  0.670952  1
  Sc  Sc13  1  0.664069  0.335931  0.170952  1
  Sc  Sc14  1  0.467027  0.532973  0.294459  1
  Sc  Sc15  1  0.532973  0.467027  0.794459  1
  Ga  Ga16  1  0.161311  0.838689  0.544612  1
  Ga  Ga17  1  0.838689  0.161311  0.044612  1
  Ga  Ga18  1  0.164303  0.326086  0.542370  1
  Ga  Ga19  1  0.673914  0.835697  0.542370  1
  Ga  Ga20  1  0.326086  0.164303  0.042370  1
  Ga  Ga21  1  0.835697  0.673914  0.042370  1
  Ni  Ni22  1  0.335448  0.664552  0.047309  1
  Ni  Ni23  1  0.664552  0.335448  0.547309  1
