# generated using pymatgen
data_K2Rb4In2Bi3As
_symmetry_space_group_name_H-M   'P 1'
_cell_length_a   9.98723147
_cell_length_b   9.99847603
_cell_length_c   9.98723189
_cell_angle_alpha   131.81297045
_cell_angle_beta   135.11151523
_cell_angle_gamma   67.94411534
_symmetry_Int_Tables_number   1
_chemical_formula_structural   K2Rb4In2Bi3As
_chemical_formula_sum   'K2 Rb4 In2 Bi3 As1'
_cell_volume   515.60931365
_cell_formula_units_Z   1
loop_
 _symmetry_equiv_pos_site_id
 _symmetry_equiv_pos_as_xyz
  1  'x, y, z'
loop_
 _atom_site_type_symbol
 _atom_site_label
 _atom_site_symmetry_multiplicity
 _atom_site_fract_x
 _atom_site_fract_y
 _atom_site_fract_z
 _atom_site_occupancy
  K  K0  1  0.750046  0.984627  0.748970  1
  K  K1  1  0.235657  0.984627  0.234581  1
  Rb  Rb2  1  0.676439  0.445660  0.769222  1
  Rb  Rb3  1  0.824858  0.122738  0.297881  1
  Rb  Rb4  1  0.171056  0.903535  0.732478  1
  Rb  Rb5  1  0.329104  0.559403  0.230299  1
  In  In6  1  0.240494  0.502119  0.743713  1
  In  In7  1  0.758407  0.502119  0.261625  1
  Bi  Bi8  1  0.396644  0.199781  0.803137  1
  Bi  Bi9  1  0.601073  0.802623  0.201550  1
  Bi  Bi10  1  0.104043  0.396082  0.292039  1
  As  As11  1  0.912179  0.596685  0.684506  1
