# generated using pymatgen
data_Tb5Co16(P4W)3
_symmetry_space_group_name_H-M   'P 1'
_cell_length_a   12.08568700
_cell_length_b   12.08568628
_cell_length_c   3.71353200
_cell_angle_alpha   90.00000000
_cell_angle_beta   90.00000000
_cell_angle_gamma   119.99999376
_symmetry_Int_Tables_number   1
_chemical_formula_structural   Tb5Co16(P4W)3
_chemical_formula_sum   'Tb5 Co16 P12 W3'
_cell_volume   469.74318583
_cell_formula_units_Z   1
loop_
 _symmetry_equiv_pos_site_id
 _symmetry_equiv_pos_as_xyz
  1  'x, y, z'
loop_
 _atom_site_type_symbol
 _atom_site_label
 _atom_site_symmetry_multiplicity
 _atom_site_fract_x
 _atom_site_fract_y
 _atom_site_fract_z
 _atom_site_occupancy
  Tb  Tb0  1  0.666667  0.333333  0.000000  1
  Tb  Tb1  1  0.333333  0.666667  0.000000  1
  Tb  Tb2  1  0.184961  0.184961  0.500000  1
  Tb  Tb3  1  0.815039  0.000000  0.500000  1
  Tb  Tb4  1  0.000000  0.815039  0.500000  1
  Co  Co5  1  0.823407  0.198874  0.000000  1
  Co  Co6  1  0.801126  0.624533  0.000000  1
  Co  Co7  1  0.375467  0.176593  0.000000  1
  Co  Co8  1  0.198874  0.823407  0.000000  1
  Co  Co9  1  0.624533  0.801126  0.000000  1
  Co  Co10  1  0.176593  0.375467  0.000000  1
  Co  Co11  1  0.644041  0.126691  0.500000  1
  Co  Co12  1  0.873309  0.517349  0.500000  1
  Co  Co13  1  0.482651  0.355959  0.500000  1
  Co  Co14  1  0.126691  0.644041  0.500000  1
  Co  Co15  1  0.517349  0.873309  0.500000  1
  Co  Co16  1  0.355959  0.482651  0.500000  1
  Co  Co17  1  0.718617  0.718617  0.500000  1
  Co  Co18  1  0.281383  0.000000  0.500000  1
  Co  Co19  1  0.000000  0.281383  0.500000  1
  Co  Co20  1  0.000000  0.000000  0.000000  1
  P  P21  1  0.360316  0.360316  0.000000  1
  P  P22  1  0.639684  0.000000  0.000000  1
  P  P23  1  0.000000  0.639684  0.000000  1
  P  P24  1  0.834557  0.313738  0.500000  1
  P  P25  1  0.686262  0.520819  0.500000  1
  P  P26  1  0.479181  0.165443  0.500000  1
  P  P27  1  0.313738  0.834557  0.500000  1
  P  P28  1  0.520819  0.686262  0.500000  1
  P  P29  1  0.165443  0.479181  0.500000  1
  P  P30  1  0.821660  0.821660  0.000000  1
  P  P31  1  0.178340  0.000000  0.000000  1
  P  P32  1  0.000000  0.178340  0.000000  1
  W  W33  1  0.553805  0.553805  0.000000  1
  W  W34  1  0.446195  0.000000  0.000000  1
  W  W35  1  0.000000  0.446195  0.000000  1
