# generated using pymatgen
data_Dy2Er10Ga2Co3Ni
_symmetry_space_group_name_H-M   'P 1'
_cell_length_a   8.21139625
_cell_length_b   8.22746041
_cell_length_c   8.22746010
_cell_angle_alpha   112.56307743
_cell_angle_beta   109.35527521
_cell_angle_gamma   106.62344583
_symmetry_Int_Tables_number   1
_chemical_formula_structural   Dy2Er10Ga2Co3Ni
_chemical_formula_sum   'Dy2 Er10 Ga2 Co3 Ni1'
_cell_volume   426.34267152
_cell_formula_units_Z   1
loop_
 _symmetry_equiv_pos_site_id
 _symmetry_equiv_pos_as_xyz
  1  'x, y, z'
loop_
 _atom_site_type_symbol
 _atom_site_label
 _atom_site_symmetry_multiplicity
 _atom_site_fract_x
 _atom_site_fract_y
 _atom_site_fract_z
 _atom_site_occupancy
  Dy  Dy0  1  0.041212  0.738392  0.302820  1
  Dy  Dy1  1  0.957354  0.260635  0.696718  1
  Er  Er2  1  0.563589  0.260414  0.303174  1
  Er  Er3  1  0.436109  0.738593  0.697517  1
  Er  Er4  1  0.672972  0.861630  0.186878  1
  Er  Er5  1  0.331908  0.520738  0.190474  1
  Er  Er6  1  0.331908  0.141433  0.811171  1
  Er  Er7  1  0.672972  0.486094  0.811344  1
  Er  Er8  1  0.179479  0.219698  0.401058  1
  Er  Er9  1  0.817185  0.218144  0.040200  1
  Er  Er10  1  0.179479  0.778424  0.959781  1
  Er  Er11  1  0.817185  0.776985  0.599039  1
  Ga  Ga12  1  0.999492  0.499447  0.500045  1
  Ga  Ga13  1  0.499162  0.999199  0.499963  1
  Co  Co14  1  0.660699  0.497936  0.162763  1
  Co  Co15  1  0.336411  0.499114  0.837296  1
  Co  Co16  1  0.883220  0.884431  0.998789  1
  Ni  Ni17  1  0.119663  0.118696  0.000968  1
