# generated using pymatgen
data_TbSmPaP4Pd7
_symmetry_space_group_name_H-M   'P 1'
_cell_length_a   7.99163411
_cell_length_b   7.99163425
_cell_length_c   9.47716175
_cell_angle_alpha   55.19761432
_cell_angle_beta   55.19761361
_cell_angle_gamma   29.29960195
_symmetry_Int_Tables_number   1
_chemical_formula_structural   TbSmPaP4Pd7
_chemical_formula_sum   'Tb1 Sm1 Pa1 P4 Pd7'
_cell_volume   239.17286082
_cell_formula_units_Z   1
loop_
 _symmetry_equiv_pos_site_id
 _symmetry_equiv_pos_as_xyz
  1  'x, y, z'
loop_
 _atom_site_type_symbol
 _atom_site_label
 _atom_site_symmetry_multiplicity
 _atom_site_fract_x
 _atom_site_fract_y
 _atom_site_fract_z
 _atom_site_occupancy
  Tb  Tb0  1  0.318808  0.318808  0.680325  1
  Sm  Sm1  1  0.681261  0.681261  0.319558  1
  Pa  Pa2  1  0.000260  0.000260  0.999753  1
  P  P3  1  0.348343  0.348343  0.241600  1
  P  P4  1  0.653204  0.653204  0.756622  1
  P  P5  1  0.896467  0.896467  0.823635  1
  P  P6  1  0.102795  0.102795  0.175400  1
  Pd  Pd7  1  0.307767  0.307767  0.024719  1
  Pd  Pd8  1  0.692786  0.692786  0.972778  1
  Pd  Pd9  1  0.510595  0.510595  0.711216  1
  Pd  Pd10  1  0.831237  0.831237  0.427566  1
  Pd  Pd11  1  0.488937  0.488937  0.289664  1
  Pd  Pd12  1  0.169151  0.169151  0.575497  1
  Pd  Pd13  1  0.998388  0.998388  0.501669  1
