# generated using pymatgen
data_Dy3ZnCo9GeB4
_symmetry_space_group_name_H-M   'P 1'
_cell_length_a   5.12204900
_cell_length_b   5.12204877
_cell_length_c   9.56960800
_cell_angle_alpha   90.00000000
_cell_angle_beta   90.00000000
_cell_angle_gamma   120.00000794
_symmetry_Int_Tables_number   1
_chemical_formula_structural   Dy3ZnCo9GeB4
_chemical_formula_sum   'Dy3 Zn1 Co9 Ge1 B4'
_cell_volume   217.42635400
_cell_formula_units_Z   1
loop_
 _symmetry_equiv_pos_site_id
 _symmetry_equiv_pos_as_xyz
  1  'x, y, z'
loop_
 _atom_site_type_symbol
 _atom_site_label
 _atom_site_symmetry_multiplicity
 _atom_site_fract_x
 _atom_site_fract_y
 _atom_site_fract_z
 _atom_site_occupancy
  Dy  Dy0  1  0.000000  0.000000  0.659361  1
  Dy  Dy1  1  0.000000  0.000000  0.340639  1
  Dy  Dy2  1  0.000000  0.000000  0.000000  1
  Zn  Zn3  1  0.333333  0.666667  0.000000  1
  Co  Co4  1  0.499750  0.500250  0.500000  1
  Co  Co5  1  0.000501  0.500250  0.500000  1
  Co  Co6  1  0.501188  0.002377  0.206800  1
  Co  Co7  1  0.501188  0.498812  0.206800  1
  Co  Co8  1  0.997623  0.498812  0.206800  1
  Co  Co9  1  0.501188  0.002377  0.793200  1
  Co  Co10  1  0.501188  0.498812  0.793200  1
  Co  Co11  1  0.997623  0.498812  0.793200  1
  Co  Co12  1  0.499750  0.999499  0.500000  1
  Ge  Ge13  1  0.666667  0.333333  0.000000  1
  B  B14  1  0.333333  0.666667  0.651780  1
  B  B15  1  0.666667  0.333333  0.649932  1
  B  B16  1  0.666667  0.333333  0.350068  1
  B  B17  1  0.333333  0.666667  0.348220  1
