# generated using pymatgen
data_La3Ho5(CuP)12
_symmetry_space_group_name_H-M   'P 1'
_cell_length_a   3.92180100
_cell_length_b   10.73343738
_cell_length_c   12.96053000
_cell_angle_alpha   90.05177923
_cell_angle_beta   90.00000000
_cell_angle_gamma   90.00000000
_symmetry_Int_Tables_number   1
_chemical_formula_structural   La3Ho5(CuP)12
_chemical_formula_sum   'La3 Ho5 Cu12 P12'
_cell_volume   545.56558204
_cell_formula_units_Z   1
loop_
 _symmetry_equiv_pos_site_id
 _symmetry_equiv_pos_as_xyz
  1  'x, y, z'
loop_
 _atom_site_type_symbol
 _atom_site_label
 _atom_site_symmetry_multiplicity
 _atom_site_fract_x
 _atom_site_fract_y
 _atom_site_fract_z
 _atom_site_occupancy
  La  La0  1  0.250000  0.932319  0.793004  1
  La  La1  1  0.750000  0.431708  0.706982  1
  La  La2  1  0.250000  0.568252  0.293424  1
  Ho  Ho3  1  0.750000  0.069170  0.207666  1
  Ho  Ho4  1  0.250000  0.843345  0.500702  1
  Ho  Ho5  1  0.750000  0.342072  0.999554  1
  Ho  Ho6  1  0.250000  0.657327  0.002175  1
  Ho  Ho7  1  0.750000  0.154817  0.495701  1
  Cu  Cu8  1  0.250000  0.397531  0.511200  1
  Cu  Cu9  1  0.750000  0.901560  0.990378  1
  Cu  Cu10  1  0.250000  0.099050  0.014768  1
  Cu  Cu11  1  0.750000  0.601456  0.489025  1
  Cu  Cu12  1  0.250000  0.270304  0.332825  1
  Cu  Cu13  1  0.750000  0.773090  0.167648  1
  Cu  Cu14  1  0.250000  0.229145  0.833493  1
  Cu  Cu15  1  0.750000  0.730034  0.666954  1
  Cu  Cu16  1  0.250000  0.863631  0.278660  1
  Cu  Cu17  1  0.750000  0.354875  0.220083  1
  Cu  Cu18  1  0.250000  0.640541  0.781033  1
  Cu  Cu19  1  0.750000  0.141031  0.718387  1
  P  P20  1  0.250000  0.233984  0.641861  1
  P  P21  1  0.750000  0.735273  0.857518  1
  P  P22  1  0.250000  0.258814  0.144738  1
  P  P23  1  0.750000  0.766052  0.357019  1
  P  P24  1  0.250000  0.607661  0.598066  1
  P  P25  1  0.750000  0.107892  0.901489  1
  P  P26  1  0.250000  0.895846  0.099444  1
  P  P27  1  0.750000  0.393097  0.402372  1
  P  P28  1  0.250000  0.057760  0.367830  1
  P  P29  1  0.750000  0.557253  0.125983  1
  P  P30  1  0.250000  0.442230  0.875320  1
  P  P31  1  0.750000  0.942882  0.624696  1
