# generated using pymatgen
data_TiNb9Ga5SiB2
_symmetry_space_group_name_H-M   'P 1'
_cell_length_a   7.79615180
_cell_length_b   7.78325951
_cell_length_c   5.33656658
_cell_angle_alpha   90.03744737
_cell_angle_beta   89.94817696
_cell_angle_gamma   119.97081778
_symmetry_Int_Tables_number   1
_chemical_formula_structural   TiNb9Ga5SiB2
_chemical_formula_sum   'Ti1 Nb9 Ga5 Si1 B2'
_cell_volume   280.51869219
_cell_formula_units_Z   1
loop_
 _symmetry_equiv_pos_site_id
 _symmetry_equiv_pos_as_xyz
  1  'x, y, z'
loop_
 _atom_site_type_symbol
 _atom_site_label
 _atom_site_symmetry_multiplicity
 _atom_site_fract_x
 _atom_site_fract_y
 _atom_site_fract_z
 _atom_site_occupancy
  Ti  Ti0  1  0.670752  0.334049  0.500304  1
  Nb  Nb1  1  0.328909  0.663266  0.500407  1
  Nb  Nb2  1  0.329211  0.663246  0.999727  1
  Nb  Nb3  1  0.671340  0.334277  0.998363  1
  Nb  Nb4  1  0.757469  0.758299  0.249323  1
  Nb  Nb5  1  0.241098  0.997788  0.248955  1
  Nb  Nb6  1  0.001315  0.245262  0.249819  1
  Nb  Nb7  1  0.238237  0.244289  0.750734  1
  Nb  Nb8  1  0.760648  0.004035  0.750573  1
  Nb  Nb9  1  0.000953  0.755592  0.750642  1
  Ga  Ga10  1  0.403914  0.398766  0.252818  1
  Ga  Ga11  1  0.598979  0.000669  0.252970  1
  Ga  Ga12  1  0.996862  0.598458  0.253565  1
  Ga  Ga13  1  0.600732  0.598743  0.746853  1
  Ga  Ga14  1  0.401791  0.003126  0.747006  1
  Si  Si15  1  0.997796  0.402280  0.747893  1
  B  B16  1  0.000132  0.999048  0.499287  1
  B  B17  1  0.999861  0.998806  0.000762  1
