# generated using pymatgen
data_Ba3Sr2Al9
_symmetry_space_group_name_H-M   'P 1'
_cell_length_a   12.64889356
_cell_length_b   12.64889391
_cell_length_c   12.64889510
_cell_angle_alpha   27.21911831
_cell_angle_beta   27.21911284
_cell_angle_gamma   27.21911175
_symmetry_Int_Tables_number   1
_chemical_formula_structural   Ba3Sr2Al9
_chemical_formula_sum   'Ba3 Sr2 Al9'
_cell_volume   373.55497984
_cell_formula_units_Z   1
loop_
 _symmetry_equiv_pos_site_id
 _symmetry_equiv_pos_as_xyz
  1  'x, y, z'
loop_
 _atom_site_type_symbol
 _atom_site_label
 _atom_site_symmetry_multiplicity
 _atom_site_fract_x
 _atom_site_fract_y
 _atom_site_fract_z
 _atom_site_occupancy
  Ba  Ba0  1  0.500000  0.500000  0.500000  1
  Ba  Ba1  1  0.217749  0.217749  0.217749  1
  Ba  Ba2  1  0.782251  0.782251  0.782251  1
  Sr  Sr3  1  0.317693  0.317693  0.317693  1
  Sr  Sr4  1  0.682307  0.682307  0.682307  1
  Al  Al5  1  0.000000  0.000000  0.000000  1
  Al  Al6  1  0.120745  0.120745  0.120745  1
  Al  Al7  1  0.879255  0.879255  0.879255  1
  Al  Al8  1  0.718481  0.236278  0.236278  1
  Al  Al9  1  0.236278  0.236278  0.718481  1
  Al  Al10  1  0.236278  0.718481  0.236278  1
  Al  Al11  1  0.763722  0.281519  0.763722  1
  Al  Al12  1  0.281519  0.763722  0.763722  1
  Al  Al13  1  0.763722  0.763722  0.281519  1
