# generated using pymatgen
data_KEu(CuO2)4
_symmetry_space_group_name_H-M   'P 1'
_cell_length_a   6.38073964
_cell_length_b   6.38073916
_cell_length_c   6.38073985
_cell_angle_alpha   123.47975205
_cell_angle_beta   123.47976012
_cell_angle_gamma   84.07165034
_symmetry_Int_Tables_number   1
_chemical_formula_structural   KEu(CuO2)4
_chemical_formula_sum   'K1 Eu1 Cu4 O8'
_cell_volume   173.02006174
_cell_formula_units_Z   1
loop_
 _symmetry_equiv_pos_site_id
 _symmetry_equiv_pos_as_xyz
  1  'x, y, z'
loop_
 _atom_site_type_symbol
 _atom_site_label
 _atom_site_symmetry_multiplicity
 _atom_site_fract_x
 _atom_site_fract_y
 _atom_site_fract_z
 _atom_site_occupancy
  K  K0  1  0.000000  0.000000  0.000000  1
  Eu  Eu1  1  0.750000  0.250000  0.500000  1
  Cu  Cu2  1  0.357906  0.621146  0.229057  1
  Cu  Cu3  1  0.392089  0.128850  0.770943  1
  Cu  Cu4  1  0.378854  0.607911  0.736761  1
  Cu  Cu5  1  0.871150  0.642094  0.263239  1
  O  O6  1  0.718133  0.333544  0.153745  1
  O  O7  1  0.179799  0.564388  0.846255  1
  O  O8  1  0.041637  0.967375  0.424039  1
  O  O9  1  0.543336  0.617598  0.575961  1
  O  O10  1  0.032625  0.456664  0.074262  1
  O  O11  1  0.382402  0.958363  0.925738  1
  O  O12  1  0.435612  0.281867  0.615411  1
  O  O13  1  0.666456  0.820201  0.384589  1
