# generated using pymatgen
data_Nd16In6TcAu
_symmetry_space_group_name_H-M   'P 1'
_cell_length_a   10.79546700
_cell_length_b   10.79546890
_cell_length_c   7.23225900
_cell_angle_alpha   90.00000000
_cell_angle_beta   90.00000000
_cell_angle_gamma   120.00000336
_symmetry_Int_Tables_number   1
_chemical_formula_structural   Nd16In6TcAu
_chemical_formula_sum   'Nd16 In6 Tc1 Au1'
_cell_volume   729.94062074
_cell_formula_units_Z   1
loop_
 _symmetry_equiv_pos_site_id
 _symmetry_equiv_pos_as_xyz
  1  'x, y, z'
loop_
 _atom_site_type_symbol
 _atom_site_label
 _atom_site_symmetry_multiplicity
 _atom_site_fract_x
 _atom_site_fract_y
 _atom_site_fract_z
 _atom_site_occupancy
  Nd  Nd0  1  0.473187  0.526813  0.479166  1
  Nd  Nd1  1  0.053623  0.526813  0.479166  1
  Nd  Nd2  1  0.473187  0.946377  0.479166  1
  Nd  Nd3  1  0.536036  0.463964  0.981156  1
  Nd  Nd4  1  0.927928  0.463964  0.981156  1
  Nd  Nd5  1  0.536036  0.072072  0.981156  1
  Nd  Nd6  1  0.825693  0.174307  0.269604  1
  Nd  Nd7  1  0.348613  0.174307  0.269604  1
  Nd  Nd8  1  0.825693  0.651387  0.269604  1
  Nd  Nd9  1  0.171496  0.828504  0.770004  1
  Nd  Nd10  1  0.657008  0.828504  0.770004  1
  Nd  Nd11  1  0.171496  0.342992  0.770004  1
  Nd  Nd12  1  0.333333  0.666667  0.122103  1
  Nd  Nd13  1  0.666667  0.333333  0.603491  1
  Nd  Nd14  1  0.000000  0.000000  0.486658  1
  Nd  Nd15  1  0.000000  0.000000  0.997979  1
  In  In16  1  0.164805  0.835195  0.238133  1
  In  In17  1  0.670393  0.835195  0.238133  1
  In  In18  1  0.164805  0.329607  0.238133  1
  In  In19  1  0.836515  0.163485  0.732201  1
  In  In20  1  0.326969  0.163485  0.732201  1
  In  In21  1  0.836515  0.673031  0.732201  1
  Tc  Tc22  1  0.666667  0.333333  0.212615  1
  Au  Au23  1  0.333333  0.666667  0.710919  1
