# generated using pymatgen
data_NaLaMoN3
_symmetry_space_group_name_H-M   'P 1'
_cell_length_a   6.15875390
_cell_length_b   6.15875368
_cell_length_c   12.61933500
_cell_angle_alpha   89.66241482
_cell_angle_beta   89.66241483
_cell_angle_gamma   123.48900353
_symmetry_Int_Tables_number   1
_chemical_formula_structural   NaLaMoN3
_chemical_formula_sum   'Na4 La4 Mo4 N12'
_cell_volume   399.16298667
_cell_formula_units_Z   4
loop_
 _symmetry_equiv_pos_site_id
 _symmetry_equiv_pos_as_xyz
  1  'x, y, z'
loop_
 _atom_site_type_symbol
 _atom_site_label
 _atom_site_symmetry_multiplicity
 _atom_site_fract_x
 _atom_site_fract_y
 _atom_site_fract_z
 _atom_site_occupancy
  Na  Na0  1  0.543607  0.958608  0.880612  1
  Na  Na1  1  0.041392  0.456393  0.619388  1
  Na  Na2  1  0.456393  0.041392  0.119388  1
  Na  Na3  1  0.958608  0.543607  0.380612  1
  La  La4  1  0.327020  0.122225  0.590068  1
  La  La5  1  0.877775  0.672980  0.909932  1
  La  La6  1  0.672980  0.877775  0.409932  1
  La  La7  1  0.122225  0.327020  0.090068  1
  Mo  Mo8  1  0.716270  0.755787  0.659044  1
  Mo  Mo9  1  0.244213  0.283730  0.840956  1
  Mo  Mo10  1  0.283730  0.244213  0.340956  1
  Mo  Mo11  1  0.755787  0.716270  0.159044  1
  N  N12  1  0.555164  0.444836  0.750000  1
  N  N13  1  0.444836  0.555164  0.250000  1
  N  N14  1  0.509580  0.861951  0.605305  1
  N  N15  1  0.138049  0.490420  0.894695  1
  N  N16  1  0.490420  0.138049  0.394695  1
  N  N17  1  0.861951  0.509580  0.105305  1
  N  N18  1  0.710081  0.869288  0.041071  1
  N  N19  1  0.130712  0.289919  0.458929  1
  N  N20  1  0.289919  0.130712  0.958929  1
  N  N21  1  0.869288  0.710081  0.541071  1
  N  N22  1  0.993892  0.006108  0.750000  1
  N  N23  1  0.006108  0.993892  0.250000  1
