# generated using pymatgen
data_Nd4Ho(GaTe)2
_symmetry_space_group_name_H-M   'P 1'
_cell_length_a   8.92092100
_cell_length_b   8.92092208
_cell_length_c   8.18788200
_cell_angle_alpha   90.00000000
_cell_angle_beta   90.00000000
_cell_angle_gamma   125.95395695
_symmetry_Int_Tables_number   1
_chemical_formula_structural   Nd4Ho(GaTe)2
_chemical_formula_sum   'Nd8 Ho2 Ga4 Te4'
_cell_volume   527.47515537
_cell_formula_units_Z   2
loop_
 _symmetry_equiv_pos_site_id
 _symmetry_equiv_pos_as_xyz
  1  'x, y, z'
loop_
 _atom_site_type_symbol
 _atom_site_label
 _atom_site_symmetry_multiplicity
 _atom_site_fract_x
 _atom_site_fract_y
 _atom_site_fract_z
 _atom_site_occupancy
  Nd  Nd0  1  0.799516  0.538516  0.168197  1
  Nd  Nd1  1  0.461484  0.200484  0.831803  1
  Nd  Nd2  1  0.961484  0.700484  0.668197  1
  Nd  Nd3  1  0.299516  0.038516  0.331803  1
  Nd  Nd4  1  0.200484  0.461484  0.831803  1
  Nd  Nd5  1  0.538516  0.799516  0.168197  1
  Nd  Nd6  1  0.038516  0.299516  0.331803  1
  Nd  Nd7  1  0.700484  0.961484  0.668197  1
  Ho  Ho8  1  0.000000  0.000000  0.000000  1
  Ho  Ho9  1  0.500000  0.500000  0.500000  1
  Ga  Ga10  1  0.874797  0.874797  0.376975  1
  Ga  Ga11  1  0.125203  0.125203  0.623025  1
  Ga  Ga12  1  0.625203  0.625203  0.876975  1
  Ga  Ga13  1  0.374797  0.374797  0.123025  1
  Te  Te14  1  0.200199  0.799801  0.000000  1
  Te  Te15  1  0.700199  0.299801  0.500000  1
  Te  Te16  1  0.799801  0.200199  0.000000  1
  Te  Te17  1  0.299801  0.700199  0.500000  1
