# generated using pymatgen
data_Ca2YbSm(Ga2Ag)4
_symmetry_space_group_name_H-M   'P 1'
_cell_length_a   4.36718400
_cell_length_b   7.03496837
_cell_length_c   10.53287657
_cell_angle_alpha   90.51408682
_cell_angle_beta   90.00000000
_cell_angle_gamma   90.00000000
_symmetry_Int_Tables_number   1
_chemical_formula_structural   Ca2YbSm(Ga2Ag)4
_chemical_formula_sum   'Ca2 Yb1 Sm1 Ga8 Ag4'
_cell_volume   323.58855493
_cell_formula_units_Z   1
loop_
 _symmetry_equiv_pos_site_id
 _symmetry_equiv_pos_as_xyz
  1  'x, y, z'
loop_
 _atom_site_type_symbol
 _atom_site_label
 _atom_site_symmetry_multiplicity
 _atom_site_fract_x
 _atom_site_fract_y
 _atom_site_fract_z
 _atom_site_occupancy
  Ca  Ca0  1  0.750000  0.225101  0.174430  1
  Ca  Ca1  1  0.750000  0.725277  0.325729  1
  Yb  Yb2  1  0.250000  0.275075  0.670892  1
  Sm  Sm3  1  0.250000  0.779931  0.827811  1
  Ga  Ga4  1  0.250000  0.700657  0.535509  1
  Ga  Ga5  1  0.750000  0.300272  0.468975  1
  Ga  Ga6  1  0.750000  0.795545  0.033757  1
  Ga  Ga7  1  0.250000  0.203589  0.963370  1
  Ga  Ga8  1  0.250000  0.922616  0.147003  1
  Ga  Ga9  1  0.750000  0.077183  0.848006  1
  Ga  Ga10  1  0.750000  0.571291  0.651966  1
  Ga  Ga11  1  0.250000  0.425303  0.350584  1
  Ag  Ag12  1  0.250000  0.539217  0.100590  1
  Ag  Ag13  1  0.750000  0.456908  0.900093  1
  Ag  Ag14  1  0.750000  0.959578  0.599426  1
  Ag  Ag15  1  0.250000  0.042457  0.401859  1
