# generated using pymatgen
data_Rb6DyInBi4
_symmetry_space_group_name_H-M   'P 1'
_cell_length_a   10.35301924
_cell_length_b   10.35301990
_cell_length_c   10.35302151
_cell_angle_alpha   128.16482257
_cell_angle_beta   69.45928865
_cell_angle_gamma   137.13402437
_symmetry_Int_Tables_number   1
_chemical_formula_structural   Rb6DyInBi4
_chemical_formula_sum   'Rb6 Dy1 In1 Bi4'
_cell_volume   582.63424095
_cell_formula_units_Z   1
loop_
 _symmetry_equiv_pos_site_id
 _symmetry_equiv_pos_as_xyz
  1  'x, y, z'
loop_
 _atom_site_type_symbol
 _atom_site_label
 _atom_site_symmetry_multiplicity
 _atom_site_fract_x
 _atom_site_fract_y
 _atom_site_fract_z
 _atom_site_occupancy
  Rb  Rb0  1  0.250000  0.250000  0.000000  1
  Rb  Rb1  1  0.750000  0.750000  0.000000  1
  Rb  Rb2  1  0.828353  0.313587  0.124359  1
  Rb  Rb3  1  0.671646  0.796007  0.485234  1
  Rb  Rb4  1  0.310772  0.186413  0.514766  1
  Rb  Rb5  1  0.189227  0.703994  0.875641  1
  Dy  Dy6  1  0.750000  0.250000  0.500000  1
  In  In7  1  0.250000  0.750000  0.500000  1
  Bi  Bi8  1  0.393544  0.799706  0.204501  1
  Bi  Bi9  1  0.106456  0.310957  0.406164  1
  Bi  Bi10  1  0.904795  0.700294  0.593837  1
  Bi  Bi11  1  0.595205  0.189043  0.795499  1
