# generated using pymatgen
data_Ce4Al2OsPd
_symmetry_space_group_name_H-M   'P 1'
_cell_length_a   7.81964100
_cell_length_b   7.81964010
_cell_length_c   9.83605000
_cell_angle_alpha   90.00000000
_cell_angle_beta   90.00000000
_cell_angle_gamma   119.99999959
_symmetry_Int_Tables_number   1
_chemical_formula_structural   Ce4Al2OsPd
_chemical_formula_sum   'Ce12 Al6 Os3 Pd3'
_cell_volume   520.86471880
_cell_formula_units_Z   3
loop_
 _symmetry_equiv_pos_site_id
 _symmetry_equiv_pos_as_xyz
  1  'x, y, z'
loop_
 _atom_site_type_symbol
 _atom_site_label
 _atom_site_symmetry_multiplicity
 _atom_site_fract_x
 _atom_site_fract_y
 _atom_site_fract_z
 _atom_site_occupancy
  Ce  Ce0  1  0.000000  0.609201  0.520555  1
  Ce  Ce1  1  0.609201  0.000000  0.520555  1
  Ce  Ce2  1  0.390799  0.390799  0.520555  1
  Ce  Ce3  1  0.000000  0.399549  0.000745  1
  Ce  Ce4  1  0.399549  0.000000  0.000745  1
  Ce  Ce5  1  0.600451  0.600451  0.000745  1
  Ce  Ce6  1  0.000000  0.720825  0.158095  1
  Ce  Ce7  1  0.720825  0.000000  0.158095  1
  Ce  Ce8  1  0.279175  0.279175  0.158095  1
  Ce  Ce9  1  0.000000  0.264499  0.670362  1
  Ce  Ce10  1  0.264499  0.000000  0.670362  1
  Ce  Ce11  1  0.735501  0.735501  0.670362  1
  Al  Al12  1  0.666667  0.333333  0.287873  1
  Al  Al13  1  0.333333  0.666667  0.287873  1
  Al  Al14  1  0.333333  0.666667  0.778208  1
  Al  Al15  1  0.666667  0.333333  0.778208  1
  Al  Al16  1  0.000000  0.000000  0.409673  1
  Al  Al17  1  0.000000  0.000000  0.916974  1
  Os  Os18  1  0.000000  0.664832  0.836745  1
  Os  Os19  1  0.664832  0.000000  0.836745  1
  Os  Os20  1  0.335168  0.335168  0.836745  1
  Pd  Pd21  1  0.000000  0.331605  0.336976  1
  Pd  Pd22  1  0.331605  0.000000  0.336976  1
  Pd  Pd23  1  0.668395  0.668395  0.336976  1
