# generated using pymatgen
data_Y6CrCo16MoP12
_symmetry_space_group_name_H-M   'P 1'
_cell_length_a   3.71319200
_cell_length_b   10.55856100
_cell_length_c   12.23515400
_cell_angle_alpha   90.00000000
_cell_angle_beta   90.00000000
_cell_angle_gamma   90.00000000
_symmetry_Int_Tables_number   1
_chemical_formula_structural   Y6CrCo16MoP12
_chemical_formula_sum   'Y6 Cr1 Co16 Mo1 P12'
_cell_volume   479.69101015
_cell_formula_units_Z   1
loop_
 _symmetry_equiv_pos_site_id
 _symmetry_equiv_pos_as_xyz
  1  'x, y, z'
loop_
 _atom_site_type_symbol
 _atom_site_label
 _atom_site_symmetry_multiplicity
 _atom_site_fract_x
 _atom_site_fract_y
 _atom_site_fract_z
 _atom_site_occupancy
  Y  Y0  1  0.000000  0.500000  0.524330  1
  Y  Y1  1  0.500000  0.000000  0.477912  1
  Y  Y2  1  0.500000  0.819045  0.205116  1
  Y  Y3  1  0.500000  0.180955  0.205116  1
  Y  Y4  1  0.000000  0.682386  0.795406  1
  Y  Y5  1  0.000000  0.317614  0.795406  1
  Cr  Cr6  1  0.000000  0.000000  0.843874  1
  Co  Co7  1  0.500000  0.500000  0.701723  1
  Co  Co8  1  0.000000  0.000000  0.297968  1
  Co  Co9  1  0.000000  0.500000  0.985900  1
  Co  Co10  1  0.500000  0.000000  0.012601  1
  Co  Co11  1  0.500000  0.331032  0.989639  1
  Co  Co12  1  0.500000  0.668968  0.989639  1
  Co  Co13  1  0.000000  0.166001  0.006858  1
  Co  Co14  1  0.000000  0.833999  0.006858  1
  Co  Co15  1  0.500000  0.295613  0.431836  1
  Co  Co16  1  0.500000  0.704387  0.431836  1
  Co  Co17  1  0.000000  0.203507  0.569680  1
  Co  Co18  1  0.000000  0.796493  0.569680  1
  Co  Co19  1  0.500000  0.879749  0.708546  1
  Co  Co20  1  0.500000  0.120251  0.708546  1
  Co  Co21  1  0.000000  0.621841  0.292911  1
  Co  Co22  1  0.000000  0.378159  0.292911  1
  Mo  Mo23  1  0.500000  0.500000  0.155521  1
  P  P24  1  0.500000  0.500000  0.881191  1
  P  P25  1  0.000000  0.000000  0.117658  1
  P  P26  1  0.500000  0.500000  0.348752  1
  P  P27  1  0.000000  0.000000  0.656574  1
  P  P28  1  0.500000  0.310609  0.616498  1
  P  P29  1  0.500000  0.689391  0.616498  1
  P  P30  1  0.000000  0.188630  0.384748  1
  P  P31  1  0.000000  0.811370  0.384748  1
  P  P32  1  0.500000  0.849281  0.891294  1
  P  P33  1  0.500000  0.150719  0.891294  1
  P  P34  1  0.000000  0.656182  0.105466  1
  P  P35  1  0.000000  0.343818  0.105466  1
