# generated using pymatgen
data_EuCl14
_symmetry_space_group_name_H-M   'P 1'
_cell_length_a   8.38477711
_cell_length_b   9.35191901
_cell_length_c   8.98316200
_cell_angle_alpha   107.87551563
_cell_angle_beta   114.55176272
_cell_angle_gamma   58.14173487
_symmetry_Int_Tables_number   1
_chemical_formula_structural   EuCl14
_chemical_formula_sum   'Eu1 Cl14'
_cell_volume   540.68365930
_cell_formula_units_Z   1
loop_
 _symmetry_equiv_pos_site_id
 _symmetry_equiv_pos_as_xyz
  1  'x, y, z'
loop_
 _atom_site_type_symbol
 _atom_site_label
 _atom_site_symmetry_multiplicity
 _atom_site_fract_x
 _atom_site_fract_y
 _atom_site_fract_z
 _atom_site_occupancy
  Eu  Eu0  1  0.501061  0.498167  0.499582  1
  Cl  Cl1  1  0.746298  0.300321  0.100630  1
  Cl  Cl2  1  0.256026  0.697630  0.899329  1
  Cl  Cl3  1  0.837489  0.730167  0.274659  1
  Cl  Cl4  1  0.582312  0.028126  0.269250  1
  Cl  Cl5  1  0.110798  0.724825  0.270614  1
  Cl  Cl6  1  0.863433  0.301170  0.349280  1
  Cl  Cl7  1  0.399382  0.708396  0.268983  1
  Cl  Cl8  1  0.343108  0.284682  0.251211  1
  Cl  Cl9  1  0.655436  0.713510  0.748843  1
  Cl  Cl10  1  0.596036  0.294350  0.729693  1
  Cl  Cl11  1  0.138566  0.697320  0.650920  1
  Cl  Cl12  1  0.418492  0.971105  0.732032  1
  Cl  Cl13  1  0.887375  0.279761  0.728867  1
  Cl  Cl14  1  0.164185  0.270470  0.726105  1
