# generated using pymatgen
data_La2Ga5GePd2
_symmetry_space_group_name_H-M   'P 1'
_cell_length_a   6.12543175
_cell_length_b   6.12543103
_cell_length_c   6.02176400
_cell_angle_alpha   90.00000000
_cell_angle_beta   90.00000000
_cell_angle_gamma   116.43646088
_symmetry_Int_Tables_number   1
_chemical_formula_structural   La2Ga5GePd2
_chemical_formula_sum   'La2 Ga5 Ge1 Pd2'
_cell_volume   202.31499215
_cell_formula_units_Z   1
loop_
 _symmetry_equiv_pos_site_id
 _symmetry_equiv_pos_as_xyz
  1  'x, y, z'
loop_
 _atom_site_type_symbol
 _atom_site_label
 _atom_site_symmetry_multiplicity
 _atom_site_fract_x
 _atom_site_fract_y
 _atom_site_fract_z
 _atom_site_occupancy
  La  La0  1  0.235319  0.764681  0.750000  1
  La  La1  1  0.763908  0.236092  0.250000  1
  Ga  Ga2  1  0.338935  0.661065  0.250000  1
  Ga  Ga3  1  0.720022  0.721522  0.001037  1
  Ga  Ga4  1  0.720022  0.721522  0.498963  1
  Ga  Ga5  1  0.278478  0.279978  0.001037  1
  Ga  Ga6  1  0.278478  0.279978  0.498963  1
  Ge  Ge7  1  0.663165  0.336835  0.750000  1
  Pd  Pd8  1  0.903555  0.096445  0.750000  1
  Pd  Pd9  1  0.098117  0.901883  0.250000  1
