# generated using pymatgen
data_Dy4Ga4Ir3Pd
_symmetry_space_group_name_H-M   'P 1'
_cell_length_a   4.36632800
_cell_length_b   6.85192617
_cell_length_c   7.78306524
_cell_angle_alpha   90.02699673
_cell_angle_beta   90.00000000
_cell_angle_gamma   90.00000000
_symmetry_Int_Tables_number   1
_chemical_formula_structural   Dy4Ga4Ir3Pd
_chemical_formula_sum   'Dy4 Ga4 Ir3 Pd1'
_cell_volume   232.85182942
_cell_formula_units_Z   1
loop_
 _symmetry_equiv_pos_site_id
 _symmetry_equiv_pos_as_xyz
  1  'x, y, z'
loop_
 _atom_site_type_symbol
 _atom_site_label
 _atom_site_symmetry_multiplicity
 _atom_site_fract_x
 _atom_site_fract_y
 _atom_site_fract_z
 _atom_site_occupancy
  Dy  Dy0  1  0.750000  0.019385  0.695670  1
  Dy  Dy1  1  0.750000  0.522362  0.809981  1
  Dy  Dy2  1  0.250000  0.969384  0.309382  1
  Dy  Dy3  1  0.250000  0.478999  0.184964  1
  Ga  Ga4  1  0.250000  0.842734  0.929141  1
  Ga  Ga5  1  0.250000  0.344745  0.571277  1
  Ga  Ga6  1  0.750000  0.156017  0.068488  1
  Ga  Ga7  1  0.750000  0.662472  0.429623  1
  Ir  Ir8  1  0.750000  0.768937  0.109438  1
  Ir  Ir9  1  0.250000  0.731476  0.608116  1
  Ir  Ir10  1  0.250000  0.231553  0.891061  1
  Pd  Pd11  1  0.750000  0.271937  0.392859  1
