# generated using pymatgen
data_Tb6Si24Os7Ru
_symmetry_space_group_name_H-M   'P 1'
_cell_length_a   10.14523644
_cell_length_b   10.14523628
_cell_length_c   8.17467010
_cell_angle_alpha   90.00734538
_cell_angle_beta   90.00734100
_cell_angle_gamma   132.49417479
_symmetry_Int_Tables_number   1
_chemical_formula_structural   Tb6Si24Os7Ru
_chemical_formula_sum   'Tb6 Si24 Os7 Ru1'
_cell_volume   620.39157651
_cell_formula_units_Z   1
loop_
 _symmetry_equiv_pos_site_id
 _symmetry_equiv_pos_as_xyz
  1  'x, y, z'
loop_
 _atom_site_type_symbol
 _atom_site_label
 _atom_site_symmetry_multiplicity
 _atom_site_fract_x
 _atom_site_fract_y
 _atom_site_fract_z
 _atom_site_occupancy
  Tb  Tb0  1  0.500127  0.500127  0.499083  1
  Tb  Tb1  1  0.000873  0.000873  0.999812  1
  Tb  Tb2  1  0.501150  0.000909  0.749338  1
  Tb  Tb3  1  0.998870  0.499092  0.250666  1
  Tb  Tb4  1  0.499092  0.998870  0.250666  1
  Tb  Tb5  1  0.000909  0.501150  0.749338  1
  Si  Si6  1  0.795066  0.204814  0.500161  1
  Si  Si7  1  0.295478  0.704428  0.000117  1
  Si  Si8  1  0.204814  0.795066  0.500161  1
  Si  Si9  1  0.704428  0.295478  0.000117  1
  Si  Si10  1  0.334131  0.334131  0.832093  1
  Si  Si11  1  0.668413  0.668413  0.165320  1
  Si  Si12  1  0.167338  0.167338  0.333076  1
  Si  Si13  1  0.832241  0.832241  0.667227  1
  Si  Si14  1  0.119867  0.885572  0.727836  1
  Si  Si15  1  0.114174  0.879210  0.272275  1
  Si  Si16  1  0.611238  0.376917  0.228434  1
  Si  Si17  1  0.621954  0.388166  0.771864  1
  Si  Si18  1  0.879210  0.114174  0.272275  1
  Si  Si19  1  0.885572  0.119867  0.727836  1
  Si  Si20  1  0.388166  0.621954  0.771864  1
  Si  Si21  1  0.376917  0.611238  0.228434  1
  Si  Si22  1  0.345046  0.110807  0.503732  1
  Si  Si23  1  0.888631  0.655026  0.496903  1
  Si  Si24  1  0.388348  0.154436  0.005954  1
  Si  Si25  1  0.845116  0.611742  0.994938  1
  Si  Si26  1  0.655026  0.888631  0.496903  1
  Si  Si27  1  0.110807  0.345046  0.503732  1
  Si  Si28  1  0.611742  0.845116  0.994938  1
  Si  Si29  1  0.154436  0.388348  0.005954  1
  Os  Os30  1  0.669058  0.331115  0.500085  1
  Os  Os31  1  0.169642  0.830439  0.999732  1
  Os  Os32  1  0.331115  0.669058  0.500085  1
  Os  Os33  1  0.830439  0.169642  0.999732  1
  Os  Os34  1  0.126450  0.126450  0.626745  1
  Os  Os35  1  0.873913  0.873913  0.372836  1
  Os  Os36  1  0.372998  0.372998  0.127647  1
  Ru  Ru37  1  0.627202  0.627202  0.872091  1
