# generated using pymatgen
data_Tl2Mo3Se3O16
_symmetry_space_group_name_H-M   'P 1'
_cell_length_a   13.90471547
_cell_length_b   8.32269000
_cell_length_c   14.05995600
_cell_angle_alpha   90.00000000
_cell_angle_beta   92.17750752
_cell_angle_gamma   90.00000000
_symmetry_Int_Tables_number   1
_chemical_formula_structural   Tl2Mo3Se3O16
_chemical_formula_sum   'Tl8 Mo12 Se12 O64'
_cell_volume   1625.90839361
_cell_formula_units_Z   4
loop_
 _symmetry_equiv_pos_site_id
 _symmetry_equiv_pos_as_xyz
  1  'x, y, z'
loop_
 _atom_site_type_symbol
 _atom_site_label
 _atom_site_symmetry_multiplicity
 _atom_site_fract_x
 _atom_site_fract_y
 _atom_site_fract_z
 _atom_site_occupancy
  Tl  Tl0  1  0.088839  0.220254  0.809546  1
  Tl  Tl1  1  0.911161  0.720254  0.690454  1
  Tl  Tl2  1  0.911161  0.779746  0.190454  1
  Tl  Tl3  1  0.088839  0.279746  0.309546  1
  Tl  Tl4  1  0.386971  0.030466  0.327678  1
  Tl  Tl5  1  0.613029  0.530466  0.172322  1
  Tl  Tl6  1  0.613029  0.969534  0.672322  1
  Tl  Tl7  1  0.386971  0.469534  0.827678  1
  Mo  Mo8  1  0.150656  0.784485  0.903282  1
  Mo  Mo9  1  0.849344  0.284485  0.596718  1
  Mo  Mo10  1  0.849344  0.215515  0.096718  1
  Mo  Mo11  1  0.150656  0.715515  0.403282  1
  Mo  Mo12  1  0.358330  0.702547  0.093224  1
  Mo  Mo13  1  0.641670  0.202547  0.406776  1
  Mo  Mo14  1  0.641670  0.297453  0.906776  1
  Mo  Mo15  1  0.358330  0.797453  0.593224  1
  Mo  Mo16  1  0.332534  0.297854  0.096858  1
  Mo  Mo17  1  0.667466  0.797854  0.403142  1
  Mo  Mo18  1  0.667466  0.702146  0.903142  1
  Mo  Mo19  1  0.332534  0.202146  0.596858  1
  Se  Se20  1  0.351862  0.977723  0.822418  1
  Se  Se21  1  0.648138  0.477723  0.677582  1
  Se  Se22  1  0.648138  0.022277  0.177582  1
  Se  Se23  1  0.351862  0.522277  0.322418  1
  Se  Se24  1  0.116000  0.495913  0.069671  1
  Se  Se25  1  0.884000  0.995913  0.430329  1
  Se  Se26  1  0.884000  0.504087  0.930329  1
  Se  Se27  1  0.116000  0.004087  0.569671  1
  Se  Se28  1  0.171659  0.983057  0.119959  1
  Se  Se29  1  0.828341  0.483057  0.380041  1
  Se  Se30  1  0.828341  0.016943  0.880041  1
  Se  Se31  1  0.171659  0.516943  0.619959  1
  O  O32  1  0.038803  0.849911  0.858437  1
  O  O33  1  0.961197  0.349911  0.641563  1
  O  O34  1  0.961197  0.150089  0.141563  1
  O  O35  1  0.038803  0.650089  0.358437  1
  O  O36  1  0.169173  0.599055  0.848994  1
  O  O37  1  0.830827  0.099055  0.651006  1
  O  O38  1  0.830827  0.400945  0.151006  1
  O  O39  1  0.169173  0.900945  0.348994  1
  O  O40  1  0.225693  0.931405  0.824487  1
  O  O41  1  0.774307  0.431405  0.675513  1
  O  O42  1  0.774307  0.068595  0.175513  1
  O  O43  1  0.225693  0.568595  0.324487  1
  O  O44  1  0.101989  0.698500  0.027411  1
  O  O45  1  0.898011  0.198500  0.472589  1
  O  O46  1  0.898011  0.301500  0.972589  1
  O  O47  1  0.101989  0.801500  0.527411  1
  O  O48  1  0.171388  0.992438  0.999569  1
  O  O49  1  0.828612  0.492438  0.500431  1
  O  O50  1  0.828612  0.007562  0.000431  1
  O  O51  1  0.171388  0.507562  0.499569  1
  O  O52  1  0.299940  0.735070  0.978537  1
  O  O53  1  0.700060  0.235070  0.521463  1
  O  O54  1  0.700060  0.264930  0.021463  1
  O  O55  1  0.299940  0.764930  0.478537  1
  O  O56  1  0.465568  0.803093  0.084451  1
  O  O57  1  0.534432  0.303093  0.415549  1
  O  O58  1  0.534432  0.196907  0.915549  1
  O  O59  1  0.465568  0.696907  0.584451  1
  O  O60  1  0.413162  0.488371  0.082052  1
  O  O61  1  0.586838  0.988371  0.417948  1
  O  O62  1  0.586838  0.511629  0.917948  1
  O  O63  1  0.413162  0.011629  0.582052  1
  O  O64  1  0.274416  0.870392  0.153874  1
  O  O65  1  0.725584  0.370392  0.346126  1
  O  O66  1  0.725584  0.129608  0.846126  1
  O  O67  1  0.274416  0.629608  0.653874  1
  O  O68  1  0.386822  0.832742  0.743393  1
  O  O69  1  0.613178  0.332742  0.756607  1
  O  O70  1  0.613178  0.167258  0.256607  1
  O  O71  1  0.386822  0.667258  0.243393  1
  O  O72  1  0.235559  0.510056  0.115520  1
  O  O73  1  0.764441  0.010056  0.384480  1
  O  O74  1  0.764441  0.489944  0.884480  1
  O  O75  1  0.235559  0.989944  0.615520  1
  O  O76  1  0.418002  0.150768  0.121081  1
  O  O77  1  0.581998  0.650768  0.378919  1
  O  O78  1  0.581998  0.849232  0.878919  1
  O  O79  1  0.418002  0.349232  0.621081  1
  O  O80  1  0.298818  0.271695  0.976999  1
  O  O81  1  0.701182  0.771695  0.523001  1
  O  O82  1  0.701182  0.728305  0.023001  1
  O  O83  1  0.298818  0.228305  0.476999  1
  O  O84  1  0.214117  0.176999  0.149958  1
  O  O85  1  0.785883  0.676999  0.350042  1
  O  O86  1  0.785883  0.823001  0.850042  1
  O  O87  1  0.214117  0.323001  0.649958  1
  O  O88  1  0.346467  0.149410  0.756937  1
  O  O89  1  0.653533  0.649410  0.743063  1
  O  O90  1  0.653533  0.850590  0.243063  1
  O  O91  1  0.346467  0.350590  0.256937  1
  O  O92  1  0.049345  0.506192  0.164859  1
  O  O93  1  0.950655  0.006192  0.335141  1
  O  O94  1  0.950655  0.493808  0.835141  1
  O  O95  1  0.049345  0.993808  0.664859  1
