# generated using pymatgen
data_TmLu9CuIrPb6
_symmetry_space_group_name_H-M   'P 1'
_cell_length_a   9.04141507
_cell_length_b   9.04039794
_cell_length_c   6.64099405
_cell_angle_alpha   89.99459423
_cell_angle_beta   90.01444551
_cell_angle_gamma   120.00388828
_symmetry_Int_Tables_number   1
_chemical_formula_structural   TmLu9CuIrPb6
_chemical_formula_sum   'Tm1 Lu9 Cu1 Ir1 Pb6'
_cell_volume   470.07877938
_cell_formula_units_Z   1
loop_
 _symmetry_equiv_pos_site_id
 _symmetry_equiv_pos_as_xyz
  1  'x, y, z'
loop_
 _atom_site_type_symbol
 _atom_site_label
 _atom_site_symmetry_multiplicity
 _atom_site_fract_x
 _atom_site_fract_y
 _atom_site_fract_z
 _atom_site_occupancy
  Tm  Tm0  1  0.242837  0.999884  0.737421  1
  Lu  Lu1  1  0.754680  0.999987  0.259748  1
  Lu  Lu2  1  0.000776  0.243449  0.739163  1
  Lu  Lu3  1  0.999749  0.755412  0.261801  1
  Lu  Lu4  1  0.757579  0.756747  0.739647  1
  Lu  Lu5  1  0.244603  0.244837  0.262273  1
  Lu  Lu6  1  0.333571  0.666869  0.499800  1
  Lu  Lu7  1  0.666737  0.333290  0.499788  1
  Lu  Lu8  1  0.666682  0.333150  0.999763  1
  Lu  Lu9  1  0.333565  0.666858  0.999758  1
  Cu  Cu10  1  0.999436  0.999184  0.005073  1
  Ir  Ir11  1  0.997982  0.000166  0.496808  1
  Pb  Pb12  1  0.602201  0.000226  0.753365  1
  Pb  Pb13  1  0.397902  0.999722  0.246358  1
  Pb  Pb14  1  0.999973  0.600177  0.753084  1
  Pb  Pb15  1  0.000208  0.398991  0.246505  1
  Pb  Pb16  1  0.399906  0.399934  0.753067  1
  Pb  Pb17  1  0.601613  0.601115  0.246577  1
