# generated using pymatgen
data_Na5Ge6As6Rh19
_symmetry_space_group_name_H-M   'P 1'
_cell_length_a   13.07700600
_cell_length_b   13.07700652
_cell_length_c   4.00479000
_cell_angle_alpha   90.00000000
_cell_angle_beta   90.00000000
_cell_angle_gamma   119.99999869
_symmetry_Int_Tables_number   1
_chemical_formula_structural   Na5Ge6As6Rh19
_chemical_formula_sum   'Na5 Ge6 As6 Rh19'
_cell_volume   593.09880429
_cell_formula_units_Z   1
loop_
 _symmetry_equiv_pos_site_id
 _symmetry_equiv_pos_as_xyz
  1  'x, y, z'
loop_
 _atom_site_type_symbol
 _atom_site_label
 _atom_site_symmetry_multiplicity
 _atom_site_fract_x
 _atom_site_fract_y
 _atom_site_fract_z
 _atom_site_occupancy
  Na  Na0  1  0.000000  0.182176  0.500000  1
  Na  Na1  1  0.817824  0.817824  0.500000  1
  Na  Na2  1  0.182176  0.000000  0.500000  1
  Na  Na3  1  0.666667  0.333333  0.000000  1
  Na  Na4  1  0.333333  0.666667  0.000000  1
  Ge  Ge5  1  0.483465  0.318667  0.500000  1
  Ge  Ge6  1  0.681333  0.164797  0.500000  1
  Ge  Ge7  1  0.835203  0.516535  0.500000  1
  Ge  Ge8  1  0.516535  0.835203  0.500000  1
  Ge  Ge9  1  0.164797  0.681333  0.500000  1
  Ge  Ge10  1  0.318667  0.483465  0.500000  1
  As  As11  1  0.820163  0.000000  0.000000  1
  As  As12  1  0.179837  0.179837  0.000000  1
  As  As13  1  0.000000  0.820163  0.000000  1
  As  As14  1  0.365407  0.000000  0.000000  1
  As  As15  1  0.000000  0.365407  0.000000  1
  As  As16  1  0.634593  0.634593  0.000000  1
  Rh  Rh17  1  0.804844  0.180731  0.000000  1
  Rh  Rh18  1  0.375887  0.195156  0.000000  1
  Rh  Rh19  1  0.645097  0.519877  0.500000  1
  Rh  Rh20  1  0.874780  0.354903  0.500000  1
  Rh  Rh21  1  0.354903  0.874780  0.500000  1
  Rh  Rh22  1  0.519877  0.645097  0.500000  1
  Rh  Rh23  1  0.125220  0.480123  0.500000  1
  Rh  Rh24  1  0.819269  0.624113  0.000000  1
  Rh  Rh25  1  0.624113  0.819269  0.000000  1
  Rh  Rh26  1  0.180731  0.804844  0.000000  1
  Rh  Rh27  1  0.195156  0.375887  0.000000  1
  Rh  Rh28  1  0.000000  0.717160  0.500000  1
  Rh  Rh29  1  0.282840  0.282840  0.500000  1
  Rh  Rh30  1  0.717160  0.000000  0.500000  1
  Rh  Rh31  1  0.000000  0.550266  0.000000  1
  Rh  Rh32  1  0.449734  0.449734  0.000000  1
  Rh  Rh33  1  0.550266  0.000000  0.000000  1
  Rh  Rh34  1  0.000000  0.000000  0.000000  1
  Rh  Rh35  1  0.480123  0.125220  0.500000  1
