# generated using pymatgen
data_Pr3ThHgRu
_symmetry_space_group_name_H-M   'P 1'
_cell_length_a   9.97408339
_cell_length_b   9.97408362
_cell_length_c   9.97408400
_cell_angle_alpha   60.00000538
_cell_angle_beta   60.00000462
_cell_angle_gamma   60.00000958
_symmetry_Int_Tables_number   1
_chemical_formula_structural   Pr3ThHgRu
_chemical_formula_sum   'Pr12 Th4 Hg4 Ru4'
_cell_volume   701.62343713
_cell_formula_units_Z   4
loop_
 _symmetry_equiv_pos_site_id
 _symmetry_equiv_pos_as_xyz
  1  'x, y, z'
loop_
 _atom_site_type_symbol
 _atom_site_label
 _atom_site_symmetry_multiplicity
 _atom_site_fract_x
 _atom_site_fract_y
 _atom_site_fract_z
 _atom_site_occupancy
  Pr  Pr0  1  0.808099  0.191901  0.191901  1
  Pr  Pr1  1  0.191901  0.808099  0.808099  1
  Pr  Pr2  1  0.191901  0.808099  0.191901  1
  Pr  Pr3  1  0.808099  0.191901  0.808099  1
  Pr  Pr4  1  0.191901  0.191901  0.808099  1
  Pr  Pr5  1  0.808099  0.808099  0.191901  1
  Pr  Pr6  1  0.939464  0.560536  0.560536  1
  Pr  Pr7  1  0.560536  0.939464  0.939464  1
  Pr  Pr8  1  0.560536  0.939464  0.560536  1
  Pr  Pr9  1  0.939464  0.560536  0.939464  1
  Pr  Pr10  1  0.560536  0.560536  0.939464  1
  Pr  Pr11  1  0.939464  0.939464  0.560536  1
  Th  Th12  1  0.345221  0.345221  0.345221  1
  Th  Th13  1  0.345221  0.345221  0.964336  1
  Th  Th14  1  0.345221  0.964336  0.345221  1
  Th  Th15  1  0.964336  0.345221  0.345221  1
  Hg  Hg16  1  0.582906  0.582906  0.582906  1
  Hg  Hg17  1  0.582906  0.582906  0.251280  1
  Hg  Hg18  1  0.582906  0.251280  0.582906  1
  Hg  Hg19  1  0.251280  0.582906  0.582906  1
  Ru  Ru20  1  0.145741  0.145741  0.145741  1
  Ru  Ru21  1  0.145741  0.145741  0.562775  1
  Ru  Ru22  1  0.145741  0.562775  0.145741  1
  Ru  Ru23  1  0.562775  0.145741  0.145741  1
