# generated using pymatgen
data_Yb7Y(TmIr2)2
_symmetry_space_group_name_H-M   'P 1'
_cell_length_a   6.49722312
_cell_length_b   7.32142772
_cell_length_c   8.54140690
_cell_angle_alpha   96.87943605
_cell_angle_beta   112.78554600
_cell_angle_gamma   90.33403568
_symmetry_Int_Tables_number   1
_chemical_formula_structural   Yb7Y(TmIr2)2
_chemical_formula_sum   'Yb7 Y1 Tm2 Ir4'
_cell_volume   371.29535131
_cell_formula_units_Z   1
loop_
 _symmetry_equiv_pos_site_id
 _symmetry_equiv_pos_as_xyz
  1  'x, y, z'
loop_
 _atom_site_type_symbol
 _atom_site_label
 _atom_site_symmetry_multiplicity
 _atom_site_fract_x
 _atom_site_fract_y
 _atom_site_fract_z
 _atom_site_occupancy
  Yb  Yb0  1  0.797993  0.576120  0.824774  1
  Yb  Yb1  1  0.027662  0.079095  0.823659  1
  Yb  Yb2  1  0.195934  0.419863  0.170407  1
  Yb  Yb3  1  0.639053  0.819342  0.433556  1
  Yb  Yb4  1  0.204645  0.681152  0.565274  1
  Yb  Yb5  1  0.360861  0.179753  0.565588  1
  Yb  Yb6  1  0.799076  0.318431  0.435291  1
  Y  Y7  1  0.972107  0.918783  0.166635  1
  Tm  Tm8  1  0.430729  0.749230  0.999398  1
  Tm  Tm9  1  0.563489  0.250871  0.000705  1
  Ir  Ir10  1  0.813675  0.581495  0.211082  1
  Ir  Ir11  1  0.611228  0.927836  0.803176  1
  Ir  Ir12  1  0.190523  0.425497  0.789486  1
  Ir  Ir13  1  0.393025  0.072533  0.210967  1
