# generated using pymatgen
data_Tb2Dy2TcPt3F28
_symmetry_space_group_name_H-M   'P 1'
_cell_length_a   5.56825941
_cell_length_b   8.92756545
_cell_length_c   12.03242279
_cell_angle_alpha   62.35770693
_cell_angle_beta   90.05806074
_cell_angle_gamma   90.07171576
_symmetry_Int_Tables_number   1
_chemical_formula_structural   Tb2Dy2TcPt3F28
_chemical_formula_sum   'Tb2 Dy2 Tc1 Pt3 F28'
_cell_volume   529.87197505
_cell_formula_units_Z   1
loop_
 _symmetry_equiv_pos_site_id
 _symmetry_equiv_pos_as_xyz
  1  'x, y, z'
loop_
 _atom_site_type_symbol
 _atom_site_label
 _atom_site_symmetry_multiplicity
 _atom_site_fract_x
 _atom_site_fract_y
 _atom_site_fract_z
 _atom_site_occupancy
  Tb  Tb0  1  0.760687  0.185072  0.236522  1
  Tb  Tb1  1  0.239843  0.813971  0.763614  1
  Dy  Dy2  1  0.259519  0.813499  0.265180  1
  Dy  Dy3  1  0.739665  0.185835  0.736171  1
  Tc  Tc4  1  0.757438  0.726481  0.043151  1
  Pt  Pt5  1  0.241155  0.272512  0.957293  1
  Pt  Pt6  1  0.259032  0.273017  0.457528  1
  Pt  Pt7  1  0.741133  0.726240  0.542969  1
  F  F8  1  0.935873  0.704433  0.414836  1
  F  F9  1  0.063191  0.295183  0.585093  1
  F  F10  1  0.436686  0.295362  0.085051  1
  F  F11  1  0.554869  0.708640  0.916819  1
  F  F12  1  0.473424  0.729731  0.138573  1
  F  F13  1  0.532773  0.272698  0.864953  1
  F  F14  1  0.967441  0.273311  0.364735  1
  F  F15  1  0.033263  0.726305  0.635065  1
  F  F16  1  0.956337  0.744943  0.171972  1
  F  F17  1  0.049973  0.256339  0.825219  1
  F  F18  1  0.450125  0.256950  0.325451  1
  F  F19  1  0.552009  0.742608  0.675365  1
  F  F20  1  0.770597  0.478994  0.140491  1
  F  F21  1  0.229396  0.520568  0.858771  1
  F  F22  1  0.269746  0.521287  0.358620  1
  F  F23  1  0.730220  0.477954  0.641865  1
  F  F24  1  0.942774  0.280016  0.043251  1
  F  F25  1  0.052278  0.720835  0.954173  1
  F  F26  1  0.441770  0.719035  0.457503  1
  F  F27  1  0.557733  0.280055  0.543445  1
  F  F28  1  0.741873  0.974639  0.449612  1
  F  F29  1  0.258582  0.024649  0.550472  1
  F  F30  1  0.241626  0.024156  0.051467  1
  F  F31  1  0.758914  0.973430  0.946025  1
  F  F32  1  0.584814  0.968400  0.232188  1
  F  F33  1  0.414855  0.031859  0.767403  1
  F  F34  1  0.087124  0.029761  0.268552  1
  F  F35  1  0.913262  0.971237  0.730601  1
