# generated using pymatgen
data_Ac3Pr2Zn2Ru3
_symmetry_space_group_name_H-M   'P 1'
_cell_length_a   8.73802247
_cell_length_b   8.73802156
_cell_length_c   8.73802200
_cell_angle_alpha   109.47121470
_cell_angle_beta   109.47121259
_cell_angle_gamma   109.47122751
_symmetry_Int_Tables_number   1
_chemical_formula_structural   Ac3Pr2Zn2Ru3
_chemical_formula_sum   'Ac6 Pr4 Zn4 Ru6'
_cell_volume   513.59117224
_cell_formula_units_Z   2
loop_
 _symmetry_equiv_pos_site_id
 _symmetry_equiv_pos_as_xyz
  1  'x, y, z'
loop_
 _atom_site_type_symbol
 _atom_site_label
 _atom_site_symmetry_multiplicity
 _atom_site_fract_x
 _atom_site_fract_y
 _atom_site_fract_z
 _atom_site_occupancy
  Ac  Ac0  1  0.250000  0.686997  0.436997  1
  Ac  Ac1  1  0.750000  0.813003  0.063003  1
  Ac  Ac2  1  0.436997  0.250000  0.686997  1
  Ac  Ac3  1  0.686997  0.436997  0.250000  1
  Ac  Ac4  1  0.063003  0.750000  0.813003  1
  Ac  Ac5  1  0.813003  0.063003  0.750000  1
  Pr  Pr6  1  0.220344  0.220344  0.220344  1
  Pr  Pr7  1  0.500000  0.000000  0.279656  1
  Pr  Pr8  1  0.279656  0.500000  0.000000  1
  Pr  Pr9  1  0.000000  0.279656  0.500000  1
  Zn  Zn10  1  0.584486  0.584486  0.584486  1
  Zn  Zn11  1  0.500000  0.000000  0.915514  1
  Zn  Zn12  1  0.915514  0.500000  0.000000  1
  Zn  Zn13  1  0.000000  0.915514  0.500000  1
  Ru  Ru14  1  0.250000  0.128421  0.878421  1
  Ru  Ru15  1  0.750000  0.371579  0.621579  1
  Ru  Ru16  1  0.878420  0.250000  0.128421  1
  Ru  Ru17  1  0.128421  0.878420  0.250000  1
  Ru  Ru18  1  0.621579  0.750000  0.371579  1
  Ru  Ru19  1  0.371579  0.621579  0.750000  1
