# generated using pymatgen
data_Ho4Hf3PtF28
_symmetry_space_group_name_H-M   'P 1'
_cell_length_a   5.66746061
_cell_length_b   8.98692310
_cell_length_c   12.07920702
_cell_angle_alpha   62.43833874
_cell_angle_beta   89.91601725
_cell_angle_gamma   89.97951642
_symmetry_Int_Tables_number   1
_chemical_formula_structural   Ho4Hf3PtF28
_chemical_formula_sum   'Ho4 Hf3 Pt1 F28'
_cell_volume   545.40958296
_cell_formula_units_Z   1
loop_
 _symmetry_equiv_pos_site_id
 _symmetry_equiv_pos_as_xyz
  1  'x, y, z'
loop_
 _atom_site_type_symbol
 _atom_site_label
 _atom_site_symmetry_multiplicity
 _atom_site_fract_x
 _atom_site_fract_y
 _atom_site_fract_z
 _atom_site_occupancy
  Ho  Ho0  1  0.757730  0.815779  0.765523  1
  Ho  Ho1  1  0.257912  0.184548  0.732149  1
  Ho  Ho2  1  0.241202  0.183945  0.238435  1
  Ho  Ho3  1  0.743665  0.813906  0.267449  1
  Hf  Hf4  1  0.756189  0.273376  0.956256  1
  Hf  Hf5  1  0.256468  0.725090  0.544680  1
  Hf  Hf6  1  0.244682  0.725121  0.045583  1
  Pt  Pt7  1  0.739905  0.272618  0.455390  1
  F  F8  1  0.463419  0.709693  0.920972  1
  F  F9  1  0.936600  0.295948  0.581027  1
  F  F10  1  0.533962  0.288917  0.079390  1
  F  F11  1  0.038952  0.710930  0.419857  1
  F  F12  1  0.446880  0.280841  0.541443  1
  F  F13  1  0.952548  0.722616  0.950543  1
  F  F14  1  0.550089  0.718543  0.452380  1
  F  F15  1  0.046424  0.277248  0.051842  1
  F  F16  1  0.772405  0.523972  0.859835  1
  F  F17  1  0.267269  0.473834  0.639417  1
  F  F18  1  0.226788  0.474669  0.142956  1
  F  F19  1  0.730490  0.518735  0.357235  1
  F  F20  1  0.758720  0.023248  0.058563  1
  F  F21  1  0.260715  0.975288  0.444163  1
  F  F22  1  0.243140  0.975181  0.940910  1
  F  F23  1  0.742296  0.025079  0.549227  1
  F  F24  1  0.983093  0.732580  0.647675  1
  F  F25  1  0.487236  0.266761  0.850401  1
  F  F26  1  0.025836  0.272230  0.362142  1
  F  F27  1  0.516933  0.733167  0.148369  1
  F  F28  1  0.036781  0.748372  0.172480  1
  F  F29  1  0.549242  0.256806  0.324113  1
  F  F30  1  0.968951  0.252478  0.829234  1
  F  F31  1  0.465834  0.745039  0.672742  1
  F  F32  1  0.425167  0.972766  0.235956  1
  F  F33  1  0.924415  0.027642  0.268225  1
  F  F34  1  0.573908  0.028762  0.762813  1
  F  F35  1  0.074153  0.974270  0.730625  1
