# generated using pymatgen
data_Hf7Zr3GaSn6Ge
_symmetry_space_group_name_H-M   'P 1'
_cell_length_a   8.67563000
_cell_length_b   8.67563189
_cell_length_c   5.86299800
_cell_angle_alpha   90.00000000
_cell_angle_beta   90.00000000
_cell_angle_gamma   120.00000805
_symmetry_Int_Tables_number   1
_chemical_formula_structural   Hf7Zr3GaSn6Ge
_chemical_formula_sum   'Hf7 Zr3 Ga1 Sn6 Ge1'
_cell_volume   382.16638193
_cell_formula_units_Z   1
loop_
 _symmetry_equiv_pos_site_id
 _symmetry_equiv_pos_as_xyz
  1  'x, y, z'
loop_
 _atom_site_type_symbol
 _atom_site_label
 _atom_site_symmetry_multiplicity
 _atom_site_fract_x
 _atom_site_fract_y
 _atom_site_fract_z
 _atom_site_occupancy
  Hf  Hf0  1  0.270009  0.270009  0.248594  1
  Hf  Hf1  1  0.729991  0.000000  0.248594  1
  Hf  Hf2  1  0.000000  0.729991  0.248594  1
  Hf  Hf3  1  0.666667  0.333333  0.001796  1
  Hf  Hf4  1  0.333333  0.666667  0.001796  1
  Hf  Hf5  1  0.333333  0.666667  0.498254  1
  Hf  Hf6  1  0.666667  0.333333  0.498254  1
  Zr  Zr7  1  0.738018  0.738018  0.751185  1
  Zr  Zr8  1  0.261982  0.000000  0.751185  1
  Zr  Zr9  1  0.000000  0.261982  0.751185  1
  Ga  Ga10  1  0.000000  0.000000  0.490549  1
  Sn  Sn11  1  0.392535  0.392535  0.748349  1
  Sn  Sn12  1  0.607465  0.000000  0.748349  1
  Sn  Sn13  1  0.000000  0.607465  0.748349  1
  Sn  Sn14  1  0.611105  0.611105  0.251696  1
  Sn  Sn15  1  0.388895  0.000000  0.251696  1
  Sn  Sn16  1  0.000000  0.388895  0.251696  1
  Ge  Ge17  1  0.000000  0.000000  0.009878  1
