# generated using pymatgen
data_Yb3Gd5(LuIr2)2
_symmetry_space_group_name_H-M   'P 1'
_cell_length_a   6.41282214
_cell_length_b   7.21492584
_cell_length_c   8.47785000
_cell_angle_alpha   96.74699639
_cell_angle_beta   111.74277663
_cell_angle_gamma   89.79635882
_symmetry_Int_Tables_number   1
_chemical_formula_structural   Yb3Gd5(LuIr2)2
_chemical_formula_sum   'Yb3 Gd5 Lu2 Ir4'
_cell_volume   361.48405510
_cell_formula_units_Z   1
loop_
 _symmetry_equiv_pos_site_id
 _symmetry_equiv_pos_as_xyz
  1  'x, y, z'
loop_
 _atom_site_type_symbol
 _atom_site_label
 _atom_site_symmetry_multiplicity
 _atom_site_fract_x
 _atom_site_fract_y
 _atom_site_fract_z
 _atom_site_occupancy
  Yb  Yb0  1  0.522971  0.080147  0.818924  1
  Yb  Yb1  1  0.475637  0.922669  0.183797  1
  Yb  Yb2  1  0.708570  0.420274  0.183404  1
  Gd  Gd3  1  0.294454  0.581782  0.821773  1
  Gd  Gd4  1  0.295134  0.314428  0.435688  1
  Gd  Gd5  1  0.706463  0.687770  0.563027  1
  Gd  Gd6  1  0.863006  0.189931  0.564722  1
  Gd  Gd7  1  0.144158  0.809986  0.436074  1
  Lu  Lu8  1  0.064729  0.248948  0.999667  1
  Lu  Lu9  1  0.928498  0.749705  0.999973  1
  Ir  Ir10  1  0.306626  0.568824  0.210127  1
  Ir  Ir11  1  0.684388  0.431039  0.778806  1
  Ir  Ir12  1  0.090730  0.924239  0.780241  1
  Ir  Ir13  1  0.914635  0.070260  0.223778  1
