# generated using pymatgen
data_DyTm4Lu(Al3Os)8
_symmetry_space_group_name_H-M   'P 1'
_cell_length_a   8.77450100
_cell_length_b   8.77342500
_cell_length_c   9.59253600
_cell_angle_alpha   90.00000000
_cell_angle_beta   90.00000000
_cell_angle_gamma   120.00406085
_symmetry_Int_Tables_number   1
_chemical_formula_structural   DyTm4Lu(Al3Os)8
_chemical_formula_sum   'Dy1 Tm4 Lu1 Al24 Os8'
_cell_volume   639.49608842
_cell_formula_units_Z   1
loop_
 _symmetry_equiv_pos_site_id
 _symmetry_equiv_pos_as_xyz
  1  'x, y, z'
loop_
 _atom_site_type_symbol
 _atom_site_label
 _atom_site_symmetry_multiplicity
 _atom_site_fract_x
 _atom_site_fract_y
 _atom_site_fract_z
 _atom_site_occupancy
  Dy  Dy0  1  0.193353  0.386706  0.250000  1
  Tm  Tm1  1  0.610554  0.805551  0.250000  1
  Tm  Tm2  1  0.389088  0.194700  0.750000  1
  Tm  Tm3  1  0.194997  0.805551  0.250000  1
  Tm  Tm4  1  0.805612  0.194700  0.750000  1
  Lu  Lu5  1  0.804191  0.608381  0.750000  1
  Al  Al6  1  0.333422  0.666846  0.020826  1
  Al  Al7  1  0.666676  0.333350  0.977908  1
  Al  Al8  1  0.666676  0.333350  0.522092  1
  Al  Al9  1  0.333422  0.666846  0.479174  1
  Al  Al10  1  0.163683  0.327366  0.577218  1
  Al  Al11  1  0.836603  0.673207  0.424383  1
  Al  Al12  1  0.673317  0.836601  0.576684  1
  Al  Al13  1  0.836603  0.673207  0.075617  1
  Al  Al14  1  0.327590  0.163598  0.424106  1
  Al  Al15  1  0.163683  0.327366  0.922782  1
  Al  Al16  1  0.163284  0.836601  0.576684  1
  Al  Al17  1  0.327590  0.163598  0.075894  1
  Al  Al18  1  0.836008  0.163598  0.424106  1
  Al  Al19  1  0.673317  0.836601  0.923316  1
  Al  Al20  1  0.836008  0.163598  0.075894  1
  Al  Al21  1  0.163284  0.836601  0.923316  1
  Al  Al22  1  0.561773  0.123544  0.250000  1
  Al  Al23  1  0.438388  0.876777  0.750000  1
  Al  Al24  1  0.876150  0.438714  0.250000  1
  Al  Al25  1  0.123156  0.561999  0.750000  1
  Al  Al26  1  0.562563  0.438714  0.250000  1
  Al  Al27  1  0.438843  0.561999  0.750000  1
  Al  Al28  1  0.998955  0.997910  0.250000  1
  Al  Al29  1  0.999092  0.998184  0.750000  1
  Os  Os30  1  0.500088  0.000177  0.999875  1
  Os  Os31  1  0.999564  0.500637  0.999229  1
  Os  Os32  1  0.500088  0.000177  0.500125  1
  Os  Os33  1  0.501073  0.500637  0.999229  1
  Os  Os34  1  0.999564  0.500637  0.500771  1
  Os  Os35  1  0.501073  0.500637  0.500771  1
  Os  Os36  1  0.000335  0.000670  0.999908  1
  Os  Os37  1  0.000335  0.000670  0.500092  1
