# generated using pymatgen
data_YbY19Cd6FeNi
_symmetry_space_group_name_H-M   'P 1'
_cell_length_a   9.65381200
_cell_length_b   9.65380879
_cell_length_c   9.79746700
_cell_angle_alpha   90.00000214
_cell_angle_beta   90.00001178
_cell_angle_gamma   120.00005529
_symmetry_Int_Tables_number   1
_chemical_formula_structural   YbY19Cd6FeNi
_chemical_formula_sum   'Yb1 Y19 Cd6 Fe1 Ni1'
_cell_volume   790.75460347
_cell_formula_units_Z   1
loop_
 _symmetry_equiv_pos_site_id
 _symmetry_equiv_pos_as_xyz
  1  'x, y, z'
loop_
 _atom_site_type_symbol
 _atom_site_label
 _atom_site_symmetry_multiplicity
 _atom_site_fract_x
 _atom_site_fract_y
 _atom_site_fract_z
 _atom_site_occupancy
  Yb  Yb0  1  0.000000  0.000000  0.499836  1
  Y  Y1  1  0.000000  0.000000  0.000237  1
  Y  Y2  1  0.541826  0.458173  0.250306  1
  Y  Y3  1  0.541827  0.083654  0.250306  1
  Y  Y4  1  0.916347  0.458173  0.250306  1
  Y  Y5  1  0.456555  0.543445  0.749621  1
  Y  Y6  1  0.456555  0.913110  0.749621  1
  Y  Y7  1  0.086891  0.543445  0.749621  1
  Y  Y8  1  0.212117  0.787883  0.435367  1
  Y  Y9  1  0.212117  0.424235  0.435366  1
  Y  Y10  1  0.575764  0.787883  0.435366  1
  Y  Y11  1  0.789062  0.210938  0.563139  1
  Y  Y12  1  0.789062  0.578124  0.563140  1
  Y  Y13  1  0.421877  0.210938  0.563139  1
  Y  Y14  1  0.789205  0.210795  0.937411  1
  Y  Y15  1  0.789205  0.578409  0.937411  1
  Y  Y16  1  0.421591  0.210795  0.937411  1
  Y  Y17  1  0.212039  0.787961  0.064018  1
  Y  Y18  1  0.212039  0.424080  0.064018  1
  Y  Y19  1  0.575920  0.787961  0.064019  1
  Cd  Cd20  1  0.884775  0.115225  0.250045  1
  Cd  Cd21  1  0.884775  0.769549  0.250045  1
  Cd  Cd22  1  0.230450  0.115225  0.250045  1
  Cd  Cd23  1  0.115258  0.884742  0.749954  1
  Cd  Cd24  1  0.115258  0.230517  0.749954  1
  Cd  Cd25  1  0.769484  0.884742  0.749954  1
  Fe  Fe26  1  0.333333  0.666667  0.250685  1
  Ni  Ni27  1  0.666666  0.333333  0.749656  1
