# generated using pymatgen
data_Ti3Si(BMo)2
_symmetry_space_group_name_H-M   'P 1'
_cell_length_a   7.13472805
_cell_length_b   7.11444082
_cell_length_c   7.11444005
_cell_angle_alpha   129.59802543
_cell_angle_beta   129.75512730
_cell_angle_gamma   73.86292379
_symmetry_Int_Tables_number   1
_chemical_formula_structural   Ti3Si(BMo)2
_chemical_formula_sum   'Ti6 Si2 B4 Mo4'
_cell_volume   208.73304248
_cell_formula_units_Z   2
loop_
 _symmetry_equiv_pos_site_id
 _symmetry_equiv_pos_as_xyz
  1  'x, y, z'
loop_
 _atom_site_type_symbol
 _atom_site_label
 _atom_site_symmetry_multiplicity
 _atom_site_fract_x
 _atom_site_fract_y
 _atom_site_fract_z
 _atom_site_occupancy
  Ti  Ti0  1  0.807560  0.963130  0.500628  1
  Ti  Ti1  1  0.307560  0.806932  0.844430  1
  Ti  Ti2  1  0.193234  0.038652  0.500321  1
  Ti  Ti3  1  0.536755  0.691546  0.500511  1
  Ti  Ti4  1  0.036755  0.536243  0.845209  1
  Ti  Ti5  1  0.693234  0.192913  0.154582  1
  Si  Si6  1  0.749999  0.747828  0.998565  1
  Si  Si7  1  0.249999  0.251434  0.002171  1
  B  B8  1  0.389537  0.890349  0.278930  1
  B  B9  1  0.889537  0.610608  0.499188  1
  B  B10  1  0.611971  0.111982  0.723258  1
  B  B11  1  0.111971  0.388712  0.499989  1
  Mo  Mo12  1  0.001494  0.999862  0.999472  1
  Mo  Mo13  1  0.959450  0.459893  0.151556  1
  Mo  Mo14  1  0.501494  0.502022  0.001632  1
  Mo  Mo15  1  0.459450  0.307894  0.499557  1
