# generated using pymatgen
data_Y2Zr(SnRh)3
_symmetry_space_group_name_H-M   'P 1'
_cell_length_a   7.50382101
_cell_length_b   7.55626538
_cell_length_c   7.56889800
_cell_angle_alpha   90.00000000
_cell_angle_beta   90.00000000
_cell_angle_gamma   119.77849652
_symmetry_Int_Tables_number   1
_chemical_formula_structural   Y2Zr(SnRh)3
_chemical_formula_sum   'Y4 Zr2 Sn6 Rh6'
_cell_volume   372.49288698
_cell_formula_units_Z   2
loop_
 _symmetry_equiv_pos_site_id
 _symmetry_equiv_pos_as_xyz
  1  'x, y, z'
loop_
 _atom_site_type_symbol
 _atom_site_label
 _atom_site_symmetry_multiplicity
 _atom_site_fract_x
 _atom_site_fract_y
 _atom_site_fract_z
 _atom_site_occupancy
  Y  Y0  1  0.595534  0.999592  0.750000  1
  Y  Y1  1  0.406227  0.410867  0.750000  1
  Y  Y2  1  0.996035  0.589551  0.750000  1
  Y  Y3  1  0.597524  0.001115  0.250000  1
  Zr  Zr4  1  0.401224  0.394523  0.250000  1
  Zr  Zr5  1  0.004399  0.604152  0.250000  1
  Sn  Sn6  1  0.264751  0.999739  0.997716  1
  Sn  Sn7  1  0.736309  0.736343  0.491246  1
  Sn  Sn8  1  0.000461  0.263852  0.491226  1
  Sn  Sn9  1  0.000461  0.263852  0.008774  1
  Sn  Sn10  1  0.736309  0.736343  0.008754  1
  Sn  Sn11  1  0.264751  0.999739  0.502284  1
  Rh  Rh12  1  0.667867  0.342196  0.023830  1
  Rh  Rh13  1  0.667867  0.342196  0.476170  1
  Rh  Rh14  1  0.325893  0.658037  0.025966  1
  Rh  Rh15  1  0.325893  0.658037  0.474034  1
  Rh  Rh16  1  0.996307  0.999922  0.750000  1
  Rh  Rh17  1  0.012191  0.999944  0.250000  1
