# generated using pymatgen
data_YbTm6NiI12
_symmetry_space_group_name_H-M   'P 1'
_cell_length_a   9.63772567
_cell_length_b   9.63772472
_cell_length_c   9.63772685
_cell_angle_alpha   106.79991965
_cell_angle_beta   106.79991584
_cell_angle_gamma   106.79992155
_symmetry_Int_Tables_number   1
_chemical_formula_structural   YbTm6NiI12
_chemical_formula_sum   'Yb1 Tm6 Ni1 I12'
_cell_volume   749.56924311
_cell_formula_units_Z   1
loop_
 _symmetry_equiv_pos_site_id
 _symmetry_equiv_pos_as_xyz
  1  'x, y, z'
loop_
 _atom_site_type_symbol
 _atom_site_label
 _atom_site_symmetry_multiplicity
 _atom_site_fract_x
 _atom_site_fract_y
 _atom_site_fract_z
 _atom_site_occupancy
  Yb  Yb0  1  0.500000  0.500000  0.500000  1
  Tm  Tm1  1  0.905738  0.975825  0.709639  1
  Tm  Tm2  1  0.709639  0.905738  0.975825  1
  Tm  Tm3  1  0.975825  0.709639  0.905738  1
  Tm  Tm4  1  0.094262  0.024175  0.290361  1
  Tm  Tm5  1  0.290361  0.094262  0.024175  1
  Tm  Tm6  1  0.024175  0.290361  0.094262  1
  Ni  Ni7  1  0.000000  0.000000  0.000000  1
  I  I8  1  0.927022  0.322746  0.776703  1
  I  I9  1  0.776703  0.927022  0.322746  1
  I  I10  1  0.322746  0.776703  0.927022  1
  I  I11  1  0.072978  0.677254  0.223297  1
  I  I12  1  0.223297  0.072978  0.677254  1
  I  I13  1  0.677254  0.223297  0.072978  1
  I  I14  1  0.542579  0.851116  0.620668  1
  I  I15  1  0.620668  0.542579  0.851116  1
  I  I16  1  0.851116  0.620668  0.542579  1
  I  I17  1  0.457421  0.148884  0.379332  1
  I  I18  1  0.379332  0.457421  0.148884  1
  I  I19  1  0.148884  0.379332  0.457421  1
