# generated using pymatgen
data_SrLiPt4
_symmetry_space_group_name_H-M   'P 1'
_cell_length_a   5.43366395
_cell_length_b   5.43366484
_cell_length_c   5.43366400
_cell_angle_alpha   60.00000513
_cell_angle_beta   59.99999969
_cell_angle_gamma   60.00000172
_symmetry_Int_Tables_number   1
_chemical_formula_structural   SrLiPt4
_chemical_formula_sum   'Sr1 Li1 Pt4'
_cell_volume   113.43927066
_cell_formula_units_Z   1
loop_
 _symmetry_equiv_pos_site_id
 _symmetry_equiv_pos_as_xyz
  1  'x, y, z'
loop_
 _atom_site_type_symbol
 _atom_site_label
 _atom_site_symmetry_multiplicity
 _atom_site_fract_x
 _atom_site_fract_y
 _atom_site_fract_z
 _atom_site_occupancy
  Sr  Sr0  1  0.000000  0.000000  0.000000  1
  Li  Li1  1  0.250000  0.250000  0.250000  1
  Pt  Pt2  1  0.624570  0.624570  0.126291  1
  Pt  Pt3  1  0.624570  0.126291  0.624570  1
  Pt  Pt4  1  0.126291  0.624570  0.624570  1
  Pt  Pt5  1  0.624570  0.624570  0.624570  1
