# generated using pymatgen
data_Zn8GaPt3O16
_symmetry_space_group_name_H-M   'P 1'
_cell_length_a   6.14827200
_cell_length_b   6.10185062
_cell_length_c   8.59417218
_cell_angle_alpha   89.31278456
_cell_angle_beta   90.00000000
_cell_angle_gamma   90.00000000
_symmetry_Int_Tables_number   1
_chemical_formula_structural   Zn8GaPt3O16
_chemical_formula_sum   'Zn8 Ga1 Pt3 O16'
_cell_volume   322.39437419
_cell_formula_units_Z   1
loop_
 _symmetry_equiv_pos_site_id
 _symmetry_equiv_pos_as_xyz
  1  'x, y, z'
loop_
 _atom_site_type_symbol
 _atom_site_label
 _atom_site_symmetry_multiplicity
 _atom_site_fract_x
 _atom_site_fract_y
 _atom_site_fract_z
 _atom_site_occupancy
  Zn  Zn0  1  0.997829  0.237507  0.995251  1
  Zn  Zn1  1  0.997829  0.762493  0.504749  1
  Zn  Zn2  1  0.255892  0.242818  0.631496  1
  Zn  Zn3  1  0.255892  0.757182  0.868504  1
  Zn  Zn4  1  0.230641  0.000000  0.250000  1
  Zn  Zn5  1  0.766352  0.000000  0.750000  1
  Zn  Zn6  1  0.746363  0.257203  0.376563  1
  Zn  Zn7  1  0.746363  0.742797  0.123437  1
  Ga  Ga8  1  0.771896  0.500000  0.750000  1
  Pt  Pt9  1  0.243846  0.500000  0.250000  1
  Pt  Pt10  1  0.500234  0.749917  0.501943  1
  Pt  Pt11  1  0.500234  0.250083  0.998057  1
  O  O12  1  0.526559  0.740406  0.735787  1
  O  O13  1  0.526559  0.259594  0.764213  1
  O  O14  1  0.737020  0.979664  0.503976  1
  O  O15  1  0.737020  0.020336  0.996024  1
  O  O16  1  0.738486  0.517920  0.516825  1
  O  O17  1  0.738486  0.482080  0.983175  1
  O  O18  1  0.982808  0.740561  0.747722  1
  O  O19  1  0.982808  0.259439  0.752278  1
  O  O20  1  0.014793  0.738667  0.257097  1
  O  O21  1  0.014793  0.261333  0.242903  1
  O  O22  1  0.255177  0.519153  0.488002  1
  O  O23  1  0.255177  0.480847  0.011998  1
  O  O24  1  0.261766  0.979993  0.493721  1
  O  O25  1  0.261766  0.020007  0.006279  1
  O  O26  1  0.476705  0.741588  0.263707  1
  O  O27  1  0.476705  0.258412  0.236293  1
