# generated using pymatgen
data_Eu12Y3Ho5Sn16
_symmetry_space_group_name_H-M   'P 1'
_cell_length_a   8.03327802
_cell_length_b   8.63482304
_cell_length_c   16.45607300
_cell_angle_alpha   89.99897814
_cell_angle_beta   90.00422232
_cell_angle_gamma   89.99444622
_symmetry_Int_Tables_number   1
_chemical_formula_structural   Eu12Y3Ho5Sn16
_chemical_formula_sum   'Eu12 Y3 Ho5 Sn16'
_cell_volume   1141.49086769
_cell_formula_units_Z   1
loop_
 _symmetry_equiv_pos_site_id
 _symmetry_equiv_pos_as_xyz
  1  'x, y, z'
loop_
 _atom_site_type_symbol
 _atom_site_label
 _atom_site_symmetry_multiplicity
 _atom_site_fract_x
 _atom_site_fract_y
 _atom_site_fract_z
 _atom_site_occupancy
  Eu  Eu0  1  0.501930  0.684543  0.592456  1
  Eu  Eu1  1  0.001605  0.816156  0.906396  1
  Eu  Eu2  1  0.498155  0.315664  0.093522  1
  Eu  Eu3  1  0.998008  0.184772  0.407015  1
  Eu  Eu4  1  0.497998  0.315367  0.406847  1
  Eu  Eu5  1  0.997973  0.185038  0.093787  1
  Eu  Eu6  1  0.501878  0.684024  0.907033  1
  Eu  Eu7  1  0.002132  0.815311  0.592957  1
  Eu  Eu8  1  0.827848  0.512417  0.749666  1
  Eu  Eu9  1  0.328028  0.987689  0.749546  1
  Eu  Eu10  1  0.172157  0.487418  0.250402  1
  Eu  Eu11  1  0.672156  0.012652  0.250203  1
  Y  Y12  1  0.669124  0.168341  0.621680  1
  Y  Y13  1  0.169072  0.331735  0.877875  1
  Y  Y14  1  0.330978  0.831731  0.122594  1
  Ho  Ho15  1  0.831489  0.668159  0.377790  1
  Ho  Ho16  1  0.331280  0.831773  0.377749  1
  Ho  Ho17  1  0.831008  0.667982  0.122667  1
  Ho  Ho18  1  0.668619  0.168271  0.877356  1
  Ho  Ho19  1  0.168530  0.331875  0.621971  1
  Sn  Sn20  1  0.669692  0.961486  0.460266  1
  Sn  Sn21  1  0.168899  0.537780  0.039797  1
  Sn  Sn22  1  0.331584  0.038268  0.960766  1
  Sn  Sn23  1  0.830502  0.462488  0.538824  1
  Sn  Sn24  1  0.329456  0.038115  0.538906  1
  Sn  Sn25  1  0.829608  0.461277  0.961111  1
  Sn  Sn26  1  0.670476  0.961914  0.039400  1
  Sn  Sn27  1  0.170221  0.538196  0.460584  1
  Sn  Sn28  1  0.462564  0.368058  0.749767  1
  Sn  Sn29  1  0.962881  0.131811  0.749643  1
  Sn  Sn30  1  0.537399  0.631872  0.250695  1
  Sn  Sn31  1  0.036852  0.867454  0.250609  1
  Sn  Sn32  1  0.714527  0.880413  0.749830  1
  Sn  Sn33  1  0.215137  0.619682  0.749305  1
  Sn  Sn34  1  0.284756  0.119674  0.250617  1
  Sn  Sn35  1  0.785475  0.380591  0.250368  1
