# generated using pymatgen
data_SrMnSiS4
_symmetry_space_group_name_H-M   'P 1'
_cell_length_a   6.24130400
_cell_length_b   10.25945300
_cell_length_c   10.66403100
_cell_angle_alpha   90.00000000
_cell_angle_beta   90.00000000
_cell_angle_gamma   90.00000000
_symmetry_Int_Tables_number   1
_chemical_formula_structural   SrMnSiS4
_chemical_formula_sum   'Sr4 Mn4 Si4 S16'
_cell_volume   682.84312586
_cell_formula_units_Z   4
loop_
 _symmetry_equiv_pos_site_id
 _symmetry_equiv_pos_as_xyz
  1  'x, y, z'
loop_
 _atom_site_type_symbol
 _atom_site_label
 _atom_site_symmetry_multiplicity
 _atom_site_fract_x
 _atom_site_fract_y
 _atom_site_fract_z
 _atom_site_occupancy
  Sr  Sr0  1  0.050701  0.000000  0.500000  1
  Sr  Sr1  1  0.550701  0.500000  0.000000  1
  Sr  Sr2  1  0.053073  0.000000  0.000000  1
  Sr  Sr3  1  0.553073  0.500000  0.500000  1
  Mn  Mn4  1  0.479817  0.163406  0.251945  1
  Mn  Mn5  1  0.479817  0.836594  0.748055  1
  Mn  Mn6  1  0.979817  0.336594  0.751945  1
  Mn  Mn7  1  0.979817  0.663406  0.248055  1
  Si  Si8  1  0.043630  0.282136  0.249919  1
  Si  Si9  1  0.043630  0.717864  0.750081  1
  Si  Si10  1  0.543630  0.217864  0.749919  1
  Si  Si11  1  0.543630  0.782136  0.250081  1
  S  S12  1  0.256058  0.267568  0.091268  1
  S  S13  1  0.256058  0.732432  0.908732  1
  S  S14  1  0.756058  0.232432  0.591268  1
  S  S15  1  0.756058  0.767568  0.408732  1
  S  S16  1  0.253739  0.268900  0.409823  1
  S  S17  1  0.253739  0.731100  0.590177  1
  S  S18  1  0.753739  0.231100  0.909823  1
  S  S19  1  0.753739  0.768900  0.090177  1
  S  S20  1  0.849675  0.108378  0.250010  1
  S  S21  1  0.849675  0.891622  0.749990  1
  S  S22  1  0.349675  0.391622  0.750010  1
  S  S23  1  0.349675  0.608378  0.249990  1
  S  S24  1  0.824794  0.442047  0.248988  1
  S  S25  1  0.824794  0.557953  0.751012  1
  S  S26  1  0.324794  0.057953  0.748988  1
  S  S27  1  0.324794  0.942047  0.251012  1
