# generated using pymatgen
data_Ni3Hg2BiO8
_symmetry_space_group_name_H-M   'P 1'
_cell_length_a   6.30730728
_cell_length_b   6.30730734
_cell_length_c   6.44611565
_cell_angle_alpha   60.70982069
_cell_angle_beta   119.29019179
_cell_angle_gamma   119.99999886
_symmetry_Int_Tables_number   1
_chemical_formula_structural   Ni3Hg2BiO8
_chemical_formula_sum   'Ni3 Hg2 Bi1 O8'
_cell_volume   183.25176962
_cell_formula_units_Z   1
loop_
 _symmetry_equiv_pos_site_id
 _symmetry_equiv_pos_as_xyz
  1  'x, y, z'
loop_
 _atom_site_type_symbol
 _atom_site_label
 _atom_site_symmetry_multiplicity
 _atom_site_fract_x
 _atom_site_fract_y
 _atom_site_fract_z
 _atom_site_occupancy
  Ni  Ni0  1  0.500000  0.500000  0.000000  1
  Ni  Ni1  1  0.500000  0.000000  0.000000  1
  Ni  Ni2  1  0.000000  0.500000  0.000000  1
  Hg  Hg3  1  0.861369  0.138631  0.584109  1
  Hg  Hg4  1  0.138631  0.861369  0.415891  1
  Bi  Bi5  1  0.500000  0.500000  0.500000  1
  O  O6  1  0.737885  0.703838  0.771930  1
  O  O7  1  0.737885  0.262115  0.771930  1
  O  O8  1  0.275186  0.724814  0.825558  1
  O  O9  1  0.296162  0.262115  0.771930  1
  O  O10  1  0.703838  0.737885  0.228070  1
  O  O11  1  0.724814  0.275186  0.174442  1
  O  O12  1  0.262115  0.737885  0.228070  1
  O  O13  1  0.262115  0.296162  0.228070  1
