# generated using pymatgen
data_Tb2Tm5Sn23Os6
_symmetry_space_group_name_H-M   'P 1'
_cell_length_a   9.83413603
_cell_length_b   9.88338620
_cell_length_c   10.06665657
_cell_angle_alpha   89.99999795
_cell_angle_beta   89.92946784
_cell_angle_gamma   120.16581408
_symmetry_Int_Tables_number   1
_chemical_formula_structural   Tb2Tm5Sn23Os6
_chemical_formula_sum   'Tb2 Tm5 Sn23 Os6'
_cell_volume   845.92011412
_cell_formula_units_Z   1
loop_
 _symmetry_equiv_pos_site_id
 _symmetry_equiv_pos_as_xyz
  1  'x, y, z'
loop_
 _atom_site_type_symbol
 _atom_site_label
 _atom_site_symmetry_multiplicity
 _atom_site_fract_x
 _atom_site_fract_y
 _atom_site_fract_z
 _atom_site_occupancy
  Tb  Tb0  1  0.000482  0.000241  0.000183  1
  Tb  Tb1  1  0.969880  0.484941  0.694351  1
  Tm  Tm2  1  0.487144  0.512602  0.303135  1
  Tm  Tm3  1  0.513259  0.487523  0.696804  1
  Tm  Tm4  1  0.487144  0.974541  0.303135  1
  Tm  Tm5  1  0.513259  0.025737  0.696804  1
  Tm  Tm6  1  0.026629  0.513314  0.304241  1
  Sn  Sn7  1  0.350032  0.000896  0.000381  1
  Sn  Sn8  1  0.650345  0.999347  0.000014  1
  Sn  Sn9  1  0.000238  0.349038  0.999859  1
  Sn  Sn10  1  0.000238  0.651200  0.999859  1
  Sn  Sn11  1  0.650345  0.650998  0.000014  1
  Sn  Sn12  1  0.350032  0.349136  0.000381  1
  Sn  Sn13  1  0.332930  0.666466  0.825279  1
  Sn  Sn14  1  0.667071  0.333535  0.174986  1
  Sn  Sn15  1  0.000213  0.000106  0.499878  1
  Sn  Sn16  1  0.778596  0.221879  0.464615  1
  Sn  Sn17  1  0.221768  0.778436  0.534297  1
  Sn  Sn18  1  0.778596  0.556717  0.464615  1
  Sn  Sn19  1  0.221768  0.443332  0.534297  1
  Sn  Sn20  1  0.444265  0.222133  0.465780  1
  Sn  Sn21  1  0.555994  0.777997  0.534169  1
  Sn  Sn22  1  0.333055  0.666528  0.133152  1
  Sn  Sn23  1  0.663897  0.331948  0.868662  1
  Sn  Sn24  1  0.117667  0.881732  0.279195  1
  Sn  Sn25  1  0.882606  0.117488  0.721132  1
  Sn  Sn26  1  0.117667  0.235936  0.279195  1
  Sn  Sn27  1  0.882606  0.765117  0.721132  1
  Sn  Sn28  1  0.762813  0.881407  0.276679  1
  Sn  Sn29  1  0.237700  0.118849  0.723105  1
  Os  Os30  1  0.828626  0.170334  0.203482  1
  Os  Os31  1  0.172434  0.831240  0.796649  1
  Os  Os32  1  0.828626  0.658292  0.203482  1
  Os  Os33  1  0.172434  0.341194  0.796649  1
  Os  Os34  1  0.341165  0.170582  0.203824  1
  Os  Os35  1  0.658478  0.829239  0.796583  1
