# generated using pymatgen
data_Nd16MgCd3PdRu3
_symmetry_space_group_name_H-M   'P 1'
_cell_length_a   9.97243816
_cell_length_b   10.00820710
_cell_length_c   10.00820757
_cell_angle_alpha   59.79348424
_cell_angle_beta   59.67281554
_cell_angle_gamma   59.67282008
_symmetry_Int_Tables_number   1
_chemical_formula_structural   Nd16MgCd3PdRu3
_chemical_formula_sum   'Nd16 Mg1 Cd3 Pd1 Ru3'
_cell_volume   701.71015248
_cell_formula_units_Z   1
loop_
 _symmetry_equiv_pos_site_id
 _symmetry_equiv_pos_as_xyz
  1  'x, y, z'
loop_
 _atom_site_type_symbol
 _atom_site_label
 _atom_site_symmetry_multiplicity
 _atom_site_fract_x
 _atom_site_fract_y
 _atom_site_fract_z
 _atom_site_occupancy
  Nd  Nd0  1  0.342566  0.351918  0.351918  1
  Nd  Nd1  1  0.341977  0.350650  0.956374  1
  Nd  Nd2  1  0.341977  0.956374  0.350650  1
  Nd  Nd3  1  0.964659  0.344271  0.344271  1
  Nd  Nd4  1  0.814604  0.191865  0.191865  1
  Nd  Nd5  1  0.188571  0.811253  0.811253  1
  Nd  Nd6  1  0.190700  0.809436  0.190582  1
  Nd  Nd7  1  0.817535  0.189941  0.803966  1
  Nd  Nd8  1  0.190700  0.190582  0.809436  1
  Nd  Nd9  1  0.817535  0.803966  0.189941  1
  Nd  Nd10  1  0.935922  0.563167  0.563167  1
  Nd  Nd11  1  0.557863  0.939443  0.939443  1
  Nd  Nd12  1  0.559461  0.936942  0.566313  1
  Nd  Nd13  1  0.937558  0.561690  0.940037  1
  Nd  Nd14  1  0.559461  0.566313  0.936942  1
  Nd  Nd15  1  0.937558  0.940037  0.561690  1
  Mg  Mg16  1  0.575531  0.574024  0.574024  1
  Cd  Cd17  1  0.580989  0.580207  0.258565  1
  Cd  Cd18  1  0.580989  0.258565  0.580207  1
  Cd  Cd19  1  0.257270  0.580825  0.580825  1
  Pd  Pd20  1  0.574503  0.142591  0.142591  1
  Ru  Ru21  1  0.143301  0.137289  0.137289  1
  Ru  Ru22  1  0.144386  0.138231  0.580421  1
  Ru  Ru23  1  0.144386  0.580421  0.138231  1
