# generated using pymatgen
data_LaB2OsRh
_symmetry_space_group_name_H-M   'P 1'
_cell_length_a   6.98696924
_cell_length_b   6.11437919
_cell_length_c   5.64582877
_cell_angle_alpha   72.77640642
_cell_angle_beta   56.70641235
_cell_angle_gamma   50.51719388
_symmetry_Int_Tables_number   1
_chemical_formula_structural   LaB2OsRh
_chemical_formula_sum   'La2 B4 Os2 Rh2'
_cell_volume   155.07923564
_cell_formula_units_Z   2
loop_
 _symmetry_equiv_pos_site_id
 _symmetry_equiv_pos_as_xyz
  1  'x, y, z'
loop_
 _atom_site_type_symbol
 _atom_site_label
 _atom_site_symmetry_multiplicity
 _atom_site_fract_x
 _atom_site_fract_y
 _atom_site_fract_z
 _atom_site_occupancy
  La  La0  1  0.000000  0.000000  0.000000  1
  La  La1  1  0.250000  0.250000  0.250000  1
  B  B2  1  0.312661  0.687339  0.312661  1
  B  B3  1  0.687339  0.312661  0.687339  1
  B  B4  1  0.580266  0.919734  0.580266  1
  B  B5  1  0.919734  0.580266  0.919734  1
  Os  Os6  1  0.614345  0.614345  0.885655  1
  Os  Os7  1  0.885655  0.885655  0.614345  1
  Rh  Rh8  1  0.633319  0.633319  0.366681  1
  Rh  Rh9  1  0.366681  0.366681  0.633319  1
