# generated using pymatgen
data_La4ErRu2
_symmetry_space_group_name_H-M   'P 1'
_cell_length_a   6.65865351
_cell_length_b   7.22026544
_cell_length_c   9.04967560
_cell_angle_alpha   94.43213745
_cell_angle_beta   111.58582486
_cell_angle_gamma   89.99999878
_symmetry_Int_Tables_number   1
_chemical_formula_structural   La4ErRu2
_chemical_formula_sum   'La8 Er2 Ru4'
_cell_volume   403.17045172
_cell_formula_units_Z   2
loop_
 _symmetry_equiv_pos_site_id
 _symmetry_equiv_pos_as_xyz
  1  'x, y, z'
loop_
 _atom_site_type_symbol
 _atom_site_label
 _atom_site_symmetry_multiplicity
 _atom_site_fract_x
 _atom_site_fract_y
 _atom_site_fract_z
 _atom_site_occupancy
  La  La0  1  0.793838  0.591302  0.818395  1
  La  La1  1  0.975443  0.908698  0.181605  1
  La  La2  1  0.206162  0.408698  0.181605  1
  La  La3  1  0.024557  0.091302  0.818395  1
  La  La4  1  0.208534  0.684045  0.572621  1
  La  La5  1  0.635914  0.815955  0.427379  1
  La  La6  1  0.791466  0.315955  0.427379  1
  La  La7  1  0.364086  0.184045  0.572621  1
  Er  Er8  1  0.430425  0.750000  0.000000  1
  Er  Er9  1  0.569575  0.250000  0.000000  1
  Ru  Ru10  1  0.601483  0.921478  0.782570  1
  Ru  Ru11  1  0.818912  0.578522  0.217430  1
  Ru  Ru12  1  0.398517  0.078522  0.217430  1
  Ru  Ru13  1  0.181088  0.421478  0.782570  1
