# generated using pymatgen
data_Y4Er(SiHg)2
_symmetry_space_group_name_H-M   'P 1'
_cell_length_a   8.80059219
_cell_length_b   8.80059277
_cell_length_c   7.56871400
_cell_angle_alpha   90.00000000
_cell_angle_beta   90.00000000
_cell_angle_gamma   129.26634752
_symmetry_Int_Tables_number   1
_chemical_formula_structural   Y4Er(SiHg)2
_chemical_formula_sum   'Y8 Er2 Si4 Hg4'
_cell_volume   453.84323448
_cell_formula_units_Z   2
loop_
 _symmetry_equiv_pos_site_id
 _symmetry_equiv_pos_as_xyz
  1  'x, y, z'
loop_
 _atom_site_type_symbol
 _atom_site_label
 _atom_site_symmetry_multiplicity
 _atom_site_fract_x
 _atom_site_fract_y
 _atom_site_fract_z
 _atom_site_occupancy
  Y  Y0  1  0.054550  0.308834  0.324456  1
  Y  Y1  1  0.945450  0.691166  0.675544  1
  Y  Y2  1  0.445450  0.191166  0.824456  1
  Y  Y3  1  0.808834  0.554550  0.175544  1
  Y  Y4  1  0.554550  0.808834  0.175544  1
  Y  Y5  1  0.191166  0.445450  0.824456  1
  Y  Y6  1  0.691166  0.945450  0.675544  1
  Y  Y7  1  0.308834  0.054550  0.324456  1
  Er  Er8  1  0.000000  0.000000  0.000000  1
  Er  Er9  1  0.500000  0.500000  0.500000  1
  Si  Si10  1  0.379587  0.379587  0.123363  1
  Si  Si11  1  0.620413  0.620413  0.876637  1
  Si  Si12  1  0.120413  0.120413  0.623363  1
  Si  Si13  1  0.879587  0.879587  0.376637  1
  Hg  Hg14  1  0.783024  0.216976  0.000000  1
  Hg  Hg15  1  0.216977  0.783024  0.000000  1
  Hg  Hg16  1  0.716976  0.283024  0.500000  1
  Hg  Hg17  1  0.283024  0.716976  0.500000  1
