# generated using pymatgen
data_Yb2Pt2O7
_symmetry_space_group_name_H-M   'P 1'
_cell_length_a   7.24109679
_cell_length_b   7.24109690
_cell_length_c   7.24109700
_cell_angle_alpha   60.00000410
_cell_angle_beta   60.00000361
_cell_angle_gamma   60.00000026
_symmetry_Int_Tables_number   1
_chemical_formula_structural   Yb2Pt2O7
_chemical_formula_sum   'Yb4 Pt4 O14'
_cell_volume   268.47144807
_cell_formula_units_Z   2
loop_
 _symmetry_equiv_pos_site_id
 _symmetry_equiv_pos_as_xyz
  1  'x, y, z'
loop_
 _atom_site_type_symbol
 _atom_site_label
 _atom_site_symmetry_multiplicity
 _atom_site_fract_x
 _atom_site_fract_y
 _atom_site_fract_z
 _atom_site_occupancy
  Yb  Yb0  1  0.000000  0.000000  0.000000  1
  Yb  Yb1  1  0.500000  0.000000  0.000000  1
  Yb  Yb2  1  0.000000  0.500000  0.000000  1
  Yb  Yb3  1  0.000000  0.000000  0.500000  1
  Pt  Pt4  1  0.500000  0.500000  0.000000  1
  Pt  Pt5  1  0.500002  0.499999  0.499998  1
  Pt  Pt6  1  0.500000  0.000000  0.500000  1
  Pt  Pt7  1  0.000000  0.500000  0.500000  1
  O  O8  1  0.124999  0.125002  0.124998  1
  O  O9  1  0.582371  0.167630  0.167628  1
  O  O10  1  0.167629  0.582371  0.167628  1
  O  O11  1  0.582371  0.582372  0.167628  1
  O  O12  1  0.832374  0.417628  0.417628  1
  O  O13  1  0.417630  0.832372  0.417628  1
  O  O14  1  0.832370  0.832371  0.417630  1
  O  O15  1  0.167629  0.167629  0.582370  1
  O  O16  1  0.582372  0.167627  0.582372  1
  O  O17  1  0.167628  0.582371  0.582372  1
  O  O18  1  0.832370  0.417630  0.832371  1
  O  O19  1  0.417627  0.832372  0.832371  1
  O  O20  1  0.417628  0.417629  0.832372  1
  O  O21  1  0.875000  0.874999  0.874999  1
