# generated using pymatgen
data_Pm2Np2SbO12
_symmetry_space_group_name_H-M   'P 1'
_cell_length_a   6.92879205
_cell_length_b   7.14589043
_cell_length_c   12.27207309
_cell_angle_alpha   81.86371266
_cell_angle_beta   74.12107912
_cell_angle_gamma   110.75673581
_symmetry_Int_Tables_number   1
_chemical_formula_structural   Pm2Np2SbO12
_chemical_formula_sum   'Pm4 Np4 Sb2 O24'
_cell_volume   526.93726516
_cell_formula_units_Z   2
loop_
 _symmetry_equiv_pos_site_id
 _symmetry_equiv_pos_as_xyz
  1  'x, y, z'
loop_
 _atom_site_type_symbol
 _atom_site_label
 _atom_site_symmetry_multiplicity
 _atom_site_fract_x
 _atom_site_fract_y
 _atom_site_fract_z
 _atom_site_occupancy
  Pm  Pm0  1  0.192063  0.447903  0.603804  1
  Pm  Pm1  1  0.807937  0.552097  0.396196  1
  Pm  Pm2  1  0.575484  0.810063  0.907542  1
  Pm  Pm3  1  0.424516  0.189937  0.092458  1
  Np  Np4  1  0.678517  0.999406  0.579208  1
  Np  Np5  1  0.321483  0.000594  0.420792  1
  Np  Np6  1  0.572353  0.416754  0.748767  1
  Np  Np7  1  0.427647  0.583246  0.251233  1
  Sb  Sb8  1  0.007102  0.299490  0.958900  1
  Sb  Sb9  1  0.992898  0.700510  0.041100  1
  O  O10  1  0.556820  0.438971  0.592179  1
  O  O11  1  0.443180  0.561029  0.407821  1
  O  O12  1  0.538494  0.431093  0.906492  1
  O  O13  1  0.461506  0.568907  0.093508  1
  O  O14  1  0.558091  0.071730  0.722835  1
  O  O15  1  0.441909  0.928270  0.277165  1
  O  O16  1  0.880785  0.476846  0.715375  1
  O  O17  1  0.119215  0.523154  0.284625  1
  O  O18  1  0.724178  0.135678  0.948129  1
  O  O19  1  0.275822  0.864322  0.051871  1
  O  O20  1  0.919620  0.275511  0.531911  1
  O  O21  1  0.080380  0.724489  0.468089  1
  O  O22  1  0.385892  0.807256  0.573549  1
  O  O23  1  0.614108  0.192744  0.426451  1
  O  O24  1  0.188742  0.605824  0.922086  1
  O  O25  1  0.811258  0.394176  0.077914  1
  O  O26  1  0.212339  0.328569  0.794302  1
  O  O27  1  0.787661  0.671431  0.205698  1
  O  O28  1  0.659182  0.750062  0.716660  1
  O  O29  1  0.340818  0.249938  0.283340  1
  O  O30  1  0.898090  0.836543  0.937715  1
  O  O31  1  0.101910  0.163457  0.062285  1
  O  O32  1  0.189207  0.093138  0.544488  1
  O  O33  1  0.810793  0.906862  0.455512  1
