# generated using pymatgen
data_Ca7Th(OsC2)4
_symmetry_space_group_name_H-M   'P 1'
_cell_length_a   5.18379000
_cell_length_b   6.51570409
_cell_length_c   10.50736298
_cell_angle_alpha   90.35930130
_cell_angle_beta   90.00000000
_cell_angle_gamma   90.00000000
_symmetry_Int_Tables_number   1
_chemical_formula_structural   Ca7Th(OsC2)4
_chemical_formula_sum   'Ca7 Th1 Os4 C8'
_cell_volume   354.89015159
_cell_formula_units_Z   1
loop_
 _symmetry_equiv_pos_site_id
 _symmetry_equiv_pos_as_xyz
  1  'x, y, z'
loop_
 _atom_site_type_symbol
 _atom_site_label
 _atom_site_symmetry_multiplicity
 _atom_site_fract_x
 _atom_site_fract_y
 _atom_site_fract_z
 _atom_site_occupancy
  Ca  Ca0  1  0.750000  0.298828  0.447405  1
  Ca  Ca1  1  0.750000  0.805982  0.051194  1
  Ca  Ca2  1  0.250000  0.191589  0.948750  1
  Ca  Ca3  1  0.250000  0.536678  0.213081  1
  Ca  Ca4  1  0.750000  0.461786  0.785450  1
  Ca  Ca5  1  0.750000  0.968345  0.732166  1
  Ca  Ca6  1  0.250000  0.035916  0.268706  1
  Th  Th7  1  0.250000  0.692131  0.549539  1
  Os  Os8  1  0.250000  0.730027  0.852750  1
  Os  Os9  1  0.750000  0.267109  0.149004  1
  Os  Os10  1  0.750000  0.769031  0.347979  1
  Os  Os11  1  0.250000  0.228734  0.652113  1
  C  C12  1  0.250000  0.470517  0.756585  1
  C  C13  1  0.750000  0.530242  0.240678  1
  C  C14  1  0.750000  0.027767  0.256687  1
  C  C15  1  0.250000  0.964113  0.739412  1
  C  C16  1  0.250000  0.792277  0.024249  1
  C  C17  1  0.750000  0.209904  0.975689  1
  C  C18  1  0.750000  0.713406  0.527765  1
  C  C19  1  0.250000  0.305617  0.480797  1
