# generated using pymatgen
data_Y4Ho4Sc12GaSi15
_symmetry_space_group_name_H-M   'P 1'
_cell_length_a   7.09972009
_cell_length_b   7.39183124
_cell_length_c   14.01914641
_cell_angle_alpha   89.94363648
_cell_angle_beta   89.96638619
_cell_angle_gamma   90.02186339
_symmetry_Int_Tables_number   1
_chemical_formula_structural   Y4Ho4Sc12GaSi15
_chemical_formula_sum   'Y4 Ho4 Sc12 Ga1 Si15'
_cell_volume   735.72332401
_cell_formula_units_Z   1
loop_
 _symmetry_equiv_pos_site_id
 _symmetry_equiv_pos_as_xyz
  1  'x, y, z'
loop_
 _atom_site_type_symbol
 _atom_site_label
 _atom_site_symmetry_multiplicity
 _atom_site_fract_x
 _atom_site_fract_y
 _atom_site_fract_z
 _atom_site_occupancy
  Y  Y0  1  0.011804  0.175453  0.096994  1
  Y  Y1  1  0.988076  0.824810  0.903500  1
  Y  Y2  1  0.487888  0.676058  0.903514  1
  Y  Y3  1  0.987524  0.826711  0.597387  1
  Ho  Ho4  1  0.512143  0.323740  0.097034  1
  Ho  Ho5  1  0.011119  0.174256  0.401504  1
  Ho  Ho6  1  0.512927  0.323278  0.401563  1
  Ho  Ho7  1  0.489870  0.678327  0.597602  1
  Sc  Sc8  1  0.161106  0.502352  0.751382  1
  Sc  Sc9  1  0.838873  0.497555  0.249961  1
  Sc  Sc10  1  0.339017  0.002646  0.249781  1
  Sc  Sc11  1  0.661164  0.996964  0.750053  1
  Sc  Sc12  1  0.332571  0.174279  0.625994  1
  Sc  Sc13  1  0.668464  0.823933  0.374377  1
  Sc  Sc14  1  0.169994  0.677370  0.373427  1
  Sc  Sc15  1  0.669561  0.823538  0.125400  1
  Sc  Sc16  1  0.828592  0.323116  0.625530  1
  Sc  Sc17  1  0.330379  0.176103  0.874941  1
  Sc  Sc18  1  0.830463  0.323015  0.874895  1
  Sc  Sc19  1  0.169289  0.676679  0.125462  1
  Ga  Ga20  1  0.160398  0.462370  0.539192  1
  Si  Si21  1  0.033738  0.117932  0.750684  1
  Si  Si22  1  0.966455  0.883333  0.249781  1
  Si  Si23  1  0.467663  0.615711  0.249955  1
  Si  Si24  1  0.532176  0.384751  0.749649  1
  Si  Si25  1  0.284852  0.872914  0.750176  1
  Si  Si26  1  0.714247  0.127585  0.249671  1
  Si  Si27  1  0.214666  0.372347  0.249629  1
  Si  Si28  1  0.785435  0.626851  0.750629  1
  Si  Si29  1  0.841144  0.535504  0.460253  1
  Si  Si30  1  0.341513  0.964500  0.460161  1
  Si  Si31  1  0.841769  0.535323  0.038838  1
  Si  Si32  1  0.657359  0.035915  0.538986  1
  Si  Si33  1  0.157798  0.463994  0.961652  1
  Si  Si34  1  0.657127  0.035821  0.960749  1
  Si  Si35  1  0.342835  0.964968  0.039687  1
