# generated using pymatgen
data_Dy7Tm4Tl7(InNi2)2
_symmetry_space_group_name_H-M   'P 1'
_cell_length_a   3.66663300
_cell_length_b   12.94453809
_cell_length_c   12.93950511
_cell_angle_alpha   110.16730134
_cell_angle_beta   90.00000000
_cell_angle_gamma   90.00000000
_symmetry_Int_Tables_number   1
_chemical_formula_structural   Dy7Tm4Tl7(InNi2)2
_chemical_formula_sum   'Dy7 Tm4 Tl7 In2 Ni4'
_cell_volume   576.49271931
_cell_formula_units_Z   1
loop_
 _symmetry_equiv_pos_site_id
 _symmetry_equiv_pos_as_xyz
  1  'x, y, z'
loop_
 _atom_site_type_symbol
 _atom_site_label
 _atom_site_symmetry_multiplicity
 _atom_site_fract_x
 _atom_site_fract_y
 _atom_site_fract_z
 _atom_site_occupancy
  Dy  Dy0  1  0.000000  0.161046  0.843030  1
  Dy  Dy1  1  0.000000  0.841020  0.160049  1
  Dy  Dy2  1  0.000000  0.372061  0.628167  1
  Dy  Dy3  1  0.000000  0.627565  0.371975  1
  Dy  Dy4  1  0.000000  0.687391  0.687275  1
  Dy  Dy5  1  0.000000  0.313151  0.313092  1
  Dy  Dy6  1  0.000000  0.000811  0.000101  1
  Tm  Tm7  1  0.000000  0.914692  0.576874  1
  Tm  Tm8  1  0.000000  0.084518  0.422038  1
  Tm  Tm9  1  0.000000  0.577064  0.914579  1
  Tm  Tm10  1  0.000000  0.422492  0.083822  1
  Tl  Tl11  1  0.500000  0.150446  0.629947  1
  Tl  Tl12  1  0.500000  0.848187  0.369774  1
  Tl  Tl13  1  0.500000  0.629689  0.150927  1
  Tl  Tl14  1  0.500000  0.369674  0.848464  1
  Tl  Tl15  1  0.500000  0.927657  0.779259  1
  Tl  Tl16  1  0.500000  0.075153  0.220161  1
  Tl  Tl17  1  0.500000  0.779473  0.927907  1
  In  In18  1  0.500000  0.222493  0.075743  1
  In  In19  1  0.500000  0.499779  0.499799  1
  Ni  Ni20  1  0.500000  0.748639  0.546993  1
  Ni  Ni21  1  0.500000  0.250488  0.452758  1
  Ni  Ni22  1  0.500000  0.547657  0.748966  1
  Ni  Ni23  1  0.500000  0.448855  0.248300  1
