# generated using pymatgen
data_Hf6Tc5Ge6Os
_symmetry_space_group_name_H-M   'P 1'
_cell_length_a   7.07911486
_cell_length_b   6.86921230
_cell_length_c   7.86640035
_cell_angle_alpha   115.88150663
_cell_angle_beta   116.77460868
_cell_angle_gamma   89.99884429
_symmetry_Int_Tables_number   1
_chemical_formula_structural   Hf6Tc5Ge6Os
_chemical_formula_sum   'Hf6 Tc5 Ge6 Os1'
_cell_volume   297.91248956
_cell_formula_units_Z   1
loop_
 _symmetry_equiv_pos_site_id
 _symmetry_equiv_pos_as_xyz
  1  'x, y, z'
loop_
 _atom_site_type_symbol
 _atom_site_label
 _atom_site_symmetry_multiplicity
 _atom_site_fract_x
 _atom_site_fract_y
 _atom_site_fract_z
 _atom_site_occupancy
  Hf  Hf0  1  0.244771  0.452322  0.402941  1
  Hf  Hf1  1  0.845196  0.549703  0.598335  1
  Hf  Hf2  1  0.648356  0.748394  0.997576  1
  Hf  Hf3  1  0.649517  0.249795  0.998557  1
  Hf  Hf4  1  0.846215  0.049364  0.599598  1
  Hf  Hf5  1  0.245144  0.950450  0.402393  1
  Tc  Tc6  1  0.991622  0.000811  0.001467  1
  Tc  Tc7  1  0.989261  0.499342  0.999315  1
  Tc  Tc8  1  0.504464  0.629099  0.257758  1
  Tc  Tc9  1  0.246504  0.371101  0.742551  1
  Tc  Tc10  1  0.247944  0.872739  0.745279  1
  Ge  Ge11  1  0.246315  0.251108  0.999805  1
  Ge  Ge12  1  0.245068  0.747905  0.998705  1
  Ge  Ge13  1  0.580293  0.833538  0.666414  1
  Ge  Ge14  1  0.913105  0.166085  0.332977  1
  Ge  Ge15  1  0.912749  0.667285  0.333121  1
  Ge  Ge16  1  0.579606  0.332691  0.665847  1
  Os  Os17  1  0.504268  0.128269  0.257362  1
