# generated using pymatgen
data_Er5Tm7Tc4
_symmetry_space_group_name_H-M   'P 1'
_cell_length_a   6.18639456
_cell_length_b   7.38082324
_cell_length_c   8.99231619
_cell_angle_alpha   89.98364734
_cell_angle_beta   89.95207197
_cell_angle_gamma   89.97673150
_symmetry_Int_Tables_number   1
_chemical_formula_structural   Er5Tm7Tc4
_chemical_formula_sum   'Er5 Tm7 Tc4'
_cell_volume   410.59512076
_cell_formula_units_Z   1
loop_
 _symmetry_equiv_pos_site_id
 _symmetry_equiv_pos_as_xyz
  1  'x, y, z'
loop_
 _atom_site_type_symbol
 _atom_site_label
 _atom_site_symmetry_multiplicity
 _atom_site_fract_x
 _atom_site_fract_y
 _atom_site_fract_z
 _atom_site_occupancy
  Er  Er0  1  0.158149  0.175413  0.062360  1
  Er  Er1  1  0.874125  0.540058  0.250167  1
  Er  Er2  1  0.625517  0.039466  0.250407  1
  Er  Er3  1  0.125349  0.460383  0.749725  1
  Er  Er4  1  0.374539  0.960270  0.749763  1
  Tm  Tm5  1  0.342260  0.674679  0.062450  1
  Tm  Tm6  1  0.157713  0.174927  0.437824  1
  Tm  Tm7  1  0.657597  0.325038  0.562472  1
  Tm  Tm8  1  0.842060  0.824961  0.937327  1
  Tm  Tm9  1  0.658369  0.325139  0.937448  1
  Tm  Tm10  1  0.842159  0.824951  0.562431  1
  Tm  Tm11  1  0.342096  0.674976  0.437557  1
  Tc  Tc12  1  0.043719  0.883960  0.250117  1
  Tc  Tc13  1  0.456937  0.384433  0.250524  1
  Tc  Tc14  1  0.955697  0.115674  0.749313  1
  Tc  Tc15  1  0.543714  0.615673  0.750117  1
