# generated using pymatgen
data_Pr8Be3Si13
_symmetry_space_group_name_H-M   'P 1'
_cell_length_a   8.01646700
_cell_length_b   8.01646669
_cell_length_c   8.63166500
_cell_angle_alpha   90.00000000
_cell_angle_beta   90.00000000
_cell_angle_gamma   119.99999716
_symmetry_Int_Tables_number   1
_chemical_formula_structural   Pr8Be3Si13
_chemical_formula_sum   'Pr8 Be3 Si13'
_cell_volume   480.38697354
_cell_formula_units_Z   1
loop_
 _symmetry_equiv_pos_site_id
 _symmetry_equiv_pos_as_xyz
  1  'x, y, z'
loop_
 _atom_site_type_symbol
 _atom_site_label
 _atom_site_symmetry_multiplicity
 _atom_site_fract_x
 _atom_site_fract_y
 _atom_site_fract_z
 _atom_site_occupancy
  Pr  Pr0  1  0.500250  0.499750  0.749173  1
  Pr  Pr1  1  0.500354  0.499646  0.250860  1
  Pr  Pr2  1  0.999501  0.499750  0.749173  1
  Pr  Pr3  1  0.999293  0.499646  0.250860  1
  Pr  Pr4  1  0.500250  0.000499  0.749173  1
  Pr  Pr5  1  0.500354  0.000707  0.250860  1
  Pr  Pr6  1  0.000000  0.000000  0.751422  1
  Pr  Pr7  1  0.000000  0.000000  0.248732  1
  Be  Be8  1  0.666667  0.333333  0.999092  1
  Be  Be9  1  0.333333  0.666667  0.000877  1
  Be  Be10  1  0.333333  0.666667  0.499493  1
  Si  Si11  1  0.827181  0.172819  0.000142  1
  Si  Si12  1  0.172006  0.827994  0.999921  1
  Si  Si13  1  0.345638  0.172819  0.000142  1
  Si  Si14  1  0.174045  0.825955  0.499830  1
  Si  Si15  1  0.655989  0.827994  0.999921  1
  Si  Si16  1  0.835762  0.164238  0.500193  1
  Si  Si17  1  0.827181  0.654362  0.000142  1
  Si  Si18  1  0.651909  0.825955  0.499830  1
  Si  Si19  1  0.172006  0.344011  0.999921  1
  Si  Si20  1  0.328476  0.164238  0.500193  1
  Si  Si21  1  0.174045  0.348091  0.499830  1
  Si  Si22  1  0.835762  0.671524  0.500193  1
  Si  Si23  1  0.666667  0.333333  0.500031  1
