# generated using pymatgen
data_Gd6HoErAu4
_symmetry_space_group_name_H-M   'P 1'
_cell_length_a   4.89681900
_cell_length_b   7.14405100
_cell_length_c   8.97202900
_cell_angle_alpha   90.00153985
_cell_angle_beta   90.00000000
_cell_angle_gamma   90.00000000
_symmetry_Int_Tables_number   1
_chemical_formula_structural   Gd6HoErAu4
_chemical_formula_sum   'Gd6 Ho1 Er1 Au4'
_cell_volume   313.86960908
_cell_formula_units_Z   1
loop_
 _symmetry_equiv_pos_site_id
 _symmetry_equiv_pos_as_xyz
  1  'x, y, z'
loop_
 _atom_site_type_symbol
 _atom_site_label
 _atom_site_symmetry_multiplicity
 _atom_site_fract_x
 _atom_site_fract_y
 _atom_site_fract_z
 _atom_site_occupancy
  Gd  Gd0  1  0.250000  0.487379  0.178862  1
  Gd  Gd1  1  0.750000  0.512056  0.821285  1
  Gd  Gd2  1  0.250000  0.988998  0.321273  1
  Gd  Gd3  1  0.750000  0.010936  0.678379  1
  Gd  Gd4  1  0.750000  0.652257  0.417797  1
  Gd  Gd5  1  0.250000  0.346031  0.582870  1
  Ho  Ho6  1  0.250000  0.848356  0.922068  1
  Er  Er7  1  0.750000  0.152116  0.077291  1
  Au  Au8  1  0.250000  0.250265  0.905787  1
  Au  Au9  1  0.750000  0.751045  0.094921  1
  Au  Au10  1  0.250000  0.756756  0.604280  1
  Au  Au11  1  0.750000  0.243805  0.395186  1
