# generated using pymatgen
data_LaPr3Nd3CoI12
_symmetry_space_group_name_H-M   'P 1'
_cell_length_a   10.04877935
_cell_length_b   10.04877906
_cell_length_c   10.04878022
_cell_angle_alpha   106.42590891
_cell_angle_beta   106.42590928
_cell_angle_gamma   106.42591154
_symmetry_Int_Tables_number   1
_chemical_formula_structural   LaPr3Nd3CoI12
_chemical_formula_sum   'La1 Pr3 Nd3 Co1 I12'
_cell_volume   857.94645420
_cell_formula_units_Z   1
loop_
 _symmetry_equiv_pos_site_id
 _symmetry_equiv_pos_as_xyz
  1  'x, y, z'
loop_
 _atom_site_type_symbol
 _atom_site_label
 _atom_site_symmetry_multiplicity
 _atom_site_fract_x
 _atom_site_fract_y
 _atom_site_fract_z
 _atom_site_occupancy
  La  La0  1  0.995843  0.995843  0.995843  1
  Pr  Pr1  1  0.480705  0.405854  0.205784  1
  Pr  Pr2  1  0.205784  0.480705  0.405854  1
  Pr  Pr3  1  0.405854  0.205784  0.480705  1
  Nd  Nd4  1  0.518229  0.592482  0.791836  1
  Nd  Nd5  1  0.791836  0.518229  0.592482  1
  Nd  Nd6  1  0.592482  0.791836  0.518229  1
  Co  Co7  1  0.500374  0.500374  0.500374  1
  I  I8  1  0.274240  0.822947  0.427141  1
  I  I9  1  0.427141  0.274240  0.822947  1
  I  I10  1  0.822947  0.427141  0.274240  1
  I  I11  1  0.725608  0.176353  0.571841  1
  I  I12  1  0.571841  0.725608  0.176353  1
  I  I13  1  0.176353  0.571841  0.725608  1
  I  I14  1  0.039710  0.118713  0.341312  1
  I  I15  1  0.341312  0.039710  0.118713  1
  I  I16  1  0.118713  0.341312  0.039710  1
  I  I17  1  0.957206  0.877640  0.651552  1
  I  I18  1  0.651552  0.957206  0.877640  1
  I  I19  1  0.877640  0.651552  0.957206  1
