# generated using pymatgen
data_MgZr5Mn2(Co4P3)4
_symmetry_space_group_name_H-M   'P 1'
_cell_length_a   11.91029992
_cell_length_b   11.91602633
_cell_length_c   3.62116000
_cell_angle_alpha   90.00000000
_cell_angle_beta   90.00000000
_cell_angle_gamma   120.01589331
_symmetry_Int_Tables_number   1
_chemical_formula_structural   MgZr5Mn2(Co4P3)4
_chemical_formula_sum   'Mg1 Zr5 Mn2 Co16 P12'
_cell_volume   445.00298370
_cell_formula_units_Z   1
loop_
 _symmetry_equiv_pos_site_id
 _symmetry_equiv_pos_as_xyz
  1  'x, y, z'
loop_
 _atom_site_type_symbol
 _atom_site_label
 _atom_site_symmetry_multiplicity
 _atom_site_fract_x
 _atom_site_fract_y
 _atom_site_fract_z
 _atom_site_occupancy
  Mg  Mg0  1  0.000000  0.556512  0.000000  1
  Zr  Zr1  1  0.665479  0.333046  0.000000  1
  Zr  Zr2  1  0.334521  0.667568  0.000000  1
  Zr  Zr3  1  0.815493  0.815624  0.500000  1
  Zr  Zr4  1  0.184507  0.000130  0.500000  1
  Zr  Zr5  1  0.000000  0.181686  0.500000  1
  Mn  Mn6  1  0.445370  0.445945  0.000000  1
  Mn  Mn7  1  0.554630  0.000575  0.000000  1
  Co  Co8  1  0.198540  0.374256  0.000000  1
  Co  Co9  1  0.181506  0.805696  0.000000  1
  Co  Co10  1  0.818494  0.624190  0.000000  1
  Co  Co11  1  0.801460  0.175716  0.000000  1
  Co  Co12  1  0.376970  0.198351  0.000000  1
  Co  Co13  1  0.128854  0.481517  0.500000  1
  Co  Co14  1  0.357722  0.875454  0.500000  1
  Co  Co15  1  0.515956  0.644579  0.500000  1
  Co  Co16  1  0.642278  0.517732  0.500000  1
  Co  Co17  1  0.871146  0.352663  0.500000  1
  Co  Co18  1  0.484044  0.128624  0.500000  1
  Co  Co19  1  0.000000  0.000500  0.000000  1
  Co  Co20  1  0.715827  0.998849  0.500000  1
  Co  Co21  1  0.000000  0.718059  0.500000  1
  Co  Co22  1  0.623030  0.821381  0.000000  1
  Co  Co23  1  0.284173  0.283022  0.500000  1
  P  P24  1  0.639779  0.642112  0.000000  1
  P  P25  1  0.360221  0.002334  0.000000  1
  P  P26  1  0.000000  0.353336  0.000000  1
  P  P27  1  0.482732  0.315854  0.500000  1
  P  P28  1  0.684784  0.166419  0.500000  1
  P  P29  1  0.826970  0.515616  0.500000  1
  P  P30  1  0.517268  0.833122  0.500000  1
  P  P31  1  0.173030  0.688646  0.500000  1
  P  P32  1  0.822276  0.998932  0.000000  1
  P  P33  1  0.000000  0.823665  0.000000  1
  P  P34  1  0.315216  0.481635  0.500000  1
  P  P35  1  0.177724  0.176656  0.000000  1
