# generated using pymatgen
data_YTm2Th6Mg(Pb3C)2
_symmetry_space_group_name_H-M   'P 1'
_cell_length_a   9.31152600
_cell_length_b   9.31152594
_cell_length_c   6.55385900
_cell_angle_alpha   90.00000000
_cell_angle_beta   90.00000000
_cell_angle_gamma   120.00000020
_symmetry_Int_Tables_number   1
_chemical_formula_structural   YTm2Th6Mg(Pb3C)2
_chemical_formula_sum   'Y1 Tm2 Th6 Mg1 Pb6 C2'
_cell_volume   492.11821773
_cell_formula_units_Z   1
loop_
 _symmetry_equiv_pos_site_id
 _symmetry_equiv_pos_as_xyz
  1  'x, y, z'
loop_
 _atom_site_type_symbol
 _atom_site_label
 _atom_site_symmetry_multiplicity
 _atom_site_fract_x
 _atom_site_fract_y
 _atom_site_fract_z
 _atom_site_occupancy
  Y  Y0  1  0.333333  0.666667  0.000000  1
  Tm  Tm1  1  0.333333  0.666667  0.500000  1
  Tm  Tm2  1  0.666667  0.333333  0.500000  1
  Th  Th3  1  0.779560  0.778823  0.750695  1
  Th  Th4  1  0.221177  0.000737  0.750695  1
  Th  Th5  1  0.999263  0.220440  0.750695  1
  Th  Th6  1  0.221177  0.220440  0.249305  1
  Th  Th7  1  0.779560  0.000737  0.249305  1
  Th  Th8  1  0.999263  0.778823  0.249305  1
  Mg  Mg9  1  0.666667  0.333333  0.000000  1
  Pb  Pb10  1  0.408147  0.407330  0.747243  1
  Pb  Pb11  1  0.592670  0.000817  0.747243  1
  Pb  Pb12  1  0.999183  0.591853  0.747243  1
  Pb  Pb13  1  0.592670  0.591853  0.252757  1
  Pb  Pb14  1  0.408147  0.000817  0.252757  1
  Pb  Pb15  1  0.999183  0.407330  0.252757  1
  C  C16  1  0.000000  0.000000  0.000000  1
  C  C17  1  0.000000  0.000000  0.500000  1
