# generated using pymatgen
data_Li4RuO5
_symmetry_space_group_name_H-M   'P 1'
_cell_length_a   5.38382988
_cell_length_b   5.38382624
_cell_length_c   7.99454794
_cell_angle_alpha   82.86977823
_cell_angle_beta   82.86989224
_cell_angle_gamma   66.94980494
_symmetry_Int_Tables_number   1
_chemical_formula_structural   Li4RuO5
_chemical_formula_sum   'Li8 Ru2 O10'
_cell_volume   210.85224429
_cell_formula_units_Z   2
loop_
 _symmetry_equiv_pos_site_id
 _symmetry_equiv_pos_as_xyz
  1  'x, y, z'
loop_
 _atom_site_type_symbol
 _atom_site_label
 _atom_site_symmetry_multiplicity
 _atom_site_fract_x
 _atom_site_fract_y
 _atom_site_fract_z
 _atom_site_occupancy
  Li  Li0  1  0.637357  0.960670  0.652927  1
  Li  Li1  1  0.960670  0.637357  0.152926  1
  Li  Li2  1  0.786251  0.442562  0.553799  1
  Li  Li3  1  0.442562  0.786251  0.053799  1
  Li  Li4  1  0.557438  0.213749  0.946201  1
  Li  Li5  1  0.213749  0.557438  0.446201  1
  Li  Li6  1  0.039330  0.362643  0.847074  1
  Li  Li7  1  0.362643  0.039330  0.347073  1
  Ru  Ru8  1  0.169071  0.830929  0.750000  1
  Ru  Ru9  1  0.830929  0.169071  0.250000  1
  O  O10  1  0.977587  0.641687  0.655698  1
  O  O11  1  0.641686  0.977587  0.155698  1
  O  O12  1  0.414517  0.767606  0.565378  1
  O  O13  1  0.767606  0.414516  0.065380  1
  O  O14  1  0.860699  0.139302  0.750000  1
  O  O15  1  0.139301  0.860698  0.250000  1
  O  O16  1  0.232394  0.585484  0.934620  1
  O  O17  1  0.585483  0.232394  0.434622  1
  O  O18  1  0.358314  0.022413  0.844302  1
  O  O19  1  0.022413  0.358313  0.344302  1
