# generated using pymatgen
data_Ca20Tl3Ag5Ir4
_symmetry_space_group_name_H-M   'P 1'
_cell_length_a   7.90328300
_cell_length_b   7.90328490
_cell_length_c   14.91800400
_cell_angle_alpha   90.00000000
_cell_angle_beta   90.00000000
_cell_angle_gamma   88.02310151
_symmetry_Int_Tables_number   1
_chemical_formula_structural   Ca20Tl3Ag5Ir4
_chemical_formula_sum   'Ca20 Tl3 Ag5 Ir4'
_cell_volume   931.25223670
_cell_formula_units_Z   1
loop_
 _symmetry_equiv_pos_site_id
 _symmetry_equiv_pos_as_xyz
  1  'x, y, z'
loop_
 _atom_site_type_symbol
 _atom_site_label
 _atom_site_symmetry_multiplicity
 _atom_site_fract_x
 _atom_site_fract_y
 _atom_site_fract_z
 _atom_site_occupancy
  Ca  Ca0  1  0.660968  0.154369  0.112548  1
  Ca  Ca1  1  0.158463  0.657245  0.615166  1
  Ca  Ca2  1  0.339032  0.845631  0.112548  1
  Ca  Ca3  1  0.841537  0.342755  0.615166  1
  Ca  Ca4  1  0.819171  0.686725  0.114157  1
  Ca  Ca5  1  0.316162  0.185508  0.615203  1
  Ca  Ca6  1  0.180829  0.313275  0.114157  1
  Ca  Ca7  1  0.683838  0.814492  0.615203  1
  Ca  Ca8  1  0.845631  0.339032  0.887452  1
  Ca  Ca9  1  0.342755  0.841537  0.384834  1
  Ca  Ca10  1  0.154369  0.660968  0.887452  1
  Ca  Ca11  1  0.657245  0.158463  0.384834  1
  Ca  Ca12  1  0.686725  0.819171  0.885843  1
  Ca  Ca13  1  0.185508  0.316162  0.384797  1
  Ca  Ca14  1  0.313275  0.180829  0.885843  1
  Ca  Ca15  1  0.814492  0.683838  0.384797  1
  Ca  Ca16  1  0.500000  0.500000  0.753572  1
  Ca  Ca17  1  0.000000  0.000000  0.251813  1
  Ca  Ca18  1  0.000000  0.000000  0.748187  1
  Ca  Ca19  1  0.500000  0.500000  0.246428  1
  Tl  Tl20  1  0.500000  0.500000  0.500000  1
  Tl  Tl21  1  0.500000  0.500000  0.000000  1
  Tl  Tl22  1  0.000000  0.000000  0.500000  1
  Ag  Ag23  1  0.623295  0.124120  0.751131  1
  Ag  Ag24  1  0.124120  0.623295  0.248869  1
  Ag  Ag25  1  0.875880  0.376705  0.248869  1
  Ag  Ag26  1  0.376705  0.875880  0.751131  1
  Ag  Ag27  1  0.000000  0.000000  0.000000  1
  Ir  Ir28  1  0.879786  0.622592  0.751581  1
  Ir  Ir29  1  0.377408  0.120214  0.248419  1
  Ir  Ir30  1  0.120214  0.377408  0.751581  1
  Ir  Ir31  1  0.622592  0.879786  0.248419  1
