# generated using pymatgen
data_Tc2WS4
_symmetry_space_group_name_H-M   'P 1'
_cell_length_a   6.52790440
_cell_length_b   6.50278770
_cell_length_c   6.50536457
_cell_angle_alpha   93.12536042
_cell_angle_beta   93.43488158
_cell_angle_gamma   92.64077247
_symmetry_Int_Tables_number   1
_chemical_formula_structural   Tc2WS4
_chemical_formula_sum   'Tc4 W2 S8'
_cell_volume   274.90642629
_cell_formula_units_Z   2
loop_
 _symmetry_equiv_pos_site_id
 _symmetry_equiv_pos_as_xyz
  1  'x, y, z'
loop_
 _atom_site_type_symbol
 _atom_site_label
 _atom_site_symmetry_multiplicity
 _atom_site_fract_x
 _atom_site_fract_y
 _atom_site_fract_z
 _atom_site_occupancy
  Tc  Tc0  1  0.229495  0.408656  0.550402  1
  Tc  Tc1  1  0.552015  0.229215  0.410335  1
  Tc  Tc2  1  0.408825  0.549098  0.230053  1
  Tc  Tc3  1  0.768358  0.588649  0.447196  1
  W  W4  1  0.447330  0.770621  0.589762  1
  W  W5  1  0.591576  0.450585  0.771924  1
  S  S6  1  0.381583  0.129450  0.720776  1
  S  S7  1  0.721320  0.378479  0.132122  1
  S  S8  1  0.126174  0.720636  0.378515  1
  S  S9  1  0.621746  0.868882  0.272283  1
  S  S10  1  0.272490  0.623365  0.871732  1
  S  S11  1  0.872800  0.277733  0.622417  1
  S  S12  1  0.225477  0.224504  0.225605  1
  S  S13  1  0.780810  0.780127  0.776880  1
