# generated using pymatgen
data_Ba2NdAg5Se6
_symmetry_space_group_name_H-M   'P 1'
_cell_length_a   4.44010600
_cell_length_b   7.65299726
_cell_length_c   11.65525920
_cell_angle_alpha   93.71512172
_cell_angle_beta   90.00000000
_cell_angle_gamma   106.86331317
_symmetry_Int_Tables_number   1
_chemical_formula_structural   Ba2NdAg5Se6
_chemical_formula_sum   'Ba2 Nd1 Ag5 Se6'
_cell_volume   378.14712973
_cell_formula_units_Z   1
loop_
 _symmetry_equiv_pos_site_id
 _symmetry_equiv_pos_as_xyz
  1  'x, y, z'
loop_
 _atom_site_type_symbol
 _atom_site_label
 _atom_site_symmetry_multiplicity
 _atom_site_fract_x
 _atom_site_fract_y
 _atom_site_fract_z
 _atom_site_occupancy
  Ba  Ba0  1  0.251113  0.502225  0.708519  1
  Ba  Ba1  1  0.748887  0.497775  0.291481  1
  Nd  Nd2  1  0.500000  0.000000  0.500000  1
  Ag  Ag3  1  0.019610  0.039220  0.254997  1
  Ag  Ag4  1  0.980390  0.960780  0.745003  1
  Ag  Ag5  1  0.359647  0.719295  0.032982  1
  Ag  Ag6  1  0.640353  0.280705  0.967018  1
  Ag  Ag7  1  0.000000  0.000000  0.000000  1
  Se  Se8  1  0.131770  0.263538  0.450740  1
  Se  Se9  1  0.868230  0.736462  0.549260  1
  Se  Se10  1  0.159767  0.319534  0.099079  1
  Se  Se11  1  0.840233  0.680466  0.900921  1
  Se  Se12  1  0.413845  0.827691  0.258127  1
  Se  Se13  1  0.586155  0.172309  0.741873  1
