# generated using pymatgen
data_Li8UTa6TiN16
_symmetry_space_group_name_H-M   'P 1'
_cell_length_a   18.93460787
_cell_length_b   4.20875444
_cell_length_c   4.20084115
_cell_angle_alpha   89.99485644
_cell_angle_beta   90.01363756
_cell_angle_gamma   89.95674553
_symmetry_Int_Tables_number   1
_chemical_formula_structural   Li8UTa6TiN16
_chemical_formula_sum   'Li8 U1 Ta6 Ti1 N16'
_cell_volume   334.76960815
_cell_formula_units_Z   1
loop_
 _symmetry_equiv_pos_site_id
 _symmetry_equiv_pos_as_xyz
  1  'x, y, z'
loop_
 _atom_site_type_symbol
 _atom_site_label
 _atom_site_symmetry_multiplicity
 _atom_site_fract_x
 _atom_site_fract_y
 _atom_site_fract_z
 _atom_site_occupancy
  Li  Li0  1  0.172598  0.997597  0.748098  1
  Li  Li1  1  0.811159  0.001002  0.252296  1
  Li  Li2  1  0.296467  0.996506  0.249551  1
  Li  Li3  1  0.693837  0.003079  0.752160  1
  Li  Li4  1  0.051435  0.498442  0.746102  1
  Li  Li5  1  0.931779  0.499360  0.248450  1
  Li  Li6  1  0.465636  0.499939  0.250740  1
  Li  Li7  1  0.581323  0.502778  0.752652  1
  U  U8  1  0.441296  0.998879  0.750458  1
  Ta  Ta9  1  0.057892  0.988460  0.231431  1
  Ta  Ta10  1  0.934931  0.004379  0.732499  1
  Ta  Ta11  1  0.303968  0.507369  0.752019  1
  Ta  Ta12  1  0.688566  0.514939  0.258932  1
  Ta  Ta13  1  0.181003  0.484508  0.258055  1
  Ta  Ta14  1  0.812961  0.497721  0.772386  1
  Ti  Ti15  1  0.574562  0.015858  0.247700  1
  N  N16  1  0.322460  0.993461  0.750108  1
  N  N17  1  0.680885  0.999191  0.250798  1
  N  N18  1  0.170641  0.002049  0.246544  1
  N  N19  1  0.825283  0.000748  0.747768  1
  N  N20  1  0.419419  0.499197  0.749104  1
  N  N21  1  0.581897  0.496004  0.252578  1
  N  N22  1  0.070403  0.501385  0.250014  1
  N  N23  1  0.925879  0.498124  0.751300  1
  N  N24  1  0.048305  0.000650  0.750678  1
  N  N25  1  0.947874  0.998087  0.251131  1
  N  N26  1  0.460439  0.998825  0.250356  1
  N  N27  1  0.553998  0.003075  0.753477  1
  N  N28  1  0.194499  0.504003  0.747055  1
  N  N29  1  0.803839  0.501649  0.246573  1
  N  N30  1  0.292175  0.492712  0.248695  1
  N  N31  1  0.702590  0.500028  0.750287  1
