# generated using pymatgen
data_Ta2Pb6O13
_symmetry_space_group_name_H-M   'P 1'
_cell_length_a   7.75388561
_cell_length_b   7.75388558
_cell_length_c   7.75388602
_cell_angle_alpha   120.27056433
_cell_angle_beta   120.65317716
_cell_angle_gamma   89.20218839
_symmetry_Int_Tables_number   1
_chemical_formula_structural   Ta2Pb6O13
_chemical_formula_sum   'Ta2 Pb6 O13'
_cell_volume   327.30214997
_cell_formula_units_Z   1
loop_
 _symmetry_equiv_pos_site_id
 _symmetry_equiv_pos_as_xyz
  1  'x, y, z'
loop_
 _atom_site_type_symbol
 _atom_site_label
 _atom_site_symmetry_multiplicity
 _atom_site_fract_x
 _atom_site_fract_y
 _atom_site_fract_z
 _atom_site_occupancy
  Ta  Ta0  1  0.747115  0.996392  0.249276  1
  Ta  Ta1  1  0.747115  0.497840  0.750724  1
  Pb  Pb2  1  0.247957  0.498563  0.749393  1
  Pb  Pb3  1  0.749169  0.498563  0.250607  1
  Pb  Pb4  1  0.747828  0.991066  0.756762  1
  Pb  Pb5  1  0.234304  0.991066  0.243238  1
  Pb  Pb6  1  0.252947  0.505866  0.252918  1
  Pb  Pb7  1  0.252947  0.000030  0.747082  1
  O  O8  1  0.092586  0.592586  0.500000  1
  O  O9  1  0.711663  0.211663  0.500000  1
  O  O10  1  0.066272  0.154471  0.473515  1
  O  O11  1  0.680956  0.592757  0.526485  1
  O  O12  1  0.680956  0.154471  0.088198  1
  O  O13  1  0.066272  0.592757  0.911802  1
  O  O14  1  0.408455  0.408455  0.000000  1
  O  O15  1  0.799784  0.799784  0.000000  1
  O  O16  1  0.440028  0.838780  0.025241  1
  O  O17  1  0.813539  0.414787  0.974759  1
  O  O18  1  0.813539  0.838780  0.398752  1
  O  O19  1  0.440028  0.414787  0.601248  1
  O  O20  1  0.381538  0.881538  0.500000  1
