# generated using pymatgen
data_Tm2Fe6Mo(P2Ir)3
_symmetry_space_group_name_H-M   'P 1'
_cell_length_a   3.76783700
_cell_length_b   10.30199000
_cell_length_c   12.13572200
_cell_angle_alpha   90.00000000
_cell_angle_beta   90.00000000
_cell_angle_gamma   90.00000000
_symmetry_Int_Tables_number   1
_chemical_formula_structural   Tm2Fe6Mo(P2Ir)3
_chemical_formula_sum   'Tm4 Fe12 Mo2 P12 Ir6'
_cell_volume   471.06284404
_cell_formula_units_Z   2
loop_
 _symmetry_equiv_pos_site_id
 _symmetry_equiv_pos_as_xyz
  1  'x, y, z'
loop_
 _atom_site_type_symbol
 _atom_site_label
 _atom_site_symmetry_multiplicity
 _atom_site_fract_x
 _atom_site_fract_y
 _atom_site_fract_z
 _atom_site_occupancy
  Tm  Tm0  1  0.250000  0.582824  0.713130  1
  Tm  Tm1  1  0.250000  0.917176  0.213130  1
  Tm  Tm2  1  0.750000  0.420084  0.288156  1
  Tm  Tm3  1  0.750000  0.079916  0.788156  1
  Fe  Fe4  1  0.250000  0.223750  0.170692  1
  Fe  Fe5  1  0.250000  0.276250  0.670692  1
  Fe  Fe6  1  0.750000  0.779680  0.826123  1
  Fe  Fe7  1  0.750000  0.720320  0.326123  1
  Fe  Fe8  1  0.250000  0.878613  0.696553  1
  Fe  Fe9  1  0.250000  0.621387  0.196553  1
  Fe  Fe10  1  0.750000  0.120458  0.304227  1
  Fe  Fe11  1  0.750000  0.379542  0.804227  1
  Fe  Fe12  1  0.250000  0.456936  0.937055  1
  Fe  Fe13  1  0.250000  0.043064  0.437055  1
  Fe  Fe14  1  0.750000  0.535888  0.063488  1
  Fe  Fe15  1  0.750000  0.964112  0.563488  1
  Mo  Mo16  1  0.250000  0.702258  0.988120  1
  Mo  Mo17  1  0.250000  0.797742  0.488120  1
  P  P18  1  0.250000  0.428684  0.114868  1
  P  P19  1  0.250000  0.071316  0.614868  1
  P  P20  1  0.750000  0.575996  0.886563  1
  P  P21  1  0.750000  0.924004  0.386563  1
  P  P22  1  0.250000  0.272209  0.851086  1
  P  P23  1  0.250000  0.227791  0.351086  1
  P  P24  1  0.750000  0.725762  0.142994  1
  P  P25  1  0.750000  0.774238  0.642994  1
  P  P26  1  0.250000  0.603053  0.377926  1
  P  P27  1  0.250000  0.896947  0.877926  1
  P  P28  1  0.750000  0.395465  0.624348  1
  P  P29  1  0.750000  0.104535  0.124348  1
  Ir  Ir30  1  0.750000  0.292417  0.015291  1
  Ir  Ir31  1  0.750000  0.207583  0.515291  1
  Ir  Ir32  1  0.250000  0.402042  0.475288  1
  Ir  Ir33  1  0.250000  0.097958  0.975288  1
  Ir  Ir34  1  0.750000  0.592357  0.524092  1
  Ir  Ir35  1  0.750000  0.907643  0.024092  1
