# generated using pymatgen
data_Pr8Lu3Sc9Si15Ir
_symmetry_space_group_name_H-M   'P 1'
_cell_length_a   7.29913129
_cell_length_b   7.58706289
_cell_length_c   14.38270889
_cell_angle_alpha   89.93416221
_cell_angle_beta   90.03115106
_cell_angle_gamma   90.51651773
_symmetry_Int_Tables_number   1
_chemical_formula_structural   Pr8Lu3Sc9Si15Ir
_chemical_formula_sum   'Pr8 Lu3 Sc9 Si15 Ir1'
_cell_volume   796.46657279
_cell_formula_units_Z   1
loop_
 _symmetry_equiv_pos_site_id
 _symmetry_equiv_pos_as_xyz
  1  'x, y, z'
loop_
 _atom_site_type_symbol
 _atom_site_label
 _atom_site_symmetry_multiplicity
 _atom_site_fract_x
 _atom_site_fract_y
 _atom_site_fract_z
 _atom_site_occupancy
  Pr  Pr0  1  0.013289  0.172822  0.399341  1
  Pr  Pr1  1  0.513277  0.329905  0.399774  1
  Pr  Pr2  1  0.482248  0.674192  0.904612  1
  Pr  Pr3  1  0.482498  0.674452  0.595865  1
  Pr  Pr4  1  0.986239  0.826480  0.596137  1
  Pr  Pr5  1  0.987287  0.827587  0.905704  1
  Pr  Pr6  1  0.512486  0.329691  0.098441  1
  Pr  Pr7  1  0.013464  0.173037  0.099990  1
  Lu  Lu8  1  0.324297  0.171834  0.623626  1
  Lu  Lu9  1  0.647365  0.988396  0.751594  1
  Lu  Lu10  1  0.165755  0.510212  0.751354  1
  Sc  Sc11  1  0.674353  0.824961  0.372137  1
  Sc  Sc12  1  0.172497  0.675071  0.371995  1
  Sc  Sc13  1  0.828523  0.324198  0.878933  1
  Sc  Sc14  1  0.829681  0.322921  0.623094  1
  Sc  Sc15  1  0.842448  0.504050  0.249432  1
  Sc  Sc16  1  0.342776  0.997216  0.249322  1
  Sc  Sc17  1  0.325776  0.172573  0.876109  1
  Sc  Sc18  1  0.172741  0.674715  0.126493  1
  Sc  Sc19  1  0.674561  0.825091  0.126545  1
  Si  Si20  1  0.468213  0.626772  0.249176  1
  Si  Si21  1  0.028121  0.123675  0.753009  1
  Si  Si22  1  0.542797  0.375677  0.751348  1
  Si  Si23  1  0.147217  0.465570  0.535507  1
  Si  Si24  1  0.971079  0.874233  0.249316  1
  Si  Si25  1  0.712191  0.119581  0.249563  1
  Si  Si26  1  0.850912  0.535070  0.043178  1
  Si  Si27  1  0.351674  0.963906  0.042050  1
  Si  Si28  1  0.151012  0.461768  0.963644  1
  Si  Si29  1  0.656701  0.039051  0.533644  1
  Si  Si30  1  0.353597  0.961842  0.454843  1
  Si  Si31  1  0.850063  0.535546  0.457031  1
  Si  Si32  1  0.781862  0.607699  0.750789  1
  Si  Si33  1  0.214190  0.383641  0.249302  1
  Si  Si34  1  0.650911  0.039377  0.964793  1
  Ir  Ir35  1  0.277896  0.887187  0.752309  1
