# generated using pymatgen
data_NbFe6SiMo5
_symmetry_space_group_name_H-M   'P 1'
_cell_length_a   9.04414119
_cell_length_b   9.04414078
_cell_length_c   9.04414103
_cell_angle_alpha   30.80262900
_cell_angle_beta   30.80263335
_cell_angle_gamma   30.80263181
_symmetry_Int_Tables_number   1
_chemical_formula_structural   NbFe6SiMo5
_chemical_formula_sum   'Nb1 Fe6 Si1 Mo5'
_cell_volume   172.04084208
_cell_formula_units_Z   1
loop_
 _symmetry_equiv_pos_site_id
 _symmetry_equiv_pos_as_xyz
  1  'x, y, z'
loop_
 _atom_site_type_symbol
 _atom_site_label
 _atom_site_symmetry_multiplicity
 _atom_site_fract_x
 _atom_site_fract_y
 _atom_site_fract_z
 _atom_site_occupancy
  Nb  Nb0  1  0.350010  0.350010  0.350010  1
  Fe  Fe1  1  0.587815  0.090073  0.090073  1
  Fe  Fe2  1  0.090073  0.090073  0.587815  1
  Fe  Fe3  1  0.909175  0.909175  0.412916  1
  Fe  Fe4  1  0.909175  0.412916  0.909175  1
  Fe  Fe5  1  0.090073  0.587815  0.090073  1
  Fe  Fe6  1  0.412916  0.909175  0.909175  1
  Si  Si7  1  0.999687  0.999687  0.999687  1
  Mo  Mo8  1  0.168470  0.168470  0.168470  1
  Mo  Mo9  1  0.548836  0.548836  0.548836  1
  Mo  Mo10  1  0.649799  0.649799  0.649799  1
  Mo  Mo11  1  0.451988  0.451988  0.451988  1
  Mo  Mo12  1  0.831985  0.831985  0.831985  1
