# generated using pymatgen
data_Lu2Re7Si4Mo
_symmetry_space_group_name_H-M   'P 1'
_cell_length_a   7.10574027
_cell_length_b   7.62813681
_cell_length_c   4.17664300
_cell_angle_alpha   90.00000000
_cell_angle_beta   90.00000000
_cell_angle_gamma   90.13242587
_symmetry_Int_Tables_number   1
_chemical_formula_structural   Lu2Re7Si4Mo
_chemical_formula_sum   'Lu2 Re7 Si4 Mo1'
_cell_volume   226.38831034
_cell_formula_units_Z   1
loop_
 _symmetry_equiv_pos_site_id
 _symmetry_equiv_pos_as_xyz
  1  'x, y, z'
loop_
 _atom_site_type_symbol
 _atom_site_label
 _atom_site_symmetry_multiplicity
 _atom_site_fract_x
 _atom_site_fract_y
 _atom_site_fract_z
 _atom_site_occupancy
  Lu  Lu0  1  0.500943  0.498640  0.000000  1
  Lu  Lu1  1  0.999119  0.999957  0.500000  1
  Re  Re2  1  0.156484  0.604601  0.500000  1
  Re  Re3  1  0.086234  0.341484  0.000000  1
  Re  Re4  1  0.915531  0.657016  0.000000  1
  Re  Re5  1  0.414301  0.841309  0.500000  1
  Re  Re6  1  0.584780  0.162806  0.500000  1
  Re  Re7  1  0.343379  0.106673  0.000000  1
  Re  Re8  1  0.845652  0.394253  0.500000  1
  Si  Si9  1  0.221211  0.805626  0.000000  1
  Si  Si10  1  0.780227  0.195888  0.000000  1
  Si  Si11  1  0.721959  0.693683  0.500000  1
  Si  Si12  1  0.278706  0.304733  0.500000  1
  Mo  Mo13  1  0.651474  0.893332  0.000000  1
