# generated using pymatgen
data_Tb2AlZnI2
_symmetry_space_group_name_H-M   'P 1'
_cell_length_a   4.25505100
_cell_length_b   4.25505189
_cell_length_c   12.20292200
_cell_angle_alpha   90.00000000
_cell_angle_beta   90.00000000
_cell_angle_gamma   120.00000085
_symmetry_Int_Tables_number   1
_chemical_formula_structural   Tb2AlZnI2
_chemical_formula_sum   'Tb2 Al1 Zn1 I2'
_cell_volume   191.33926166
_cell_formula_units_Z   1
loop_
 _symmetry_equiv_pos_site_id
 _symmetry_equiv_pos_as_xyz
  1  'x, y, z'
loop_
 _atom_site_type_symbol
 _atom_site_label
 _atom_site_symmetry_multiplicity
 _atom_site_fract_x
 _atom_site_fract_y
 _atom_site_fract_z
 _atom_site_occupancy
  Tb  Tb0  1  0.000000  0.000000  0.835753  1
  Tb  Tb1  1  0.000000  0.000000  0.166694  1
  Al  Al2  1  0.666667  0.333333  0.011562  1
  Zn  Zn3  1  0.333333  0.666667  0.984335  1
  I  I4  1  0.666667  0.333333  0.671263  1
  I  I5  1  0.333333  0.666667  0.330395  1
