# generated using pymatgen
data_TbY2Hf(NiP)4
_symmetry_space_group_name_H-M   'P 1'
_cell_length_a   3.87734800
_cell_length_b   3.87734998
_cell_length_c   15.11415100
_cell_angle_alpha   90.00000000
_cell_angle_beta   90.00000000
_cell_angle_gamma   120.00001723
_symmetry_Int_Tables_number   1
_chemical_formula_structural   TbY2Hf(NiP)4
_chemical_formula_sum   'Tb1 Y2 Hf1 Ni4 P4'
_cell_volume   196.78142361
_cell_formula_units_Z   1
loop_
 _symmetry_equiv_pos_site_id
 _symmetry_equiv_pos_as_xyz
  1  'x, y, z'
loop_
 _atom_site_type_symbol
 _atom_site_label
 _atom_site_symmetry_multiplicity
 _atom_site_fract_x
 _atom_site_fract_y
 _atom_site_fract_z
 _atom_site_occupancy
  Tb  Tb0  1  0.000000  0.000000  0.491820  1
  Y  Y1  1  0.000000  0.000000  0.008156  1
  Y  Y2  1  0.000000  0.000000  0.750094  1
  Hf  Hf3  1  0.000000  0.000000  0.249959  1
  Ni  Ni4  1  0.333333  0.666667  0.344876  1
  Ni  Ni5  1  0.666667  0.333333  0.623249  1
  Ni  Ni6  1  0.666667  0.333333  0.876750  1
  Ni  Ni7  1  0.333333  0.666667  0.154966  1
  P  P8  1  0.333333  0.666667  0.880968  1
  P  P9  1  0.666667  0.333333  0.128346  1
  P  P10  1  0.666667  0.333333  0.371579  1
  P  P11  1  0.333333  0.666667  0.619237  1
