# generated using pymatgen
data_PrEr7(CdPt)2
_symmetry_space_group_name_H-M   'P 1'
_cell_length_a   9.67460806
_cell_length_b   9.67460892
_cell_length_c   9.64580300
_cell_angle_alpha   60.09844193
_cell_angle_beta   60.09843901
_cell_angle_gamma   59.80310751
_symmetry_Int_Tables_number   1
_chemical_formula_structural   PrEr7(CdPt)2
_chemical_formula_sum   'Pr2 Er14 Cd4 Pt4'
_cell_volume   638.38470455
_cell_formula_units_Z   2
loop_
 _symmetry_equiv_pos_site_id
 _symmetry_equiv_pos_as_xyz
  1  'x, y, z'
loop_
 _atom_site_type_symbol
 _atom_site_label
 _atom_site_symmetry_multiplicity
 _atom_site_fract_x
 _atom_site_fract_y
 _atom_site_fract_z
 _atom_site_occupancy
  Pr  Pr0  1  0.568793  0.568793  0.931207  1
  Pr  Pr1  1  0.931207  0.931207  0.568793  1
  Er  Er2  1  0.351633  0.351633  0.351457  1
  Er  Er3  1  0.351633  0.351633  0.945277  1
  Er  Er4  1  0.351457  0.945277  0.351633  1
  Er  Er5  1  0.945277  0.351457  0.351633  1
  Er  Er6  1  0.810178  0.189822  0.189822  1
  Er  Er7  1  0.189822  0.810178  0.810178  1
  Er  Er8  1  0.189822  0.810178  0.189822  1
  Er  Er9  1  0.810178  0.189822  0.810178  1
  Er  Er10  1  0.189622  0.189622  0.810378  1
  Er  Er11  1  0.810378  0.810378  0.189622  1
  Er  Er12  1  0.938895  0.561105  0.561105  1
  Er  Er13  1  0.561105  0.938895  0.938895  1
  Er  Er14  1  0.561105  0.938895  0.561105  1
  Er  Er15  1  0.938895  0.561105  0.938895  1
  Cd  Cd16  1  0.582682  0.582682  0.577583  1
  Cd  Cd17  1  0.582682  0.582682  0.257051  1
  Cd  Cd18  1  0.577583  0.257051  0.582682  1
  Cd  Cd19  1  0.257051  0.577583  0.582682  1
  Pt  Pt20  1  0.144447  0.144447  0.139998  1
  Pt  Pt21  1  0.144447  0.144447  0.571107  1
  Pt  Pt22  1  0.139998  0.571107  0.144447  1
  Pt  Pt23  1  0.571107  0.139998  0.144447  1
