# generated using pymatgen
data_Cs2MnTeS
_symmetry_space_group_name_H-M   'P 1'
_cell_length_a   8.64112951
_cell_length_b   9.35050976
_cell_length_c   9.35050966
_cell_angle_alpha   136.58677887
_cell_angle_beta   128.34427324
_cell_angle_gamma   71.07428641
_symmetry_Int_Tables_number   1
_chemical_formula_structural   Cs2MnTeS
_chemical_formula_sum   'Cs4 Mn2 Te2 S2'
_cell_volume   395.88988452
_cell_formula_units_Z   2
loop_
 _symmetry_equiv_pos_site_id
 _symmetry_equiv_pos_as_xyz
  1  'x, y, z'
loop_
 _atom_site_type_symbol
 _atom_site_label
 _atom_site_symmetry_multiplicity
 _atom_site_fract_x
 _atom_site_fract_y
 _atom_site_fract_z
 _atom_site_occupancy
  Cs  Cs0  1  0.780372  0.129961  0.650412  1
  Cs  Cs1  1  0.219628  0.870038  0.349588  1
  Cs  Cs2  1  0.489729  0.663870  0.825858  1
  Cs  Cs3  1  0.510271  0.336129  0.174142  1
  Mn  Mn4  1  0.000000  0.772360  0.772360  1
  Mn  Mn5  1  0.000000  0.227640  0.227640  1
  Te  Te6  1  0.067829  0.398873  0.668956  1
  Te  Te7  1  0.932171  0.601127  0.331044  1
  S  S8  1  0.727233  0.909861  0.817373  1
  S  S9  1  0.272767  0.090139  0.182627  1
