# generated using pymatgen
data_Ba5Si9
_symmetry_space_group_name_H-M   'P 1'
_cell_length_a   6.65733751
_cell_length_b   6.65733776
_cell_length_c   17.89074796
_cell_angle_alpha   81.63566813
_cell_angle_beta   81.63566559
_cell_angle_gamma   100.96521529
_symmetry_Int_Tables_number   1
_chemical_formula_structural   Ba5Si9
_chemical_formula_sum   'Ba10 Si18'
_cell_volume   757.82943107
_cell_formula_units_Z   2
loop_
 _symmetry_equiv_pos_site_id
 _symmetry_equiv_pos_as_xyz
  1  'x, y, z'
loop_
 _atom_site_type_symbol
 _atom_site_label
 _atom_site_symmetry_multiplicity
 _atom_site_fract_x
 _atom_site_fract_y
 _atom_site_fract_z
 _atom_site_occupancy
  Ba  Ba0  1  0.747443  0.252557  0.000000  1
  Ba  Ba1  1  0.110812  0.580970  0.790940  1
  Ba  Ba2  1  0.288668  0.711332  0.500000  1
  Ba  Ba3  1  0.757060  0.757060  0.647345  1
  Ba  Ba4  1  0.242940  0.242940  0.352655  1
  Ba  Ba5  1  0.580970  0.110812  0.790940  1
  Ba  Ba6  1  0.252557  0.747443  0.000000  1
  Ba  Ba7  1  0.711332  0.288668  0.500000  1
  Ba  Ba8  1  0.419030  0.889188  0.209060  1
  Ba  Ba9  1  0.889188  0.419030  0.209060  1
  Si  Si10  1  0.222291  0.222291  0.068209  1
  Si  Si11  1  0.926627  0.926627  0.262900  1
  Si  Si12  1  0.073373  0.073373  0.737101  1
  Si  Si13  1  0.777709  0.777709  0.931791  1
  Si  Si14  1  0.349482  0.349482  0.647666  1
  Si  Si15  1  0.292015  0.292015  0.932004  1
  Si  Si16  1  0.939379  0.939379  0.129856  1
  Si  Si17  1  0.650518  0.650518  0.352334  1
  Si  Si18  1  0.426502  0.426502  0.142333  1
  Si  Si19  1  0.060621  0.060621  0.870144  1
  Si  Si20  1  0.817324  0.817324  0.449942  1
  Si  Si21  1  0.329124  0.972563  0.643489  1
  Si  Si22  1  0.670876  0.027437  0.356511  1
  Si  Si23  1  0.182676  0.182676  0.550058  1
  Si  Si24  1  0.972563  0.329124  0.643489  1
  Si  Si25  1  0.027437  0.670876  0.356511  1
  Si  Si26  1  0.707985  0.707985  0.067996  1
  Si  Si27  1  0.573498  0.573498  0.857667  1
