# generated using pymatgen
data_CePPtRh2
_symmetry_space_group_name_H-M   'P 1'
_cell_length_a   3.98413000
_cell_length_b   3.98413000
_cell_length_c   10.89766600
_cell_angle_alpha   90.00000000
_cell_angle_beta   90.00000000
_cell_angle_gamma   90.00000000
_symmetry_Int_Tables_number   1
_chemical_formula_structural   CePPtRh2
_chemical_formula_sum   'Ce2 P2 Pt2 Rh4'
_cell_volume   172.98183298
_cell_formula_units_Z   2
loop_
 _symmetry_equiv_pos_site_id
 _symmetry_equiv_pos_as_xyz
  1  'x, y, z'
loop_
 _atom_site_type_symbol
 _atom_site_label
 _atom_site_symmetry_multiplicity
 _atom_site_fract_x
 _atom_site_fract_y
 _atom_site_fract_z
 _atom_site_occupancy
  Ce  Ce0  1  0.000000  0.500000  0.263215  1
  Ce  Ce1  1  0.500000  0.000000  0.736785  1
  P  P2  1  0.000000  0.500000  0.879044  1
  P  P3  1  0.500000  0.000000  0.120956  1
  Pt  Pt4  1  0.000000  0.000000  0.500000  1
  Pt  Pt5  1  0.500000  0.500000  0.500000  1
  Rh  Rh6  1  0.000000  0.000000  0.000000  1
  Rh  Rh7  1  0.500000  0.500000  0.000000  1
  Rh  Rh8  1  0.000000  0.500000  0.673205  1
  Rh  Rh9  1  0.500000  0.000000  0.326795  1
