# generated using pymatgen
data_Ca4HoEr3(BO4)4
_symmetry_space_group_name_H-M   'P 1'
_cell_length_a   3.58206300
_cell_length_b   9.64251965
_cell_length_c   10.49528671
_cell_angle_alpha   89.95792659
_cell_angle_beta   90.00000000
_cell_angle_gamma   90.00000000
_symmetry_Int_Tables_number   1
_chemical_formula_structural   Ca4HoEr3(BO4)4
_chemical_formula_sum   'Ca4 Ho1 Er3 B4 O16'
_cell_volume   362.50828969
_cell_formula_units_Z   1
loop_
 _symmetry_equiv_pos_site_id
 _symmetry_equiv_pos_as_xyz
  1  'x, y, z'
loop_
 _atom_site_type_symbol
 _atom_site_label
 _atom_site_symmetry_multiplicity
 _atom_site_fract_x
 _atom_site_fract_y
 _atom_site_fract_z
 _atom_site_occupancy
  Ca  Ca0  1  0.250000  0.669904  0.083857  1
  Ca  Ca1  1  0.750000  0.330208  0.915826  1
  Ca  Ca2  1  0.750000  0.170303  0.416288  1
  Ca  Ca3  1  0.250000  0.829763  0.584040  1
  Ho  Ho4  1  0.250000  0.086954  0.111564  1
  Er  Er5  1  0.750000  0.912950  0.888053  1
  Er  Er6  1  0.750000  0.586964  0.388561  1
  Er  Er7  1  0.250000  0.413197  0.611494  1
  B  B8  1  0.250000  0.367662  0.200120  1
  B  B9  1  0.750000  0.632527  0.800132  1
  B  B10  1  0.750000  0.867036  0.300551  1
  B  B11  1  0.250000  0.132827  0.699757  1
  O  O12  1  0.250000  0.499679  0.252603  1
  O  O13  1  0.750000  0.500684  0.747245  1
  O  O14  1  0.750000  0.999126  0.247977  1
  O  O15  1  0.250000  0.000828  0.752459  1
  O  O16  1  0.250000  0.248259  0.275542  1
  O  O17  1  0.750000  0.752309  0.725118  1
  O  O18  1  0.750000  0.747582  0.225325  1
  O  O19  1  0.250000  0.252502  0.774710  1
  O  O20  1  0.250000  0.350702  0.067638  1
  O  O21  1  0.750000  0.649025  0.932556  1
  O  O22  1  0.750000  0.850001  0.432950  1
  O  O23  1  0.250000  0.149625  0.567339  1
  O  O24  1  0.250000  0.613311  0.505850  1
  O  O25  1  0.750000  0.386787  0.494304  1
  O  O26  1  0.750000  0.113299  0.993023  1
  O  O27  1  0.250000  0.885986  0.005118  1
