# generated using pymatgen
data_YEr(Al3Pd)6
_symmetry_space_group_name_H-M   'P 1'
_cell_length_a   10.42699335
_cell_length_b   10.42699311
_cell_length_c   10.42699433
_cell_angle_alpha   42.21983242
_cell_angle_beta   42.21983642
_cell_angle_gamma   42.21983010
_symmetry_Int_Tables_number   1
_chemical_formula_structural   YEr(Al3Pd)6
_chemical_formula_sum   'Y1 Er1 Al18 Pd6'
_cell_volume   463.25498443
_cell_formula_units_Z   1
loop_
 _symmetry_equiv_pos_site_id
 _symmetry_equiv_pos_as_xyz
  1  'x, y, z'
loop_
 _atom_site_type_symbol
 _atom_site_label
 _atom_site_symmetry_multiplicity
 _atom_site_fract_x
 _atom_site_fract_y
 _atom_site_fract_z
 _atom_site_occupancy
  Y  Y0  1  0.166867  0.166867  0.166867  1
  Er  Er1  1  0.833116  0.833116  0.833116  1
  Al  Al2  1  0.106709  0.435269  0.763308  1
  Al  Al3  1  0.435269  0.763308  0.106709  1
  Al  Al4  1  0.565379  0.892961  0.236379  1
  Al  Al5  1  0.949896  0.949896  0.949896  1
  Al  Al6  1  0.050000  0.050000  0.050000  1
  Al  Al7  1  0.294372  0.704416  0.501214  1
  Al  Al8  1  0.892961  0.236379  0.565379  1
  Al  Al9  1  0.384735  0.384735  0.384735  1
  Al  Al10  1  0.501214  0.294372  0.704416  1
  Al  Al11  1  0.236379  0.565379  0.892961  1
  Al  Al12  1  0.716376  0.716376  0.716376  1
  Al  Al13  1  0.615265  0.615265  0.615265  1
  Al  Al14  1  0.334571  0.999886  0.665556  1
  Al  Al15  1  0.704416  0.501214  0.294372  1
  Al  Al16  1  0.665556  0.334571  0.999886  1
  Al  Al17  1  0.283710  0.283710  0.283710  1
  Al  Al18  1  0.999886  0.665556  0.334571  1
  Al  Al19  1  0.763308  0.106709  0.435269  1
  Pd  Pd20  1  0.418666  0.077532  0.759658  1
  Pd  Pd21  1  0.581470  0.240312  0.922376  1
  Pd  Pd22  1  0.077532  0.759658  0.418666  1
  Pd  Pd23  1  0.759658  0.418666  0.077532  1
  Pd  Pd24  1  0.922376  0.581470  0.240312  1
  Pd  Pd25  1  0.240312  0.922376  0.581470  1
