# generated using pymatgen
data_Li3Sm4Co12Ni5P12
_symmetry_space_group_name_H-M   'P 1'
_cell_length_a   3.71096000
_cell_length_b   10.32588101
_cell_length_c   11.99443480
_cell_angle_alpha   90.43995883
_cell_angle_beta   90.00000000
_cell_angle_gamma   90.00000000
_symmetry_Int_Tables_number   1
_chemical_formula_structural   Li3Sm4Co12Ni5P12
_chemical_formula_sum   'Li3 Sm4 Co12 Ni5 P12'
_cell_volume   459.60037416
_cell_formula_units_Z   1
loop_
 _symmetry_equiv_pos_site_id
 _symmetry_equiv_pos_as_xyz
  1  'x, y, z'
loop_
 _atom_site_type_symbol
 _atom_site_label
 _atom_site_symmetry_multiplicity
 _atom_site_fract_x
 _atom_site_fract_y
 _atom_site_fract_z
 _atom_site_occupancy
  Li  Li0  1  0.250000  0.700686  0.992237  1
  Li  Li1  1  0.250000  0.798915  0.492062  1
  Li  Li2  1  0.750000  0.298617  0.006867  1
  Sm  Sm3  1  0.250000  0.580641  0.703134  1
  Sm  Sm4  1  0.250000  0.918718  0.203192  1
  Sm  Sm5  1  0.750000  0.418214  0.295492  1
  Sm  Sm6  1  0.750000  0.080850  0.797003  1
  Co  Co7  1  0.250000  0.219482  0.176248  1
  Co  Co8  1  0.250000  0.277036  0.671112  1
  Co  Co9  1  0.750000  0.781231  0.827260  1
  Co  Co10  1  0.750000  0.719134  0.327863  1
  Co  Co11  1  0.250000  0.881796  0.697948  1
  Co  Co12  1  0.250000  0.619172  0.198299  1
  Co  Co13  1  0.750000  0.118564  0.304692  1
  Co  Co14  1  0.750000  0.379311  0.798476  1
  Co  Co15  1  0.250000  0.466960  0.931982  1
  Co  Co16  1  0.250000  0.033717  0.433511  1
  Co  Co17  1  0.750000  0.531771  0.065923  1
  Co  Co18  1  0.750000  0.968097  0.566159  1
  Ni  Ni19  1  0.750000  0.209268  0.509664  1
  Ni  Ni20  1  0.250000  0.405094  0.485702  1
  Ni  Ni21  1  0.250000  0.093649  0.988092  1
  Ni  Ni22  1  0.750000  0.591088  0.511940  1
  Ni  Ni23  1  0.750000  0.908735  0.013701  1
  P  P24  1  0.250000  0.421319  0.112447  1
  P  P25  1  0.250000  0.077311  0.611707  1
  P  P26  1  0.750000  0.577735  0.886140  1
  P  P27  1  0.750000  0.921489  0.386768  1
  P  P28  1  0.250000  0.275896  0.857119  1
  P  P29  1  0.250000  0.225776  0.363151  1
  P  P30  1  0.750000  0.722701  0.142523  1
  P  P31  1  0.750000  0.777083  0.642027  1
  P  P32  1  0.250000  0.605552  0.388215  1
  P  P33  1  0.250000  0.893472  0.889328  1
  P  P34  1  0.750000  0.392412  0.608307  1
  P  P35  1  0.750000  0.108510  0.113712  1
