# generated using pymatgen
data_Ti8Al14Co7Se
_symmetry_space_group_name_H-M   'P 1'
_cell_length_a   8.39192442
_cell_length_b   8.39192378
_cell_length_c   8.39192384
_cell_angle_alpha   120.06760709
_cell_angle_beta   119.91752395
_cell_angle_gamma   90.01292672
_symmetry_Int_Tables_number   1
_chemical_formula_structural   Ti8Al14Co7Se
_chemical_formula_sum   'Ti8 Al14 Co7 Se1'
_cell_volume   417.94341493
_cell_formula_units_Z   1
loop_
 _symmetry_equiv_pos_site_id
 _symmetry_equiv_pos_as_xyz
  1  'x, y, z'
loop_
 _atom_site_type_symbol
 _atom_site_label
 _atom_site_symmetry_multiplicity
 _atom_site_fract_x
 _atom_site_fract_y
 _atom_site_fract_z
 _atom_site_occupancy
  Ti  Ti0  1  0.795061  0.292025  0.082036  1
  Ti  Ti1  1  0.209989  0.292025  0.496964  1
  Ti  Ti2  1  0.206860  0.706860  0.500000  1
  Ti  Ti3  1  0.209989  0.713025  0.917964  1
  Ti  Ti4  1  0.795061  0.713025  0.503036  1
  Ti  Ti5  1  0.788893  0.288893  0.500000  1
  Ti  Ti6  1  0.380670  0.120501  0.739831  1
  Ti  Ti7  1  0.380670  0.640839  0.260169  1
  Al  Al8  1  0.163060  0.335576  0.172514  1
  Al  Al9  1  0.163060  0.990546  0.827486  1
  Al  Al10  1  0.160166  0.336961  0.823205  1
  Al  Al11  1  0.513755  0.336961  0.176795  1
  Al  Al12  1  0.836641  0.662428  0.825788  1
  Al  Al13  1  0.836641  0.010853  0.174212  1
  Al  Al14  1  0.836349  0.662948  0.173400  1
  Al  Al15  1  0.489548  0.662948  0.826600  1
  Al  Al16  1  0.381216  0.118642  0.262574  1
  Al  Al17  1  0.856069  0.118642  0.737426  1
  Al  Al18  1  0.619090  0.879994  0.260905  1
  Al  Al19  1  0.619090  0.358186  0.739095  1
  Al  Al20  1  0.619532  0.880300  0.739231  1
  Al  Al21  1  0.141068  0.880300  0.260769  1
  Co  Co22  1  0.003209  0.000174  0.501861  1
  Co  Co23  1  0.498313  0.000174  0.996964  1
  Co  Co24  1  0.498339  0.498339  0.000000  1
  Co  Co25  1  0.498313  0.501348  0.498139  1
  Co  Co26  1  0.003209  0.501348  0.003036  1
  Co  Co27  1  0.000766  0.000766  0.000000  1
  Co  Co28  1  0.497489  0.997489  0.500000  1
  Se  Se29  1  0.997881  0.497881  0.500000  1
