# generated using pymatgen
data_Y12Th4Mg3CdCo4
_symmetry_space_group_name_H-M   'P 1'
_cell_length_a   9.66475593
_cell_length_b   9.66475501
_cell_length_c   9.66475608
_cell_angle_alpha   60.06135038
_cell_angle_beta   60.06135507
_cell_angle_gamma   60.06135377
_symmetry_Int_Tables_number   1
_chemical_formula_structural   Y12Th4Mg3CdCo4
_chemical_formula_sum   'Y12 Th4 Mg3 Cd1 Co4'
_cell_volume   639.23581964
_cell_formula_units_Z   1
loop_
 _symmetry_equiv_pos_site_id
 _symmetry_equiv_pos_as_xyz
  1  'x, y, z'
loop_
 _atom_site_type_symbol
 _atom_site_label
 _atom_site_symmetry_multiplicity
 _atom_site_fract_x
 _atom_site_fract_y
 _atom_site_fract_z
 _atom_site_occupancy
  Y  Y0  1  0.811918  0.187557  0.187557  1
  Y  Y1  1  0.185900  0.813511  0.813511  1
  Y  Y2  1  0.187557  0.811918  0.187557  1
  Y  Y3  1  0.813511  0.185900  0.813511  1
  Y  Y4  1  0.187557  0.187557  0.811918  1
  Y  Y5  1  0.813511  0.813511  0.185900  1
  Y  Y6  1  0.937199  0.563558  0.563558  1
  Y  Y7  1  0.562207  0.936588  0.936588  1
  Y  Y8  1  0.563558  0.937199  0.563558  1
  Y  Y9  1  0.936588  0.562207  0.936588  1
  Y  Y10  1  0.563558  0.563558  0.937199  1
  Y  Y11  1  0.936588  0.936588  0.562207  1
  Th  Th12  1  0.343654  0.343654  0.343654  1
  Th  Th13  1  0.344896  0.344896  0.966270  1
  Th  Th14  1  0.344896  0.966270  0.344896  1
  Th  Th15  1  0.966270  0.344896  0.344896  1
  Mg  Mg16  1  0.579213  0.579213  0.263208  1
  Mg  Mg17  1  0.579213  0.263208  0.579213  1
  Mg  Mg18  1  0.263208  0.579213  0.579213  1
  Cd  Cd19  1  0.581031  0.581031  0.581031  1
  Co  Co20  1  0.145590  0.145590  0.145590  1
  Co  Co21  1  0.145383  0.145383  0.561610  1
  Co  Co22  1  0.145383  0.561610  0.145383  1
  Co  Co23  1  0.561610  0.145383  0.145383  1
