# generated using pymatgen
data_Ho3Lu2Co19(Si5P)2
_symmetry_space_group_name_H-M   'P 1'
_cell_length_a   12.06219900
_cell_length_b   12.10103844
_cell_length_c   3.69327600
_cell_angle_alpha   90.00000000
_cell_angle_beta   90.00000000
_cell_angle_gamma   119.89388138
_symmetry_Int_Tables_number   1
_chemical_formula_structural   Ho3Lu2Co19(Si5P)2
_chemical_formula_sum   'Ho3 Lu2 Co19 Si10 P2'
_cell_volume   467.36365176
_cell_formula_units_Z   1
loop_
 _symmetry_equiv_pos_site_id
 _symmetry_equiv_pos_as_xyz
  1  'x, y, z'
loop_
 _atom_site_type_symbol
 _atom_site_label
 _atom_site_symmetry_multiplicity
 _atom_site_fract_x
 _atom_site_fract_y
 _atom_site_fract_z
 _atom_site_occupancy
  Ho  Ho0  1  0.332980  0.666708  0.500000  1
  Ho  Ho1  1  0.666272  0.333292  0.500000  1
  Ho  Ho2  1  0.184432  0.000000  0.000000  1
  Lu  Lu3  1  0.000553  0.185728  0.000000  1
  Lu  Lu4  1  0.814825  0.814272  0.000000  1
  Co  Co5  1  0.196686  0.372907  0.500000  1
  Co  Co6  1  0.624616  0.820607  0.500000  1
  Co  Co7  1  0.175429  0.802855  0.500000  1
  Co  Co8  1  0.823779  0.627093  0.500000  1
  Co  Co9  1  0.804009  0.179393  0.500000  1
  Co  Co10  1  0.372573  0.197145  0.500000  1
  Co  Co11  1  0.558676  0.000000  0.500000  1
  Co  Co12  1  0.000364  0.557798  0.500000  1
  Co  Co13  1  0.442567  0.442202  0.500000  1
  Co  Co14  1  0.123839  0.478476  0.000000  1
  Co  Co15  1  0.521746  0.644267  0.000000  1
  Co  Co16  1  0.354710  0.876240  0.000000  1
  Co  Co17  1  0.645364  0.521524  0.000000  1
  Co  Co18  1  0.877478  0.355733  0.000000  1
  Co  Co19  1  0.478469  0.123760  0.000000  1
  Co  Co20  1  0.720307  0.000000  0.000000  1
  Co  Co21  1  0.998848  0.722278  0.000000  1
  Co  Co22  1  0.276570  0.277722  0.000000  1
  Co  Co23  1  0.003806  0.000000  0.500000  1
  Si  Si24  1  0.370172  0.000000  0.500000  1
  Si  Si25  1  0.000472  0.369335  0.500000  1
  Si  Si26  1  0.631136  0.630665  0.500000  1
  Si  Si27  1  0.319047  0.478368  0.000000  1
  Si  Si28  1  0.522101  0.839823  0.000000  1
  Si  Si29  1  0.159020  0.681142  0.000000  1
  Si  Si30  1  0.840678  0.521632  0.000000  1
  Si  Si31  1  0.682278  0.160177  0.000000  1
  Si  Si32  1  0.477878  0.318858  0.000000  1
  Si  Si33  1  0.819567  0.000000  0.500000  1
  P  P34  1  0.998367  0.817981  0.500000  1
  P  P35  1  0.180386  0.182019  0.500000  1
