# generated using pymatgen
data_Nd2Y3Ho(RuO7)2
_symmetry_space_group_name_H-M   'P 1'
_cell_length_a   6.45587031
_cell_length_b   6.46192054
_cell_length_c   7.51405900
_cell_angle_alpha   90.00000000
_cell_angle_beta   90.00000000
_cell_angle_gamma   110.18708018
_symmetry_Int_Tables_number   1
_chemical_formula_structural   Nd2Y3Ho(RuO7)2
_chemical_formula_sum   'Nd2 Y3 Ho1 Ru2 O14'
_cell_volume   294.21043907
_cell_formula_units_Z   1
loop_
 _symmetry_equiv_pos_site_id
 _symmetry_equiv_pos_as_xyz
  1  'x, y, z'
loop_
 _atom_site_type_symbol
 _atom_site_label
 _atom_site_symmetry_multiplicity
 _atom_site_fract_x
 _atom_site_fract_y
 _atom_site_fract_z
 _atom_site_occupancy
  Nd  Nd0  1  0.000130  0.999892  0.499567  1
  Nd  Nd1  1  0.000130  0.999892  0.000433  1
  Y  Y2  1  0.481733  0.930386  0.750000  1
  Y  Y3  1  0.518147  0.069271  0.250000  1
  Y  Y4  1  0.930467  0.481692  0.750000  1
  Ho  Ho5  1  0.068504  0.517597  0.250000  1
  Ru  Ru6  1  0.500101  0.500151  0.499574  1
  Ru  Ru7  1  0.500101  0.500151  0.000426  1
  O  O8  1  0.588463  0.588084  0.750000  1
  O  O9  1  0.410438  0.412081  0.250000  1
  O  O10  1  0.839532  0.116567  0.750000  1
  O  O11  1  0.160476  0.881285  0.250000  1
  O  O12  1  0.116309  0.839302  0.750000  1
  O  O13  1  0.884220  0.162819  0.250000  1
  O  O14  1  0.439429  0.182393  0.963549  1
  O  O15  1  0.560999  0.817921  0.463338  1
  O  O16  1  0.182077  0.440337  0.965110  1
  O  O17  1  0.818119  0.559764  0.461995  1
  O  O18  1  0.439429  0.182393  0.536451  1
  O  O19  1  0.560999  0.817921  0.036662  1
  O  O20  1  0.818119  0.559764  0.038005  1
  O  O21  1  0.182077  0.440337  0.534890  1
