# generated using pymatgen
data_SrZr(Re2Si)4
_symmetry_space_group_name_H-M   'P 1'
_cell_length_a   7.43736928
_cell_length_b   7.43736928
_cell_length_c   4.13872700
_cell_angle_alpha   90.00000000
_cell_angle_beta   90.00000000
_cell_angle_gamma   87.84486667
_symmetry_Int_Tables_number   1
_chemical_formula_structural   SrZr(Re2Si)4
_chemical_formula_sum   'Sr1 Zr1 Re8 Si4'
_cell_volume   228.76952683
_cell_formula_units_Z   1
loop_
 _symmetry_equiv_pos_site_id
 _symmetry_equiv_pos_as_xyz
  1  'x, y, z'
loop_
 _atom_site_type_symbol
 _atom_site_label
 _atom_site_symmetry_multiplicity
 _atom_site_fract_x
 _atom_site_fract_y
 _atom_site_fract_z
 _atom_site_occupancy
  Sr  Sr0  1  0.500000  0.500000  0.000000  1
  Zr  Zr1  1  0.000000  0.000000  0.500000  1
  Re  Re2  1  0.603736  0.149903  0.500000  1
  Re  Re3  1  0.396264  0.850097  0.500000  1
  Re  Re4  1  0.083244  0.337795  0.000000  1
  Re  Re5  1  0.916756  0.662205  0.000000  1
  Re  Re6  1  0.149903  0.603736  0.500000  1
  Re  Re7  1  0.850097  0.396264  0.500000  1
  Re  Re8  1  0.337795  0.083244  0.000000  1
  Re  Re9  1  0.662205  0.916756  0.000000  1
  Si  Si10  1  0.714439  0.714439  0.500000  1
  Si  Si11  1  0.285561  0.285561  0.500000  1
  Si  Si12  1  0.201155  0.798845  0.000000  1
  Si  Si13  1  0.798845  0.201155  0.000000  1
