# generated using pymatgen
data_EuYReB8Mo
_symmetry_space_group_name_H-M   'P 1'
_cell_length_a   3.63283000
_cell_length_b   6.05702880
_cell_length_c   11.70895680
_cell_angle_alpha   90.12192254
_cell_angle_beta   90.00000000
_cell_angle_gamma   90.00000000
_symmetry_Int_Tables_number   1
_chemical_formula_structural   EuYReB8Mo
_chemical_formula_sum   'Eu2 Y2 Re2 B16 Mo2'
_cell_volume   257.64512766
_cell_formula_units_Z   2
loop_
 _symmetry_equiv_pos_site_id
 _symmetry_equiv_pos_as_xyz
  1  'x, y, z'
loop_
 _atom_site_type_symbol
 _atom_site_label
 _atom_site_symmetry_multiplicity
 _atom_site_fract_x
 _atom_site_fract_y
 _atom_site_fract_z
 _atom_site_occupancy
  Eu  Eu0  1  0.000000  0.126815  0.150260  1
  Eu  Eu1  1  0.000000  0.873185  0.849740  1
  Y  Y2  1  0.000000  0.626365  0.350077  1
  Y  Y3  1  0.000000  0.373635  0.649923  1
  Re  Re4  1  0.000000  0.630367  0.084555  1
  Re  Re5  1  0.000000  0.369633  0.915445  1
  B  B6  1  0.500000  0.477511  0.191769  1
  B  B7  1  0.500000  0.522489  0.808231  1
  B  B8  1  0.500000  0.974120  0.307394  1
  B  B9  1  0.500000  0.025880  0.692606  1
  B  B10  1  0.500000  0.287280  0.314430  1
  B  B11  1  0.500000  0.712720  0.685570  1
  B  B12  1  0.500000  0.782913  0.184745  1
  B  B13  1  0.500000  0.217087  0.815255  1
  B  B14  1  0.500000  0.366453  0.468089  1
  B  B15  1  0.500000  0.633547  0.531911  1
  B  B16  1  0.500000  0.862167  0.032170  1
  B  B17  1  0.500000  0.137833  0.967830  1
  B  B18  1  0.500000  0.387681  0.046905  1
  B  B19  1  0.500000  0.612319  0.953095  1
  B  B20  1  0.500000  0.885589  0.452773  1
  B  B21  1  0.500000  0.114411  0.547227  1
  Mo  Mo22  1  0.000000  0.128704  0.416189  1
  Mo  Mo23  1  0.000000  0.871296  0.583811  1
