# generated using pymatgen
data_YHo7(MnS4)4
_symmetry_space_group_name_H-M   'P 1'
_cell_length_a   6.41663501
_cell_length_b   7.92431600
_cell_length_c   13.54453000
_cell_angle_alpha   90.00000000
_cell_angle_beta   90.00326811
_cell_angle_gamma   90.00000000
_symmetry_Int_Tables_number   1
_chemical_formula_structural   YHo7(MnS4)4
_chemical_formula_sum   'Y1 Ho7 Mn4 S16'
_cell_volume   688.70472251
_cell_formula_units_Z   1
loop_
 _symmetry_equiv_pos_site_id
 _symmetry_equiv_pos_as_xyz
  1  'x, y, z'
loop_
 _atom_site_type_symbol
 _atom_site_label
 _atom_site_symmetry_multiplicity
 _atom_site_fract_x
 _atom_site_fract_y
 _atom_site_fract_z
 _atom_site_occupancy
  Y  Y0  1  0.994709  0.750000  0.265971  1
  Ho  Ho1  1  0.000010  0.499975  0.999986  1
  Ho  Ho2  1  0.499992  0.000069  0.500074  1
  Ho  Ho3  1  0.000007  0.000030  0.999985  1
  Ho  Ho4  1  0.499987  0.499934  0.500075  1
  Ho  Ho5  1  0.505159  0.750002  0.765857  1
  Ho  Ho6  1  0.005146  0.250002  0.734198  1
  Ho  Ho7  1  0.494817  0.250001  0.234138  1
  Mn  Mn8  1  0.411614  0.750002  0.092296  1
  Mn  Mn9  1  0.088699  0.749983  0.592330  1
  Mn  Mn10  1  0.588515  0.249988  0.907733  1
  Mn  Mn11  1  0.911214  0.249994  0.407641  1
  S  S12  1  0.779788  0.750002  0.089489  1
  S  S13  1  0.719737  0.750004  0.590072  1
  S  S14  1  0.219662  0.250004  0.909927  1
  S  S15  1  0.280172  0.250002  0.409951  1
  S  S16  1  0.245556  0.750000  0.430556  1
  S  S17  1  0.255149  0.750000  0.930091  1
  S  S18  1  0.755177  0.250001  0.569969  1
  S  S19  1  0.744871  0.250004  0.069951  1
  S  S20  1  0.741001  0.486346  0.331457  1
  S  S21  1  0.758264  0.012975  0.831271  1
  S  S22  1  0.258258  0.987044  0.668759  1
  S  S23  1  0.242482  0.512327  0.168368  1
  S  S24  1  0.258255  0.512955  0.668758  1
  S  S25  1  0.242487  0.987674  0.168368  1
  S  S26  1  0.741006  0.013652  0.331455  1
  S  S27  1  0.758267  0.487031  0.831273  1
