# generated using pymatgen
data_Lu10Tl3Tc
_symmetry_space_group_name_H-M   'P 1'
_cell_length_a   9.57556602
_cell_length_b   9.57564110
_cell_length_c   9.54933501
_cell_angle_alpha   89.99775838
_cell_angle_beta   90.00191035
_cell_angle_gamma   120.00294317
_symmetry_Int_Tables_number   1
_chemical_formula_structural   Lu10Tl3Tc
_chemical_formula_sum   'Lu20 Tl6 Tc2'
_cell_volume   758.26881439
_cell_formula_units_Z   2
loop_
 _symmetry_equiv_pos_site_id
 _symmetry_equiv_pos_as_xyz
  1  'x, y, z'
loop_
 _atom_site_type_symbol
 _atom_site_label
 _atom_site_symmetry_multiplicity
 _atom_site_fract_x
 _atom_site_fract_y
 _atom_site_fract_z
 _atom_site_occupancy
  Lu  Lu0  1  0.000193  0.000267  0.500043  1
  Lu  Lu1  1  0.999812  0.999778  0.000091  1
  Lu  Lu2  1  0.211072  0.788889  0.440377  1
  Lu  Lu3  1  0.211237  0.422229  0.440406  1
  Lu  Lu4  1  0.578000  0.788969  0.440302  1
  Lu  Lu5  1  0.788900  0.211100  0.559440  1
  Lu  Lu6  1  0.788998  0.578045  0.559533  1
  Lu  Lu7  1  0.422061  0.211112  0.559529  1
  Lu  Lu8  1  0.788952  0.210983  0.940425  1
  Lu  Lu9  1  0.788963  0.577854  0.940551  1
  Lu  Lu10  1  0.421987  0.210970  0.940451  1
  Lu  Lu11  1  0.211048  0.788842  0.059602  1
  Lu  Lu12  1  0.211119  0.422117  0.059583  1
  Lu  Lu13  1  0.577848  0.788889  0.059593  1
  Lu  Lu14  1  0.536591  0.463616  0.249938  1
  Lu  Lu15  1  0.536426  0.072963  0.249975  1
  Lu  Lu16  1  0.927079  0.463492  0.249993  1
  Lu  Lu17  1  0.463576  0.536427  0.750023  1
  Lu  Lu18  1  0.463351  0.926907  0.749944  1
  Lu  Lu19  1  0.072968  0.536429  0.749923  1
  Tl  Tl20  1  0.881765  0.118163  0.249988  1
  Tl  Tl21  1  0.881970  0.763688  0.250236  1
  Tl  Tl22  1  0.236384  0.118342  0.249987  1
  Tl  Tl23  1  0.117979  0.881649  0.750064  1
  Tl  Tl24  1  0.118136  0.236361  0.750140  1
  Tl  Tl25  1  0.763550  0.881876  0.749905  1
  Tc  Tc26  1  0.333372  0.666657  0.249993  1
  Tc  Tc27  1  0.666661  0.333383  0.749967  1
