# generated using pymatgen
data_CrFe(Sb6Au)2
_symmetry_space_group_name_H-M   'P 1'
_cell_length_a   8.22943146
_cell_length_b   8.20374700
_cell_length_c   9.51928562
_cell_angle_alpha   55.40995699
_cell_angle_beta   54.72847954
_cell_angle_gamma   70.46695478
_symmetry_Int_Tables_number   1
_chemical_formula_structural   CrFe(Sb6Au)2
_chemical_formula_sum   'Cr1 Fe1 Sb12 Au2'
_cell_volume   431.92260957
_cell_formula_units_Z   1
loop_
 _symmetry_equiv_pos_site_id
 _symmetry_equiv_pos_as_xyz
  1  'x, y, z'
loop_
 _atom_site_type_symbol
 _atom_site_label
 _atom_site_symmetry_multiplicity
 _atom_site_fract_x
 _atom_site_fract_y
 _atom_site_fract_z
 _atom_site_occupancy
  Cr  Cr0  1  0.500000  0.000000  0.500000  1
  Fe  Fe1  1  0.000000  0.500000  0.500000  1
  Sb  Sb2  1  0.681816  0.667500  0.482798  1
  Sb  Sb3  1  0.318184  0.332500  0.517202  1
  Sb  Sb4  1  0.640666  0.642003  0.208968  1
  Sb  Sb5  1  0.359334  0.357997  0.791032  1
  Sb  Sb6  1  0.163539  0.856457  0.644015  1
  Sb  Sb7  1  0.836461  0.143543  0.355985  1
  Sb  Sb8  1  0.861899  0.173535  0.641678  1
  Sb  Sb9  1  0.138101  0.826465  0.358322  1
  Sb  Sb10  1  0.814463  0.494162  0.828757  1
  Sb  Sb11  1  0.185537  0.505838  0.171243  1
  Sb  Sb12  1  0.503287  0.192531  0.163199  1
  Sb  Sb13  1  0.496713  0.807469  0.836801  1
  Au  Au14  1  0.000000  0.500000  0.000000  1
  Au  Au15  1  0.500000  0.000000  0.000000  1
