# generated using pymatgen
data_LuPa3(ZnCo)4
_symmetry_space_group_name_H-M   'P 1'
_cell_length_a   3.66180100
_cell_length_b   6.81186800
_cell_length_c   8.23058489
_cell_angle_alpha   90.41883280
_cell_angle_beta   90.00000000
_cell_angle_gamma   90.00000000
_symmetry_Int_Tables_number   1
_chemical_formula_structural   LuPa3(ZnCo)4
_chemical_formula_sum   'Lu1 Pa3 Zn4 Co4'
_cell_volume   205.29579660
_cell_formula_units_Z   1
loop_
 _symmetry_equiv_pos_site_id
 _symmetry_equiv_pos_as_xyz
  1  'x, y, z'
loop_
 _atom_site_type_symbol
 _atom_site_label
 _atom_site_symmetry_multiplicity
 _atom_site_fract_x
 _atom_site_fract_y
 _atom_site_fract_z
 _atom_site_occupancy
  Lu  Lu0  1  0.250000  0.044973  0.315816  1
  Pa  Pa1  1  0.250000  0.544369  0.189077  1
  Pa  Pa2  1  0.750000  0.460262  0.816470  1
  Pa  Pa3  1  0.750000  0.960469  0.685978  1
  Zn  Zn4  1  0.250000  0.629168  0.549338  1
  Zn  Zn5  1  0.750000  0.354142  0.448319  1
  Zn  Zn6  1  0.750000  0.877304  0.056420  1
  Zn  Zn7  1  0.250000  0.131315  0.955225  1
  Co  Co8  1  0.250000  0.738754  0.848419  1
  Co  Co9  1  0.750000  0.287804  0.131702  1
  Co  Co10  1  0.750000  0.736180  0.347302  1
  Co  Co11  1  0.250000  0.235259  0.655935  1
