# generated using pymatgen
data_Dy4Y2Al23VOs8
_symmetry_space_group_name_H-M   'P 1'
_cell_length_a   8.84680700
_cell_length_b   8.84350921
_cell_length_c   9.54633223
_cell_angle_alpha   89.99769901
_cell_angle_beta   90.00000000
_cell_angle_gamma   120.01234012
_symmetry_Int_Tables_number   1
_chemical_formula_structural   Dy4Y2Al23VOs8
_chemical_formula_sum   'Dy4 Y2 Al23 V1 Os8'
_cell_volume   646.73199125
_cell_formula_units_Z   1
loop_
 _symmetry_equiv_pos_site_id
 _symmetry_equiv_pos_as_xyz
  1  'x, y, z'
loop_
 _atom_site_type_symbol
 _atom_site_label
 _atom_site_symmetry_multiplicity
 _atom_site_fract_x
 _atom_site_fract_y
 _atom_site_fract_z
 _atom_site_occupancy
  Dy  Dy0  1  0.608680  0.804727  0.245944  1
  Dy  Dy1  1  0.386649  0.193209  0.750515  1
  Dy  Dy2  1  0.196046  0.804727  0.245944  1
  Dy  Dy3  1  0.806560  0.193209  0.750515  1
  Y  Y4  1  0.193739  0.387478  0.247108  1
  Y  Y5  1  0.808233  0.616466  0.750994  1
  Al  Al6  1  0.666909  0.333818  0.977376  1
  Al  Al7  1  0.667015  0.334031  0.520391  1
  Al  Al8  1  0.333021  0.666043  0.481773  1
  Al  Al9  1  0.162153  0.324305  0.575845  1
  Al  Al10  1  0.836964  0.673930  0.424661  1
  Al  Al11  1  0.675204  0.837553  0.574723  1
  Al  Al12  1  0.835672  0.671345  0.076879  1
  Al  Al13  1  0.326046  0.162930  0.425358  1
  Al  Al14  1  0.160543  0.321086  0.925181  1
  Al  Al15  1  0.162349  0.837553  0.574723  1
  Al  Al16  1  0.328777  0.164466  0.076234  1
  Al  Al17  1  0.836884  0.162930  0.425358  1
  Al  Al18  1  0.678868  0.839717  0.925631  1
  Al  Al19  1  0.835689  0.164466  0.076234  1
  Al  Al20  1  0.160849  0.839717  0.925631  1
  Al  Al21  1  0.562497  0.124995  0.253447  1
  Al  Al22  1  0.441384  0.882767  0.750982  1
  Al  Al23  1  0.875901  0.437843  0.253383  1
  Al  Al24  1  0.117014  0.558797  0.750866  1
  Al  Al25  1  0.561942  0.437843  0.253383  1
  Al  Al26  1  0.441783  0.558797  0.750866  1
  Al  Al27  1  0.998467  0.996935  0.250574  1
  Al  Al28  1  0.001452  0.002905  0.749794  1
  V  V29  1  0.333129  0.666258  0.982754  1
  Os  Os30  1  0.495202  0.990403  0.005631  1
  Os  Os31  1  0.009378  0.504760  0.005208  1
  Os  Os32  1  0.499332  0.998663  0.503361  1
  Os  Os33  1  0.495383  0.504760  0.005208  1
  Os  Os34  1  0.001319  0.500458  0.503443  1
  Os  Os35  1  0.499139  0.500458  0.503443  1
  Os  Os36  1  0.999962  0.999924  0.001071  1
  Os  Os37  1  0.999866  0.999731  0.499570  1
