# generated using pymatgen
data_Tm10Tl5Te
_symmetry_space_group_name_H-M   'P 1'
_cell_length_a   8.85186247
_cell_length_b   8.85186211
_cell_length_c   6.54871000
_cell_angle_alpha   90.00000000
_cell_angle_beta   90.00000000
_cell_angle_gamma   119.76043785
_symmetry_Int_Tables_number   1
_chemical_formula_structural   Tm10Tl5Te
_chemical_formula_sum   'Tm10 Tl5 Te1'
_cell_volume   445.45005419
_cell_formula_units_Z   1
loop_
 _symmetry_equiv_pos_site_id
 _symmetry_equiv_pos_as_xyz
  1  'x, y, z'
loop_
 _atom_site_type_symbol
 _atom_site_label
 _atom_site_symmetry_multiplicity
 _atom_site_fract_x
 _atom_site_fract_y
 _atom_site_fract_z
 _atom_site_occupancy
  Tm  Tm0  1  0.670780  0.334327  0.504512  1
  Tm  Tm1  1  0.334327  0.670780  0.504512  1
  Tm  Tm2  1  0.334327  0.670780  0.995488  1
  Tm  Tm3  1  0.670780  0.334327  0.995488  1
  Tm  Tm4  1  0.769353  0.769353  0.250000  1
  Tm  Tm5  1  0.234290  0.991722  0.250000  1
  Tm  Tm6  1  0.991722  0.234290  0.250000  1
  Tm  Tm7  1  0.236447  0.236447  0.750000  1
  Tm  Tm8  1  0.764374  0.000441  0.750000  1
  Tm  Tm9  1  0.000441  0.764374  0.750000  1
  Tl  Tl10  1  0.597776  0.998376  0.250000  1
  Tl  Tl11  1  0.998376  0.597776  0.250000  1
  Tl  Tl12  1  0.603638  0.603638  0.750000  1
  Tl  Tl13  1  0.399563  0.003849  0.750000  1
  Tl  Tl14  1  0.003849  0.399563  0.750000  1
  Te  Te15  1  0.389957  0.389957  0.250000  1
