# generated using pymatgen
data_Ho5Er(SiIr)4
_symmetry_space_group_name_H-M   'P 1'
_cell_length_a   5.55228925
_cell_length_b   5.55228776
_cell_length_c   13.20783500
_cell_angle_alpha   90.00000000
_cell_angle_beta   90.00000000
_cell_angle_gamma   136.85525388
_symmetry_Int_Tables_number   1
_chemical_formula_structural   Ho5Er(SiIr)4
_chemical_formula_sum   'Ho5 Er1 Si4 Ir4'
_cell_volume   278.44062248
_cell_formula_units_Z   1
loop_
 _symmetry_equiv_pos_site_id
 _symmetry_equiv_pos_as_xyz
  1  'x, y, z'
loop_
 _atom_site_type_symbol
 _atom_site_label
 _atom_site_symmetry_multiplicity
 _atom_site_fract_x
 _atom_site_fract_y
 _atom_site_fract_z
 _atom_site_occupancy
  Ho  Ho0  1  0.774044  0.225956  0.604443  1
  Ho  Ho1  1  0.517919  0.482081  0.250000  1
  Ho  Ho2  1  0.225965  0.774035  0.395683  1
  Ho  Ho3  1  0.774044  0.225956  0.895557  1
  Ho  Ho4  1  0.225965  0.774035  0.104317  1
  Er  Er5  1  0.482295  0.517705  0.750000  1
  Si  Si6  1  0.061828  0.938172  0.590382  1
  Si  Si7  1  0.061828  0.938172  0.909618  1
  Si  Si8  1  0.938176  0.061824  0.409746  1
  Si  Si9  1  0.938176  0.061824  0.090254  1
  Ir  Ir10  1  0.811309  0.188691  0.250000  1
  Ir  Ir11  1  0.188565  0.811435  0.750000  1
  Ir  Ir12  1  0.499943  0.500057  0.999904  1
  Ir  Ir13  1  0.499943  0.500057  0.500096  1
