# generated using pymatgen
data_La7TbGePd24
_symmetry_space_group_name_H-M   'P 1'
_cell_length_a   8.53549901
_cell_length_b   8.53549901
_cell_length_c   8.53549901
_cell_angle_alpha   89.92147545
_cell_angle_beta   89.92147545
_cell_angle_gamma   89.92147545
_symmetry_Int_Tables_number   1
_chemical_formula_structural   La7TbGePd24
_chemical_formula_sum   'La7 Tb1 Ge1 Pd24'
_cell_volume   621.84983827
_cell_formula_units_Z   1
loop_
 _symmetry_equiv_pos_site_id
 _symmetry_equiv_pos_as_xyz
  1  'x, y, z'
loop_
 _atom_site_type_symbol
 _atom_site_label
 _atom_site_symmetry_multiplicity
 _atom_site_fract_x
 _atom_site_fract_y
 _atom_site_fract_z
 _atom_site_occupancy
  La  La0  1  0.746827  0.746827  0.746827  1
  La  La1  1  0.747450  0.747450  0.252932  1
  La  La2  1  0.747450  0.252932  0.747450  1
  La  La3  1  0.253223  0.253223  0.746339  1
  La  La4  1  0.253223  0.746339  0.253223  1
  La  La5  1  0.252932  0.747450  0.747450  1
  La  La6  1  0.746339  0.253223  0.253223  1
  Tb  Tb7  1  0.253080  0.253080  0.253080  1
  Ge  Ge8  1  0.999606  0.999606  0.999606  1
  Pd  Pd9  1  0.260557  0.497528  0.003082  1
  Pd  Pd10  1  0.739565  0.499513  0.000226  1
  Pd  Pd11  1  0.003082  0.260557  0.497528  1
  Pd  Pd12  1  0.497528  0.260557  0.003082  1
  Pd  Pd13  1  0.000226  0.739565  0.499513  1
  Pd  Pd14  1  0.499513  0.739565  0.000226  1
  Pd  Pd15  1  0.497528  0.003082  0.260557  1
  Pd  Pd16  1  0.260557  0.003082  0.497528  1
  Pd  Pd17  1  0.499513  0.000226  0.739565  1
  Pd  Pd18  1  0.739565  0.000226  0.499513  1
  Pd  Pd19  1  0.003082  0.497528  0.260557  1
  Pd  Pd20  1  0.000226  0.499513  0.739565  1
  Pd  Pd21  1  0.253334  0.497100  0.497100  1
  Pd  Pd22  1  0.746723  0.499713  0.499713  1
  Pd  Pd23  1  0.497100  0.253334  0.497100  1
  Pd  Pd24  1  0.499713  0.746723  0.499713  1
  Pd  Pd25  1  0.497100  0.497100  0.253334  1
  Pd  Pd26  1  0.499713  0.499713  0.746723  1
  Pd  Pd27  1  0.290642  0.003287  0.003287  1
  Pd  Pd28  1  0.707500  0.000263  0.000263  1
  Pd  Pd29  1  0.003287  0.290642  0.003287  1
  Pd  Pd30  1  0.000263  0.707500  0.000263  1
  Pd  Pd31  1  0.003287  0.003287  0.290642  1
  Pd  Pd32  1  0.000263  0.000263  0.707500  1
