# generated using pymatgen
data_CaY(Si2Ni9)2
_symmetry_space_group_name_H-M   'P 1'
_cell_length_a   7.56820170
_cell_length_b   7.56820214
_cell_length_c   7.56820200
_cell_angle_alpha   99.57110567
_cell_angle_beta   99.57110362
_cell_angle_gamma   131.87110154
_symmetry_Int_Tables_number   1
_chemical_formula_structural   CaY(Si2Ni9)2
_chemical_formula_sum   'Ca1 Y1 Si4 Ni18'
_cell_volume   294.74175408
_cell_formula_units_Z   1
loop_
 _symmetry_equiv_pos_site_id
 _symmetry_equiv_pos_as_xyz
  1  'x, y, z'
loop_
 _atom_site_type_symbol
 _atom_site_label
 _atom_site_symmetry_multiplicity
 _atom_site_fract_x
 _atom_site_fract_y
 _atom_site_fract_z
 _atom_site_occupancy
  Ca  Ca0  1  0.500000  0.500000  0.000000  1
  Y  Y1  1  0.750000  0.250000  0.500000  1
  Si  Si2  1  0.624309  0.874019  0.750290  1
  Si  Si3  1  0.125981  0.375691  0.249710  1
  Si  Si4  1  0.125981  0.876272  0.750290  1
  Si  Si5  1  0.123728  0.874019  0.249710  1
  Ni  Ni6  1  0.250000  0.750000  0.500000  1
  Ni  Ni7  1  0.000000  0.000000  0.000000  1
  Ni  Ni8  1  0.687497  0.014762  0.079270  1
  Ni  Ni9  1  0.687497  0.608229  0.672735  1
  Ni  Ni10  1  0.262339  0.436109  0.578184  1
  Ni  Ni11  1  0.262339  0.684155  0.826230  1
  Ni  Ni12  1  0.935492  0.014762  0.327265  1
  Ni  Ni13  1  0.935492  0.608229  0.920730  1
  Ni  Ni14  1  0.857927  0.436109  0.173770  1
  Ni  Ni15  1  0.857927  0.684155  0.421816  1
  Ni  Ni16  1  0.563891  0.737661  0.421816  1
  Ni  Ni17  1  0.563891  0.142073  0.826230  1
  Ni  Ni18  1  0.985238  0.312503  0.920730  1
  Ni  Ni19  1  0.985238  0.064508  0.672735  1
  Ni  Ni20  1  0.315845  0.737661  0.173770  1
  Ni  Ni21  1  0.315845  0.142073  0.578184  1
  Ni  Ni22  1  0.391771  0.312503  0.327265  1
  Ni  Ni23  1  0.391771  0.064508  0.079270  1
