# generated using pymatgen
data_Dy19Ho(Cd3Ru)2
_symmetry_space_group_name_H-M   'P 1'
_cell_length_a   9.58620400
_cell_length_b   9.58620384
_cell_length_c   9.86787300
_cell_angle_alpha   90.00000000
_cell_angle_beta   90.00000000
_cell_angle_gamma   120.00000057
_symmetry_Int_Tables_number   1
_chemical_formula_structural   Dy19Ho(Cd3Ru)2
_chemical_formula_sum   'Dy19 Ho1 Cd6 Ru2'
_cell_volume   785.32153504
_cell_formula_units_Z   1
loop_
 _symmetry_equiv_pos_site_id
 _symmetry_equiv_pos_as_xyz
  1  'x, y, z'
loop_
 _atom_site_type_symbol
 _atom_site_label
 _atom_site_symmetry_multiplicity
 _atom_site_fract_x
 _atom_site_fract_y
 _atom_site_fract_z
 _atom_site_occupancy
  Dy  Dy0  1  0.000000  0.000000  0.500000  1
  Dy  Dy1  1  0.209774  0.790226  0.440531  1
  Dy  Dy2  1  0.209774  0.419550  0.440531  1
  Dy  Dy3  1  0.580450  0.790226  0.440531  1
  Dy  Dy4  1  0.790226  0.209774  0.559469  1
  Dy  Dy5  1  0.790226  0.580450  0.559469  1
  Dy  Dy6  1  0.419550  0.209774  0.559469  1
  Dy  Dy7  1  0.790262  0.209738  0.940523  1
  Dy  Dy8  1  0.790262  0.580523  0.940523  1
  Dy  Dy9  1  0.419477  0.209738  0.940523  1
  Dy  Dy10  1  0.209738  0.790262  0.059477  1
  Dy  Dy11  1  0.209738  0.419477  0.059477  1
  Dy  Dy12  1  0.580523  0.790262  0.059477  1
  Dy  Dy13  1  0.541258  0.458742  0.249993  1
  Dy  Dy14  1  0.541258  0.082515  0.249993  1
  Dy  Dy15  1  0.917485  0.458742  0.249993  1
  Dy  Dy16  1  0.458742  0.541258  0.750007  1
  Dy  Dy17  1  0.458742  0.917485  0.750007  1
  Dy  Dy18  1  0.082515  0.541258  0.750007  1
  Ho  Ho19  1  0.000000  0.000000  0.000000  1
  Cd  Cd20  1  0.885442  0.114558  0.249932  1
  Cd  Cd21  1  0.885442  0.770887  0.249932  1
  Cd  Cd22  1  0.229113  0.114558  0.249932  1
  Cd  Cd23  1  0.114558  0.885442  0.750068  1
  Cd  Cd24  1  0.114558  0.229113  0.750068  1
  Cd  Cd25  1  0.770887  0.885442  0.750068  1
  Ru  Ru26  1  0.333333  0.666667  0.249988  1
  Ru  Ru27  1  0.666667  0.333333  0.750012  1
