# generated using pymatgen
data_DyEr3Ge4(BiO5)4
_symmetry_space_group_name_H-M   'P 1'
_cell_length_a   5.38452500
_cell_length_b   11.11020426
_cell_length_c   15.43574236
_cell_angle_alpha   89.97538667
_cell_angle_beta   90.00000000
_cell_angle_gamma   90.00000000
_symmetry_Int_Tables_number   1
_chemical_formula_structural   DyEr3Ge4(BiO5)4
_chemical_formula_sum   'Dy2 Er6 Ge8 Bi8 O40'
_cell_volume   923.41499356
_cell_formula_units_Z   2
loop_
 _symmetry_equiv_pos_site_id
 _symmetry_equiv_pos_as_xyz
  1  'x, y, z'
loop_
 _atom_site_type_symbol
 _atom_site_label
 _atom_site_symmetry_multiplicity
 _atom_site_fract_x
 _atom_site_fract_y
 _atom_site_fract_z
 _atom_site_occupancy
  Dy  Dy0  1  0.010604  0.858907  0.552915  1
  Dy  Dy1  1  0.510604  0.141093  0.947085  1
  Er  Er2  1  0.489971  0.358760  0.447177  1
  Er  Er3  1  0.489981  0.858248  0.052957  1
  Er  Er4  1  0.989981  0.141752  0.447043  1
  Er  Er5  1  0.509544  0.640808  0.552715  1
  Er  Er6  1  0.009544  0.359192  0.947285  1
  Er  Er7  1  0.989971  0.641240  0.052823  1
  Ge  Ge8  1  0.006319  0.403329  0.595468  1
  Ge  Ge9  1  0.993706  0.596325  0.404059  1
  Ge  Ge10  1  0.506319  0.596671  0.904532  1
  Ge  Ge11  1  0.493628  0.903433  0.403852  1
  Ge  Ge12  1  0.993628  0.096567  0.096148  1
  Ge  Ge13  1  0.006279  0.902331  0.903904  1
  Ge  Ge14  1  0.493706  0.403675  0.095941  1
  Ge  Ge15  1  0.506279  0.097669  0.596096  1
  Bi  Bi16  1  0.544139  0.647267  0.236731  1
  Bi  Bi17  1  0.044139  0.352733  0.263269  1
  Bi  Bi18  1  0.544142  0.147096  0.263541  1
  Bi  Bi19  1  0.456411  0.852006  0.737128  1
  Bi  Bi20  1  0.956411  0.147994  0.762872  1
  Bi  Bi21  1  0.455879  0.353742  0.763179  1
  Bi  Bi22  1  0.955879  0.646258  0.736821  1
  Bi  Bi23  1  0.044142  0.852904  0.236459  1
  O  O24  1  0.196018  0.975468  0.126056  1
  O  O25  1  0.247866  0.236146  0.849938  1
  O  O26  1  0.694553  0.525194  0.126113  1
  O  O27  1  0.750887  0.764792  0.149492  1
  O  O28  1  0.199728  0.960356  0.438057  1
  O  O29  1  0.934918  0.669267  0.301859  1
  O  O30  1  0.800596  0.042446  0.561005  1
  O  O31  1  0.935247  0.169041  0.198516  1
  O  O32  1  0.199115  0.459113  0.060990  1
  O  O33  1  0.750600  0.264978  0.350556  1
  O  O34  1  0.800910  0.540847  0.939234  1
  O  O35  1  0.064871  0.829595  0.801672  1
  O  O36  1  0.250887  0.235208  0.350508  1
  O  O37  1  0.854917  0.308470  0.520662  1
  O  O38  1  0.854220  0.807730  0.978856  1
  O  O39  1  0.434918  0.330733  0.198141  1
  O  O40  1  0.807401  0.024403  0.873334  1
  O  O41  1  0.747866  0.763854  0.650062  1
  O  O42  1  0.699728  0.039644  0.061943  1
  O  O43  1  0.641238  0.808021  0.479272  1
  O  O44  1  0.749822  0.265936  0.849979  1
  O  O45  1  0.696018  0.024532  0.373944  1
  O  O46  1  0.354220  0.192270  0.521144  1
  O  O47  1  0.249822  0.734064  0.650021  1
  O  O48  1  0.065352  0.331121  0.697858  1
  O  O49  1  0.300596  0.957554  0.938995  1
  O  O50  1  0.645635  0.308957  0.021229  1
  O  O51  1  0.141238  0.191979  0.020728  1
  O  O52  1  0.565352  0.668879  0.802142  1
  O  O53  1  0.305502  0.475162  0.874324  1
  O  O54  1  0.699115  0.540887  0.439010  1
  O  O55  1  0.307401  0.975597  0.626666  1
  O  O56  1  0.300910  0.459153  0.560766  1
  O  O57  1  0.194553  0.474806  0.373887  1
  O  O58  1  0.564871  0.170405  0.698328  1
  O  O59  1  0.805502  0.524838  0.625676  1
  O  O60  1  0.354917  0.691530  0.979338  1
  O  O61  1  0.145635  0.691043  0.478771  1
  O  O62  1  0.435247  0.830959  0.301484  1
  O  O63  1  0.250600  0.735022  0.149444  1
