# generated using pymatgen
data_Er4Al21Si3Ir2Pt7
_symmetry_space_group_name_H-M   'P 1'
_cell_length_a   7.49680570
_cell_length_b   7.48056351
_cell_length_c   13.02197232
_cell_angle_alpha   84.43785725
_cell_angle_beta   101.03771700
_cell_angle_gamma   120.00978935
_symmetry_Int_Tables_number   1
_chemical_formula_structural   Er4Al21Si3Ir2Pt7
_chemical_formula_sum   'Er4 Al21 Si3 Ir2 Pt7'
_cell_volume   620.67694883
_cell_formula_units_Z   1
loop_
 _symmetry_equiv_pos_site_id
 _symmetry_equiv_pos_as_xyz
  1  'x, y, z'
loop_
 _atom_site_type_symbol
 _atom_site_label
 _atom_site_symmetry_multiplicity
 _atom_site_fract_x
 _atom_site_fract_y
 _atom_site_fract_z
 _atom_site_occupancy
  Er  Er0  1  0.736662  0.997889  0.190440  1
  Er  Er1  1  0.259743  0.997532  0.811316  1
  Er  Er2  1  0.058813  0.672340  0.188092  1
  Er  Er3  1  0.940848  0.333499  0.811513  1
  Al  Al4  1  0.020791  0.330103  0.055870  1
  Al  Al5  1  0.399353  0.667696  0.818450  1
  Al  Al6  1  0.600888  0.332489  0.183482  1
  Al  Al7  1  0.882864  0.663616  0.668953  1
  Al  Al8  1  0.115947  0.336758  0.326724  1
  Al  Al9  1  0.609761  0.461979  0.816882  1
  Al  Al10  1  0.391035  0.543044  0.181289  1
  Al  Al11  1  0.232125  0.340690  0.672225  1
  Al  Al12  1  0.768447  0.658672  0.328585  1
  Al  Al13  1  0.853643  0.331694  0.559879  1
  Al  Al14  1  0.187724  0.000917  0.557785  1
  Al  Al15  1  0.814954  0.000285  0.442341  1
  Al  Al16  1  0.355030  0.000652  0.055984  1
  Al  Al17  1  0.647143  0.998483  0.945196  1
  Al  Al18  1  0.556057  0.994227  0.673762  1
  Al  Al19  1  0.444787  0.005529  0.327213  1
  Al  Al20  1  0.519106  0.667120  0.561405  1
  Al  Al21  1  0.479455  0.332510  0.438194  1
  Al  Al22  1  0.677254  0.668083  0.047096  1
  Al  Al23  1  0.315020  0.333466  0.951951  1
  Al  Al24  1  0.146947  0.666203  0.440569  1
  Si  Si25  1  0.805567  0.870436  0.819063  1
  Si  Si26  1  0.192352  0.129929  0.180104  1
  Si  Si27  1  0.986400  0.668271  0.946550  1
  Ir  Ir28  1  0.320339  0.670632  0.998479  1
  Ir  Ir29  1  0.000184  0.991646  0.998678  1
  Pt  Pt30  1  0.547285  0.325512  0.638530  1
  Pt  Pt31  1  0.454021  0.674416  0.361568  1
  Pt  Pt32  1  0.888247  0.005240  0.643788  1
  Pt  Pt33  1  0.113040  0.994291  0.356603  1
  Pt  Pt34  1  0.677719  0.334454  0.999979  1
  Pt  Pt35  1  0.205120  0.667962  0.640048  1
  Pt  Pt36  1  0.795326  0.331732  0.361416  1
