# generated using pymatgen
data_Ho7Er3Si5Bi
_symmetry_space_group_name_H-M   'P 1'
_cell_length_a   8.47897201
_cell_length_b   8.51969464
_cell_length_c   6.32378300
_cell_angle_alpha   90.00033319
_cell_angle_beta   90.00221354
_cell_angle_gamma   119.84731751
_symmetry_Int_Tables_number   1
_chemical_formula_structural   Ho7Er3Si5Bi
_chemical_formula_sum   'Ho7 Er3 Si5 Bi1'
_cell_volume   396.22414994
_cell_formula_units_Z   1
loop_
 _symmetry_equiv_pos_site_id
 _symmetry_equiv_pos_as_xyz
  1  'x, y, z'
loop_
 _atom_site_type_symbol
 _atom_site_label
 _atom_site_symmetry_multiplicity
 _atom_site_fract_x
 _atom_site_fract_y
 _atom_site_fract_z
 _atom_site_occupancy
  Ho  Ho0  1  0.984631  0.744984  0.749981  1
  Ho  Ho1  1  0.998474  0.243311  0.250027  1
  Ho  Ho2  1  0.755201  0.756662  0.250031  1
  Ho  Ho3  1  0.767838  0.000031  0.749979  1
  Ho  Ho4  1  0.239675  0.254983  0.749972  1
  Ho  Ho5  1  0.240127  0.000029  0.250010  1
  Ho  Ho6  1  0.330794  0.654075  0.005001  1
  Er  Er7  1  0.330790  0.654043  0.494994  1
  Er  Er8  1  0.676747  0.345966  0.004985  1
  Er  Er9  1  0.676733  0.345929  0.495019  1
  Si  Si10  1  0.393389  0.390869  0.250115  1
  Si  Si11  1  0.002299  0.609020  0.250091  1
  Si  Si12  1  0.998679  0.394521  0.749905  1
  Si  Si13  1  0.604267  0.605375  0.749899  1
  Si  Si14  1  0.607001  0.000090  0.250061  1
  Bi  Bi15  1  0.393355  0.000112  0.749929  1
