# generated using pymatgen
data_DyY7(OsC2)4
_symmetry_space_group_name_H-M   'P 1'
_cell_length_a   5.14958200
_cell_length_b   6.44935101
_cell_length_c   9.84392001
_cell_angle_alpha   89.99499776
_cell_angle_beta   90.00000000
_cell_angle_gamma   90.00000000
_symmetry_Int_Tables_number   1
_chemical_formula_structural   DyY7(OsC2)4
_chemical_formula_sum   'Dy1 Y7 Os4 C8'
_cell_volume   326.93097263
_cell_formula_units_Z   1
loop_
 _symmetry_equiv_pos_site_id
 _symmetry_equiv_pos_as_xyz
  1  'x, y, z'
loop_
 _atom_site_type_symbol
 _atom_site_label
 _atom_site_symmetry_multiplicity
 _atom_site_fract_x
 _atom_site_fract_y
 _atom_site_fract_z
 _atom_site_occupancy
  Dy  Dy0  1  0.250000  0.023867  0.279543  1
  Y  Y1  1  0.250000  0.686662  0.551890  1
  Y  Y2  1  0.750000  0.313868  0.447846  1
  Y  Y3  1  0.750000  0.813697  0.052019  1
  Y  Y4  1  0.250000  0.185915  0.948277  1
  Y  Y5  1  0.250000  0.524426  0.220428  1
  Y  Y6  1  0.750000  0.475616  0.779537  1
  Y  Y7  1  0.750000  0.975535  0.720381  1
  Os  Os8  1  0.250000  0.727348  0.864405  1
  Os  Os9  1  0.750000  0.272636  0.135667  1
  Os  Os10  1  0.750000  0.772920  0.364237  1
  Os  Os11  1  0.250000  0.227432  0.635596  1
  C  C12  1  0.250000  0.463759  0.758084  1
  C  C13  1  0.750000  0.536179  0.241984  1
  C  C14  1  0.750000  0.036354  0.258094  1
  C  C15  1  0.250000  0.963852  0.741993  1
  C  C16  1  0.250000  0.822601  0.051809  1
  C  C17  1  0.750000  0.177823  0.948474  1
  C  C18  1  0.750000  0.677854  0.551506  1
  C  C19  1  0.250000  0.321657  0.448230  1
