# generated using pymatgen
data_Dy3Y5(LuIn3)2
_symmetry_space_group_name_H-M   'P 1'
_cell_length_a   9.15865920
_cell_length_b   9.15865952
_cell_length_c   9.15678900
_cell_angle_alpha   96.39940198
_cell_angle_beta   96.39532297
_cell_angle_gamma   141.00483743
_symmetry_Int_Tables_number   1
_chemical_formula_structural   Dy3Y5(LuIn3)2
_chemical_formula_sum   'Dy3 Y5 Lu2 In6'
_cell_volume   455.59135177
_cell_formula_units_Z   1
loop_
 _symmetry_equiv_pos_site_id
 _symmetry_equiv_pos_as_xyz
  1  'x, y, z'
loop_
 _atom_site_type_symbol
 _atom_site_label
 _atom_site_symmetry_multiplicity
 _atom_site_fract_x
 _atom_site_fract_y
 _atom_site_fract_z
 _atom_site_occupancy
  Dy  Dy0  1  0.782582  0.917882  0.700464  1
  Dy  Dy1  1  0.418029  0.282563  0.700592  1
  Dy  Dy2  1  0.081911  0.782395  0.864307  1
  Y  Y3  1  0.717048  0.417859  0.134908  1
  Y  Y4  1  0.282588  0.582192  0.864781  1
  Y  Y5  1  0.582381  0.717276  0.299655  1
  Y  Y6  1  0.217315  0.082411  0.299726  1
  Y  Y7  1  0.917932  0.217079  0.135012  1
  Lu  Lu8  1  0.750068  0.250094  0.500165  1
  Lu  Lu9  1  0.250071  0.750097  0.500165  1
  In  In10  1  0.840031  0.660035  0.500066  1
  In  In11  1  0.339876  0.840154  0.180030  1
  In  In12  1  0.750117  0.750154  0.000047  1
  In  In13  1  0.660049  0.159867  0.819916  1
  In  In14  1  0.160109  0.340014  0.500123  1
  In  In15  1  0.249894  0.249930  0.000047  1
