# generated using pymatgen
data_Ca2Dy4Si24OsRu7
_symmetry_space_group_name_H-M   'P 1'
_cell_length_a   10.13557828
_cell_length_b   10.13557938
_cell_length_c   8.13942006
_cell_angle_alpha   90.00246998
_cell_angle_beta   90.00246353
_cell_angle_gamma   132.58133703
_symmetry_Int_Tables_number   1
_chemical_formula_structural   Ca2Dy4Si24OsRu7
_chemical_formula_sum   'Ca2 Dy4 Si24 Os1 Ru7'
_cell_volume   615.68094124
_cell_formula_units_Z   1
loop_
 _symmetry_equiv_pos_site_id
 _symmetry_equiv_pos_as_xyz
  1  'x, y, z'
loop_
 _atom_site_type_symbol
 _atom_site_label
 _atom_site_symmetry_multiplicity
 _atom_site_fract_x
 _atom_site_fract_y
 _atom_site_fract_z
 _atom_site_occupancy
  Ca  Ca0  1  0.499924  0.500076  0.500000  1
  Ca  Ca1  1  0.000066  0.999934  0.000000  1
  Dy  Dy2  1  0.501234  0.001266  0.749986  1
  Dy  Dy3  1  0.998734  0.498766  0.250014  1
  Dy  Dy4  1  0.497674  0.997813  0.249933  1
  Dy  Dy5  1  0.002187  0.502326  0.750067  1
  Si  Si6  1  0.797057  0.202943  0.500000  1
  Si  Si7  1  0.296397  0.703603  0.000000  1
  Si  Si8  1  0.203599  0.796401  0.500000  1
  Si  Si9  1  0.703504  0.296496  0.000000  1
  Si  Si10  1  0.332562  0.333442  0.832752  1
  Si  Si11  1  0.666558  0.667438  0.167248  1
  Si  Si12  1  0.167689  0.166434  0.332769  1
  Si  Si13  1  0.833566  0.832311  0.667231  1
  Si  Si14  1  0.122941  0.890130  0.729994  1
  Si  Si15  1  0.109870  0.877059  0.270006  1
  Si  Si16  1  0.609245  0.377250  0.229308  1
  Si  Si17  1  0.622750  0.390755  0.770692  1
  Si  Si18  1  0.876138  0.108374  0.269189  1
  Si  Si19  1  0.891626  0.123862  0.730811  1
  Si  Si20  1  0.390425  0.623198  0.770218  1
  Si  Si21  1  0.376802  0.609575  0.229782  1
  Si  Si22  1  0.345661  0.113761  0.506288  1
  Si  Si23  1  0.886239  0.654339  0.493712  1
  Si  Si24  1  0.385646  0.153173  0.006603  1
  Si  Si25  1  0.846827  0.614354  0.993397  1
  Si  Si26  1  0.652727  0.885075  0.492107  1
  Si  Si27  1  0.114925  0.347273  0.507893  1
  Si  Si28  1  0.614218  0.846502  0.993683  1
  Si  Si29  1  0.153498  0.385782  0.006317  1
  Os  Os30  1  0.671921  0.328079  0.500000  1
  Ru  Ru31  1  0.171460  0.828540  0.000000  1
  Ru  Ru32  1  0.328522  0.671478  0.500000  1
  Ru  Ru33  1  0.828142  0.171858  0.000000  1
  Ru  Ru34  1  0.126055  0.126190  0.625921  1
  Ru  Ru35  1  0.873810  0.873945  0.374079  1
  Ru  Ru36  1  0.373883  0.374084  0.126176  1
  Ru  Ru37  1  0.625916  0.626117  0.873824  1
