# generated using pymatgen
data_Y3Tm13(InRh)4
_symmetry_space_group_name_H-M   'P 1'
_cell_length_a   9.56321519
_cell_length_b   9.55867027
_cell_length_c   9.57272430
_cell_angle_alpha   59.99007672
_cell_angle_beta   59.93665860
_cell_angle_gamma   59.96295453
_symmetry_Int_Tables_number   1
_chemical_formula_structural   Y3Tm13(InRh)4
_chemical_formula_sum   'Y3 Tm13 In4 Rh4'
_cell_volume   618.24338879
_cell_formula_units_Z   1
loop_
 _symmetry_equiv_pos_site_id
 _symmetry_equiv_pos_as_xyz
  1  'x, y, z'
loop_
 _atom_site_type_symbol
 _atom_site_label
 _atom_site_symmetry_multiplicity
 _atom_site_fract_x
 _atom_site_fract_y
 _atom_site_fract_z
 _atom_site_occupancy
  Y  Y0  1  0.060811  0.060878  0.439147  1
  Y  Y1  1  0.437874  0.062819  0.437108  1
  Y  Y2  1  0.062875  0.437804  0.062179  1
  Tm  Tm3  1  0.049250  0.648674  0.651188  1
  Tm  Tm4  1  0.438764  0.438774  0.061216  1
  Tm  Tm5  1  0.648666  0.049244  0.650917  1
  Tm  Tm6  1  0.189547  0.810776  0.188031  1
  Tm  Tm7  1  0.188537  0.188528  0.811419  1
  Tm  Tm8  1  0.811214  0.811205  0.188819  1
  Tm  Tm9  1  0.440176  0.059998  0.059722  1
  Tm  Tm10  1  0.811054  0.189435  0.187748  1
  Tm  Tm11  1  0.060069  0.440195  0.440033  1
  Tm  Tm12  1  0.810703  0.189564  0.811663  1
  Tm  Tm13  1  0.189409  0.810985  0.811770  1
  Tm  Tm14  1  0.650522  0.650126  0.047108  1
  Tm  Tm15  1  0.650126  0.650515  0.652280  1
  In  In16  1  0.416233  0.417703  0.415733  1
  In  In17  1  0.748590  0.417778  0.417211  1
  In  In18  1  0.417709  0.748566  0.416514  1
  In  In19  1  0.417642  0.416241  0.750319  1
  Rh  Rh20  1  0.858669  0.856792  0.426855  1
  Rh  Rh21  1  0.856808  0.858604  0.857767  1
  Rh  Rh22  1  0.427219  0.857541  0.858600  1
  Rh  Rh23  1  0.857532  0.427254  0.856654  1
