# generated using pymatgen
data_Pr2TlHg(Ir2O7)2
_symmetry_space_group_name_H-M   'P 1'
_cell_length_a   7.33673036
_cell_length_b   7.33673105
_cell_length_c   7.27277933
_cell_angle_alpha   61.03098057
_cell_angle_beta   61.03097765
_cell_angle_gamma   61.87767403
_symmetry_Int_Tables_number   1
_chemical_formula_structural   Pr2TlHg(Ir2O7)2
_chemical_formula_sum   'Pr2 Tl1 Hg1 Ir4 O14'
_cell_volume   284.94613598
_cell_formula_units_Z   1
loop_
 _symmetry_equiv_pos_site_id
 _symmetry_equiv_pos_as_xyz
  1  'x, y, z'
loop_
 _atom_site_type_symbol
 _atom_site_label
 _atom_site_symmetry_multiplicity
 _atom_site_fract_x
 _atom_site_fract_y
 _atom_site_fract_z
 _atom_site_occupancy
  Pr  Pr0  1  0.625000  0.125000  0.125000  1
  Pr  Pr1  1  0.125000  0.625000  0.125000  1
  Tl  Tl2  1  0.125000  0.125000  0.625000  1
  Hg  Hg3  1  0.125000  0.125000  0.125000  1
  Ir  Ir4  1  0.625000  0.625000  0.625000  1
  Ir  Ir5  1  0.125000  0.625000  0.625000  1
  Ir  Ir6  1  0.625000  0.125000  0.625000  1
  Ir  Ir7  1  0.625000  0.625000  0.125000  1
  O  O8  1  0.950750  0.544405  0.549965  1
  O  O9  1  0.303264  0.303264  0.684419  1
  O  O10  1  0.946485  0.559631  0.946723  1
  O  O11  1  0.690369  0.303515  0.303277  1
  O  O12  1  0.540700  0.540700  0.957628  1
  O  O13  1  0.544405  0.950750  0.549965  1
  O  O14  1  0.559631  0.946485  0.946723  1
  O  O15  1  0.244170  0.244170  0.240749  1
  O  O16  1  0.299250  0.705595  0.700035  1
  O  O17  1  0.705595  0.299250  0.700035  1
  O  O18  1  0.005830  0.005830  0.009251  1
  O  O19  1  0.946736  0.946736  0.565581  1
  O  O20  1  0.303515  0.690369  0.303277  1
  O  O21  1  0.709300  0.709300  0.292372  1
