# generated using pymatgen
data_DyY5Ho2(Si3Rh)4
_symmetry_space_group_name_H-M   'P 1'
_cell_length_a   8.17862605
_cell_length_b   8.17870668
_cell_length_c   7.91395200
_cell_angle_alpha   90.00000000
_cell_angle_beta   90.00000000
_cell_angle_gamma   120.01232573
_symmetry_Int_Tables_number   1
_chemical_formula_structural   DyY5Ho2(Si3Rh)4
_chemical_formula_sum   'Dy1 Y5 Ho2 Si12 Rh4'
_cell_volume   458.38993616
_cell_formula_units_Z   1
loop_
 _symmetry_equiv_pos_site_id
 _symmetry_equiv_pos_as_xyz
  1  'x, y, z'
loop_
 _atom_site_type_symbol
 _atom_site_label
 _atom_site_symmetry_multiplicity
 _atom_site_fract_x
 _atom_site_fract_y
 _atom_site_fract_z
 _atom_site_occupancy
  Dy  Dy0  1  0.491032  0.508970  0.750000  1
  Y  Y1  1  0.999955  0.000036  0.250000  1
  Y  Y2  1  0.000032  0.999973  0.750000  1
  Y  Y3  1  0.508880  0.491111  0.250000  1
  Y  Y4  1  0.508895  0.017750  0.250000  1
  Y  Y5  1  0.982252  0.491106  0.250000  1
  Ho  Ho6  1  0.491107  0.982304  0.750000  1
  Ho  Ho7  1  0.017698  0.508898  0.750000  1
  Si  Si8  1  0.167032  0.832972  0.500787  1
  Si  Si9  1  0.166811  0.333924  0.500606  1
  Si  Si10  1  0.666080  0.833189  0.500607  1
  Si  Si11  1  0.832856  0.167141  0.501032  1
  Si  Si12  1  0.833010  0.665811  0.500977  1
  Si  Si13  1  0.334195  0.166990  0.500978  1
  Si  Si14  1  0.832856  0.167141  0.998968  1
  Si  Si15  1  0.833010  0.665811  0.999023  1
  Si  Si16  1  0.334195  0.166990  0.999022  1
  Si  Si17  1  0.167032  0.832972  0.999213  1
  Si  Si18  1  0.166811  0.333924  0.999394  1
  Si  Si19  1  0.666080  0.833189  0.999393  1
  Rh  Rh20  1  0.333224  0.666774  0.468759  1
  Rh  Rh21  1  0.666868  0.333125  0.536221  1
  Rh  Rh22  1  0.666868  0.333125  0.963779  1
  Rh  Rh23  1  0.333224  0.666774  0.031241  1
