# generated using pymatgen
data_NdZn2Ga4Cu7
_symmetry_space_group_name_H-M   'P 1'
_cell_length_a   8.38983377
_cell_length_b   8.38983205
_cell_length_c   8.38983200
_cell_angle_alpha   121.83404709
_cell_angle_beta   119.69065355
_cell_angle_gamma   88.69482764
_symmetry_Int_Tables_number   1
_chemical_formula_structural   NdZn2Ga4Cu7
_chemical_formula_sum   'Nd2 Zn4 Ga8 Cu14'
_cell_volume   412.47135062
_cell_formula_units_Z   2
loop_
 _symmetry_equiv_pos_site_id
 _symmetry_equiv_pos_as_xyz
  1  'x, y, z'
loop_
 _atom_site_type_symbol
 _atom_site_label
 _atom_site_symmetry_multiplicity
 _atom_site_fract_x
 _atom_site_fract_y
 _atom_site_fract_z
 _atom_site_occupancy
  Nd  Nd0  1  0.749995  0.749995  0.000000  1
  Nd  Nd1  1  0.250005  0.250005  0.000000  1
  Zn  Zn2  1  0.056825  0.189496  0.246322  1
  Zn  Zn3  1  0.943175  0.810504  0.753678  1
  Zn  Zn4  1  0.556820  0.310511  0.867330  1
  Zn  Zn5  1  0.443180  0.689489  0.132670  1
  Ga  Ga6  1  0.054005  0.546649  0.856883  1
  Ga  Ga7  1  0.689766  0.197122  0.143117  1
  Ga  Ga8  1  0.554030  0.697115  0.507365  1
  Ga  Ga9  1  0.189749  0.046665  0.492635  1
  Ga  Ga10  1  0.945995  0.453351  0.143117  1
  Ga  Ga11  1  0.310234  0.802878  0.856883  1
  Ga  Ga12  1  0.445970  0.302885  0.492635  1
  Ga  Ga13  1  0.810251  0.953335  0.507365  1
  Cu  Cu14  1  0.788262  0.070050  0.858313  1
  Cu  Cu15  1  0.211738  0.929950  0.141687  1
  Cu  Cu16  1  0.711738  0.570031  0.281772  1
  Cu  Cu17  1  0.288262  0.429969  0.718228  1
  Cu  Cu18  1  0.436597  0.944326  0.734091  1
  Cu  Cu19  1  0.210235  0.702506  0.265909  1
  Cu  Cu20  1  0.936524  0.202539  0.492303  1
  Cu  Cu21  1  0.710236  0.444222  0.507697  1
  Cu  Cu22  1  0.563403  0.055674  0.265909  1
  Cu  Cu23  1  0.789765  0.297494  0.734091  1
  Cu  Cu24  1  0.063476  0.797461  0.507697  1
  Cu  Cu25  1  0.289764  0.555778  0.492303  1
  Cu  Cu26  1  0.000000  0.500000  0.500000  1
  Cu  Cu27  1  0.500000  0.000000  0.500000  1
