# generated using pymatgen
data_TbY9GaBi5
_symmetry_space_group_name_H-M   'P 1'
_cell_length_a   9.10211205
_cell_length_b   9.10242025
_cell_length_c   6.43706800
_cell_angle_alpha   90.00362314
_cell_angle_beta   89.99955107
_cell_angle_gamma   119.76037349
_symmetry_Int_Tables_number   1
_chemical_formula_structural   TbY9GaBi5
_chemical_formula_sum   'Tb1 Y9 Ga1 Bi5'
_cell_volume   462.97910926
_cell_formula_units_Z   1
loop_
 _symmetry_equiv_pos_site_id
 _symmetry_equiv_pos_as_xyz
  1  'x, y, z'
loop_
 _atom_site_type_symbol
 _atom_site_label
 _atom_site_symmetry_multiplicity
 _atom_site_fract_x
 _atom_site_fract_y
 _atom_site_fract_z
 _atom_site_occupancy
  Tb  Tb0  1  0.657695  0.335693  0.503372  1
  Y  Y1  1  0.657747  0.335670  0.996643  1
  Y  Y2  1  0.335683  0.657711  0.996623  1
  Y  Y3  1  0.335690  0.657697  0.503385  1
  Y  Y4  1  0.749194  0.749188  0.750006  1
  Y  Y5  1  0.244945  0.014672  0.750006  1
  Y  Y6  1  0.014656  0.244937  0.750015  1
  Y  Y7  1  0.242529  0.242536  0.249975  1
  Y  Y8  1  0.758626  0.000672  0.249980  1
  Y  Y9  1  0.000625  0.758614  0.250004  1
  Ga  Ga10  1  0.392727  0.392784  0.750020  1
  Bi  Bi11  1  0.612047  0.002747  0.750028  1
  Bi  Bi12  1  0.002860  0.612103  0.750025  1
  Bi  Bi13  1  0.609227  0.609304  0.249957  1
  Bi  Bi14  1  0.390316  0.995299  0.249976  1
  Bi  Bi15  1  0.995435  0.390375  0.249985  1
