# generated using pymatgen
data_Dy8Ho12(Ir3Rh)3
_symmetry_space_group_name_H-M   'P 1'
_cell_length_a   10.84667600
_cell_length_b   10.84667600
_cell_length_c   6.36985700
_cell_angle_alpha   90.00000000
_cell_angle_beta   90.00000000
_cell_angle_gamma   90.00000000
_symmetry_Int_Tables_number   1
_chemical_formula_structural   Dy8Ho12(Ir3Rh)3
_chemical_formula_sum   'Dy8 Ho12 Ir9 Rh3'
_cell_volume   749.41609818
_cell_formula_units_Z   1
loop_
 _symmetry_equiv_pos_site_id
 _symmetry_equiv_pos_as_xyz
  1  'x, y, z'
loop_
 _atom_site_type_symbol
 _atom_site_label
 _atom_site_symmetry_multiplicity
 _atom_site_fract_x
 _atom_site_fract_y
 _atom_site_fract_z
 _atom_site_occupancy
  Dy  Dy0  1  0.290192  0.088560  0.378744  1
  Dy  Dy1  1  0.290109  0.911162  0.878624  1
  Dy  Dy2  1  0.709891  0.088838  0.878624  1
  Dy  Dy3  1  0.709808  0.911440  0.378744  1
  Dy  Dy4  1  0.588838  0.790109  0.878624  1
  Dy  Dy5  1  0.588560  0.209808  0.378744  1
  Dy  Dy6  1  0.411440  0.790192  0.378744  1
  Dy  Dy7  1  0.411162  0.209891  0.878624  1
  Ho  Ho8  1  0.208775  0.411705  0.620044  1
  Ho  Ho9  1  0.209066  0.588505  0.122345  1
  Ho  Ho10  1  0.790934  0.411495  0.122345  1
  Ho  Ho11  1  0.791225  0.588295  0.620044  1
  Ho  Ho12  1  0.911495  0.709066  0.122345  1
  Ho  Ho13  1  0.911705  0.291225  0.620044  1
  Ho  Ho14  1  0.088295  0.708775  0.620044  1
  Ho  Ho15  1  0.088505  0.290934  0.122345  1
  Ho  Ho16  1  0.000000  0.000000  0.500449  1
  Ho  Ho17  1  0.000000  0.000000  0.000287  1
  Ho  Ho18  1  0.500000  0.500000  0.000287  1
  Ho  Ho19  1  0.500000  0.500000  0.500449  1
  Ir  Ir20  1  0.846004  0.153463  0.249887  1
  Ir  Ir21  1  0.846152  0.846270  0.750023  1
  Ir  Ir22  1  0.153848  0.153730  0.750023  1
  Ir  Ir23  1  0.153996  0.846537  0.249887  1
  Ir  Ir24  1  0.653730  0.346152  0.750023  1
  Ir  Ir25  1  0.653463  0.653996  0.249887  1
  Ir  Ir26  1  0.346537  0.346004  0.249887  1
  Ir  Ir27  1  0.346270  0.653848  0.750023  1
  Ir  Ir28  1  0.000000  0.500000  0.377407  1
  Rh  Rh29  1  0.500000  0.000000  0.121926  1
  Rh  Rh30  1  0.500000  0.000000  0.622078  1
  Rh  Rh31  1  0.000000  0.500000  0.878452  1
