# generated using pymatgen
data_HoCdCuNi3
_symmetry_space_group_name_H-M   'P 1'
_cell_length_a   4.99154873
_cell_length_b   4.99154911
_cell_length_c   4.95439301
_cell_angle_alpha   59.75160236
_cell_angle_beta   59.75160282
_cell_angle_gamma   59.99999630
_symmetry_Int_Tables_number   1
_chemical_formula_structural   HoCdCuNi3
_chemical_formula_sum   'Ho1 Cd1 Cu1 Ni3'
_cell_volume   86.95714923
_cell_formula_units_Z   1
loop_
 _symmetry_equiv_pos_site_id
 _symmetry_equiv_pos_as_xyz
  1  'x, y, z'
loop_
 _atom_site_type_symbol
 _atom_site_label
 _atom_site_symmetry_multiplicity
 _atom_site_fract_x
 _atom_site_fract_y
 _atom_site_fract_z
 _atom_site_occupancy
  Ho  Ho0  1  0.249031  0.249031  0.252905  1
  Cd  Cd1  1  0.000465  0.000465  0.998605  1
  Cu  Cu2  1  0.625625  0.625625  0.123126  1
  Ni  Ni3  1  0.626161  0.122557  0.625121  1
  Ni  Ni4  1  0.122557  0.626161  0.625121  1
  Ni  Ni5  1  0.626161  0.626161  0.625121  1
