# generated using pymatgen
data_Pr20Pt3Rh13
_symmetry_space_group_name_H-M   'P 1'
_cell_length_a   7.64672475
_cell_length_b   7.78035095
_cell_length_c   15.17468101
_cell_angle_alpha   89.88919987
_cell_angle_beta   89.89116866
_cell_angle_gamma   89.96653763
_symmetry_Int_Tables_number   1
_chemical_formula_structural   Pr20Pt3Rh13
_chemical_formula_sum   'Pr20 Pt3 Rh13'
_cell_volume   902.80207118
_cell_formula_units_Z   1
loop_
 _symmetry_equiv_pos_site_id
 _symmetry_equiv_pos_as_xyz
  1  'x, y, z'
loop_
 _atom_site_type_symbol
 _atom_site_label
 _atom_site_symmetry_multiplicity
 _atom_site_fract_x
 _atom_site_fract_y
 _atom_site_fract_z
 _atom_site_occupancy
  Pr  Pr0  1  0.661602  0.171941  0.624713  1
  Pr  Pr1  1  0.158608  0.332290  0.873594  1
  Pr  Pr2  1  0.341348  0.833045  0.125958  1
  Pr  Pr3  1  0.840176  0.662596  0.376849  1
  Pr  Pr4  1  0.332701  0.831250  0.377624  1
  Pr  Pr5  1  0.834522  0.669895  0.123021  1
  Pr  Pr6  1  0.665556  0.170050  0.877461  1
  Pr  Pr7  1  0.161529  0.331776  0.621192  1
  Pr  Pr8  1  0.514676  0.681704  0.593437  1
  Pr  Pr9  1  0.010885  0.816983  0.903861  1
  Pr  Pr10  1  0.490050  0.316928  0.095386  1
  Pr  Pr11  1  0.987546  0.183675  0.406512  1
  Pr  Pr12  1  0.483809  0.318572  0.408199  1
  Pr  Pr13  1  0.984628  0.181318  0.092731  1
  Pr  Pr14  1  0.515679  0.681041  0.906281  1
  Pr  Pr15  1  0.015318  0.816442  0.592329  1
  Pr  Pr16  1  0.823324  0.514221  0.748353  1
  Pr  Pr17  1  0.324902  0.987252  0.748609  1
  Pr  Pr18  1  0.177012  0.486455  0.249423  1
  Pr  Pr19  1  0.677957  0.012129  0.251650  1
  Pt  Pt20  1  0.673709  0.968227  0.459633  1
  Pt  Pt21  1  0.173721  0.530275  0.040635  1
  Pt  Pt22  1  0.325350  0.030369  0.959089  1
  Rh  Rh23  1  0.823784  0.470540  0.541880  1
  Rh  Rh24  1  0.324231  0.028704  0.541620  1
  Rh  Rh25  1  0.825058  0.471946  0.958602  1
  Rh  Rh26  1  0.674650  0.972486  0.042085  1
  Rh  Rh27  1  0.174934  0.527928  0.457459  1
  Rh  Rh28  1  0.456153  0.398958  0.750924  1
  Rh  Rh29  1  0.957104  0.100222  0.749590  1
  Rh  Rh30  1  0.543381  0.600824  0.250966  1
  Rh  Rh31  1  0.043557  0.899174  0.249481  1
  Rh  Rh32  1  0.699648  0.856366  0.750696  1
  Rh  Rh33  1  0.200094  0.644632  0.749757  1
  Rh  Rh34  1  0.301738  0.144763  0.250518  1
  Rh  Rh35  1  0.801061  0.355023  0.249883  1
