# generated using pymatgen
data_U2Fe2Cu(Ni3B)6
_symmetry_space_group_name_H-M   'P 1'
_cell_length_a   7.48643384
_cell_length_b   7.55304092
_cell_length_c   7.55304100
_cell_angle_alpha   59.99999526
_cell_angle_beta   59.70524457
_cell_angle_gamma   59.70525040
_symmetry_Int_Tables_number   1
_chemical_formula_structural   U2Fe2Cu(Ni3B)6
_chemical_formula_sum   'U2 Fe2 Cu1 Ni18 B6'
_cell_volume   300.64525930
_cell_formula_units_Z   1
loop_
 _symmetry_equiv_pos_site_id
 _symmetry_equiv_pos_as_xyz
  1  'x, y, z'
loop_
 _atom_site_type_symbol
 _atom_site_label
 _atom_site_symmetry_multiplicity
 _atom_site_fract_x
 _atom_site_fract_y
 _atom_site_fract_z
 _atom_site_occupancy
  U  U0  1  0.233594  0.255469  0.255469  1
  U  U1  1  0.766406  0.744531  0.744531  1
  Fe  Fe2  1  0.875851  0.374716  0.374716  1
  Fe  Fe3  1  0.124149  0.625284  0.625284  1
  Cu  Cu4  1  0.000000  0.000000  0.000000  1
  Ni  Ni5  1  0.344804  0.996485  0.996485  1
  Ni  Ni6  1  0.655196  0.003515  0.003515  1
  Ni  Ni7  1  0.000000  0.337567  0.662433  1
  Ni  Ni8  1  0.000000  0.662433  0.337567  1
  Ni  Ni9  1  0.000000  0.337567  0.000000  1
  Ni  Ni10  1  0.655196  0.003515  0.337772  1
  Ni  Ni11  1  0.000000  0.662433  0.000000  1
  Ni  Ni12  1  0.344804  0.996485  0.662228  1
  Ni  Ni13  1  0.000000  0.000000  0.337567  1
  Ni  Ni14  1  0.000000  0.000000  0.662433  1
  Ni  Ni15  1  0.655196  0.337772  0.003515  1
  Ni  Ni16  1  0.344804  0.662228  0.996485  1
  Ni  Ni17  1  0.382985  0.388117  0.388117  1
  Ni  Ni18  1  0.617015  0.611883  0.611883  1
  Ni  Ni19  1  0.382985  0.388117  0.840783  1
  Ni  Ni20  1  0.382985  0.840783  0.388117  1
  Ni  Ni21  1  0.617015  0.611883  0.159217  1
  Ni  Ni22  1  0.617015  0.159217  0.611883  1
  B  B23  1  0.731273  0.267933  0.267933  1
  B  B24  1  0.268727  0.732067  0.732067  1
  B  B25  1  0.268727  0.732067  0.267138  1
  B  B26  1  0.731273  0.267933  0.732862  1
  B  B27  1  0.268727  0.267138  0.732067  1
  B  B28  1  0.731273  0.732862  0.267933  1
