# generated using pymatgen
data_Hf8Ta12Ga5Si11
_symmetry_space_group_name_H-M   'P 1'
_cell_length_a   6.69753708
_cell_length_b   6.83784596
_cell_length_c   13.23597190
_cell_angle_alpha   89.94015846
_cell_angle_beta   89.98289723
_cell_angle_gamma   90.00413414
_symmetry_Int_Tables_number   1
_chemical_formula_structural   Hf8Ta12Ga5Si11
_chemical_formula_sum   'Hf8 Ta12 Ga5 Si11'
_cell_volume   606.16383096
_cell_formula_units_Z   1
loop_
 _symmetry_equiv_pos_site_id
 _symmetry_equiv_pos_as_xyz
  1  'x, y, z'
loop_
 _atom_site_type_symbol
 _atom_site_label
 _atom_site_symmetry_multiplicity
 _atom_site_fract_x
 _atom_site_fract_y
 _atom_site_fract_z
 _atom_site_occupancy
  Hf  Hf0  1  0.489886  0.668617  0.595899  1
  Hf  Hf1  1  0.989259  0.827606  0.904309  1
  Hf  Hf2  1  0.511152  0.327540  0.095936  1
  Hf  Hf3  1  0.006681  0.174213  0.402220  1
  Hf  Hf4  1  0.503032  0.331573  0.403172  1
  Hf  Hf5  1  0.000249  0.170620  0.095704  1
  Hf  Hf6  1  0.499079  0.670648  0.904642  1
  Hf  Hf7  1  0.995792  0.827273  0.596405  1
  Ta  Ta8  1  0.662507  0.171958  0.628783  1
  Ta  Ta9  1  0.158352  0.329027  0.872631  1
  Ta  Ta10  1  0.341226  0.828046  0.127378  1
  Ta  Ta11  1  0.841369  0.671826  0.371755  1
  Ta  Ta12  1  0.333424  0.823240  0.373195  1
  Ta  Ta13  1  0.832274  0.672342  0.124169  1
  Ta  Ta14  1  0.669151  0.171860  0.875912  1
  Ta  Ta15  1  0.166285  0.333165  0.626469  1
  Ta  Ta16  1  0.836973  0.495088  0.752022  1
  Ta  Ta17  1  0.337506  0.006549  0.750938  1
  Ta  Ta18  1  0.163568  0.505010  0.251099  1
  Ta  Ta19  1  0.663423  0.994383  0.247726  1
  Ga  Ga20  1  0.675590  0.965506  0.462642  1
  Ga  Ga21  1  0.176977  0.534535  0.037405  1
  Ga  Ga22  1  0.323057  0.035296  0.962928  1
  Ga  Ga23  1  0.823461  0.465064  0.536839  1
  Ga  Ga24  1  0.325541  0.034861  0.536936  1
  Si  Si25  1  0.829580  0.464862  0.963092  1
  Si  Si26  1  0.670458  0.964512  0.037166  1
  Si  Si27  1  0.171580  0.535540  0.463520  1
  Si  Si28  1  0.460551  0.387208  0.751320  1
  Si  Si29  1  0.961539  0.111259  0.749001  1
  Si  Si30  1  0.540507  0.611136  0.250224  1
  Si  Si31  1  0.039710  0.888163  0.248601  1
  Si  Si32  1  0.701098  0.859258  0.749387  1
  Si  Si33  1  0.202630  0.642228  0.750445  1
  Si  Si34  1  0.298374  0.140205  0.250194  1
  Si  Si35  1  0.798160  0.359782  0.249938  1
