# generated using pymatgen
data_PrNdAl20(IrOs)2
_symmetry_space_group_name_H-M   'P 1'
_cell_length_a   6.88017702
_cell_length_b   6.88617006
_cell_length_c   9.21353100
_cell_angle_alpha   90.00000000
_cell_angle_beta   90.00000000
_cell_angle_gamma   96.97297631
_symmetry_Int_Tables_number   1
_chemical_formula_structural   PrNdAl20(IrOs)2
_chemical_formula_sum   'Pr1 Nd1 Al20 Ir2 Os2'
_cell_volume   433.29060160
_cell_formula_units_Z   1
loop_
 _symmetry_equiv_pos_site_id
 _symmetry_equiv_pos_as_xyz
  1  'x, y, z'
loop_
 _atom_site_type_symbol
 _atom_site_label
 _atom_site_symmetry_multiplicity
 _atom_site_fract_x
 _atom_site_fract_y
 _atom_site_fract_z
 _atom_site_occupancy
  Pr  Pr0  1  0.129443  0.875662  0.250000  1
  Nd  Nd1  1  0.870240  0.124479  0.750000  1
  Al  Al2  1  0.620199  0.376001  0.550144  1
  Al  Al3  1  0.379944  0.623864  0.449960  1
  Al  Al4  1  0.379944  0.623864  0.050040  1
  Al  Al5  1  0.620199  0.376001  0.949856  1
  Al  Al6  1  0.224460  0.222692  0.498987  1
  Al  Al7  1  0.775467  0.777396  0.501228  1
  Al  Al8  1  0.775467  0.777396  0.998772  1
  Al  Al9  1  0.224460  0.222692  0.001013  1
  Al  Al10  1  0.840360  0.158560  0.103292  1
  Al  Al11  1  0.159487  0.841602  0.896523  1
  Al  Al12  1  0.159487  0.841602  0.603477  1
  Al  Al13  1  0.840360  0.158560  0.396708  1
  Al  Al14  1  0.854863  0.589054  0.750000  1
  Al  Al15  1  0.145119  0.410709  0.250000  1
  Al  Al16  1  0.410474  0.143192  0.750000  1
  Al  Al17  1  0.589770  0.856805  0.250000  1
  Al  Al18  1  0.223380  0.482795  0.750000  1
  Al  Al19  1  0.776440  0.517008  0.250000  1
  Al  Al20  1  0.516218  0.779131  0.750000  1
  Al  Al21  1  0.484002  0.221061  0.250000  1
  Ir  Ir22  1  0.999985  0.499907  0.500114  1
  Ir  Ir23  1  0.999985  0.499907  0.999886  1
  Os  Os24  1  0.500123  0.000032  0.999849  1
  Os  Os25  1  0.500123  0.000032  0.500151  1
