# generated using pymatgen
data_Ti3Re(Tc3Sb)2
_symmetry_space_group_name_H-M   'P 1'
_cell_length_a   4.44013200
_cell_length_b   6.31473700
_cell_length_c   13.36965700
_cell_angle_alpha   90.00000000
_cell_angle_beta   90.00000000
_cell_angle_gamma   90.00000000
_symmetry_Int_Tables_number   1
_chemical_formula_structural   Ti3Re(Tc3Sb)2
_chemical_formula_sum   'Ti6 Re2 Tc12 Sb4'
_cell_volume   374.86199696
_cell_formula_units_Z   2
loop_
 _symmetry_equiv_pos_site_id
 _symmetry_equiv_pos_as_xyz
  1  'x, y, z'
loop_
 _atom_site_type_symbol
 _atom_site_label
 _atom_site_symmetry_multiplicity
 _atom_site_fract_x
 _atom_site_fract_y
 _atom_site_fract_z
 _atom_site_occupancy
  Ti  Ti0  1  0.000011  0.000000  0.000194  1
  Ti  Ti1  1  0.499889  0.500000  0.166701  1
  Ti  Ti2  1  0.999888  0.000000  0.333299  1
  Ti  Ti3  1  0.500012  0.500000  0.499806  1
  Ti  Ti4  1  0.000098  0.000000  0.666837  1
  Ti  Ti5  1  0.500096  0.500000  0.833164  1
  Re  Re6  1  0.000096  0.500000  0.667507  1
  Re  Re7  1  0.500095  0.000000  0.832493  1
  Tc  Tc8  1  0.500017  0.243057  0.989967  1
  Tc  Tc9  1  0.500017  0.756944  0.989967  1
  Tc  Tc10  1  0.999895  0.248186  0.165488  1
  Tc  Tc11  1  0.999895  0.751813  0.165488  1
  Tc  Tc12  1  0.499897  0.251813  0.334512  1
  Tc  Tc13  1  0.499897  0.748188  0.334512  1
  Tc  Tc14  1  0.000016  0.256945  0.510033  1
  Tc  Tc15  1  0.000016  0.743056  0.510033  1
  Tc  Tc16  1  0.500085  0.253998  0.671936  1
  Tc  Tc17  1  0.500085  0.746003  0.671936  1
  Tc  Tc18  1  0.000086  0.246001  0.828064  1
  Tc  Tc19  1  0.000086  0.753998  0.828064  1
  Sb  Sb20  1  0.000003  0.500000  0.000006  1
  Sb  Sb21  1  0.499909  0.000000  0.165935  1
  Sb  Sb22  1  0.999907  0.500000  0.334065  1
  Sb  Sb23  1  0.500004  0.000000  0.499994  1
