# generated using pymatgen
data_Hf7ZrFe2Co5Si14Os
_symmetry_space_group_name_H-M   'P 1'
_cell_length_a   9.49821140
_cell_length_b   9.49769728
_cell_length_c   9.51642922
_cell_angle_alpha   94.14381580
_cell_angle_beta   94.22258069
_cell_angle_gamma   148.67696657
_symmetry_Int_Tables_number   1
_chemical_formula_structural   Hf7ZrFe2Co5Si14Os
_chemical_formula_sum   'Hf7 Zr1 Fe2 Co5 Si14 Os1'
_cell_volume   429.69333614
_cell_formula_units_Z   1
loop_
 _symmetry_equiv_pos_site_id
 _symmetry_equiv_pos_as_xyz
  1  'x, y, z'
loop_
 _atom_site_type_symbol
 _atom_site_label
 _atom_site_symmetry_multiplicity
 _atom_site_fract_x
 _atom_site_fract_y
 _atom_site_fract_z
 _atom_site_occupancy
  Hf  Hf0  1  0.137554  0.137486  0.276128  1
  Hf  Hf1  1  0.862583  0.862160  0.724358  1
  Hf  Hf2  1  0.861311  0.137694  0.001488  1
  Hf  Hf3  1  0.139830  0.863537  0.001062  1
  Hf  Hf4  1  0.501096  0.304597  0.803507  1
  Hf  Hf5  1  0.503277  0.697642  0.196934  1
  Hf  Hf6  1  0.694781  0.499569  0.198317  1
  Zr  Zr7  1  0.304184  0.499015  0.805210  1
  Fe  Fe8  1  0.103570  0.602709  0.205252  1
  Fe  Fe9  1  0.099769  0.898206  0.499492  1
  Co  Co10  1  0.399767  0.600586  0.498814  1
  Co  Co11  1  0.600032  0.394978  0.497746  1
  Co  Co12  1  0.896737  0.102419  0.497357  1
  Co  Co13  1  0.894941  0.397223  0.793612  1
  Co  Co14  1  0.603146  0.104285  0.205103  1
  Si  Si15  1  0.497242  0.091199  0.585333  1
  Si  Si16  1  0.495054  0.903052  0.406199  1
  Si  Si17  1  0.919281  0.511423  0.408273  1
  Si  Si18  1  0.082071  0.488663  0.587635  1
  Si  Si19  1  0.751595  0.751133  0.001229  1
  Si  Si20  1  0.250149  0.248949  0.000956  1
  Si  Si21  1  0.289102  0.288397  0.579671  1
  Si  Si22  1  0.711143  0.710798  0.420144  1
  Si  Si23  1  0.723738  0.306603  0.006153  1
  Si  Si24  1  0.282459  0.700544  0.006243  1
  Si  Si25  1  0.001993  0.302704  0.299984  1
  Si  Si26  1  0.990652  0.696553  0.697404  1
  Si  Si27  1  0.707607  0.002880  0.697440  1
  Si  Si28  1  0.296137  0.995629  0.300591  1
  Os  Os29  1  0.399200  0.899372  0.798367  1
