# generated using pymatgen
data_Dy2Th(ZnNi)3
_symmetry_space_group_name_H-M   'P 1'
_cell_length_a   7.13931125
_cell_length_b   7.13931175
_cell_length_c   3.71954200
_cell_angle_alpha   90.00000000
_cell_angle_beta   90.00000000
_cell_angle_gamma   119.41432172
_symmetry_Int_Tables_number   1
_chemical_formula_structural   Dy2Th(ZnNi)3
_chemical_formula_sum   'Dy2 Th1 Zn3 Ni3'
_cell_volume   165.14510091
_cell_formula_units_Z   1
loop_
 _symmetry_equiv_pos_site_id
 _symmetry_equiv_pos_as_xyz
  1  'x, y, z'
loop_
 _atom_site_type_symbol
 _atom_site_label
 _atom_site_symmetry_multiplicity
 _atom_site_fract_x
 _atom_site_fract_y
 _atom_site_fract_z
 _atom_site_occupancy
  Dy  Dy0  1  0.588671  0.997798  0.500000  1
  Dy  Dy1  1  0.997798  0.588671  0.500000  1
  Th  Th2  1  0.417170  0.417170  0.500000  1
  Zn  Zn3  1  0.770583  0.770583  0.000000  1
  Zn  Zn4  1  0.243361  0.990739  0.000000  1
  Zn  Zn5  1  0.990739  0.243361  0.000000  1
  Ni  Ni6  1  0.654823  0.330856  0.000000  1
  Ni  Ni7  1  0.330856  0.654823  0.000000  1
  Ni  Ni8  1  0.005999  0.005999  0.500000  1
