# generated using pymatgen
data_TbDy5(Ga2Si)4
_symmetry_space_group_name_H-M   'P 1'
_cell_length_a   4.07777271
_cell_length_b   4.16420186
_cell_length_c   21.64081182
_cell_angle_alpha   84.49218811
_cell_angle_beta   84.62184587
_cell_angle_gamma   90.03927737
_symmetry_Int_Tables_number   1
_chemical_formula_structural   TbDy5(Ga2Si)4
_chemical_formula_sum   'Tb1 Dy5 Ga8 Si4'
_cell_volume   364.15124478
_cell_formula_units_Z   1
loop_
 _symmetry_equiv_pos_site_id
 _symmetry_equiv_pos_as_xyz
  1  'x, y, z'
loop_
 _atom_site_type_symbol
 _atom_site_label
 _atom_site_symmetry_multiplicity
 _atom_site_fract_x
 _atom_site_fract_y
 _atom_site_fract_z
 _atom_site_occupancy
  Tb  Tb0  1  0.041352  0.291419  0.917117  1
  Dy  Dy1  1  0.957730  0.707705  0.084705  1
  Dy  Dy2  1  0.290304  0.040257  0.419515  1
  Dy  Dy3  1  0.623474  0.373421  0.753129  1
  Dy  Dy4  1  0.377130  0.627223  0.245570  1
  Dy  Dy5  1  0.709800  0.959896  0.580189  1
  Ga  Ga6  1  0.819943  0.570081  0.359901  1
  Ga  Ga7  1  0.152866  0.902954  0.694085  1
  Ga  Ga8  1  0.431380  0.181294  0.137398  1
  Ga  Ga9  1  0.764381  0.514328  0.471259  1
  Ga  Ga10  1  0.097278  0.847240  0.805448  1
  Ga  Ga11  1  0.847757  0.097732  0.304558  1
  Ga  Ga12  1  0.180682  0.430622  0.638702  1
  Ga  Ga13  1  0.513058  0.763096  0.973792  1
  Si  Si14  1  0.902521  0.152487  0.195110  1
  Si  Si15  1  0.235521  0.485548  0.528919  1
  Si  Si16  1  0.568461  0.818397  0.863142  1
  Si  Si17  1  0.486361  0.236298  0.027459  1
