# generated using pymatgen
data_BaNi5B6Ir7
_symmetry_space_group_name_H-M   'P 1'
_cell_length_a   6.46605042
_cell_length_b   6.46605146
_cell_length_c   6.39486305
_cell_angle_alpha   104.49984243
_cell_angle_beta   104.49984567
_cell_angle_gamma   104.39275719
_symmetry_Int_Tables_number   1
_chemical_formula_structural   BaNi5B6Ir7
_chemical_formula_sum   'Ba1 Ni5 B6 Ir7'
_cell_volume   236.38597422
_cell_formula_units_Z   1
loop_
 _symmetry_equiv_pos_site_id
 _symmetry_equiv_pos_as_xyz
  1  'x, y, z'
loop_
 _atom_site_type_symbol
 _atom_site_label
 _atom_site_symmetry_multiplicity
 _atom_site_fract_x
 _atom_site_fract_y
 _atom_site_fract_z
 _atom_site_occupancy
  Ba  Ba0  1  0.989965  0.989965  0.988268  1
  Ni  Ni1  1  0.825946  0.536875  0.541834  1
  Ni  Ni2  1  0.536875  0.825946  0.541834  1
  Ni  Ni3  1  0.531372  0.531372  0.824880  1
  Ni  Ni4  1  0.493074  0.132168  0.865456  1
  Ni  Ni5  1  0.132168  0.493074  0.865456  1
  B  B6  1  0.225236  0.659964  0.220585  1
  B  B7  1  0.659964  0.225236  0.220585  1
  B  B8  1  0.766164  0.766164  0.355030  1
  B  B9  1  0.233296  0.233296  0.665797  1
  B  B10  1  0.769178  0.351556  0.764346  1
  B  B11  1  0.351556  0.769178  0.764346  1
  Ir  Ir12  1  0.861785  0.487561  0.120713  1
  Ir  Ir13  1  0.487561  0.861785  0.120713  1
  Ir  Ir14  1  0.464601  0.464601  0.203106  1
  Ir  Ir15  1  0.201404  0.465597  0.467693  1
  Ir  Ir16  1  0.465597  0.201404  0.467693  1
  Ir  Ir17  1  0.868534  0.135725  0.500835  1
  Ir  Ir18  1  0.135725  0.868534  0.500835  1
