# generated using pymatgen
data_Dy2Y8(SnBi)3
_symmetry_space_group_name_H-M   'P 1'
_cell_length_a   9.07142903
_cell_length_b   9.10328217
_cell_length_c   6.49458001
_cell_angle_alpha   89.99978310
_cell_angle_beta   89.99363454
_cell_angle_gamma   119.85847183
_symmetry_Int_Tables_number   1
_chemical_formula_structural   Dy2Y8(SnBi)3
_chemical_formula_sum   'Dy2 Y8 Sn3 Bi3'
_cell_volume   465.12856087
_cell_formula_units_Z   1
loop_
 _symmetry_equiv_pos_site_id
 _symmetry_equiv_pos_as_xyz
  1  'x, y, z'
loop_
 _atom_site_type_symbol
 _atom_site_label
 _atom_site_symmetry_multiplicity
 _atom_site_fract_x
 _atom_site_fract_y
 _atom_site_fract_z
 _atom_site_occupancy
  Dy  Dy0  1  0.325622  0.659234  0.498519  1
  Dy  Dy1  1  0.671895  0.338019  0.498546  1
  Y  Y2  1  0.759164  0.753533  0.250026  1
  Y  Y3  1  0.005170  0.245902  0.250012  1
  Y  Y4  1  0.764793  0.005776  0.749992  1
  Y  Y5  1  0.236374  0.999692  0.250003  1
  Y  Y6  1  0.000076  0.755738  0.750001  1
  Y  Y7  1  0.325797  0.659392  0.001458  1
  Y  Y8  1  0.237971  0.243453  0.749985  1
  Y  Y9  1  0.671790  0.337961  0.001439  1
  Sn  Sn10  1  0.997685  0.392701  0.749808  1
  Sn  Sn11  1  0.393014  0.390158  0.250167  1
  Sn  Sn12  1  0.001229  0.608331  0.250205  1
  Bi  Bi13  1  0.608623  0.611175  0.749843  1
  Bi  Bi14  1  0.392003  0.000424  0.749839  1
  Bi  Bi15  1  0.608794  0.998512  0.250158  1
