# generated using pymatgen
data_DyEr4P12Ir16Ru3
_symmetry_space_group_name_H-M   'P 1'
_cell_length_a   12.65023900
_cell_length_b   12.65023896
_cell_length_c   3.97648400
_cell_angle_alpha   90.00000000
_cell_angle_beta   90.00000000
_cell_angle_gamma   120.00000273
_symmetry_Int_Tables_number   1
_chemical_formula_structural   DyEr4P12Ir16Ru3
_chemical_formula_sum   'Dy1 Er4 P12 Ir16 Ru3'
_cell_volume   551.09607638
_cell_formula_units_Z   1
loop_
 _symmetry_equiv_pos_site_id
 _symmetry_equiv_pos_as_xyz
  1  'x, y, z'
loop_
 _atom_site_type_symbol
 _atom_site_label
 _atom_site_symmetry_multiplicity
 _atom_site_fract_x
 _atom_site_fract_y
 _atom_site_fract_z
 _atom_site_occupancy
  Dy  Dy0  1  0.333333  0.666667  0.000000  1
  Er  Er1  1  0.666667  0.333333  0.000000  1
  Er  Er2  1  0.817179  0.999997  0.500000  1
  Er  Er3  1  0.182818  0.182821  0.500000  1
  Er  Er4  1  0.000003  0.817182  0.500000  1
  P  P5  1  0.642697  0.999932  0.000000  1
  P  P6  1  0.357234  0.357303  0.000000  1
  P  P7  1  0.000068  0.642766  0.000000  1
  P  P8  1  0.689643  0.519572  0.500000  1
  P  P9  1  0.829929  0.310357  0.500000  1
  P  P10  1  0.310366  0.830287  0.500000  1
  P  P11  1  0.519921  0.689634  0.500000  1
  P  P12  1  0.180933  0.000045  0.000000  1
  P  P13  1  0.819112  0.819067  0.000000  1
  P  P14  1  0.999955  0.180888  0.000000  1
  P  P15  1  0.480428  0.170071  0.500000  1
  P  P16  1  0.169713  0.480079  0.500000  1
  Ir  Ir17  1  0.623199  0.805171  0.000000  1
  Ir  Ir18  1  0.181971  0.376801  0.000000  1
  Ir  Ir19  1  0.377092  0.182150  0.000000  1
  Ir  Ir20  1  0.194829  0.818029  0.000000  1
  Ir  Ir21  1  0.805058  0.622908  0.000000  1
  Ir  Ir22  1  0.867810  0.505393  0.500000  1
  Ir  Ir23  1  0.494607  0.362416  0.500000  1
  Ir  Ir24  1  0.637584  0.132190  0.500000  1
  Ir  Ir25  1  0.131473  0.637525  0.500000  1
  Ir  Ir26  1  0.362475  0.493948  0.500000  1
  Ir  Ir27  1  0.506052  0.868527  0.500000  1
  Ir  Ir28  1  0.000000  0.000000  0.000000  1
  Ir  Ir29  1  0.460940  0.000039  0.000000  1
  Ir  Ir30  1  0.539100  0.539060  0.000000  1
  Ir  Ir31  1  0.999961  0.460900  0.000000  1
  Ir  Ir32  1  0.817850  0.194942  0.000000  1
  Ru  Ru33  1  0.715477  0.715369  0.500000  1
  Ru  Ru34  1  0.999893  0.284523  0.500000  1
  Ru  Ru35  1  0.284631  0.000107  0.500000  1
