# generated using pymatgen
data_Nd2Fe7Co5P7
_symmetry_space_group_name_H-M   'P 1'
_cell_length_a   9.06012503
_cell_length_b   9.05828749
_cell_length_c   3.64815500
_cell_angle_alpha   90.00000000
_cell_angle_beta   90.00000000
_cell_angle_gamma   119.90130844
_symmetry_Int_Tables_number   1
_chemical_formula_structural   Nd2Fe7Co5P7
_chemical_formula_sum   'Nd2 Fe7 Co5 P7'
_cell_volume   259.54654039
_cell_formula_units_Z   1
loop_
 _symmetry_equiv_pos_site_id
 _symmetry_equiv_pos_as_xyz
  1  'x, y, z'
loop_
 _atom_site_type_symbol
 _atom_site_label
 _atom_site_symmetry_multiplicity
 _atom_site_fract_x
 _atom_site_fract_y
 _atom_site_fract_z
 _atom_site_occupancy
  Nd  Nd0  1  0.333462  0.666367  0.000000  1
  Nd  Nd1  1  0.666278  0.333258  0.500000  1
  Fe  Fe2  1  0.151563  0.879359  0.000000  1
  Fe  Fe3  1  0.119877  0.271390  0.000000  1
  Fe  Fe4  1  0.730995  0.850888  0.000000  1
  Fe  Fe5  1  0.566989  0.616322  0.500000  1
  Fe  Fe6  1  0.228903  0.126338  0.500000  1
  Fe  Fe7  1  0.873248  0.103674  0.500000  1
  Fe  Fe8  1  0.899044  0.774113  0.500000  1
  Co  Co9  1  0.429122  0.369749  0.000000  1
  Co  Co10  1  0.627532  0.058212  0.000000  1
  Co  Co11  1  0.940271  0.569032  0.000000  1
  Co  Co12  1  0.384569  0.950249  0.500000  1
  Co  Co13  1  0.048821  0.433289  0.500000  1
  P  P14  1  0.401974  0.106215  0.000000  1
  P  P15  1  0.892629  0.295124  0.000000  1
  P  P16  1  0.702025  0.597504  0.000000  1
  P  P17  1  0.107098  0.711311  0.500000  1
  P  P18  1  0.290204  0.397548  0.500000  1
  P  P19  1  0.604034  0.889393  0.500000  1
  P  P20  1  0.001358  0.000662  0.000000  1
