# generated using pymatgen
data_Lu13Th3(CdIr)4
_symmetry_space_group_name_H-M   'P 1'
_cell_length_a   9.56522050
_cell_length_b   9.57368607
_cell_length_c   9.57368500
_cell_angle_alpha   60.00000023
_cell_angle_beta   59.97071914
_cell_angle_gamma   59.97071876
_symmetry_Int_Tables_number   1
_chemical_formula_structural   Lu13Th3(CdIr)4
_chemical_formula_sum   'Lu13 Th3 Cd4 Ir4'
_cell_volume   619.64928339
_cell_formula_units_Z   1
loop_
 _symmetry_equiv_pos_site_id
 _symmetry_equiv_pos_as_xyz
  1  'x, y, z'
loop_
 _atom_site_type_symbol
 _atom_site_label
 _atom_site_symmetry_multiplicity
 _atom_site_fract_x
 _atom_site_fract_y
 _atom_site_fract_z
 _atom_site_occupancy
  Lu  Lu0  1  0.946661  0.351113  0.351113  1
  Lu  Lu1  1  0.811760  0.188850  0.188850  1
  Lu  Lu2  1  0.185274  0.813879  0.813879  1
  Lu  Lu3  1  0.185274  0.813879  0.186968  1
  Lu  Lu4  1  0.811760  0.188850  0.810541  1
  Lu  Lu5  1  0.185274  0.186968  0.813879  1
  Lu  Lu6  1  0.811760  0.810541  0.188850  1
  Lu  Lu7  1  0.936238  0.563989  0.563989  1
  Lu  Lu8  1  0.567986  0.932776  0.932776  1
  Lu  Lu9  1  0.567986  0.932776  0.566462  1
  Lu  Lu10  1  0.936238  0.563989  0.935784  1
  Lu  Lu11  1  0.567986  0.566462  0.932776  1
  Lu  Lu12  1  0.936238  0.935784  0.563989  1
  Th  Th13  1  0.349027  0.350961  0.350961  1
  Th  Th14  1  0.349027  0.350961  0.949050  1
  Th  Th15  1  0.349027  0.949050  0.350961  1
  Cd  Cd16  1  0.586251  0.581206  0.581206  1
  Cd  Cd17  1  0.586251  0.581206  0.251337  1
  Cd  Cd18  1  0.586251  0.251337  0.581206  1
  Cd  Cd19  1  0.247645  0.584118  0.584118  1
  Ir  Ir20  1  0.140254  0.142268  0.142268  1
  Ir  Ir21  1  0.140254  0.142268  0.575209  1
  Ir  Ir22  1  0.140254  0.575209  0.142268  1
  Ir  Ir23  1  0.575323  0.141559  0.141559  1
