# generated using pymatgen
data_Ti7Nb3CuSn7
_symmetry_space_group_name_H-M   'P 1'
_cell_length_a   5.63778606
_cell_length_b   8.31951524
_cell_length_c   8.32147507
_cell_angle_alpha   119.99611009
_cell_angle_beta   90.01237822
_cell_angle_gamma   89.98362605
_symmetry_Int_Tables_number   1
_chemical_formula_structural   Ti7Nb3CuSn7
_chemical_formula_sum   'Ti7 Nb3 Cu1 Sn7'
_cell_volume   338.02946990
_cell_formula_units_Z   1
loop_
 _symmetry_equiv_pos_site_id
 _symmetry_equiv_pos_as_xyz
  1  'x, y, z'
loop_
 _atom_site_type_symbol
 _atom_site_label
 _atom_site_symmetry_multiplicity
 _atom_site_fract_x
 _atom_site_fract_y
 _atom_site_fract_z
 _atom_site_occupancy
  Ti  Ti0  1  0.999966  0.333335  0.666676  1
  Ti  Ti1  1  0.735757  0.278399  0.002103  1
  Ti  Ti2  1  0.735802  0.723771  0.721663  1
  Ti  Ti3  1  0.735793  0.997947  0.276260  1
  Ti  Ti4  1  0.264292  0.723608  0.002086  1
  Ti  Ti5  1  0.264297  0.278429  0.276400  1
  Ti  Ti6  1  0.264275  0.997873  0.721542  1
  Nb  Nb7  1  0.500030  0.333356  0.666678  1
  Nb  Nb8  1  0.500003  0.666674  0.333353  1
  Nb  Nb9  1  0.999988  0.666661  0.333336  1
  Cu  Cu10  1  0.500109  0.999961  0.999919  1
  Sn  Sn11  1  0.755101  0.616413  0.997582  1
  Sn  Sn12  1  0.755086  0.381243  0.383583  1
  Sn  Sn13  1  0.755080  0.002444  0.618902  1
  Sn  Sn14  1  0.244892  0.381158  0.997565  1
  Sn  Sn15  1  0.244912  0.616486  0.618907  1
  Sn  Sn16  1  0.244877  0.002334  0.383558  1
  Sn  Sn17  1  0.999739  0.999909  0.999887  1
