# generated using pymatgen
data_Ho12Co4HgRu
_symmetry_space_group_name_H-M   'P 1'
_cell_length_a   8.25733997
_cell_length_b   8.25691444
_cell_length_c   8.25734021
_cell_angle_alpha   111.21225382
_cell_angle_beta   110.47855301
_cell_angle_gamma   106.75935758
_symmetry_Int_Tables_number   1
_chemical_formula_structural   Ho12Co4HgRu
_chemical_formula_sum   'Ho12 Co4 Hg1 Ru1'
_cell_volume   432.63367671
_cell_formula_units_Z   1
loop_
 _symmetry_equiv_pos_site_id
 _symmetry_equiv_pos_as_xyz
  1  'x, y, z'
loop_
 _atom_site_type_symbol
 _atom_site_label
 _atom_site_symmetry_multiplicity
 _atom_site_fract_x
 _atom_site_fract_y
 _atom_site_fract_z
 _atom_site_occupancy
  Ho  Ho0  1  0.314753  0.620453  0.305699  1
  Ho  Ho1  1  0.685247  0.379547  0.694301  1
  Ho  Ho2  1  0.314716  0.009024  0.694309  1
  Ho  Ho3  1  0.685284  0.990976  0.305691  1
  Ho  Ho4  1  0.182847  0.283856  0.466653  1
  Ho  Ho5  1  0.817153  0.716144  0.533347  1
  Ho  Ho6  1  0.182797  0.716144  0.898991  1
  Ho  Ho7  1  0.817203  0.283856  0.101009  1
  Ho  Ho8  1  0.412796  0.219069  0.193731  1
  Ho  Ho9  1  0.587204  0.780931  0.806269  1
  Ho  Ho10  1  0.025337  0.219069  0.806273  1
  Ho  Ho11  1  0.974663  0.780931  0.193727  1
  Co  Co12  1  0.112303  0.612281  0.499977  1
  Co  Co13  1  0.887697  0.387719  0.500023  1
  Co  Co14  1  0.374754  0.000000  0.374754  1
  Co  Co15  1  0.625246  0.000000  0.625246  1
  Hg  Hg16  1  0.500000  0.500000  0.000000  1
  Ru  Ru17  1  0.000000  0.000000  0.000000  1
