# generated using pymatgen
data_HoEr5Co6(PRu)12
_symmetry_space_group_name_H-M   'P 1'
_cell_length_a   3.87339300
_cell_length_b   10.76671100
_cell_length_c   12.55264200
_cell_angle_alpha   90.00000000
_cell_angle_beta   90.00000000
_cell_angle_gamma   90.00000000
_symmetry_Int_Tables_number   1
_chemical_formula_structural   HoEr5Co6(PRu)12
_chemical_formula_sum   'Ho1 Er5 Co6 P12 Ru12'
_cell_volume   523.49165409
_cell_formula_units_Z   1
loop_
 _symmetry_equiv_pos_site_id
 _symmetry_equiv_pos_as_xyz
  1  'x, y, z'
loop_
 _atom_site_type_symbol
 _atom_site_label
 _atom_site_symmetry_multiplicity
 _atom_site_fract_x
 _atom_site_fract_y
 _atom_site_fract_z
 _atom_site_occupancy
  Ho  Ho0  1  0.000000  0.500000  0.528153  1
  Er  Er1  1  0.500000  0.000000  0.470683  1
  Er  Er2  1  0.500000  0.823247  0.203765  1
  Er  Er3  1  0.500000  0.176753  0.203765  1
  Er  Er4  1  0.000000  0.680160  0.797621  1
  Er  Er5  1  0.000000  0.319840  0.797621  1
  Co  Co6  1  0.000000  0.500000  0.985485  1
  Co  Co7  1  0.500000  0.000000  0.015704  1
  Co  Co8  1  0.000000  0.161357  0.013293  1
  Co  Co9  1  0.000000  0.838643  0.013293  1
  Co  Co10  1  0.500000  0.500000  0.700357  1
  Co  Co11  1  0.000000  0.000000  0.299133  1
  P  P12  1  0.500000  0.314315  0.618114  1
  P  P13  1  0.500000  0.685685  0.618114  1
  P  P14  1  0.000000  0.186083  0.382035  1
  P  P15  1  0.000000  0.813917  0.382035  1
  P  P16  1  0.500000  0.500000  0.878348  1
  P  P17  1  0.000000  0.000000  0.120850  1
  P  P18  1  0.500000  0.852301  0.895857  1
  P  P19  1  0.500000  0.147699  0.895857  1
  P  P20  1  0.000000  0.656204  0.101153  1
  P  P21  1  0.000000  0.343796  0.101153  1
  P  P22  1  0.500000  0.500000  0.339116  1
  P  P23  1  0.000000  0.000000  0.660583  1
  Ru  Ru24  1  0.500000  0.297676  0.428284  1
  Ru  Ru25  1  0.500000  0.702324  0.428284  1
  Ru  Ru26  1  0.000000  0.201656  0.571320  1
  Ru  Ru27  1  0.000000  0.798344  0.571320  1
  Ru  Ru28  1  0.500000  0.876300  0.714743  1
  Ru  Ru29  1  0.500000  0.123700  0.714743  1
  Ru  Ru30  1  0.000000  0.625190  0.282810  1
  Ru  Ru31  1  0.000000  0.374810  0.282810  1
  Ru  Ru32  1  0.500000  0.327895  0.989972  1
  Ru  Ru33  1  0.500000  0.672105  0.989972  1
  Ru  Ru34  1  0.500000  0.500000  0.152733  1
  Ru  Ru35  1  0.000000  0.000000  0.850919  1
