# generated using pymatgen
data_DyLu3Hf4F28
_symmetry_space_group_name_H-M   'P 1'
_cell_length_a   5.58289095
_cell_length_b   8.86866306
_cell_length_c   12.01535689
_cell_angle_alpha   62.71881948
_cell_angle_beta   89.95256474
_cell_angle_gamma   90.01035014
_symmetry_Int_Tables_number   1
_chemical_formula_structural   DyLu3Hf4F28
_chemical_formula_sum   'Dy1 Lu3 Hf4 F28'
_cell_volume   528.73988094
_cell_formula_units_Z   1
loop_
 _symmetry_equiv_pos_site_id
 _symmetry_equiv_pos_as_xyz
  1  'x, y, z'
loop_
 _atom_site_type_symbol
 _atom_site_label
 _atom_site_symmetry_multiplicity
 _atom_site_fract_x
 _atom_site_fract_y
 _atom_site_fract_z
 _atom_site_occupancy
  Dy  Dy0  1  0.256080  0.816339  0.264435  1
  Lu  Lu1  1  0.744247  0.184035  0.735837  1
  Lu  Lu2  1  0.757244  0.186503  0.235568  1
  Lu  Lu3  1  0.244437  0.816599  0.764359  1
  Hf  Hf4  1  0.756062  0.725877  0.040729  1
  Hf  Hf5  1  0.241758  0.275886  0.955719  1
  Hf  Hf6  1  0.257757  0.271205  0.458019  1
  Hf  Hf7  1  0.743392  0.725916  0.545606  1
  F  F8  1  0.949742  0.707236  0.416348  1
  F  F9  1  0.047210  0.290999  0.585446  1
  F  F10  1  0.452217  0.292793  0.084221  1
  F  F11  1  0.547201  0.706923  0.912723  1
  F  F12  1  0.468036  0.728462  0.139502  1
  F  F13  1  0.525657  0.269554  0.854675  1
  F  F14  1  0.972152  0.270257  0.356549  1
  F  F15  1  0.028920  0.730544  0.645628  1
  F  F16  1  0.950819  0.747151  0.174132  1
  F  F17  1  0.038413  0.251759  0.825119  1
  F  F18  1  0.460033  0.249481  0.326081  1
  F  F19  1  0.541035  0.748588  0.676621  1
  F  F20  1  0.778818  0.473328  0.140640  1
  F  F21  1  0.220341  0.527980  0.857495  1
  F  F22  1  0.282203  0.522925  0.359712  1
  F  F23  1  0.723448  0.472935  0.642517  1
  F  F24  1  0.938632  0.273607  0.049088  1
  F  F25  1  0.062042  0.727421  0.949524  1
  F  F26  1  0.439888  0.725357  0.454736  1
  F  F27  1  0.560995  0.271256  0.550625  1
  F  F28  1  0.743759  0.977899  0.443368  1
  F  F29  1  0.257456  0.019269  0.558464  1
  F  F30  1  0.242047  0.023621  0.055378  1
  F  F31  1  0.755753  0.978326  0.941297  1
  F  F32  1  0.583189  0.975109  0.232868  1
  F  F33  1  0.426623  0.027044  0.766068  1
  F  F34  1  0.075639  0.034661  0.266826  1
  F  F35  1  0.926756  0.973155  0.734074  1
