# generated using pymatgen
data_Hf18Re7Pd2W
_symmetry_space_group_name_H-M   'P 1'
_cell_length_a   8.68958700
_cell_length_b   8.68958631
_cell_length_c   8.51229800
_cell_angle_alpha   90.00000000
_cell_angle_beta   90.00000000
_cell_angle_gamma   120.00000645
_symmetry_Int_Tables_number   1
_chemical_formula_structural   Hf18Re7Pd2W
_chemical_formula_sum   'Hf18 Re7 Pd2 W1'
_cell_volume   556.64159944
_cell_formula_units_Z   1
loop_
 _symmetry_equiv_pos_site_id
 _symmetry_equiv_pos_as_xyz
  1  'x, y, z'
loop_
 _atom_site_type_symbol
 _atom_site_label
 _atom_site_symmetry_multiplicity
 _atom_site_fract_x
 _atom_site_fract_y
 _atom_site_fract_z
 _atom_site_occupancy
  Hf  Hf0  1  0.195647  0.804353  0.448712  1
  Hf  Hf1  1  0.195647  0.391295  0.448712  1
  Hf  Hf2  1  0.608705  0.804353  0.448712  1
  Hf  Hf3  1  0.804353  0.195647  0.551288  1
  Hf  Hf4  1  0.804353  0.608705  0.551288  1
  Hf  Hf5  1  0.391295  0.195647  0.551288  1
  Hf  Hf6  1  0.806038  0.193962  0.948071  1
  Hf  Hf7  1  0.806038  0.612075  0.948071  1
  Hf  Hf8  1  0.387925  0.193962  0.948071  1
  Hf  Hf9  1  0.193962  0.806038  0.051929  1
  Hf  Hf10  1  0.193962  0.387925  0.051929  1
  Hf  Hf11  1  0.612075  0.806038  0.051929  1
  Hf  Hf12  1  0.542136  0.457864  0.249252  1
  Hf  Hf13  1  0.542136  0.084270  0.249252  1
  Hf  Hf14  1  0.915730  0.457864  0.249252  1
  Hf  Hf15  1  0.457864  0.542136  0.750748  1
  Hf  Hf16  1  0.457864  0.915730  0.750748  1
  Hf  Hf17  1  0.084270  0.542136  0.750748  1
  Re  Re18  1  0.889351  0.110649  0.250773  1
  Re  Re19  1  0.889351  0.778701  0.250773  1
  Re  Re20  1  0.221299  0.110649  0.250773  1
  Re  Re21  1  0.110649  0.889351  0.749227  1
  Re  Re22  1  0.110649  0.221299  0.749227  1
  Re  Re23  1  0.778701  0.889351  0.749227  1
  Re  Re24  1  0.000000  0.000000  0.000000  1
  Pd  Pd25  1  0.333333  0.666667  0.248343  1
  Pd  Pd26  1  0.666667  0.333333  0.751657  1
  W  W27  1  0.000000  0.000000  0.500000  1
