# generated using pymatgen
data_Tb8Er7Sc5(Ga3Si)4
_symmetry_space_group_name_H-M   'P 1'
_cell_length_a   7.35381721
_cell_length_b   7.69680212
_cell_length_c   14.73614173
_cell_angle_alpha   90.05491361
_cell_angle_beta   90.05976113
_cell_angle_gamma   90.10617054
_symmetry_Int_Tables_number   1
_chemical_formula_structural   Tb8Er7Sc5(Ga3Si)4
_chemical_formula_sum   'Tb8 Er7 Sc5 Ga12 Si4'
_cell_volume   834.07625880
_cell_formula_units_Z   1
loop_
 _symmetry_equiv_pos_site_id
 _symmetry_equiv_pos_as_xyz
  1  'x, y, z'
loop_
 _atom_site_type_symbol
 _atom_site_label
 _atom_site_symmetry_multiplicity
 _atom_site_fract_x
 _atom_site_fract_y
 _atom_site_fract_z
 _atom_site_occupancy
  Tb  Tb0  1  0.015233  0.181422  0.097114  1
  Tb  Tb1  1  0.986590  0.817936  0.905503  1
  Tb  Tb2  1  0.484949  0.682100  0.903471  1
  Tb  Tb3  1  0.984744  0.818326  0.596937  1
  Tb  Tb4  1  0.514038  0.318954  0.095962  1
  Tb  Tb5  1  0.015020  0.181976  0.401204  1
  Tb  Tb6  1  0.514612  0.318404  0.401140  1
  Tb  Tb7  1  0.484983  0.682332  0.597129  1
  Er  Er8  1  0.326700  0.173144  0.622617  1
  Er  Er9  1  0.673232  0.826542  0.376932  1
  Er  Er10  1  0.173543  0.672911  0.376478  1
  Er  Er11  1  0.671430  0.826199  0.121715  1
  Er  Er12  1  0.827240  0.327456  0.622763  1
  Er  Er13  1  0.326397  0.174289  0.878728  1
  Er  Er14  1  0.827770  0.327909  0.879009  1
  Sc  Sc15  1  0.159544  0.515827  0.750559  1
  Sc  Sc16  1  0.840573  0.487692  0.248465  1
  Sc  Sc17  1  0.339313  0.011953  0.248223  1
  Sc  Sc18  1  0.659552  0.985716  0.750265  1
  Sc  Sc19  1  0.173162  0.672052  0.124117  1
  Ga  Ga20  1  0.027016  0.100163  0.750874  1
  Ga  Ga21  1  0.974200  0.895326  0.248226  1
  Ga  Ga22  1  0.469387  0.602056  0.247098  1
  Ga  Ga23  1  0.527625  0.400884  0.750596  1
  Ga  Ga24  1  0.159389  0.470904  0.542517  1
  Ga  Ga25  1  0.840516  0.528293  0.456513  1
  Ga  Ga26  1  0.340636  0.971954  0.456402  1
  Ga  Ga27  1  0.847914  0.530314  0.045743  1
  Ga  Ga28  1  0.659369  0.029033  0.542666  1
  Ga  Ga29  1  0.163225  0.473643  0.962175  1
  Ga  Ga30  1  0.658141  0.028886  0.957352  1
  Ga  Ga31  1  0.333727  0.963718  0.043583  1
  Si  Si32  1  0.280993  0.870554  0.750699  1
  Si  Si33  1  0.719284  0.128621  0.248741  1
  Si  Si34  1  0.218026  0.372082  0.247846  1
  Si  Si35  1  0.781928  0.630429  0.750641  1
