# generated using pymatgen
data_TbDy3Lu4(ScSi4)2
_symmetry_space_group_name_H-M   'P 1'
_cell_length_a   7.19633220
_cell_length_b   7.55437017
_cell_length_c   14.27080940
_cell_angle_alpha   90.01738738
_cell_angle_beta   90.02080341
_cell_angle_gamma   90.01717519
_symmetry_Int_Tables_number   1
_chemical_formula_structural   TbDy3Lu4(ScSi4)2
_chemical_formula_sum   'Tb2 Dy6 Lu8 Sc4 Si16'
_cell_volume   775.81469713
_cell_formula_units_Z   2
loop_
 _symmetry_equiv_pos_site_id
 _symmetry_equiv_pos_as_xyz
  1  'x, y, z'
loop_
 _atom_site_type_symbol
 _atom_site_label
 _atom_site_symmetry_multiplicity
 _atom_site_fract_x
 _atom_site_fract_y
 _atom_site_fract_z
 _atom_site_occupancy
  Tb  Tb0  1  0.015940  0.179818  0.097500  1
  Tb  Tb1  1  0.984060  0.820182  0.902500  1
  Dy  Dy2  1  0.484182  0.680237  0.902443  1
  Dy  Dy3  1  0.984002  0.819754  0.597660  1
  Dy  Dy4  1  0.515818  0.319763  0.097557  1
  Dy  Dy5  1  0.015998  0.180246  0.402340  1
  Dy  Dy6  1  0.516015  0.319945  0.402699  1
  Dy  Dy7  1  0.483985  0.680055  0.597301  1
  Lu  Lu8  1  0.325281  0.177497  0.625307  1
  Lu  Lu9  1  0.674719  0.822503  0.374693  1
  Lu  Lu10  1  0.175321  0.677069  0.374673  1
  Lu  Lu11  1  0.674985  0.822639  0.125579  1
  Lu  Lu12  1  0.824679  0.322931  0.625327  1
  Lu  Lu13  1  0.325015  0.177361  0.874421  1
  Lu  Lu14  1  0.824942  0.322929  0.874525  1
  Lu  Lu15  1  0.175058  0.677071  0.125475  1
  Sc  Sc16  1  0.157208  0.510800  0.749857  1
  Sc  Sc17  1  0.842792  0.489200  0.250143  1
  Sc  Sc18  1  0.342629  0.010935  0.250174  1
  Sc  Sc19  1  0.657371  0.989065  0.749826  1
  Si  Si20  1  0.023763  0.102610  0.749715  1
  Si  Si21  1  0.976237  0.897390  0.250285  1
  Si  Si22  1  0.476540  0.601487  0.250043  1
  Si  Si23  1  0.523460  0.398513  0.749957  1
  Si  Si24  1  0.282045  0.867304  0.749684  1
  Si  Si25  1  0.717955  0.132696  0.250316  1
  Si  Si26  1  0.218712  0.367377  0.250193  1
  Si  Si27  1  0.781288  0.632623  0.749807  1
  Si  Si28  1  0.153745  0.468732  0.539892  1
  Si  Si29  1  0.846255  0.531268  0.460108  1
  Si  Si30  1  0.345982  0.968860  0.460085  1
  Si  Si31  1  0.845750  0.531399  0.039800  1
  Si  Si32  1  0.654018  0.031140  0.539915  1
  Si  Si33  1  0.154250  0.468601  0.960200  1
  Si  Si34  1  0.653616  0.031587  0.960199  1
  Si  Si35  1  0.346384  0.968413  0.039801  1
