# generated using pymatgen
data_Nd4TcI4
_symmetry_space_group_name_H-M   'P 1'
_cell_length_a   10.57975336
_cell_length_b   10.57975386
_cell_length_c   6.55397566
_cell_angle_alpha   89.38469428
_cell_angle_beta   89.38469109
_cell_angle_gamma   89.75542096
_symmetry_Int_Tables_number   1
_chemical_formula_structural   Nd4TcI4
_chemical_formula_sum   'Nd8 Tc2 I8'
_cell_volume   733.50334173
_cell_formula_units_Z   2
loop_
 _symmetry_equiv_pos_site_id
 _symmetry_equiv_pos_as_xyz
  1  'x, y, z'
loop_
 _atom_site_type_symbol
 _atom_site_label
 _atom_site_symmetry_multiplicity
 _atom_site_fract_x
 _atom_site_fract_y
 _atom_site_fract_z
 _atom_site_occupancy
  Nd  Nd0  1  0.777175  0.087435  0.003908  1
  Nd  Nd1  1  0.087435  0.777175  0.503908  1
  Nd  Nd2  1  0.085896  0.222120  0.993332  1
  Nd  Nd3  1  0.222120  0.085896  0.493332  1
  Nd  Nd4  1  0.914104  0.777880  0.006668  1
  Nd  Nd5  1  0.912565  0.222825  0.496092  1
  Nd  Nd6  1  0.222825  0.912565  0.996092  1
  Nd  Nd7  1  0.777880  0.914104  0.506668  1
  Tc  Tc8  1  0.000051  0.999949  0.250000  1
  Tc  Tc9  1  0.999949  0.000051  0.750000  1
  I  I10  1  0.613397  0.173310  0.492728  1
  I  I11  1  0.827235  0.615402  0.504409  1
  I  I12  1  0.384598  0.172765  0.995591  1
  I  I13  1  0.172765  0.384598  0.495591  1
  I  I14  1  0.615402  0.827235  0.004409  1
  I  I15  1  0.386603  0.826690  0.507272  1
  I  I16  1  0.173310  0.613397  0.992728  1
  I  I17  1  0.826690  0.386603  0.007272  1
