# generated using pymatgen
data_Hf(PSe3)2
_symmetry_space_group_name_H-M   'P 1'
_cell_length_a   7.39729586
_cell_length_b   7.39729479
_cell_length_c   12.21795892
_cell_angle_alpha   101.27454473
_cell_angle_beta   101.27454306
_cell_angle_gamma   110.74190217
_symmetry_Int_Tables_number   1
_chemical_formula_structural   Hf(PSe3)2
_chemical_formula_sum   'Hf2 P4 Se12'
_cell_volume   587.06371918
_cell_formula_units_Z   2
loop_
 _symmetry_equiv_pos_site_id
 _symmetry_equiv_pos_as_xyz
  1  'x, y, z'
loop_
 _atom_site_type_symbol
 _atom_site_label
 _atom_site_symmetry_multiplicity
 _atom_site_fract_x
 _atom_site_fract_y
 _atom_site_fract_z
 _atom_site_occupancy
  Hf  Hf0  1  0.147853  0.147853  0.295705  1
  Hf  Hf1  1  0.897853  0.397853  0.795704  1
  P  P2  1  0.018878  0.398574  0.124656  1
  P  P3  1  0.105779  0.726084  0.124656  1
  P  P4  1  0.148573  0.268877  0.624656  1
  P  P5  1  0.476083  0.355779  0.624656  1
  Se  Se6  1  0.296097  0.341695  0.146586  1
  Se  Se7  1  0.850489  0.804891  0.146586  1
  Se  Se8  1  0.900055  0.340368  0.271654  1
  Se  Se9  1  0.371599  0.931287  0.271654  1
  Se  Se10  1  0.977605  0.026521  0.457351  1
  Se  Se11  1  0.479746  0.430829  0.457351  1
  Se  Se12  1  0.554891  0.100489  0.646587  1
  Se  Se13  1  0.091696  0.546098  0.646587  1
  Se  Se14  1  0.090367  0.150056  0.771655  1
  Se  Se15  1  0.681288  0.621599  0.771655  1
  Se  Se16  1  0.776522  0.227606  0.957351  1
  Se  Se17  1  0.180829  0.729745  0.957351  1
