# generated using pymatgen
data_Sc3PaGa6Ir7
_symmetry_space_group_name_H-M   'P 1'
_cell_length_a   7.16948174
_cell_length_b   7.16594024
_cell_length_c   7.16593897
_cell_angle_alpha   109.45857807
_cell_angle_beta   109.48337433
_cell_angle_gamma   109.48338660
_symmetry_Int_Tables_number   1
_chemical_formula_structural   Sc3PaGa6Ir7
_chemical_formula_sum   'Sc3 Pa1 Ga6 Ir7'
_cell_volume   283.36717237
_cell_formula_units_Z   1
loop_
 _symmetry_equiv_pos_site_id
 _symmetry_equiv_pos_as_xyz
  1  'x, y, z'
loop_
 _atom_site_type_symbol
 _atom_site_label
 _atom_site_symmetry_multiplicity
 _atom_site_fract_x
 _atom_site_fract_y
 _atom_site_fract_z
 _atom_site_occupancy
  Sc  Sc0  1  0.000000  0.000000  0.500000  1
  Sc  Sc1  1  0.000000  0.500000  0.000000  1
  Sc  Sc2  1  0.500000  0.500000  0.500000  1
  Pa  Pa3  1  0.500000  0.000000  0.000000  1
  Ga  Ga4  1  0.697388  0.686413  0.000003  1
  Ga  Ga5  1  0.302612  0.999997  0.313587  1
  Ga  Ga6  1  0.010974  0.313575  0.313575  1
  Ga  Ga7  1  0.302612  0.313587  0.999997  1
  Ga  Ga8  1  0.697388  0.000003  0.686413  1
  Ga  Ga9  1  0.989026  0.686425  0.686425  1
  Ir  Ir10  1  0.747181  0.247175  0.494376  1
  Ir  Ir11  1  0.747181  0.494376  0.247175  1
  Ir  Ir12  1  0.500000  0.247184  0.752816  1
  Ir  Ir13  1  0.252819  0.505624  0.752825  1
  Ir  Ir14  1  0.252819  0.752825  0.505624  1
  Ir  Ir15  1  0.500000  0.752816  0.247184  1
  Ir  Ir16  1  0.000000  0.000000  0.000000  1
