# generated using pymatgen
data_U8Ta12Si15As
_symmetry_space_group_name_H-M   'P 1'
_cell_length_a   6.85612115
_cell_length_b   7.06623509
_cell_length_c   13.27208700
_cell_angle_alpha   90.00000000
_cell_angle_beta   90.00000000
_cell_angle_gamma   90.11988845
_symmetry_Int_Tables_number   1
_chemical_formula_structural   U8Ta12Si15As
_chemical_formula_sum   'U8 Ta12 Si15 As1'
_cell_volume   642.99091147
_cell_formula_units_Z   1
loop_
 _symmetry_equiv_pos_site_id
 _symmetry_equiv_pos_as_xyz
  1  'x, y, z'
loop_
 _atom_site_type_symbol
 _atom_site_label
 _atom_site_symmetry_multiplicity
 _atom_site_fract_x
 _atom_site_fract_y
 _atom_site_fract_z
 _atom_site_occupancy
  U  U0  1  0.498799  0.668920  0.592571  1
  U  U1  1  0.997961  0.831029  0.907326  1
  U  U2  1  0.500622  0.332613  0.092069  1
  U  U3  1  0.004412  0.165616  0.409808  1
  U  U4  1  0.500622  0.332613  0.407931  1
  U  U5  1  0.004412  0.165616  0.090192  1
  U  U6  1  0.498799  0.668920  0.907429  1
  U  U7  1  0.997961  0.831029  0.592674  1
  Ta  Ta8  1  0.662897  0.173339  0.624213  1
  Ta  Ta9  1  0.162790  0.327078  0.875959  1
  Ta  Ta10  1  0.336232  0.828140  0.123527  1
  Ta  Ta11  1  0.835706  0.674294  0.376144  1
  Ta  Ta12  1  0.336232  0.828140  0.376473  1
  Ta  Ta13  1  0.835706  0.674294  0.123856  1
  Ta  Ta14  1  0.662897  0.173339  0.875787  1
  Ta  Ta15  1  0.162790  0.327078  0.624041  1
  Ta  Ta16  1  0.833204  0.499301  0.750000  1
  Ta  Ta17  1  0.333003  0.000664  0.750000  1
  Ta  Ta18  1  0.169851  0.501729  0.250000  1
  Ta  Ta19  1  0.666292  0.996049  0.250000  1
  Si  Si20  1  0.664053  0.961617  0.459052  1
  Si  Si21  1  0.163398  0.539500  0.041074  1
  Si  Si22  1  0.335916  0.038924  0.958029  1
  Si  Si23  1  0.835554  0.461088  0.541385  1
  Si  Si24  1  0.335916  0.038924  0.541971  1
  Si  Si25  1  0.835554  0.461088  0.958615  1
  Si  Si26  1  0.664053  0.961617  0.040948  1
  Si  Si27  1  0.163398  0.539500  0.458926  1
  Si  Si28  1  0.457751  0.378265  0.750000  1
  Si  Si29  1  0.957985  0.121669  0.750000  1
  Si  Si30  1  0.537693  0.627764  0.250000  1
  Si  Si31  1  0.042353  0.878006  0.250000  1
  Si  Si32  1  0.700516  0.870448  0.750000  1
  Si  Si33  1  0.200721  0.629851  0.750000  1
  Si  Si34  1  0.299805  0.129569  0.250000  1
  As  As35  1  0.804150  0.362372  0.250000  1
