# generated using pymatgen
data_Y4AgPt3
_symmetry_space_group_name_H-M   'P 1'
_cell_length_a   4.60258000
_cell_length_b   5.66029199
_cell_length_c   7.06283043
_cell_angle_alpha   90.27617003
_cell_angle_beta   90.00000000
_cell_angle_gamma   90.00000000
_symmetry_Int_Tables_number   1
_chemical_formula_structural   Y4AgPt3
_chemical_formula_sum   'Y4 Ag1 Pt3'
_cell_volume   183.99834451
_cell_formula_units_Z   1
loop_
 _symmetry_equiv_pos_site_id
 _symmetry_equiv_pos_as_xyz
  1  'x, y, z'
loop_
 _atom_site_type_symbol
 _atom_site_label
 _atom_site_symmetry_multiplicity
 _atom_site_fract_x
 _atom_site_fract_y
 _atom_site_fract_z
 _atom_site_occupancy
  Y  Y0  1  0.000000  0.644056  0.311759  1
  Y  Y1  1  0.000000  0.852709  0.823079  1
  Y  Y2  1  0.500000  0.368742  0.693734  1
  Y  Y3  1  0.500000  0.137456  0.169062  1
  Ag  Ag4  1  0.000000  0.148130  0.462041  1
  Pt  Pt5  1  0.000000  0.341016  0.957802  1
  Pt  Pt6  1  0.500000  0.854124  0.537156  1
  Pt  Pt7  1  0.500000  0.653769  0.045366  1
