# generated using pymatgen
data_Hf8Ta5Nb7Si15Ge
_symmetry_space_group_name_H-M   'P 1'
_cell_length_a   6.66852720
_cell_length_b   6.86152403
_cell_length_c   13.08004912
_cell_angle_alpha   89.99281262
_cell_angle_beta   90.01380801
_cell_angle_gamma   90.01602837
_symmetry_Int_Tables_number   1
_chemical_formula_structural   Hf8Ta5Nb7Si15Ge
_chemical_formula_sum   'Hf8 Ta5 Nb7 Si15 Ge1'
_cell_volume   598.49407802
_cell_formula_units_Z   1
loop_
 _symmetry_equiv_pos_site_id
 _symmetry_equiv_pos_as_xyz
  1  'x, y, z'
loop_
 _atom_site_type_symbol
 _atom_site_label
 _atom_site_symmetry_multiplicity
 _atom_site_fract_x
 _atom_site_fract_y
 _atom_site_fract_z
 _atom_site_occupancy
  Hf  Hf0  1  0.496440  0.673690  0.594288  1
  Hf  Hf1  1  0.996260  0.826101  0.906266  1
  Hf  Hf2  1  0.501491  0.326583  0.092841  1
  Hf  Hf3  1  0.006523  0.170811  0.408774  1
  Hf  Hf4  1  0.501595  0.326572  0.407448  1
  Hf  Hf5  1  0.006484  0.170723  0.091302  1
  Hf  Hf6  1  0.496538  0.673639  0.905691  1
  Hf  Hf7  1  0.995904  0.826361  0.593674  1
  Ta  Ta8  1  0.662250  0.170842  0.623856  1
  Ta  Ta9  1  0.836682  0.498358  0.749829  1
  Ta  Ta10  1  0.337449  0.002161  0.749827  1
  Ta  Ta11  1  0.165851  0.503017  0.250035  1
  Ta  Ta12  1  0.660896  0.994373  0.249993  1
  Nb  Nb13  1  0.162424  0.329548  0.876314  1
  Nb  Nb14  1  0.336652  0.830330  0.123347  1
  Nb  Nb15  1  0.838067  0.672857  0.377058  1
  Nb  Nb16  1  0.336804  0.830427  0.376702  1
  Nb  Nb17  1  0.838059  0.672981  0.122940  1
  Nb  Nb18  1  0.662342  0.170630  0.876292  1
  Nb  Nb19  1  0.162541  0.329447  0.623630  1
  Si  Si20  1  0.671907  0.963606  0.461641  1
  Si  Si21  1  0.172050  0.536960  0.038742  1
  Si  Si22  1  0.327673  0.036640  0.960610  1
  Si  Si23  1  0.826929  0.463347  0.538756  1
  Si  Si24  1  0.327808  0.036618  0.539403  1
  Si  Si25  1  0.827184  0.463317  0.961155  1
  Si  Si26  1  0.671750  0.963746  0.038437  1
  Si  Si27  1  0.171997  0.536909  0.461224  1
  Si  Si28  1  0.461399  0.387772  0.750043  1
  Si  Si29  1  0.961245  0.113132  0.749969  1
  Si  Si30  1  0.537753  0.614691  0.250020  1
  Si  Si31  1  0.038410  0.887643  0.250013  1
  Si  Si32  1  0.703122  0.860804  0.749919  1
  Si  Si33  1  0.202645  0.639717  0.749976  1
  Si  Si34  1  0.296979  0.140302  0.249990  1
  Ge  Ge35  1  0.799896  0.355341  0.249996  1
