# generated using pymatgen
data_Dy2Ho14MgTl(HgIr2)2
_symmetry_space_group_name_H-M   'P 1'
_cell_length_a   9.61628553
_cell_length_b   9.56097748
_cell_length_c   9.57133900
_cell_angle_alpha   59.96415441
_cell_angle_beta   60.15450495
_cell_angle_gamma   60.06982417
_symmetry_Int_Tables_number   1
_chemical_formula_structural   Dy2Ho14MgTl(HgIr2)2
_chemical_formula_sum   'Dy2 Ho14 Mg1 Tl1 Hg2 Ir4'
_cell_volume   623.13607773
_cell_formula_units_Z   1
loop_
 _symmetry_equiv_pos_site_id
 _symmetry_equiv_pos_as_xyz
  1  'x, y, z'
loop_
 _atom_site_type_symbol
 _atom_site_label
 _atom_site_symmetry_multiplicity
 _atom_site_fract_x
 _atom_site_fract_y
 _atom_site_fract_z
 _atom_site_occupancy
  Dy  Dy0  1  0.562729  0.564211  0.940342  1
  Dy  Dy1  1  0.938196  0.938490  0.562551  1
  Ho  Ho2  1  0.349409  0.348538  0.345940  1
  Ho  Ho3  1  0.350501  0.349089  0.954631  1
  Ho  Ho4  1  0.350587  0.954166  0.348042  1
  Ho  Ho5  1  0.942844  0.352250  0.352317  1
  Ho  Ho6  1  0.808168  0.189646  0.192468  1
  Ho  Ho7  1  0.186828  0.811251  0.811907  1
  Ho  Ho8  1  0.185159  0.812116  0.189863  1
  Ho  Ho9  1  0.807383  0.190472  0.809083  1
  Ho  Ho10  1  0.187173  0.188851  0.811753  1
  Ho  Ho11  1  0.806949  0.808497  0.191988  1
  Ho  Ho12  1  0.940533  0.560660  0.561727  1
  Ho  Ho13  1  0.560489  0.940120  0.938418  1
  Ho  Ho14  1  0.560730  0.942947  0.562473  1
  Ho  Ho15  1  0.939496  0.560233  0.939883  1
  Mg  Mg16  1  0.281913  0.570544  0.571558  1
  Tl  Tl17  1  0.583324  0.584029  0.585435  1
  Hg  Hg18  1  0.582512  0.586012  0.242726  1
  Hg  Hg19  1  0.582647  0.240854  0.587017  1
  Ir  Ir20  1  0.139512  0.145185  0.141939  1
  Ir  Ir21  1  0.138956  0.144788  0.573885  1
  Ir  Ir22  1  0.138045  0.575101  0.142975  1
  Ir  Ir23  1  0.575913  0.141953  0.141078  1
