# generated using pymatgen
data_Y11In9Co3Cu
_symmetry_space_group_name_H-M   'P 1'
_cell_length_a   12.97158186
_cell_length_b   12.98198053
_cell_length_c   3.65085000
_cell_angle_alpha   90.00000000
_cell_angle_beta   90.00000000
_cell_angle_gamma   111.04330487
_symmetry_Int_Tables_number   1
_chemical_formula_structural   Y11In9Co3Cu
_chemical_formula_sum   'Y11 In9 Co3 Cu1'
_cell_volume   573.79066431
_cell_formula_units_Z   1
loop_
 _symmetry_equiv_pos_site_id
 _symmetry_equiv_pos_as_xyz
  1  'x, y, z'
loop_
 _atom_site_type_symbol
 _atom_site_label
 _atom_site_symmetry_multiplicity
 _atom_site_fract_x
 _atom_site_fract_y
 _atom_site_fract_z
 _atom_site_occupancy
  Y  Y0  1  0.071014  0.416639  0.000000  1
  Y  Y1  1  0.917713  0.580003  0.000000  1
  Y  Y2  1  0.419474  0.078413  0.000000  1
  Y  Y3  1  0.581751  0.919768  0.000000  1
  Y  Y4  1  0.625189  0.376389  0.000000  1
  Y  Y5  1  0.384706  0.637153  0.000000  1
  Y  Y6  1  0.839312  0.159485  0.000000  1
  Y  Y7  1  0.159912  0.840886  0.000000  1
  Y  Y8  1  0.000039  0.999371  0.000000  1
  Y  Y9  1  0.319851  0.306128  0.000000  1
  Y  Y10  1  0.686866  0.685905  0.000000  1
  In  In11  1  0.836652  0.367574  0.500000  1
  In  In12  1  0.155993  0.631156  0.500000  1
  In  In13  1  0.367172  0.840843  0.500000  1
  In  In14  1  0.631278  0.160695  0.500000  1
  In  In15  1  0.075812  0.219220  0.500000  1
  In  In16  1  0.921844  0.779000  0.500000  1
  In  In17  1  0.221059  0.078029  0.500000  1
  In  In18  1  0.779944  0.921337  0.500000  1
  In  In19  1  0.499611  0.500286  0.500000  1
  Co  Co20  1  0.753796  0.551476  0.500000  1
  Co  Co21  1  0.449130  0.242833  0.500000  1
  Co  Co22  1  0.549566  0.754131  0.500000  1
  Cu  Cu23  1  0.252318  0.453280  0.500000  1
