# generated using pymatgen
data_Dy5Ho7In20
_symmetry_space_group_name_H-M   'P 1'
_cell_length_a   6.50447907
_cell_length_b   10.41506266
_cell_length_c   12.26625209
_cell_angle_alpha   89.92846710
_cell_angle_beta   89.99015480
_cell_angle_gamma   90.00185434
_symmetry_Int_Tables_number   1
_chemical_formula_structural   Dy5Ho7In20
_chemical_formula_sum   'Dy5 Ho7 In20'
_cell_volume   830.97115497
_cell_formula_units_Z   1
loop_
 _symmetry_equiv_pos_site_id
 _symmetry_equiv_pos_as_xyz
  1  'x, y, z'
loop_
 _atom_site_type_symbol
 _atom_site_label
 _atom_site_symmetry_multiplicity
 _atom_site_fract_x
 _atom_site_fract_y
 _atom_site_fract_z
 _atom_site_occupancy
  Dy  Dy0  1  0.390217  0.506899  0.357994  1
  Dy  Dy1  1  0.109750  0.507091  0.858090  1
  Dy  Dy2  1  0.390386  0.993044  0.358313  1
  Dy  Dy3  1  0.890099  0.007067  0.141621  1
  Dy  Dy4  1  0.609920  0.492916  0.642295  1
  Ho  Ho5  1  0.350204  0.750212  0.055744  1
  Ho  Ho6  1  0.149811  0.749612  0.555794  1
  Ho  Ho7  1  0.649977  0.250529  0.944254  1
  Ho  Ho8  1  0.850550  0.249702  0.444334  1
  Ho  Ho9  1  0.890611  0.493165  0.141686  1
  Ho  Ho10  1  0.609325  0.006797  0.641561  1
  Ho  Ho11  1  0.109349  0.993076  0.858524  1
  In  In12  1  0.616218  0.750246  0.505538  1
  In  In13  1  0.884150  0.749919  0.005328  1
  In  In14  1  0.384388  0.249748  0.495206  1
  In  In15  1  0.115979  0.249719  0.994485  1
  In  In16  1  0.651541  0.749683  0.245305  1
  In  In17  1  0.848576  0.751058  0.745452  1
  In  In18  1  0.348554  0.249000  0.754633  1
  In  In19  1  0.150938  0.250173  0.254244  1
  In  In20  1  0.125127  0.750069  0.283969  1
  In  In21  1  0.374096  0.750856  0.784211  1
  In  In22  1  0.874018  0.249070  0.715792  1
  In  In23  1  0.625821  0.250470  0.215775  1
  In  In24  1  0.875317  0.543717  0.400788  1
  In  In25  1  0.624822  0.956487  0.900477  1
  In  In26  1  0.124736  0.043473  0.599602  1
  In  In27  1  0.375000  0.456112  0.098733  1
  In  In28  1  0.124651  0.455764  0.598947  1
  In  In29  1  0.375524  0.044007  0.098720  1
  In  In30  1  0.875597  0.956072  0.401268  1
  In  In31  1  0.624753  0.544249  0.901317  1
