# generated using pymatgen
data_Ho8Ti10Re2Si15Sn
_symmetry_space_group_name_H-M   'P 1'
_cell_length_a   7.04258466
_cell_length_b   6.99495553
_cell_length_c   12.89356498
_cell_angle_alpha   89.99911509
_cell_angle_beta   89.69099553
_cell_angle_gamma   89.93286738
_symmetry_Int_Tables_number   1
_chemical_formula_structural   Ho8Ti10Re2Si15Sn
_chemical_formula_sum   'Ho8 Ti10 Re2 Si15 Sn1'
_cell_volume   635.16042916
_cell_formula_units_Z   1
loop_
 _symmetry_equiv_pos_site_id
 _symmetry_equiv_pos_as_xyz
  1  'x, y, z'
loop_
 _atom_site_type_symbol
 _atom_site_label
 _atom_site_symmetry_multiplicity
 _atom_site_fract_x
 _atom_site_fract_y
 _atom_site_fract_z
 _atom_site_occupancy
  Ho  Ho0  1  0.342789  0.998121  0.460504  1
  Ho  Ho1  1  0.504710  0.835123  0.719638  1
  Ho  Ho2  1  0.499630  0.159121  0.217012  1
  Ho  Ho3  1  0.842259  0.498652  0.279878  1
  Ho  Ho4  1  0.159225  0.508202  0.787150  1
  Ho  Ho5  1  0.659939  0.997698  0.971298  1
  Ho  Ho6  1  0.993795  0.348287  0.525489  1
  Ho  Ho7  1  0.002229  0.658726  0.033991  1
  Ti  Ti8  1  0.817113  0.176227  0.752981  1
  Ti  Ti9  1  0.672560  0.673519  0.498427  1
  Ti  Ti10  1  0.153696  0.005723  0.885684  1
  Ti  Ti11  1  0.493941  0.652258  0.125633  1
  Ti  Ti12  1  0.512903  0.354228  0.627076  1
  Ti  Ti13  1  0.656044  0.493951  0.878046  1
  Ti  Ti14  1  0.346506  0.505923  0.370965  1
  Ti  Ti15  1  0.844984  0.992298  0.374110  1
  Ti  Ti16  1  0.007674  0.152778  0.124198  1
  Ti  Ti17  1  0.980407  0.835434  0.617111  1
  Re  Re18  1  0.326398  0.329389  0.002795  1
  Re  Re19  1  0.174313  0.829099  0.248193  1
  Si  Si20  1  0.372295  0.699249  0.935646  1
  Si  Si21  1  0.628517  0.297959  0.432477  1
  Si  Si22  1  0.701308  0.370548  0.067483  1
  Si  Si23  1  0.296260  0.631096  0.564971  1
  Si  Si24  1  0.801332  0.871160  0.183796  1
  Si  Si25  1  0.128613  0.199184  0.315208  1
  Si  Si26  1  0.870368  0.800792  0.816300  1
  Si  Si27  1  0.291871  0.952176  0.068676  1
  Si  Si28  1  0.548397  0.788206  0.313889  1
  Si  Si29  1  0.456806  0.210076  0.823310  1
  Si  Si30  1  0.795441  0.544320  0.685945  1
  Si  Si31  1  0.210392  0.453101  0.183894  1
  Si  Si32  1  0.704598  0.049090  0.565167  1
  Si  Si33  1  0.953780  0.291043  0.934913  1
  Si  Si34  1  0.050029  0.710103  0.429193  1
  Sn  Sn35  1  0.198876  0.127141  0.678954  1
