# generated using pymatgen
data_Pr4Lu4Re(B8Ru)3
_symmetry_space_group_name_H-M   'P 1'
_cell_length_a   3.69803500
_cell_length_b   9.18936886
_cell_length_c   11.64722088
_cell_angle_alpha   89.89506808
_cell_angle_beta   90.00000000
_cell_angle_gamma   90.00000000
_symmetry_Int_Tables_number   1
_chemical_formula_structural   Pr4Lu4Re(B8Ru)3
_chemical_formula_sum   'Pr4 Lu4 Re1 B24 Ru3'
_cell_volume   395.80227366
_cell_formula_units_Z   1
loop_
 _symmetry_equiv_pos_site_id
 _symmetry_equiv_pos_as_xyz
  1  'x, y, z'
loop_
 _atom_site_type_symbol
 _atom_site_label
 _atom_site_symmetry_multiplicity
 _atom_site_fract_x
 _atom_site_fract_y
 _atom_site_fract_z
 _atom_site_occupancy
  Pr  Pr0  1  0.000000  0.323494  0.414003  1
  Pr  Pr1  1  0.000000  0.677261  0.583608  1
  Pr  Pr2  1  0.000000  0.821410  0.086234  1
  Pr  Pr3  1  0.000000  0.176280  0.915768  1
  Lu  Lu4  1  0.000000  0.944318  0.372020  1
  Lu  Lu5  1  0.000000  0.056527  0.628760  1
  Lu  Lu6  1  0.000000  0.445067  0.128491  1
  Lu  Lu7  1  0.000000  0.555801  0.870656  1
  Re  Re8  1  0.000000  0.640516  0.318195  1
  B  B9  1  0.500000  0.556115  0.429282  1
  B  B10  1  0.500000  0.442768  0.571170  1
  B  B11  1  0.500000  0.057597  0.071011  1
  B  B12  1  0.500000  0.942283  0.929355  1
  B  B13  1  0.500000  0.751723  0.415861  1
  B  B14  1  0.500000  0.248503  0.584397  1
  B  B15  1  0.500000  0.251358  0.083761  1
  B  B16  1  0.500000  0.748531  0.915940  1
  B  B17  1  0.500000  0.792650  0.266059  1
  B  B18  1  0.500000  0.208254  0.734066  1
  B  B19  1  0.500000  0.291816  0.233147  1
  B  B20  1  0.500000  0.708739  0.765949  1
  B  B21  1  0.500000  0.630001  0.184928  1
  B  B22  1  0.500000  0.369734  0.815590  1
  B  B23  1  0.500000  0.130042  0.314996  1
  B  B24  1  0.500000  0.870518  0.684604  1
  B  B25  1  0.500000  0.985769  0.214884  1
  B  B26  1  0.500000  0.014093  0.785710  1
  B  B27  1  0.500000  0.484396  0.285093  1
  B  B28  1  0.500000  0.514050  0.714835  1
  B  B29  1  0.500000  0.598869  0.025831  1
  B  B30  1  0.500000  0.400759  0.972791  1
  B  B31  1  0.500000  0.099847  0.473754  1
  B  B32  1  0.500000  0.901788  0.527261  1
  Ru  Ru33  1  0.000000  0.359136  0.682585  1
  Ru  Ru34  1  0.000000  0.140665  0.181861  1
  Ru  Ru35  1  0.000000  0.859321  0.817543  1
