# generated using pymatgen
data_Rb2Te(OF2)2
_symmetry_space_group_name_H-M   'P 1'
_cell_length_a   6.15197942
_cell_length_b   6.15197886
_cell_length_c   5.05757904
_cell_angle_alpha   87.49679039
_cell_angle_beta   87.49679148
_cell_angle_gamma   59.56911462
_symmetry_Int_Tables_number   1
_chemical_formula_structural   Rb2Te(OF2)2
_chemical_formula_sum   'Rb2 Te1 O2 F4'
_cell_volume   164.83534300
_cell_formula_units_Z   1
loop_
 _symmetry_equiv_pos_site_id
 _symmetry_equiv_pos_as_xyz
  1  'x, y, z'
loop_
 _atom_site_type_symbol
 _atom_site_label
 _atom_site_symmetry_multiplicity
 _atom_site_fract_x
 _atom_site_fract_y
 _atom_site_fract_z
 _atom_site_occupancy
  Rb  Rb0  1  0.324316  0.324316  0.305163  1
  Rb  Rb1  1  0.675684  0.675684  0.694837  1
  Te  Te2  1  0.000000  0.000000  0.000000  1
  O  O3  1  0.146527  0.146527  0.797308  1
  O  O4  1  0.853473  0.853473  0.202692  1
  F  F5  1  0.693055  0.166491  0.781037  1
  F  F6  1  0.166491  0.693055  0.781037  1
  F  F7  1  0.306945  0.833509  0.218963  1
  F  F8  1  0.833509  0.306945  0.218963  1
