# generated using pymatgen
data_Tb9Y(In2Ni)4
_symmetry_space_group_name_H-M   'P 1'
_cell_length_a   3.59133400
_cell_length_b   8.08213318
_cell_length_c   18.05678241
_cell_angle_alpha   89.97559506
_cell_angle_beta   90.00000000
_cell_angle_gamma   90.00000000
_symmetry_Int_Tables_number   1
_chemical_formula_structural   Tb9Y(In2Ni)4
_chemical_formula_sum   'Tb9 Y1 In8 Ni4'
_cell_volume   524.10961270
_cell_formula_units_Z   1
loop_
 _symmetry_equiv_pos_site_id
 _symmetry_equiv_pos_as_xyz
  1  'x, y, z'
loop_
 _atom_site_type_symbol
 _atom_site_label
 _atom_site_symmetry_multiplicity
 _atom_site_fract_x
 _atom_site_fract_y
 _atom_site_fract_z
 _atom_site_occupancy
  Tb  Tb0  1  0.000000  0.000000  0.000000  1
  Tb  Tb1  1  0.000000  0.746036  0.278157  1
  Tb  Tb2  1  0.000000  0.253964  0.721843  1
  Tb  Tb3  1  0.000000  0.753988  0.778195  1
  Tb  Tb4  1  0.000000  0.246012  0.221805  1
  Tb  Tb5  1  0.000000  0.617645  0.087798  1
  Tb  Tb6  1  0.000000  0.382355  0.912202  1
  Tb  Tb7  1  0.000000  0.882633  0.587847  1
  Tb  Tb8  1  0.000000  0.117367  0.412153  1
  Y  Y9  1  0.000000  0.500000  0.500000  1
  In  In10  1  0.500000  0.705409  0.930358  1
  In  In11  1  0.500000  0.294591  0.069642  1
  In  In12  1  0.500000  0.794440  0.430435  1
  In  In13  1  0.500000  0.205560  0.569565  1
  In  In14  1  0.500000  0.571208  0.652029  1
  In  In15  1  0.500000  0.428792  0.347971  1
  In  In16  1  0.500000  0.928813  0.152121  1
  In  In17  1  0.500000  0.071187  0.847879  1
  Ni  Ni18  1  0.500000  0.523697  0.196057  1
  Ni  Ni19  1  0.500000  0.476303  0.803943  1
  Ni  Ni20  1  0.500000  0.976351  0.696000  1
  Ni  Ni21  1  0.500000  0.023649  0.304000  1
