# generated using pymatgen
data_K2Ba(PRh)6
_symmetry_space_group_name_H-M   'P 1'
_cell_length_a   8.84664992
_cell_length_b   8.84664978
_cell_length_c   7.08474805
_cell_angle_alpha   68.06383649
_cell_angle_beta   68.06384190
_cell_angle_gamma   36.85706277
_symmetry_Int_Tables_number   1
_chemical_formula_structural   K2Ba(PRh)6
_chemical_formula_sum   'K2 Ba1 P6 Rh6'
_cell_volume   305.71633479
_cell_formula_units_Z   1
loop_
 _symmetry_equiv_pos_site_id
 _symmetry_equiv_pos_as_xyz
  1  'x, y, z'
loop_
 _atom_site_type_symbol
 _atom_site_label
 _atom_site_symmetry_multiplicity
 _atom_site_fract_x
 _atom_site_fract_y
 _atom_site_fract_z
 _atom_site_occupancy
  K  K0  1  0.671651  0.671651  0.000059  1
  K  K1  1  0.328349  0.328349  0.999941  1
  Ba  Ba2  1  0.000000  0.000000  0.000000  1
  P  P3  1  0.885033  0.885033  0.695099  1
  P  P4  1  0.216403  0.216403  0.695390  1
  P  P5  1  0.550460  0.550460  0.699925  1
  P  P6  1  0.449540  0.449540  0.300075  1
  P  P7  1  0.783597  0.783597  0.304610  1
  P  P8  1  0.114967  0.114967  0.304901  1
  Rh  Rh9  1  0.748636  0.251364  0.500000  1
  Rh  Rh10  1  0.084116  0.582859  0.500140  1
  Rh  Rh11  1  0.417141  0.915884  0.499860  1
  Rh  Rh12  1  0.582859  0.084116  0.500140  1
  Rh  Rh13  1  0.915884  0.417141  0.499860  1
  Rh  Rh14  1  0.251364  0.748636  0.500000  1
