# generated using pymatgen
data_Li3(Nd2Ag5)2
_symmetry_space_group_name_H-M   'P 1'
_cell_length_a   8.74034680
_cell_length_b   8.74034704
_cell_length_c   10.31470700
_cell_angle_alpha   90.00000000
_cell_angle_beta   90.00000000
_cell_angle_gamma   108.63578668
_symmetry_Int_Tables_number   1
_chemical_formula_structural   Li3(Nd2Ag5)2
_chemical_formula_sum   'Li6 Nd8 Ag20'
_cell_volume   746.66377888
_cell_formula_units_Z   2
loop_
 _symmetry_equiv_pos_site_id
 _symmetry_equiv_pos_as_xyz
  1  'x, y, z'
loop_
 _atom_site_type_symbol
 _atom_site_label
 _atom_site_symmetry_multiplicity
 _atom_site_fract_x
 _atom_site_fract_y
 _atom_site_fract_z
 _atom_site_occupancy
  Li  Li0  1  0.016612  0.516612  0.250000  1
  Li  Li1  1  0.983388  0.483388  0.750000  1
  Li  Li2  1  0.483388  0.983388  0.750000  1
  Li  Li3  1  0.516612  0.016612  0.250000  1
  Li  Li4  1  0.000000  0.000000  0.000000  1
  Li  Li5  1  0.500000  0.500000  0.500000  1
  Nd  Nd6  1  0.697949  0.302051  0.000000  1
  Nd  Nd7  1  0.302051  0.697949  0.000000  1
  Nd  Nd8  1  0.802051  0.197949  0.500000  1
  Nd  Nd9  1  0.197949  0.802051  0.500000  1
  Nd  Nd10  1  0.302453  0.302453  0.198024  1
  Nd  Nd11  1  0.697547  0.697547  0.801976  1
  Nd  Nd12  1  0.197547  0.197547  0.698024  1
  Nd  Nd13  1  0.802453  0.802453  0.301976  1
  Ag  Ag14  1  0.097625  0.097625  0.402622  1
  Ag  Ag15  1  0.902375  0.902375  0.597378  1
  Ag  Ag16  1  0.402375  0.402375  0.902622  1
  Ag  Ag17  1  0.597625  0.597625  0.097378  1
  Ag  Ag18  1  0.894404  0.174302  0.202788  1
  Ag  Ag19  1  0.105596  0.825698  0.797212  1
  Ag  Ag20  1  0.605596  0.325698  0.702788  1
  Ag  Ag21  1  0.674302  0.394404  0.297212  1
  Ag  Ag22  1  0.394404  0.674302  0.297212  1
  Ag  Ag23  1  0.325698  0.605596  0.702788  1
  Ag  Ag24  1  0.825698  0.105596  0.797212  1
  Ag  Ag25  1  0.174302  0.894404  0.202788  1
  Ag  Ag26  1  0.936278  0.659840  0.029257  1
  Ag  Ag27  1  0.063722  0.340160  0.970743  1
  Ag  Ag28  1  0.563722  0.840160  0.529257  1
  Ag  Ag29  1  0.159840  0.436278  0.470743  1
  Ag  Ag30  1  0.436278  0.159840  0.470743  1
  Ag  Ag31  1  0.840160  0.563722  0.529257  1
  Ag  Ag32  1  0.340160  0.063722  0.970743  1
  Ag  Ag33  1  0.659840  0.936278  0.029257  1
