# generated using pymatgen
data_Ce2MnSiI
_symmetry_space_group_name_H-M   'P 1'
_cell_length_a   4.10093200
_cell_length_b   4.10093088
_cell_length_c   8.49799600
_cell_angle_alpha   90.00000000
_cell_angle_beta   90.00000000
_cell_angle_gamma   120.00000902
_symmetry_Int_Tables_number   1
_chemical_formula_structural   Ce2MnSiI
_chemical_formula_sum   'Ce2 Mn1 Si1 I1'
_cell_volume   123.76907130
_cell_formula_units_Z   1
loop_
 _symmetry_equiv_pos_site_id
 _symmetry_equiv_pos_as_xyz
  1  'x, y, z'
loop_
 _atom_site_type_symbol
 _atom_site_label
 _atom_site_symmetry_multiplicity
 _atom_site_fract_x
 _atom_site_fract_y
 _atom_site_fract_z
 _atom_site_occupancy
  Ce  Ce0  1  0.000000  0.000000  0.206419  1
  Ce  Ce1  1  0.000000  0.000000  0.793581  1
  Mn  Mn2  1  0.666667  0.333333  0.000000  1
  Si  Si3  1  0.333333  0.666667  0.000000  1
  I  I4  1  0.666667  0.333333  0.500000  1
