# generated using pymatgen
data_Tb3NdY(FeB3)2
_symmetry_space_group_name_H-M   'P 1'
_cell_length_a   8.34905594
_cell_length_b   8.34905669
_cell_length_c   8.34905500
_cell_angle_alpha   37.97823324
_cell_angle_beta   37.97822803
_cell_angle_gamma   37.97823082
_symmetry_Int_Tables_number   1
_chemical_formula_structural   Tb3NdY(FeB3)2
_chemical_formula_sum   'Tb3 Nd1 Y1 Fe2 B6'
_cell_volume   197.81568890
_cell_formula_units_Z   1
loop_
 _symmetry_equiv_pos_site_id
 _symmetry_equiv_pos_as_xyz
  1  'x, y, z'
loop_
 _atom_site_type_symbol
 _atom_site_label
 _atom_site_symmetry_multiplicity
 _atom_site_fract_x
 _atom_site_fract_y
 _atom_site_fract_z
 _atom_site_occupancy
  Tb  Tb0  1  0.582957  0.582957  0.582957  1
  Tb  Tb1  1  0.417062  0.417062  0.417062  1
  Tb  Tb2  1  0.749467  0.749467  0.749467  1
  Nd  Nd3  1  0.999988  0.999988  0.999988  1
  Y  Y4  1  0.250250  0.250250  0.250250  1
  Fe  Fe5  1  0.882599  0.882599  0.882599  1
  Fe  Fe6  1  0.117432  0.117432  0.117432  1
  B  B7  1  0.499918  0.832590  0.167615  1
  B  B8  1  0.167615  0.499918  0.832590  1
  B  B9  1  0.832590  0.167615  0.499918  1
  B  B10  1  0.499918  0.167615  0.832590  1
  B  B11  1  0.832590  0.499918  0.167615  1
  B  B12  1  0.167615  0.832590  0.499918  1
