# generated using pymatgen
data_Hf2Pa2Ti2Zn7
_symmetry_space_group_name_H-M   'P 1'
_cell_length_a   5.18200495
_cell_length_b   5.18200623
_cell_length_c   10.35485800
_cell_angle_alpha   75.50941871
_cell_angle_beta   75.50941505
_cell_angle_gamma   60.00000111
_symmetry_Int_Tables_number   1
_chemical_formula_structural   Hf2Pa2Ti2Zn7
_chemical_formula_sum   'Hf2 Pa2 Ti2 Zn7'
_cell_volume   230.53738199
_cell_formula_units_Z   1
loop_
 _symmetry_equiv_pos_site_id
 _symmetry_equiv_pos_as_xyz
  1  'x, y, z'
loop_
 _atom_site_type_symbol
 _atom_site_label
 _atom_site_symmetry_multiplicity
 _atom_site_fract_x
 _atom_site_fract_y
 _atom_site_fract_z
 _atom_site_occupancy
  Hf  Hf0  1  0.646109  0.646109  0.061672  1
  Hf  Hf1  1  0.353891  0.353891  0.938328  1
  Pa  Pa2  1  0.833325  0.833325  0.500026  1
  Pa  Pa3  1  0.166675  0.166675  0.499974  1
  Ti  Ti4  1  0.544303  0.544303  0.367088  1
  Ti  Ti5  1  0.455697  0.455697  0.632912  1
  Zn  Zn6  1  0.000000  0.000000  0.000000  1
  Zn  Zn7  1  0.902730  0.902730  0.784160  1
  Zn  Zn8  1  0.410378  0.902730  0.784160  1
  Zn  Zn9  1  0.902730  0.410378  0.784160  1
  Zn  Zn10  1  0.097270  0.097270  0.215840  1
  Zn  Zn11  1  0.589622  0.097270  0.215840  1
  Zn  Zn12  1  0.097270  0.589622  0.215840  1
