# generated using pymatgen
data_Ti10GaSi4PO
_symmetry_space_group_name_H-M   'P 1'
_cell_length_a   7.45840525
_cell_length_b   7.44737807
_cell_length_c   5.11794700
_cell_angle_alpha   90.12589804
_cell_angle_beta   89.87052973
_cell_angle_gamma   120.02774941
_symmetry_Int_Tables_number   1
_chemical_formula_structural   Ti10GaSi4PO
_chemical_formula_sum   'Ti10 Ga1 Si4 P1 O1'
_cell_volume   246.12336863
_cell_formula_units_Z   1
loop_
 _symmetry_equiv_pos_site_id
 _symmetry_equiv_pos_as_xyz
  1  'x, y, z'
loop_
 _atom_site_type_symbol
 _atom_site_label
 _atom_site_symmetry_multiplicity
 _atom_site_fract_x
 _atom_site_fract_y
 _atom_site_fract_z
 _atom_site_occupancy
  Ti  Ti0  1  0.000228  0.755291  0.255388  1
  Ti  Ti1  1  0.241396  0.242867  0.254119  1
  Ti  Ti2  1  0.762503  0.002164  0.253884  1
  Ti  Ti3  1  0.003988  0.246876  0.745439  1
  Ti  Ti4  1  0.759763  0.756447  0.744760  1
  Ti  Ti5  1  0.237753  0.000826  0.747121  1
  Ti  Ti6  1  0.325635  0.659018  0.498303  1
  Ti  Ti7  1  0.671417  0.338097  0.498348  1
  Ti  Ti8  1  0.671701  0.337527  0.002018  1
  Ti  Ti9  1  0.325516  0.659424  0.002064  1
  Ga  Ga10  1  0.598350  0.997660  0.754490  1
  Si  Si11  1  0.600085  0.602844  0.243578  1
  Si  Si12  1  0.400821  0.000405  0.244986  1
  Si  Si13  1  0.000628  0.605566  0.755448  1
  Si  Si14  1  0.402113  0.399522  0.756676  1
  P  P15  1  0.998075  0.393645  0.243502  1
  O  O16  1  0.000023  0.001821  0.499876  1
