# generated using pymatgen
data_Th4SiPd7Rh5
_symmetry_space_group_name_H-M   'P 1'
_cell_length_a   7.38151050
_cell_length_b   7.38151004
_cell_length_c   7.38151062
_cell_angle_alpha   109.18650474
_cell_angle_beta   109.18650564
_cell_angle_gamma   110.04216621
_symmetry_Int_Tables_number   1
_chemical_formula_structural   Th4SiPd7Rh5
_chemical_formula_sum   'Th4 Si1 Pd7 Rh5'
_cell_volume   309.58607938
_cell_formula_units_Z   1
loop_
 _symmetry_equiv_pos_site_id
 _symmetry_equiv_pos_as_xyz
  1  'x, y, z'
loop_
 _atom_site_type_symbol
 _atom_site_label
 _atom_site_symmetry_multiplicity
 _atom_site_fract_x
 _atom_site_fract_y
 _atom_site_fract_z
 _atom_site_occupancy
  Th  Th0  1  0.004171  0.004171  0.507300  1
  Th  Th1  1  0.004171  0.496871  0.000000  1
  Th  Th2  1  0.496871  0.004171  0.000000  1
  Th  Th3  1  0.496871  0.496871  0.492700  1
  Si  Si4  1  0.000494  0.000494  0.000000  1
  Pd  Pd5  1  0.749909  0.249909  0.500000  1
  Pd  Pd6  1  0.753849  0.501432  0.252417  1
  Pd  Pd7  1  0.501432  0.249015  0.747583  1
  Pd  Pd8  1  0.249015  0.501432  0.747583  1
  Pd  Pd9  1  0.249909  0.749909  0.500000  1
  Pd  Pd10  1  0.501432  0.753849  0.252417  1
  Pd  Pd11  1  0.721106  0.721106  0.000000  1
  Rh  Rh12  1  0.269248  0.998976  0.270272  1
  Rh  Rh13  1  0.998976  0.269248  0.270272  1
  Rh  Rh14  1  0.274869  0.274869  0.000000  1
  Rh  Rh15  1  0.728704  0.998976  0.729728  1
  Rh  Rh16  1  0.998976  0.728704  0.729728  1
