# generated using pymatgen
data_Ho4Al17SiIr5Pt
_symmetry_space_group_name_H-M   'P 1'
_cell_length_a   7.55670013
_cell_length_b   7.55672562
_cell_length_c   9.39598247
_cell_angle_alpha   89.98510461
_cell_angle_beta   89.97874723
_cell_angle_gamma   119.67772850
_symmetry_Int_Tables_number   1
_chemical_formula_structural   Ho4Al17SiIr5Pt
_chemical_formula_sum   'Ho4 Al17 Si1 Ir5 Pt1'
_cell_volume   466.16512752
_cell_formula_units_Z   1
loop_
 _symmetry_equiv_pos_site_id
 _symmetry_equiv_pos_as_xyz
  1  'x, y, z'
loop_
 _atom_site_type_symbol
 _atom_site_label
 _atom_site_symmetry_multiplicity
 _atom_site_fract_x
 _atom_site_fract_y
 _atom_site_fract_z
 _atom_site_occupancy
  Ho  Ho0  1  0.993810  0.676218  0.250543  1
  Ho  Ho1  1  0.003906  0.330429  0.749521  1
  Ho  Ho2  1  0.676127  0.993887  0.250433  1
  Ho  Ho3  1  0.330331  0.003881  0.749459  1
  Al  Al4  1  0.875196  0.874605  0.749633  1
  Al  Al5  1  0.003492  0.336823  0.078287  1
  Al  Al6  1  0.002156  0.669234  0.923611  1
  Al  Al7  1  0.999339  0.665351  0.574776  1
  Al  Al8  1  0.337336  0.000058  0.423581  1
  Al  Al9  1  0.000420  0.336891  0.423041  1
  Al  Al10  1  0.665714  0.998929  0.575224  1
  Al  Al11  1  0.665617  0.995880  0.923554  1
  Al  Al12  1  0.333544  0.997294  0.078117  1
  Al  Al13  1  0.331577  0.331506  0.556922  1
  Al  Al14  1  0.663960  0.663912  0.447602  1
  Al  Al15  1  0.663127  0.666292  0.054646  1
  Al  Al16  1  0.328989  0.332317  0.940561  1
  Al  Al17  1  0.337403  0.550218  0.250461  1
  Al  Al18  1  0.661189  0.453894  0.747588  1
  Al  Al19  1  0.548065  0.337217  0.252418  1
  Al  Al20  1  0.451864  0.660819  0.749637  1
  Si  Si21  1  0.131779  0.131090  0.250257  1
  Ir  Ir22  1  0.326415  0.670161  0.000302  1
  Ir  Ir23  1  0.326628  0.670100  0.499791  1
  Ir  Ir24  1  0.670655  0.326147  0.499841  1
  Ir  Ir25  1  0.000399  0.000665  0.007274  1
  Ir  Ir26  1  0.000685  0.000316  0.492571  1
  Pt  Pt27  1  0.670275  0.325861  0.000348  1
