# generated using pymatgen
data_Th2Si2PRh3
_symmetry_space_group_name_H-M   'P 1'
_cell_length_a   8.95691546
_cell_length_b   8.95691534
_cell_length_c   4.13209900
_cell_angle_alpha   90.00000000
_cell_angle_beta   90.00000000
_cell_angle_gamma   153.83853481
_symmetry_Int_Tables_number   1
_chemical_formula_structural   Th2Si2PRh3
_chemical_formula_sum   'Th2 Si2 P1 Rh3'
_cell_volume   146.16050020
_cell_formula_units_Z   1
loop_
 _symmetry_equiv_pos_site_id
 _symmetry_equiv_pos_as_xyz
  1  'x, y, z'
loop_
 _atom_site_type_symbol
 _atom_site_label
 _atom_site_symmetry_multiplicity
 _atom_site_fract_x
 _atom_site_fract_y
 _atom_site_fract_z
 _atom_site_occupancy
  Th  Th0  1  0.101099  0.898901  0.750000  1
  Th  Th1  1  0.898195  0.101805  0.250000  1
  Si  Si2  1  0.324768  0.675232  0.750000  1
  Si  Si3  1  0.676371  0.323629  0.250000  1
  P  P4  1  0.538728  0.461272  0.250000  1
  Rh  Rh5  1  0.464958  0.535042  0.750000  1
  Rh  Rh6  1  0.248161  0.751839  0.250000  1
  Rh  Rh7  1  0.747720  0.252280  0.750000  1
