# generated using pymatgen
data_Er9Mg(Ni2Au)2
_symmetry_space_group_name_H-M   'P 1'
_cell_length_a   8.34462081
_cell_length_b   8.34462151
_cell_length_c   8.34462046
_cell_angle_alpha   126.81652363
_cell_angle_beta   126.81653243
_cell_angle_gamma   78.55021892
_symmetry_Int_Tables_number   1
_chemical_formula_structural   Er9Mg(Ni2Au)2
_chemical_formula_sum   'Er9 Mg1 Ni4 Au2'
_cell_volume   360.51560631
_cell_formula_units_Z   1
loop_
 _symmetry_equiv_pos_site_id
 _symmetry_equiv_pos_as_xyz
  1  'x, y, z'
loop_
 _atom_site_type_symbol
 _atom_site_label
 _atom_site_symmetry_multiplicity
 _atom_site_fract_x
 _atom_site_fract_y
 _atom_site_fract_z
 _atom_site_occupancy
  Er  Er0  1  0.500000  0.500000  0.000000  1
  Er  Er1  1  0.812667  0.286123  0.828428  1
  Er  Er2  1  0.187333  0.713877  0.171572  1
  Er  Er3  1  0.457695  0.984238  0.171572  1
  Er  Er4  1  0.286123  0.457695  0.473456  1
  Er  Er5  1  0.015762  0.187333  0.473456  1
  Er  Er6  1  0.542305  0.015762  0.828428  1
  Er  Er7  1  0.713877  0.542305  0.526544  1
  Er  Er8  1  0.984238  0.812667  0.526544  1
  Mg  Mg9  1  0.000000  0.000000  0.000000  1
  Ni  Ni10  1  0.132937  0.623762  0.756701  1
  Ni  Ni11  1  0.867063  0.376238  0.243299  1
  Ni  Ni12  1  0.623762  0.867063  0.490826  1
  Ni  Ni13  1  0.376238  0.132937  0.509174  1
  Au  Au14  1  0.254731  0.254731  0.000000  1
  Au  Au15  1  0.745269  0.745269  0.000000  1
