# generated using pymatgen
data_K4CrGaF10
_symmetry_space_group_name_H-M   'P 1'
_cell_length_a   5.73534700
_cell_length_b   7.51469500
_cell_length_c   11.70300000
_cell_angle_alpha   90.00000000
_cell_angle_beta   90.00000000
_cell_angle_gamma   90.00000000
_symmetry_Int_Tables_number   1
_chemical_formula_structural   K4CrGaF10
_chemical_formula_sum   'K8 Cr2 Ga2 F20'
_cell_volume   504.39208421
_cell_formula_units_Z   2
loop_
 _symmetry_equiv_pos_site_id
 _symmetry_equiv_pos_as_xyz
  1  'x, y, z'
loop_
 _atom_site_type_symbol
 _atom_site_label
 _atom_site_symmetry_multiplicity
 _atom_site_fract_x
 _atom_site_fract_y
 _atom_site_fract_z
 _atom_site_occupancy
  K  K0  1  0.250000  0.151781  0.585741  1
  K  K1  1  0.250000  0.651781  0.914259  1
  K  K2  1  0.750000  0.844640  0.416251  1
  K  K3  1  0.750000  0.344640  0.083749  1
  K  K4  1  0.250000  0.489883  0.272781  1
  K  K5  1  0.250000  0.989883  0.227219  1
  K  K6  1  0.750000  0.511248  0.727329  1
  K  K7  1  0.750000  0.011248  0.772671  1
  Cr  Cr8  1  0.250000  0.664972  0.558948  1
  Cr  Cr9  1  0.250000  0.164972  0.941052  1
  Ga  Ga10  1  0.750000  0.329153  0.438092  1
  Ga  Ga11  1  0.750000  0.829153  0.061908  1
  F  F12  1  0.998591  0.499229  0.500002  1
  F  F13  1  0.501409  0.999229  0.999998  1
  F  F14  1  0.501409  0.499229  0.500002  1
  F  F15  1  0.998591  0.999229  0.999998  1
  F  F16  1  0.250000  0.532366  0.698511  1
  F  F17  1  0.250000  0.032366  0.801489  1
  F  F18  1  0.750000  0.470622  0.306038  1
  F  F19  1  0.750000  0.970622  0.193962  1
  F  F20  1  0.250000  0.779810  0.408768  1
  F  F21  1  0.250000  0.279810  0.091232  1
  F  F22  1  0.750000  0.226641  0.588116  1
  F  F23  1  0.750000  0.726641  0.911884  1
  F  F24  1  0.008445  0.820910  0.611661  1
  F  F25  1  0.491555  0.320910  0.888339  1
  F  F26  1  0.507721  0.179304  0.388201  1
  F  F27  1  0.992279  0.679304  0.111799  1
  F  F28  1  0.992279  0.179304  0.388201  1
  F  F29  1  0.507721  0.679304  0.111799  1
  F  F30  1  0.491555  0.820910  0.611661  1
  F  F31  1  0.008445  0.320910  0.888339  1
