# generated using pymatgen
data_BaLiSc(H6Ir)2
_symmetry_space_group_name_H-M   'P 1'
_cell_length_a   4.81527400
_cell_length_b   4.81527520
_cell_length_c   8.29568800
_cell_angle_alpha   90.00000000
_cell_angle_beta   90.00000000
_cell_angle_gamma   119.99999173
_symmetry_Int_Tables_number   1
_chemical_formula_structural   BaLiSc(H6Ir)2
_chemical_formula_sum   'Ba1 Li1 Sc1 H12 Ir2'
_cell_volume   166.58089663
_cell_formula_units_Z   1
loop_
 _symmetry_equiv_pos_site_id
 _symmetry_equiv_pos_as_xyz
  1  'x, y, z'
loop_
 _atom_site_type_symbol
 _atom_site_label
 _atom_site_symmetry_multiplicity
 _atom_site_fract_x
 _atom_site_fract_y
 _atom_site_fract_z
 _atom_site_occupancy
  Ba  Ba0  1  0.000000  0.000000  0.026764  1
  Li  Li1  1  0.666667  0.333333  0.363019  1
  Sc  Sc2  1  0.333333  0.666667  0.609224  1
  H  H3  1  0.165077  0.834923  0.394069  1
  H  H4  1  0.669847  0.834923  0.394069  1
  H  H5  1  0.165077  0.330153  0.394069  1
  H  H6  1  0.834485  0.165515  0.606474  1
  H  H7  1  0.331029  0.165515  0.606474  1
  H  H8  1  0.834485  0.668971  0.606474  1
  H  H9  1  0.500518  0.001035  0.832233  1
  H  H10  1  0.500518  0.499482  0.832233  1
  H  H11  1  0.998965  0.499482  0.832233  1
  H  H12  1  0.496523  0.993048  0.166876  1
  H  H13  1  0.496523  0.503477  0.166876  1
  H  H14  1  0.006952  0.503477  0.166876  1
  Ir  Ir15  1  0.666667  0.333333  0.716520  1
  Ir  Ir16  1  0.333333  0.666667  0.285516  1
