# generated using pymatgen
data_Sc6Ti2Al14Os6Pt
_symmetry_space_group_name_H-M   'P 1'
_cell_length_a   8.81164525
_cell_length_b   8.81357094
_cell_length_c   8.81357085
_cell_angle_alpha   59.90472693
_cell_angle_beta   60.00722835
_cell_angle_gamma   60.00722595
_symmetry_Int_Tables_number   1
_chemical_formula_structural   Sc6Ti2Al14Os6Pt
_chemical_formula_sum   'Sc6 Ti2 Al14 Os6 Pt1'
_cell_volume   483.70379716
_cell_formula_units_Z   1
loop_
 _symmetry_equiv_pos_site_id
 _symmetry_equiv_pos_as_xyz
  1  'x, y, z'
loop_
 _atom_site_type_symbol
 _atom_site_label
 _atom_site_symmetry_multiplicity
 _atom_site_fract_x
 _atom_site_fract_y
 _atom_site_fract_z
 _atom_site_occupancy
  Sc  Sc0  1  0.709345  0.711857  0.284430  1
  Sc  Sc1  1  0.294369  0.711857  0.284430  1
  Sc  Sc2  1  0.708422  0.291578  0.291578  1
  Sc  Sc3  1  0.294369  0.284430  0.711857  1
  Sc  Sc4  1  0.709345  0.284430  0.711857  1
  Sc  Sc5  1  0.286168  0.713832  0.713832  1
  Ti  Ti6  1  0.876883  0.876388  0.369844  1
  Ti  Ti7  1  0.876883  0.369844  0.876388  1
  Al  Al8  1  0.364770  0.877913  0.877913  1
  Al  Al9  1  0.879403  0.877913  0.877913  1
  Al  Al10  1  0.120802  0.124959  0.633439  1
  Al  Al11  1  0.120802  0.633439  0.124959  1
  Al  Al12  1  0.634907  0.122754  0.122754  1
  Al  Al13  1  0.119586  0.122754  0.122754  1
  Al  Al14  1  0.663889  0.664784  0.007439  1
  Al  Al15  1  0.663889  0.007439  0.664784  1
  Al  Al16  1  0.012816  0.662780  0.662780  1
  Al  Al17  1  0.661625  0.662780  0.662780  1
  Al  Al18  1  0.336128  0.336622  0.991121  1
  Al  Al19  1  0.336128  0.991121  0.336622  1
  Al  Al20  1  0.989937  0.337318  0.337318  1
  Al  Al21  1  0.335426  0.337318  0.337318  1
  Os  Os22  1  0.999897  0.998326  0.499036  1
  Os  Os23  1  0.502741  0.998326  0.499036  1
  Os  Os24  1  0.998263  0.501737  0.501737  1
  Os  Os25  1  0.502741  0.499036  0.998326  1
  Os  Os26  1  0.999897  0.499036  0.998326  1
  Os  Os27  1  0.500801  0.999199  0.999199  1
  Pt  Pt28  1  0.999769  0.000231  0.000231  1
