# generated using pymatgen
data_Zr3Al3CuRu5
_symmetry_space_group_name_H-M   'P 1'
_cell_length_a   4.45490301
_cell_length_b   6.36980900
_cell_length_c   13.23724102
_cell_angle_alpha   90.00000000
_cell_angle_beta   89.99423192
_cell_angle_gamma   90.00000000
_symmetry_Int_Tables_number   1
_chemical_formula_structural   Zr3Al3CuRu5
_chemical_formula_sum   'Zr6 Al6 Cu2 Ru10'
_cell_volume   375.63161463
_cell_formula_units_Z   2
loop_
 _symmetry_equiv_pos_site_id
 _symmetry_equiv_pos_as_xyz
  1  'x, y, z'
loop_
 _atom_site_type_symbol
 _atom_site_label
 _atom_site_symmetry_multiplicity
 _atom_site_fract_x
 _atom_site_fract_y
 _atom_site_fract_z
 _atom_site_occupancy
  Zr  Zr0  1  0.000081  0.000000  0.002374  1
  Zr  Zr1  1  0.500219  0.500000  0.167497  1
  Zr  Zr2  1  0.000217  0.000000  0.333355  1
  Zr  Zr3  1  0.499979  0.500000  0.499186  1
  Zr  Zr4  1  0.999770  0.000000  0.664329  1
  Zr  Zr5  1  0.499710  0.500000  0.833358  1
  Al  Al6  1  0.000030  0.500000  0.002442  1
  Al  Al7  1  0.500160  0.000000  0.166905  1
  Al  Al8  1  0.000166  0.500000  0.333392  1
  Al  Al9  1  0.499983  0.000000  0.499793  1
  Al  Al10  1  0.999816  0.500000  0.664287  1
  Al  Al11  1  0.499868  0.000000  0.833396  1
  Cu  Cu12  1  0.999761  0.249118  0.833295  1
  Cu  Cu13  1  0.999761  0.750881  0.833295  1
  Ru  Ru14  1  0.500074  0.250294  0.996074  1
  Ru  Ru15  1  0.500074  0.749707  0.996074  1
  Ru  Ru16  1  0.000228  0.250885  0.164215  1
  Ru  Ru17  1  0.000228  0.749114  0.164215  1
  Ru  Ru18  1  0.500234  0.248184  0.333300  1
  Ru  Ru19  1  0.500234  0.751816  0.333300  1
  Ru  Ru20  1  0.999975  0.250978  0.502440  1
  Ru  Ru21  1  0.999975  0.749022  0.502440  1
  Ru  Ru22  1  0.499732  0.250324  0.670520  1
  Ru  Ru23  1  0.499732  0.749676  0.670520  1
