# generated using pymatgen
data_Mn28Ru
_symmetry_space_group_name_H-M   'P 1'
_cell_length_a   7.48769343
_cell_length_b   7.48769364
_cell_length_c   7.48769300
_cell_angle_alpha   109.47122160
_cell_angle_beta   109.47122217
_cell_angle_gamma   109.47122234
_symmetry_Int_Tables_number   1
_chemical_formula_structural   Mn28Ru
_chemical_formula_sum   'Mn28 Ru1'
_cell_volume   323.16345179
_cell_formula_units_Z   1
loop_
 _symmetry_equiv_pos_site_id
 _symmetry_equiv_pos_as_xyz
  1  'x, y, z'
loop_
 _atom_site_type_symbol
 _atom_site_label
 _atom_site_symmetry_multiplicity
 _atom_site_fract_x
 _atom_site_fract_y
 _atom_site_fract_z
 _atom_site_occupancy
  Mn  Mn0  1  0.637781  0.637781  0.637781  1
  Mn  Mn1  1  0.000000  0.000000  0.362220  1
  Mn  Mn2  1  0.362220  0.000000  0.000000  1
  Mn  Mn3  1  0.000000  0.362220  0.000000  1
  Mn  Mn4  1  0.374493  0.374493  0.180029  1
  Mn  Mn5  1  0.194464  0.194464  0.819971  1
  Mn  Mn6  1  0.625508  0.805537  0.000000  1
  Mn  Mn7  1  0.805537  0.625508  0.000000  1
  Mn  Mn8  1  0.180029  0.374493  0.374493  1
  Mn  Mn9  1  0.374493  0.180029  0.374493  1
  Mn  Mn10  1  0.000000  0.805537  0.625508  1
  Mn  Mn11  1  0.194464  0.819971  0.194464  1
  Mn  Mn12  1  0.819971  0.194464  0.194464  1
  Mn  Mn13  1  0.805537  0.000000  0.625508  1
  Mn  Mn14  1  0.000000  0.625508  0.805537  1
  Mn  Mn15  1  0.625508  0.000000  0.805537  1
  Mn  Mn16  1  0.391792  0.391792  0.712115  1
  Mn  Mn17  1  0.679676  0.679676  0.287883  1
  Mn  Mn18  1  0.608207  0.320324  0.000000  1
  Mn  Mn19  1  0.320324  0.608207  0.000000  1
  Mn  Mn20  1  0.712115  0.391792  0.391792  1
  Mn  Mn21  1  0.391792  0.712115  0.391792  1
  Mn  Mn22  1  0.000000  0.320324  0.608207  1
  Mn  Mn23  1  0.679676  0.287883  0.679676  1
  Mn  Mn24  1  0.287883  0.679676  0.679676  1
  Mn  Mn25  1  0.320324  0.000000  0.608207  1
  Mn  Mn26  1  0.000000  0.608207  0.320324  1
  Mn  Mn27  1  0.608207  0.000000  0.320324  1
  Ru  Ru28  1  0.000000  0.000000  0.000000  1
