# generated using pymatgen
data_NO2F
_symmetry_space_group_name_H-M   'P 1'
_cell_length_a   4.80072540
_cell_length_b   4.80072520
_cell_length_c   7.16839632
_cell_angle_alpha   74.62812760
_cell_angle_beta   74.62812559
_cell_angle_gamma   66.97263636
_symmetry_Int_Tables_number   1
_chemical_formula_structural   NO2F
_chemical_formula_sum   'N2 O4 F2'
_cell_volume   144.16120987
_cell_formula_units_Z   2
loop_
 _symmetry_equiv_pos_site_id
 _symmetry_equiv_pos_as_xyz
  1  'x, y, z'
loop_
 _atom_site_type_symbol
 _atom_site_label
 _atom_site_symmetry_multiplicity
 _atom_site_fract_x
 _atom_site_fract_y
 _atom_site_fract_z
 _atom_site_occupancy
  N  N0  1  0.432384  0.567616  0.750000  1
  N  N1  1  0.567616  0.432384  0.250000  1
  O  O2  1  0.384665  0.355723  0.867229  1
  O  O3  1  0.644277  0.615335  0.632771  1
  O  O4  1  0.615335  0.644277  0.132771  1
  O  O5  1  0.355723  0.384665  0.367229  1
  F  F6  1  0.142773  0.857227  0.750000  1
  F  F7  1  0.857227  0.142773  0.250000  1
