# generated using pymatgen
data_Eu2GaIrPt
_symmetry_space_group_name_H-M   'P 1'
_cell_length_a   5.79722356
_cell_length_b   5.79722242
_cell_length_c   7.93206448
_cell_angle_alpha   78.77804089
_cell_angle_beta   78.77804421
_cell_angle_gamma   59.68631108
_symmetry_Int_Tables_number   1
_chemical_formula_structural   Eu2GaIrPt
_chemical_formula_sum   'Eu4 Ga2 Ir2 Pt2'
_cell_volume   224.26411156
_cell_formula_units_Z   2
loop_
 _symmetry_equiv_pos_site_id
 _symmetry_equiv_pos_as_xyz
  1  'x, y, z'
loop_
 _atom_site_type_symbol
 _atom_site_label
 _atom_site_symmetry_multiplicity
 _atom_site_fract_x
 _atom_site_fract_y
 _atom_site_fract_z
 _atom_site_occupancy
  Eu  Eu0  1  0.788194  0.510296  0.353855  1
  Eu  Eu1  1  0.489704  0.211806  0.146145  1
  Eu  Eu2  1  0.214717  0.494078  0.646739  1
  Eu  Eu3  1  0.505922  0.785283  0.853261  1
  Ga  Ga4  1  0.117171  0.882829  0.250000  1
  Ga  Ga5  1  0.896427  0.103573  0.750000  1
  Ir  Ir6  1  0.004315  0.733134  0.008796  1
  Ir  Ir7  1  0.266866  0.995685  0.491204  1
  Pt  Pt8  1  0.994937  0.278255  0.994970  1
  Pt  Pt9  1  0.721745  0.005063  0.505030  1
