# generated using pymatgen
data_Lu8ZrSi16W11
_symmetry_space_group_name_H-M   'P 1'
_cell_length_a   6.69831262
_cell_length_b   6.90135785
_cell_length_c   12.93073299
_cell_angle_alpha   89.92570194
_cell_angle_beta   89.93091902
_cell_angle_gamma   90.03817208
_symmetry_Int_Tables_number   1
_chemical_formula_structural   Lu8ZrSi16W11
_chemical_formula_sum   'Lu8 Zr1 Si16 W11'
_cell_volume   597.75377288
_cell_formula_units_Z   1
loop_
 _symmetry_equiv_pos_site_id
 _symmetry_equiv_pos_as_xyz
  1  'x, y, z'
loop_
 _atom_site_type_symbol
 _atom_site_label
 _atom_site_symmetry_multiplicity
 _atom_site_fract_x
 _atom_site_fract_y
 _atom_site_fract_z
 _atom_site_occupancy
  Lu  Lu0  1  0.495560  0.669989  0.593085  1
  Lu  Lu1  1  0.995169  0.829043  0.908005  1
  Lu  Lu2  1  0.505942  0.330474  0.092935  1
  Lu  Lu3  1  0.003409  0.168312  0.406526  1
  Lu  Lu4  1  0.504737  0.331726  0.405353  1
  Lu  Lu5  1  0.005066  0.168669  0.093261  1
  Lu  Lu6  1  0.494872  0.671110  0.908251  1
  Lu  Lu7  1  0.996254  0.828312  0.593865  1
  Zr  Zr8  1  0.667509  0.168863  0.624108  1
  Si  Si9  1  0.663205  0.955170  0.450049  1
  Si  Si10  1  0.164021  0.540097  0.046988  1
  Si  Si11  1  0.334816  0.042822  0.956813  1
  Si  Si12  1  0.840954  0.468135  0.541839  1
  Si  Si13  1  0.327089  0.040167  0.541340  1
  Si  Si14  1  0.834621  0.459104  0.955869  1
  Si  Si15  1  0.665489  0.957476  0.045033  1
  Si  Si16  1  0.164071  0.539324  0.453512  1
  Si  Si17  1  0.461725  0.380170  0.754530  1
  Si  Si18  1  0.970246  0.123988  0.753194  1
  Si  Si19  1  0.535164  0.625262  0.248965  1
  Si  Si20  1  0.033253  0.873750  0.249028  1
  Si  Si21  1  0.700819  0.859666  0.751029  1
  Si  Si22  1  0.199169  0.637243  0.750462  1
  Si  Si23  1  0.302101  0.136950  0.249792  1
  Si  Si24  1  0.803062  0.362691  0.249375  1
  W  W25  1  0.166776  0.337049  0.876722  1
  W  W26  1  0.330105  0.838186  0.124623  1
  W  W27  1  0.834738  0.663768  0.371267  1
  W  W28  1  0.327155  0.835290  0.373432  1
  W  W29  1  0.830808  0.663031  0.124233  1
  W  W30  1  0.668631  0.160914  0.878060  1
  W  W31  1  0.169241  0.333998  0.624749  1
  W  W32  1  0.835464  0.500300  0.753217  1
  W  W33  1  0.338074  0.004144  0.752635  1
  W  W34  1  0.168120  0.497753  0.249350  1
  W  W35  1  0.662564  0.997055  0.248504  1
