# generated using pymatgen
data_Ta10Nb2B12Os5Ru7
_symmetry_space_group_name_H-M   'P 1'
_cell_length_a   3.12014500
_cell_length_b   9.05695944
_cell_length_c   15.75368157
_cell_angle_alpha   90.20667540
_cell_angle_beta   90.00000000
_cell_angle_gamma   90.00000000
_symmetry_Int_Tables_number   1
_chemical_formula_structural   Ta10Nb2B12Os5Ru7
_chemical_formula_sum   'Ta10 Nb2 B12 Os5 Ru7'
_cell_volume   445.18081186
_cell_formula_units_Z   1
loop_
 _symmetry_equiv_pos_site_id
 _symmetry_equiv_pos_as_xyz
  1  'x, y, z'
loop_
 _atom_site_type_symbol
 _atom_site_label
 _atom_site_symmetry_multiplicity
 _atom_site_fract_x
 _atom_site_fract_y
 _atom_site_fract_z
 _atom_site_occupancy
  Ta  Ta0  1  0.000000  0.799680  0.494955  1
  Ta  Ta1  1  0.000000  0.199574  0.504258  1
  Ta  Ta2  1  0.000000  0.300757  0.004467  1
  Ta  Ta3  1  0.000000  0.699396  0.995781  1
  Ta  Ta4  1  0.000000  0.515225  0.594184  1
  Ta  Ta5  1  0.000000  0.485172  0.405481  1
  Ta  Ta6  1  0.000000  0.013944  0.905900  1
  Ta  Ta7  1  0.000000  0.986064  0.094337  1
  Ta  Ta8  1  0.000000  0.686164  0.202519  1
  Ta  Ta9  1  0.000000  0.313953  0.797580  1
  Nb  Nb10  1  0.000000  0.187394  0.297900  1
  Nb  Nb11  1  0.000000  0.811754  0.702460  1
  B  B12  1  0.500000  0.604139  0.497238  1
  B  B13  1  0.500000  0.395645  0.502231  1
  B  B14  1  0.500000  0.104942  0.002990  1
  B  B15  1  0.500000  0.895060  0.997280  1
  B  B16  1  0.000000  0.608007  0.832855  1
  B  B17  1  0.000000  0.391755  0.167382  1
  B  B18  1  0.000000  0.109176  0.667092  1
  B  B19  1  0.000000  0.891322  0.332641  1
  B  B20  1  0.500000  0.715166  0.597769  1
  B  B21  1  0.500000  0.285973  0.401858  1
  B  B22  1  0.500000  0.213938  0.901291  1
  B  B23  1  0.500000  0.785971  0.098975  1
  Os  Os24  1  0.500000  0.984915  0.593659  1
  Os  Os25  1  0.500000  0.559093  0.735849  1
  Os  Os26  1  0.500000  0.440682  0.264236  1
  Os  Os27  1  0.500000  0.063252  0.766182  1
  Os  Os28  1  0.500000  0.937042  0.234345  1
  Ru  Ru29  1  0.500000  0.720212  0.355579  1
  Ru  Ru30  1  0.500000  0.280484  0.644289  1
  Ru  Ru31  1  0.500000  0.220921  0.143195  1
  Ru  Ru32  1  0.500001  0.779075  0.857062  1
  Ru  Ru33  1  0.500000  0.515779  0.093713  1
  Ru  Ru34  1  0.500000  0.484122  0.906344  1
  Ru  Ru35  1  0.499999  0.014251  0.406120  1
