# generated using pymatgen
data_Sc8V7Re5Si16
_symmetry_space_group_name_H-M   'P 1'
_cell_length_a   6.48125381
_cell_length_b   6.65432034
_cell_length_c   12.50678015
_cell_angle_alpha   90.05113757
_cell_angle_beta   90.09136570
_cell_angle_gamma   90.08816205
_symmetry_Int_Tables_number   1
_chemical_formula_structural   Sc8V7Re5Si16
_chemical_formula_sum   'Sc8 V7 Re5 Si16'
_cell_volume   539.39511437
_cell_formula_units_Z   1
loop_
 _symmetry_equiv_pos_site_id
 _symmetry_equiv_pos_as_xyz
  1  'x, y, z'
loop_
 _atom_site_type_symbol
 _atom_site_label
 _atom_site_symmetry_multiplicity
 _atom_site_fract_x
 _atom_site_fract_y
 _atom_site_fract_z
 _atom_site_occupancy
  Sc  Sc0  1  0.494114  0.667344  0.591641  1
  Sc  Sc1  1  0.990610  0.831967  0.909603  1
  Sc  Sc2  1  0.506870  0.330727  0.091446  1
  Sc  Sc3  1  0.006055  0.168700  0.406431  1
  Sc  Sc4  1  0.506021  0.331137  0.407310  1
  Sc  Sc5  1  0.005707  0.169232  0.092084  1
  Sc  Sc6  1  0.493521  0.668985  0.908697  1
  Sc  Sc7  1  0.993371  0.830774  0.592411  1
  V  V8  1  0.666708  0.165144  0.624719  1
  V  V9  1  0.167751  0.334603  0.873879  1
  V  V10  1  0.331842  0.834862  0.124205  1
  V  V11  1  0.831474  0.664242  0.376477  1
  V  V12  1  0.332956  0.836071  0.376482  1
  V  V13  1  0.832325  0.665077  0.124064  1
  V  V14  1  0.669086  0.162476  0.876829  1
  Re  Re15  1  0.172277  0.337889  0.621571  1
  Re  Re16  1  0.829761  0.504505  0.750557  1
  Re  Re17  1  0.332781  0.996100  0.750009  1
  Re  Re18  1  0.168975  0.498581  0.249526  1
  Re  Re19  1  0.667316  0.999859  0.250218  1
  Si  Si20  1  0.668661  0.957778  0.457604  1
  Si  Si21  1  0.166306  0.541911  0.042663  1
  Si  Si22  1  0.332236  0.042625  0.957363  1
  Si  Si23  1  0.832640  0.458912  0.542475  1
  Si  Si24  1  0.335540  0.039416  0.542848  1
  Si  Si25  1  0.832831  0.457295  0.956682  1
  Si  Si26  1  0.667145  0.956941  0.042736  1
  Si  Si27  1  0.164166  0.545813  0.454730  1
  Si  Si28  1  0.466300  0.370494  0.752446  1
  Si  Si29  1  0.963557  0.129331  0.750769  1
  Si  Si30  1  0.536827  0.628975  0.249797  1
  Si  Si31  1  0.036252  0.869814  0.250042  1
  Si  Si32  1  0.696079  0.863647  0.750578  1
  Si  Si33  1  0.195379  0.638494  0.752564  1
  Si  Si34  1  0.303439  0.135537  0.249172  1
  Si  Si35  1  0.803124  0.364739  0.249371  1
