# generated using pymatgen
data_HoLu4Co16(TcP4)3
_symmetry_space_group_name_H-M   'P 1'
_cell_length_a   11.97932600
_cell_length_b   11.97932682
_cell_length_c   3.68592700
_cell_angle_alpha   90.00000000
_cell_angle_beta   90.00000000
_cell_angle_gamma   120.00000327
_symmetry_Int_Tables_number   1
_chemical_formula_structural   HoLu4Co16(TcP4)3
_chemical_formula_sum   'Ho1 Lu4 Co16 Tc3 P12'
_cell_volume   458.08085808
_cell_formula_units_Z   1
loop_
 _symmetry_equiv_pos_site_id
 _symmetry_equiv_pos_as_xyz
  1  'x, y, z'
loop_
 _atom_site_type_symbol
 _atom_site_label
 _atom_site_symmetry_multiplicity
 _atom_site_fract_x
 _atom_site_fract_y
 _atom_site_fract_z
 _atom_site_occupancy
  Ho  Ho0  1  0.333333  0.666667  0.000000  1
  Lu  Lu1  1  0.666667  0.333333  0.000000  1
  Lu  Lu2  1  0.815780  0.815759  0.500000  1
  Lu  Lu3  1  0.184241  0.000021  0.500000  1
  Lu  Lu4  1  0.999979  0.184220  0.500000  1
  Co  Co5  1  0.872868  0.356122  0.500000  1
  Co  Co6  1  0.643878  0.516747  0.500000  1
  Co  Co7  1  0.483253  0.127132  0.500000  1
  Co  Co8  1  0.356215  0.874076  0.500000  1
  Co  Co9  1  0.517861  0.643785  0.500000  1
  Co  Co10  1  0.125924  0.482139  0.500000  1
  Co  Co11  1  0.804065  0.179146  0.000000  1
  Co  Co12  1  0.820854  0.624918  0.000000  1
  Co  Co13  1  0.375082  0.195935  0.000000  1
  Co  Co14  1  0.178681  0.804258  0.000000  1
  Co  Co15  1  0.625576  0.821319  0.000000  1
  Co  Co16  1  0.195742  0.374424  0.000000  1
  Co  Co17  1  0.281586  0.281141  0.500000  1
  Co  Co18  1  0.718859  0.000445  0.500000  1
  Co  Co19  1  0.999555  0.718414  0.500000  1
  Co  Co20  1  0.000000  0.000000  0.000000  1
  Tc  Tc21  1  0.446058  0.445880  0.000000  1
  Tc  Tc22  1  0.554120  0.000178  0.000000  1
  Tc  Tc23  1  0.999822  0.553942  0.000000  1
  P  P24  1  0.685648  0.165948  0.500000  1
  P  P25  1  0.834052  0.519700  0.500000  1
  P  P26  1  0.480300  0.314352  0.500000  1
  P  P27  1  0.164748  0.685753  0.500000  1
  P  P28  1  0.521005  0.835252  0.500000  1
  P  P29  1  0.314247  0.478995  0.500000  1
  P  P30  1  0.177594  0.177431  0.000000  1
  P  P31  1  0.822569  0.000162  0.000000  1
  P  P32  1  0.999838  0.822406  0.000000  1
  P  P33  1  0.638457  0.638562  0.000000  1
  P  P34  1  0.361438  0.999895  0.000000  1
  P  P35  1  0.000105  0.361543  0.000000  1
