# generated using pymatgen
data_LaTh7PdSe17
_symmetry_space_group_name_H-M   'P 1'
_cell_length_a   8.47350143
_cell_length_b   8.46120172
_cell_length_c   11.20383300
_cell_angle_alpha   80.68923046
_cell_angle_beta   80.50026823
_cell_angle_gamma   64.96723323
_symmetry_Int_Tables_number   1
_chemical_formula_structural   LaTh7PdSe17
_chemical_formula_sum   'La1 Th7 Pd1 Se17'
_cell_volume   714.02435113
_cell_formula_units_Z   1
loop_
 _symmetry_equiv_pos_site_id
 _symmetry_equiv_pos_as_xyz
  1  'x, y, z'
loop_
 _atom_site_type_symbol
 _atom_site_label
 _atom_site_symmetry_multiplicity
 _atom_site_fract_x
 _atom_site_fract_y
 _atom_site_fract_z
 _atom_site_occupancy
  La  La0  1  0.815664  0.307178  0.295717  1
  Th  Th1  1  0.304987  0.819172  0.295312  1
  Th  Th2  1  0.181254  0.694413  0.703246  1
  Th  Th3  1  0.695218  0.182544  0.703708  1
  Th  Th4  1  0.204967  0.202377  0.544871  1
  Th  Th5  1  0.796889  0.793880  0.453405  1
  Th  Th6  1  0.676399  0.677821  0.979130  1
  Th  Th7  1  0.320268  0.323855  0.022679  1
  Pd  Pd8  1  0.001264  0.999979  0.000534  1
  Se  Se9  1  0.824990  0.430490  0.539150  1
  Se  Se10  1  0.431925  0.819208  0.535044  1
  Se  Se11  1  0.178845  0.566654  0.466129  1
  Se  Se12  1  0.569311  0.171743  0.471191  1
  Se  Se13  1  0.957816  0.329131  0.018667  1
  Se  Se14  1  0.326166  0.958474  0.022752  1
  Se  Se15  1  0.042177  0.673786  0.973977  1
  Se  Se16  1  0.672229  0.046082  0.974522  1
  Se  Se17  1  0.221803  0.205645  0.280250  1
  Se  Se18  1  0.788240  0.788543  0.720574  1
  Se  Se19  1  0.051608  0.050162  0.776341  1
  Se  Se20  1  0.953083  0.941952  0.225554  1
  Se  Se21  1  0.302157  0.301888  0.755409  1
  Se  Se22  1  0.691586  0.708599  0.242605  1
  Se  Se23  1  0.516386  0.520070  0.831503  1
  Se  Se24  1  0.472365  0.491642  0.163048  1
  Se  Se25  1  0.002404  0.994713  0.504684  1
