# generated using pymatgen
data_PaP3O10
_symmetry_space_group_name_H-M   'P 1'
_cell_length_a   6.89949140
_cell_length_b   6.89949105
_cell_length_c   5.47206913
_cell_angle_alpha   67.87150394
_cell_angle_beta   67.87150426
_cell_angle_gamma   57.09542537
_symmetry_Int_Tables_number   1
_chemical_formula_structural   PaP3O10
_chemical_formula_sum   'Pa1 P3 O10'
_cell_volume   197.56996638
_cell_formula_units_Z   1
loop_
 _symmetry_equiv_pos_site_id
 _symmetry_equiv_pos_as_xyz
  1  'x, y, z'
loop_
 _atom_site_type_symbol
 _atom_site_label
 _atom_site_symmetry_multiplicity
 _atom_site_fract_x
 _atom_site_fract_y
 _atom_site_fract_z
 _atom_site_occupancy
  Pa  Pa0  1  0.070360  0.929640  0.500000  1
  P  P1  1  0.699932  0.300068  0.000000  1
  P  P2  1  0.511153  0.834584  0.824725  1
  P  P3  1  0.165416  0.488847  0.175275  1
  O  O4  1  0.680052  0.550677  0.921332  1
  O  O5  1  0.449323  0.319948  0.078668  1
  O  O6  1  0.818816  0.159405  0.235645  1
  O  O7  1  0.840595  0.181184  0.764355  1
  O  O8  1  0.382222  0.858685  0.627728  1
  O  O9  1  0.141315  0.617778  0.372272  1
  O  O10  1  0.685673  0.929166  0.692083  1
  O  O11  1  0.070834  0.314327  0.307917  1
  O  O12  1  0.337233  0.913324  0.084761  1
  O  O13  1  0.086676  0.662767  0.915239  1
