# generated using pymatgen
data_SrLa3(Al8Pt3)3
_symmetry_space_group_name_H-M   'P 1'
_cell_length_a   7.58905002
_cell_length_b   7.62901856
_cell_length_c   13.48356759
_cell_angle_alpha   84.60529626
_cell_angle_beta   79.17817332
_cell_angle_gamma   59.92435693
_symmetry_Int_Tables_number   1
_chemical_formula_structural   SrLa3(Al8Pt3)3
_chemical_formula_sum   'Sr1 La3 Al24 Pt9'
_cell_volume   663.53969863
_cell_formula_units_Z   1
loop_
 _symmetry_equiv_pos_site_id
 _symmetry_equiv_pos_as_xyz
  1  'x, y, z'
loop_
 _atom_site_type_symbol
 _atom_site_label
 _atom_site_symmetry_multiplicity
 _atom_site_fract_x
 _atom_site_fract_y
 _atom_site_fract_z
 _atom_site_occupancy
  Sr  Sr0  1  0.393829  0.168487  0.808146  1
  La  La1  1  0.604838  0.831988  0.192685  1
  La  La2  1  0.734668  0.498004  0.807659  1
  La  La3  1  0.265950  0.501304  0.192422  1
  Al  Al4  1  0.687409  0.834129  0.947945  1
  Al  Al5  1  0.313076  0.166459  0.053248  1
  Al  Al6  1  0.146855  0.831827  0.558676  1
  Al  Al7  1  0.853376  0.167949  0.439738  1
  Al  Al8  1  0.480570  0.166101  0.557217  1
  Al  Al9  1  0.520396  0.834076  0.441847  1
  Al  Al10  1  0.213840  0.165159  0.335005  1
  Al  Al11  1  0.785904  0.836046  0.663344  1
  Al  Al12  1  0.437342  0.507329  0.662228  1
  Al  Al13  1  0.563311  0.491226  0.335743  1
  Al  Al14  1  0.113155  0.157064  0.660936  1
  Al  Al15  1  0.888925  0.842422  0.337168  1
  Al  Al16  1  0.348075  0.503026  0.948666  1
  Al  Al17  1  0.649883  0.498306  0.053318  1
  Al  Al18  1  0.013074  0.164574  0.960596  1
  Al  Al19  1  0.984877  0.834335  0.043775  1
  Al  Al20  1  0.186304  0.499303  0.441471  1
  Al  Al21  1  0.814453  0.499951  0.557335  1
  Al  Al22  1  0.737269  0.164244  0.184244  1
  Al  Al23  1  0.263858  0.833065  0.816211  1
  Al  Al24  1  0.059768  0.636844  0.814973  1
  Al  Al25  1  0.937242  0.365268  0.185493  1
  Al  Al26  1  0.862474  0.038159  0.815533  1
  Al  Al27  1  0.138959  0.963520  0.184831  1
  Pt  Pt28  1  0.120005  0.495411  0.634942  1
  Pt  Pt29  1  0.879937  0.505501  0.363699  1
  Pt  Pt30  1  0.658744  0.170381  0.001081  1
  Pt  Pt31  1  0.340274  0.829943  0.001431  1
  Pt  Pt32  1  0.539777  0.167006  0.363536  1
  Pt  Pt33  1  0.460655  0.831912  0.635162  1
  Pt  Pt34  1  0.782194  0.172025  0.634006  1
  Pt  Pt35  1  0.219550  0.827510  0.364340  1
  Pt  Pt36  1  0.999182  0.500145  0.001349  1
