# generated using pymatgen
data_YbY2Al3Si2Pd
_symmetry_space_group_name_H-M   'P 1'
_cell_length_a   6.93052200
_cell_length_b   6.91374772
_cell_length_c   4.28511300
_cell_angle_alpha   90.00000000
_cell_angle_beta   90.00000000
_cell_angle_gamma   120.08029127
_symmetry_Int_Tables_number   1
_chemical_formula_structural   YbY2Al3Si2Pd
_chemical_formula_sum   'Yb1 Y2 Al3 Si2 Pd1'
_cell_volume   177.67259374
_cell_formula_units_Z   1
loop_
 _symmetry_equiv_pos_site_id
 _symmetry_equiv_pos_as_xyz
  1  'x, y, z'
loop_
 _atom_site_type_symbol
 _atom_site_label
 _atom_site_symmetry_multiplicity
 _atom_site_fract_x
 _atom_site_fract_y
 _atom_site_fract_z
 _atom_site_occupancy
  Yb  Yb0  1  0.418638  0.000000  0.000000  1
  Y  Y1  1  0.001106  0.421050  0.000000  1
  Y  Y2  1  0.580054  0.578949  0.000000  1
  Al  Al3  1  0.763211  0.000000  0.500000  1
  Al  Al4  1  0.236341  0.241744  0.500000  1
  Al  Al5  1  0.994598  0.758258  0.500000  1
  Si  Si6  1  0.671834  0.339078  0.500000  1
  Si  Si7  1  0.332757  0.660923  0.500000  1
  Pd  Pd8  1  0.001461  0.000000  0.000000  1
