# generated using pymatgen
data_Yb2AlPd5
_symmetry_space_group_name_H-M   'P 1'
_cell_length_a   4.25675700
_cell_length_b   5.70849100
_cell_length_c   11.16395200
_cell_angle_alpha   90.00000000
_cell_angle_beta   90.00000000
_cell_angle_gamma   90.00000000
_symmetry_Int_Tables_number   1
_chemical_formula_structural   Yb2AlPd5
_chemical_formula_sum   'Yb4 Al2 Pd10'
_cell_volume   271.28022696
_cell_formula_units_Z   2
loop_
 _symmetry_equiv_pos_site_id
 _symmetry_equiv_pos_as_xyz
  1  'x, y, z'
loop_
 _atom_site_type_symbol
 _atom_site_label
 _atom_site_symmetry_multiplicity
 _atom_site_fract_x
 _atom_site_fract_y
 _atom_site_fract_z
 _atom_site_occupancy
  Yb  Yb0  1  0.500000  0.166574  0.358188  1
  Yb  Yb1  1  0.500000  0.833426  0.641812  1
  Yb  Yb2  1  0.500000  0.666574  0.141812  1
  Yb  Yb3  1  0.500000  0.333426  0.858188  1
  Al  Al4  1  0.000000  0.000000  0.000000  1
  Al  Al5  1  0.000000  0.500000  0.500000  1
  Pd  Pd6  1  0.500000  0.172539  0.102790  1
  Pd  Pd7  1  0.500000  0.827461  0.897210  1
  Pd  Pd8  1  0.500000  0.672539  0.397210  1
  Pd  Pd9  1  0.500000  0.327461  0.602790  1
  Pd  Pd10  1  0.000000  0.000000  0.500000  1
  Pd  Pd11  1  0.000000  0.500000  0.000000  1
  Pd  Pd12  1  0.000000  0.920274  0.239917  1
  Pd  Pd13  1  0.000000  0.079726  0.760083  1
  Pd  Pd14  1  0.000000  0.420274  0.260083  1
  Pd  Pd15  1  0.000000  0.579726  0.739917  1
