# generated using pymatgen
data_Er4Al16Ga2PdRh5
_symmetry_space_group_name_H-M   'P 1'
_cell_length_a   7.53810579
_cell_length_b   7.53810589
_cell_length_c   9.46686900
_cell_angle_alpha   89.96585423
_cell_angle_beta   89.96585390
_cell_angle_gamma   119.32171466
_symmetry_Int_Tables_number   1
_chemical_formula_structural   Er4Al16Ga2PdRh5
_chemical_formula_sum   'Er4 Al16 Ga2 Pd1 Rh5'
_cell_volume   469.01756152
_cell_formula_units_Z   1
loop_
 _symmetry_equiv_pos_site_id
 _symmetry_equiv_pos_as_xyz
  1  'x, y, z'
loop_
 _atom_site_type_symbol
 _atom_site_label
 _atom_site_symmetry_multiplicity
 _atom_site_fract_x
 _atom_site_fract_y
 _atom_site_fract_z
 _atom_site_occupancy
  Er  Er0  1  0.993758  0.673238  0.750699  1
  Er  Er1  1  0.004470  0.325355  0.249441  1
  Er  Er2  1  0.674645  0.995530  0.750559  1
  Er  Er3  1  0.326762  0.006242  0.249301  1
  Al  Al4  1  0.005245  0.336288  0.576671  1
  Al  Al5  1  0.002387  0.667525  0.423730  1
  Al  Al6  1  0.000408  0.664280  0.074530  1
  Al  Al7  1  0.335720  0.999592  0.925470  1
  Al  Al8  1  0.000948  0.336047  0.924618  1
  Al  Al9  1  0.663953  0.999052  0.075382  1
  Al  Al10  1  0.663712  0.994755  0.423329  1
  Al  Al11  1  0.332475  0.997613  0.576270  1
  Al  Al12  1  0.332839  0.332877  0.051700  1
  Al  Al13  1  0.667123  0.667161  0.948300  1
  Al  Al14  1  0.666147  0.669306  0.555770  1
  Al  Al15  1  0.330694  0.333853  0.444230  1
  Al  Al16  1  0.339285  0.552310  0.750711  1
  Al  Al17  1  0.661488  0.451504  0.246602  1
  Al  Al18  1  0.548496  0.338512  0.753398  1
  Al  Al19  1  0.447690  0.660715  0.249289  1
  Ga  Ga20  1  0.131221  0.130099  0.750351  1
  Ga  Ga21  1  0.869901  0.868779  0.249649  1
  Pd  Pd22  1  0.671645  0.328355  0.500000  1
  Rh  Rh23  1  0.328652  0.671348  0.500000  1
  Rh  Rh24  1  0.328707  0.671293  0.000000  1
  Rh  Rh25  1  0.671877  0.328123  0.000000  1
  Rh  Rh26  1  0.999892  0.000108  0.500000  1
  Rh  Rh27  1  0.999859  0.000141  0.000000  1
