# generated using pymatgen
data_Tb2Lu6Sc12Si15As
_symmetry_space_group_name_H-M   'P 1'
_cell_length_a   7.09293976
_cell_length_b   7.32429378
_cell_length_c   13.89554692
_cell_angle_alpha   90.07505148
_cell_angle_beta   88.61353013
_cell_angle_gamma   90.01980577
_symmetry_Int_Tables_number   1
_chemical_formula_structural   Tb2Lu6Sc12Si15As
_chemical_formula_sum   'Tb2 Lu6 Sc12 Si15 As1'
_cell_volume   721.67242622
_cell_formula_units_Z   1
loop_
 _symmetry_equiv_pos_site_id
 _symmetry_equiv_pos_as_xyz
  1  'x, y, z'
loop_
 _atom_site_type_symbol
 _atom_site_label
 _atom_site_symmetry_multiplicity
 _atom_site_fract_x
 _atom_site_fract_y
 _atom_site_fract_z
 _atom_site_occupancy
  Tb  Tb0  1  0.503269  0.320386  0.402681  1
  Tb  Tb1  1  0.501153  0.678536  0.597151  1
  Lu  Lu2  1  0.011391  0.177105  0.095728  1
  Lu  Lu3  1  0.989054  0.823561  0.903783  1
  Lu  Lu4  1  0.489872  0.677021  0.902676  1
  Lu  Lu5  1  0.997023  0.822525  0.596086  1
  Lu  Lu6  1  0.510622  0.323663  0.097119  1
  Lu  Lu7  1  0.000571  0.177598  0.403378  1
  Sc  Sc8  1  0.167927  0.501167  0.749999  1
  Sc  Sc9  1  0.832364  0.498292  0.252778  1
  Sc  Sc10  1  0.331185  0.002461  0.250854  1
  Sc  Sc11  1  0.668087  0.998110  0.749630  1
  Sc  Sc12  1  0.344545  0.168738  0.626562  1
  Sc  Sc13  1  0.656776  0.829556  0.373902  1
  Sc  Sc14  1  0.155917  0.672655  0.376491  1
  Sc  Sc15  1  0.666853  0.822777  0.124772  1
  Sc  Sc16  1  0.841848  0.327758  0.623508  1
  Sc  Sc17  1  0.332669  0.176834  0.874885  1
  Sc  Sc18  1  0.834414  0.322601  0.874804  1
  Sc  Sc19  1  0.165955  0.677824  0.124658  1
  Si  Si20  1  0.039460  0.112995  0.750375  1
  Si  Si21  1  0.960388  0.886787  0.248703  1
  Si  Si22  1  0.457679  0.615549  0.248198  1
  Si  Si23  1  0.541675  0.384763  0.751594  1
  Si  Si24  1  0.289624  0.869078  0.751905  1
  Si  Si25  1  0.710649  0.129458  0.247433  1
  Si  Si26  1  0.206804  0.370749  0.248077  1
  Si  Si27  1  0.794619  0.629957  0.751842  1
  Si  Si28  1  0.814045  0.541319  0.457642  1
  Si  Si29  1  0.320174  0.962186  0.460258  1
  Si  Si30  1  0.840557  0.533992  0.039350  1
  Si  Si31  1  0.679340  0.037801  0.540232  1
  Si  Si32  1  0.159301  0.466736  0.960479  1
  Si  Si33  1  0.658563  0.034014  0.960123  1
  Si  Si34  1  0.341640  0.966677  0.039947  1
  As  As35  1  0.183989  0.458772  0.542396  1
