# generated using pymatgen
data_Y10(SnBi)3
_symmetry_space_group_name_H-M   'P 1'
_cell_length_a   9.07136536
_cell_length_b   9.10709086
_cell_length_c   6.49021600
_cell_angle_alpha   90.00000000
_cell_angle_beta   90.00000000
_cell_angle_gamma   119.83809837
_symmetry_Int_Tables_number   1
_chemical_formula_structural   Y10(SnBi)3
_chemical_formula_sum   'Y10 Sn3 Bi3'
_cell_volume   465.10212295
_cell_formula_units_Z   1
loop_
 _symmetry_equiv_pos_site_id
 _symmetry_equiv_pos_as_xyz
  1  'x, y, z'
loop_
 _atom_site_type_symbol
 _atom_site_label
 _atom_site_symmetry_multiplicity
 _atom_site_fract_x
 _atom_site_fract_y
 _atom_site_fract_z
 _atom_site_occupancy
  Y  Y0  1  0.759469  0.753675  0.250000  1
  Y  Y1  1  0.005242  0.245777  0.250000  1
  Y  Y2  1  0.764831  0.005636  0.750000  1
  Y  Y3  1  0.325784  0.659692  0.498714  1
  Y  Y4  1  0.236326  0.999734  0.250000  1
  Y  Y5  1  0.671680  0.337579  0.498755  1
  Y  Y6  1  0.999908  0.755811  0.750000  1
  Y  Y7  1  0.325784  0.659692  0.001286  1
  Y  Y8  1  0.237702  0.243325  0.750000  1
  Y  Y9  1  0.671680  0.337579  0.001245  1
  Sn  Sn10  1  0.997466  0.392363  0.750000  1
  Sn  Sn11  1  0.392577  0.389814  0.250000  1
  Sn  Sn12  1  0.001551  0.608708  0.250000  1
  Bi  Bi13  1  0.609162  0.611679  0.750000  1
  Bi  Bi14  1  0.391893  0.000162  0.750000  1
  Bi  Bi15  1  0.608945  0.998776  0.250000  1
