# generated using pymatgen
data_Sc2Si(PRu2)6
_symmetry_space_group_name_H-M   'P 1'
_cell_length_a   9.36512600
_cell_length_b   9.36512548
_cell_length_c   3.92655800
_cell_angle_alpha   90.00000000
_cell_angle_beta   90.00000000
_cell_angle_gamma   119.99999478
_symmetry_Int_Tables_number   1
_chemical_formula_structural   Sc2Si(PRu2)6
_chemical_formula_sum   'Sc2 Si1 P6 Ru12'
_cell_volume   298.24275115
_cell_formula_units_Z   1
loop_
 _symmetry_equiv_pos_site_id
 _symmetry_equiv_pos_as_xyz
  1  'x, y, z'
loop_
 _atom_site_type_symbol
 _atom_site_label
 _atom_site_symmetry_multiplicity
 _atom_site_fract_x
 _atom_site_fract_y
 _atom_site_fract_z
 _atom_site_occupancy
  Sc  Sc0  1  0.666667  0.333333  0.500000  1
  Sc  Sc1  1  0.333333  0.666667  0.000000  1
  Si  Si2  1  0.000000  0.000000  0.000000  1
  P  P3  1  0.599518  0.719694  0.500000  1
  P  P4  1  0.280306  0.879824  0.500000  1
  P  P5  1  0.120176  0.400482  0.500000  1
  P  P6  1  0.883723  0.573493  0.000000  1
  P  P7  1  0.426507  0.310229  0.000000  1
  P  P8  1  0.689771  0.116277  0.000000  1
  Ru  Ru9  1  0.552228  0.947885  0.500000  1
  Ru  Ru10  1  0.395659  0.447772  0.500000  1
  Ru  Ru11  1  0.912159  0.121017  0.500000  1
  Ru  Ru12  1  0.208858  0.087841  0.500000  1
  Ru  Ru13  1  0.878983  0.791142  0.500000  1
  Ru  Ru14  1  0.718470  0.886019  0.000000  1
  Ru  Ru15  1  0.113981  0.832450  0.000000  1
  Ru  Ru16  1  0.167550  0.281530  0.000000  1
  Ru  Ru17  1  0.427415  0.069850  0.000000  1
  Ru  Ru18  1  0.930150  0.357566  0.000000  1
  Ru  Ru19  1  0.642434  0.572585  0.000000  1
  Ru  Ru20  1  0.052115  0.604341  0.500000  1
