# generated using pymatgen
data_Sr2HoPtO6
_symmetry_space_group_name_H-M   'P 1'
_cell_length_a   5.83540436
_cell_length_b   5.86679500
_cell_length_c   8.25192017
_cell_angle_alpha   90.00000000
_cell_angle_beta   90.33910844
_cell_angle_gamma   90.00000000
_symmetry_Int_Tables_number   1
_chemical_formula_structural   Sr2HoPtO6
_chemical_formula_sum   'Sr4 Ho2 Pt2 O12'
_cell_volume   282.50053861
_cell_formula_units_Z   2
loop_
 _symmetry_equiv_pos_site_id
 _symmetry_equiv_pos_as_xyz
  1  'x, y, z'
loop_
 _atom_site_type_symbol
 _atom_site_label
 _atom_site_symmetry_multiplicity
 _atom_site_fract_x
 _atom_site_fract_y
 _atom_site_fract_z
 _atom_site_occupancy
  Sr  Sr0  1  0.507578  0.466133  0.249229  1
  Sr  Sr1  1  0.992421  0.966133  0.250772  1
  Sr  Sr2  1  0.007578  0.033866  0.749228  1
  Sr  Sr3  1  0.492421  0.533867  0.750771  1
  Ho  Ho4  1  0.000000  0.500001  0.000000  1
  Ho  Ho5  1  0.500000  0.000000  0.500000  1
  Pt  Pt6  1  0.500000  0.000000  0.000000  1
  Pt  Pt7  1  0.000000  0.500001  0.500000  1
  O  O8  1  0.772723  0.203227  0.038652  1
  O  O9  1  0.700126  0.726044  0.040112  1
  O  O10  1  0.425454  0.017757  0.237090  1
  O  O11  1  0.074546  0.517758  0.262910  1
  O  O12  1  0.799872  0.226045  0.459888  1
  O  O13  1  0.727276  0.703228  0.461347  1
  O  O14  1  0.272723  0.296772  0.538653  1
  O  O15  1  0.200127  0.773954  0.540112  1
  O  O16  1  0.925453  0.482244  0.737090  1
  O  O17  1  0.574546  0.982243  0.762910  1
  O  O18  1  0.299872  0.273955  0.959888  1
  O  O19  1  0.227276  0.796772  0.961348  1
