# generated using pymatgen
data_DyHoGa3Cu
_symmetry_space_group_name_H-M   'P 1'
_cell_length_a   4.36906400
_cell_length_b   4.36906451
_cell_length_c   7.20900600
_cell_angle_alpha   90.00000000
_cell_angle_beta   90.00000000
_cell_angle_gamma   119.99999616
_symmetry_Int_Tables_number   1
_chemical_formula_structural   DyHoGa3Cu
_chemical_formula_sum   'Dy1 Ho1 Ga3 Cu1'
_cell_volume   119.17437935
_cell_formula_units_Z   1
loop_
 _symmetry_equiv_pos_site_id
 _symmetry_equiv_pos_as_xyz
  1  'x, y, z'
loop_
 _atom_site_type_symbol
 _atom_site_label
 _atom_site_symmetry_multiplicity
 _atom_site_fract_x
 _atom_site_fract_y
 _atom_site_fract_z
 _atom_site_occupancy
  Dy  Dy0  1  0.333333  0.666667  0.260869  1
  Ho  Ho1  1  0.333333  0.666667  0.730969  1
  Ga  Ga2  1  0.666667  0.333333  0.481126  1
  Ga  Ga3  1  0.666667  0.333333  0.042844  1
  Ga  Ga4  1  0.000000  0.000000  0.949983  1
  Cu  Cu5  1  0.000000  0.000000  0.534211  1
