# generated using pymatgen
data_Zr10AgSn7
_symmetry_space_group_name_H-M   'P 1'
_cell_length_a   5.95304802
_cell_length_b   8.82187512
_cell_length_c   8.82205001
_cell_angle_alpha   119.99934989
_cell_angle_beta   90.00065323
_cell_angle_gamma   89.99869893
_symmetry_Int_Tables_number   1
_chemical_formula_structural   Zr10AgSn7
_chemical_formula_sum   'Zr10 Ag1 Sn7'
_cell_volume   401.23913263
_cell_formula_units_Z   1
loop_
 _symmetry_equiv_pos_site_id
 _symmetry_equiv_pos_as_xyz
  1  'x, y, z'
loop_
 _atom_site_type_symbol
 _atom_site_label
 _atom_site_symmetry_multiplicity
 _atom_site_fract_x
 _atom_site_fract_y
 _atom_site_fract_z
 _atom_site_occupancy
  Zr  Zr0  1  0.499998  0.333338  0.666675  1
  Zr  Zr1  1  0.499998  0.666663  0.333325  1
  Zr  Zr2  1  0.000000  0.666666  0.333332  1
  Zr  Zr3  1  0.000000  0.333335  0.666668  1
  Zr  Zr4  1  0.749523  0.279290  0.000000  1
  Zr  Zr5  1  0.749533  0.720723  0.720711  1
  Zr  Zr6  1  0.749533  0.000012  0.279289  1
  Zr  Zr7  1  0.250475  0.720714  0.000000  1
  Zr  Zr8  1  0.250470  0.279274  0.279287  1
  Zr  Zr9  1  0.250470  0.999987  0.720713  1
  Ag  Ag10  1  0.500018  0.000001  0.000000  1
  Sn  Sn11  1  0.750447  0.617584  0.000000  1
  Sn  Sn12  1  0.750422  0.382435  0.382432  1
  Sn  Sn13  1  0.750422  0.000003  0.617568  1
  Sn  Sn14  1  0.249547  0.382417  0.000000  1
  Sn  Sn15  1  0.249571  0.617564  0.617571  1
  Sn  Sn16  1  0.249571  0.999993  0.382429  1
  Sn  Sn17  1  0.000001  0.000002  0.000000  1
