# generated using pymatgen
data_Tb2Al4ZnCu5
_symmetry_space_group_name_H-M   'P 1'
_cell_length_a   4.12050500
_cell_length_b   5.28653300
_cell_length_c   8.97814500
_cell_angle_alpha   90.00000000
_cell_angle_beta   90.00000000
_cell_angle_gamma   90.00000000
_symmetry_Int_Tables_number   1
_chemical_formula_structural   Tb2Al4ZnCu5
_chemical_formula_sum   'Tb2 Al4 Zn1 Cu5'
_cell_volume   195.57259941
_cell_formula_units_Z   1
loop_
 _symmetry_equiv_pos_site_id
 _symmetry_equiv_pos_as_xyz
  1  'x, y, z'
loop_
 _atom_site_type_symbol
 _atom_site_label
 _atom_site_symmetry_multiplicity
 _atom_site_fract_x
 _atom_site_fract_y
 _atom_site_fract_z
 _atom_site_occupancy
  Tb  Tb0  1  0.000000  0.500000  0.000000  1
  Tb  Tb1  1  0.000000  0.000000  0.500000  1
  Al  Al2  1  0.500000  0.749411  0.257362  1
  Al  Al3  1  0.500000  0.250589  0.742638  1
  Al  Al4  1  0.500000  0.250589  0.257362  1
  Al  Al5  1  0.500000  0.749411  0.742638  1
  Zn  Zn6  1  0.500000  0.000000  0.000000  1
  Cu  Cu7  1  0.000000  0.500000  0.335520  1
  Cu  Cu8  1  0.000000  0.000000  0.833495  1
  Cu  Cu9  1  0.000000  0.000000  0.166505  1
  Cu  Cu10  1  0.000000  0.500000  0.664480  1
  Cu  Cu11  1  0.500000  0.500000  0.500000  1
