# generated using pymatgen
data_TmHf4Zr5Sn6
_symmetry_space_group_name_H-M   'P 1'
_cell_length_a   8.57501322
_cell_length_b   8.57501323
_cell_length_c   5.82025100
_cell_angle_alpha   90.00000000
_cell_angle_beta   90.00000000
_cell_angle_gamma   120.70162256
_symmetry_Int_Tables_number   1
_chemical_formula_structural   TmHf4Zr5Sn6
_chemical_formula_sum   'Tm1 Hf4 Zr5 Sn6'
_cell_volume   367.98308090
_cell_formula_units_Z   1
loop_
 _symmetry_equiv_pos_site_id
 _symmetry_equiv_pos_as_xyz
  1  'x, y, z'
loop_
 _atom_site_type_symbol
 _atom_site_label
 _atom_site_symmetry_multiplicity
 _atom_site_fract_x
 _atom_site_fract_y
 _atom_site_fract_z
 _atom_site_occupancy
  Tm  Tm0  1  0.764941  0.764941  0.750000  1
  Hf  Hf1  1  0.665297  0.333139  0.000264  1
  Hf  Hf2  1  0.333139  0.665297  0.000264  1
  Hf  Hf3  1  0.333139  0.665297  0.499736  1
  Hf  Hf4  1  0.665297  0.333139  0.499736  1
  Zr  Zr5  1  0.251236  0.001678  0.750000  1
  Zr  Zr6  1  0.001678  0.251236  0.750000  1
  Zr  Zr7  1  0.238808  0.238808  0.250000  1
  Zr  Zr8  1  0.750114  0.999076  0.250000  1
  Zr  Zr9  1  0.999076  0.750114  0.250000  1
  Sn  Sn10  1  0.393293  0.393293  0.750000  1
  Sn  Sn11  1  0.605581  0.002156  0.750000  1
  Sn  Sn12  1  0.002156  0.605581  0.750000  1
  Sn  Sn13  1  0.604701  0.604701  0.250000  1
  Sn  Sn14  1  0.392106  0.999441  0.250000  1
  Sn  Sn15  1  0.999441  0.392106  0.250000  1
