# generated using pymatgen
data_Li8Y8Sn3BiPb4
_symmetry_space_group_name_H-M   'P 1'
_cell_length_a   9.48332297
_cell_length_b   9.48336234
_cell_length_c   7.32893557
_cell_angle_alpha   90.07527180
_cell_angle_beta   89.92517849
_cell_angle_gamma   119.98563873
_symmetry_Int_Tables_number   1
_chemical_formula_structural   Li8Y8Sn3BiPb4
_chemical_formula_sum   'Li8 Y8 Sn3 Bi1 Pb4'
_cell_volume   570.89567721
_cell_formula_units_Z   1
loop_
 _symmetry_equiv_pos_site_id
 _symmetry_equiv_pos_as_xyz
  1  'x, y, z'
loop_
 _atom_site_type_symbol
 _atom_site_label
 _atom_site_symmetry_multiplicity
 _atom_site_fract_x
 _atom_site_fract_y
 _atom_site_fract_z
 _atom_site_occupancy
  Li  Li0  1  0.167375  0.832624  0.196350  1
  Li  Li1  1  0.336437  0.170627  0.691076  1
  Li  Li2  1  0.829373  0.663564  0.691075  1
  Li  Li3  1  0.167600  0.335203  0.194109  1
  Li  Li4  1  0.664797  0.832401  0.194108  1
  Li  Li5  1  0.832555  0.167444  0.693818  1
  Li  Li6  1  0.334780  0.665220  0.815932  1
  Li  Li7  1  0.666828  0.333173  0.313902  1
  Y  Y8  1  0.513354  0.486648  0.991121  1
  Y  Y9  1  0.022296  0.507198  0.488488  1
  Y  Y10  1  0.492800  0.977705  0.488483  1
  Y  Y11  1  0.518182  0.027869  0.994054  1
  Y  Y12  1  0.972127  0.481819  0.994049  1
  Y  Y13  1  0.486585  0.513411  0.490225  1
  Y  Y14  1  0.997382  0.002618  0.987929  1
  Y  Y15  1  0.997631  0.002375  0.482802  1
  Sn  Sn16  1  0.833464  0.166532  0.255798  1
  Sn  Sn17  1  0.332768  0.667233  0.223820  1
  Sn  Sn18  1  0.666933  0.333067  0.723241  1
  Bi  Bi19  1  0.166606  0.833394  0.753931  1
  Pb  Pb20  1  0.333241  0.166111  0.256280  1
  Pb  Pb21  1  0.833890  0.666760  0.256280  1
  Pb  Pb22  1  0.166328  0.333334  0.756568  1
  Pb  Pb23  1  0.666668  0.833672  0.756568  1
