# generated using pymatgen
data_Zr9Ti10Si16Mo
_symmetry_space_group_name_H-M   'P 1'
_cell_length_a   6.86112026
_cell_length_b   6.86111989
_cell_length_c   12.56753404
_cell_angle_alpha   89.90482537
_cell_angle_beta   90.09517366
_cell_angle_gamma   90.03304935
_symmetry_Int_Tables_number   1
_chemical_formula_structural   Zr9Ti10Si16Mo
_chemical_formula_sum   'Zr9 Ti10 Si16 Mo1'
_cell_volume   591.61454172
_cell_formula_units_Z   1
loop_
 _symmetry_equiv_pos_site_id
 _symmetry_equiv_pos_as_xyz
  1  'x, y, z'
loop_
 _atom_site_type_symbol
 _atom_site_label
 _atom_site_symmetry_multiplicity
 _atom_site_fract_x
 _atom_site_fract_y
 _atom_site_fract_z
 _atom_site_occupancy
  Zr  Zr0  1  0.001452  0.658182  0.031893  1
  Zr  Zr1  1  0.997411  0.341919  0.531613  1
  Zr  Zr2  1  0.658182  0.001452  0.968107  1
  Zr  Zr3  1  0.157341  0.498982  0.780578  1
  Zr  Zr4  1  0.841581  0.502655  0.283900  1
  Zr  Zr5  1  0.498982  0.157341  0.219422  1
  Zr  Zr6  1  0.502655  0.841581  0.716100  1
  Zr  Zr7  1  0.341919  0.997411  0.468387  1
  Zr  Zr8  1  0.328600  0.328600  0.000000  1
  Ti  Ti9  1  0.346786  0.504891  0.379914  1
  Ti  Ti10  1  0.845480  0.994842  0.373058  1
  Ti  Ti11  1  0.005351  0.153551  0.128355  1
  Ti  Ti12  1  0.994842  0.845480  0.626942  1
  Ti  Ti13  1  0.653259  0.497476  0.875750  1
  Ti  Ti14  1  0.504891  0.346786  0.620086  1
  Ti  Ti15  1  0.497476  0.653259  0.124250  1
  Ti  Ti16  1  0.153551  0.005351  0.871645  1
  Ti  Ti17  1  0.829116  0.170734  0.748028  1
  Ti  Ti18  1  0.170734  0.829116  0.251972  1
  Si  Si19  1  0.044458  0.707142  0.436504  1
  Si  Si20  1  0.948599  0.292768  0.934805  1
  Si  Si21  1  0.707142  0.044458  0.563496  1
  Si  Si22  1  0.203751  0.458196  0.191040  1
  Si  Si23  1  0.792811  0.545007  0.686028  1
  Si  Si24  1  0.458196  0.203751  0.808960  1
  Si  Si25  1  0.545007  0.792811  0.313972  1
  Si  Si26  1  0.292768  0.948599  0.065195  1
  Si  Si27  1  0.866334  0.795410  0.822474  1
  Si  Si28  1  0.134344  0.205311  0.323380  1
  Si  Si29  1  0.795410  0.866334  0.177526  1
  Si  Si30  1  0.293032  0.633230  0.573841  1
  Si  Si31  1  0.711312  0.367113  0.074249  1
  Si  Si32  1  0.633230  0.293032  0.426159  1
  Si  Si33  1  0.367113  0.711312  0.925751  1
  Si  Si34  1  0.205311  0.134344  0.676620  1
  Mo  Mo35  1  0.671571  0.671571  0.500000  1
