# generated using pymatgen
data_Nd3YIr2(RhO7)2
_symmetry_space_group_name_H-M   'P 1'
_cell_length_a   7.37521520
_cell_length_b   7.34826649
_cell_length_c   7.36878574
_cell_angle_alpha   59.87217395
_cell_angle_beta   59.97113031
_cell_angle_gamma   59.87860460
_symmetry_Int_Tables_number   1
_chemical_formula_structural   Nd3YIr2(RhO7)2
_chemical_formula_sum   'Nd3 Y1 Ir2 Rh2 O14'
_cell_volume   281.78993308
_cell_formula_units_Z   1
loop_
 _symmetry_equiv_pos_site_id
 _symmetry_equiv_pos_as_xyz
  1  'x, y, z'
loop_
 _atom_site_type_symbol
 _atom_site_label
 _atom_site_symmetry_multiplicity
 _atom_site_fract_x
 _atom_site_fract_y
 _atom_site_fract_z
 _atom_site_occupancy
  Nd  Nd0  1  0.625000  0.125000  0.125000  1
  Nd  Nd1  1  0.125000  0.125000  0.625000  1
  Nd  Nd2  1  0.125000  0.125000  0.125000  1
  Y  Y3  1  0.125000  0.625000  0.125000  1
  Ir  Ir4  1  0.125000  0.625000  0.625000  1
  Ir  Ir5  1  0.625000  0.625000  0.625000  1
  Rh  Rh6  1  0.625000  0.125000  0.625000  1
  Rh  Rh7  1  0.625000  0.625000  0.125000  1
  O  O8  1  0.716046  0.700480  0.294456  1
  O  O9  1  0.289755  0.295139  0.704599  1
  O  O10  1  0.710508  0.295139  0.704599  1
  O  O11  1  0.289019  0.700480  0.294456  1
  O  O12  1  0.294709  0.701002  0.709580  1
  O  O13  1  0.711088  0.289069  0.288756  1
  O  O14  1  0.533954  0.549520  0.955544  1
  O  O15  1  0.960245  0.954861  0.545401  1
  O  O16  1  0.539492  0.954861  0.545401  1
  O  O17  1  0.960981  0.549520  0.955544  1
  O  O18  1  0.955291  0.548998  0.540420  1
  O  O19  1  0.538912  0.960931  0.961244  1
  O  O20  1  0.245627  0.261584  0.247161  1
  O  O21  1  0.004373  0.988416  0.002839  1
