# generated using pymatgen
data_Na4Bi4Pt3Au
_symmetry_space_group_name_H-M   'P 1'
_cell_length_a   4.79056400
_cell_length_b   7.71407461
_cell_length_c   8.10121288
_cell_angle_alpha   89.32045053
_cell_angle_beta   90.00000000
_cell_angle_gamma   90.00000000
_symmetry_Int_Tables_number   1
_chemical_formula_structural   Na4Bi4Pt3Au
_chemical_formula_sum   'Na4 Bi4 Pt3 Au1'
_cell_volume   299.35738724
_cell_formula_units_Z   1
loop_
 _symmetry_equiv_pos_site_id
 _symmetry_equiv_pos_as_xyz
  1  'x, y, z'
loop_
 _atom_site_type_symbol
 _atom_site_label
 _atom_site_symmetry_multiplicity
 _atom_site_fract_x
 _atom_site_fract_y
 _atom_site_fract_z
 _atom_site_occupancy
  Na  Na0  1  0.750000  0.992280  0.687572  1
  Na  Na1  1  0.250000  0.020237  0.317639  1
  Na  Na2  1  0.750000  0.489346  0.811775  1
  Na  Na3  1  0.250000  0.506746  0.187434  1
  Bi  Bi4  1  0.750000  0.321639  0.411280  1
  Bi  Bi5  1  0.250000  0.188227  0.913337  1
  Bi  Bi6  1  0.250000  0.670487  0.574043  1
  Bi  Bi7  1  0.750000  0.828867  0.099425  1
  Pt  Pt8  1  0.250000  0.305470  0.589551  1
  Pt  Pt9  1  0.750000  0.692296  0.411545  1
  Pt  Pt10  1  0.750000  0.193049  0.089183  1
  Au  Au11  1  0.250000  0.791355  0.907217  1
