# generated using pymatgen
data_PIBr4
_symmetry_space_group_name_H-M   'P 1'
_cell_length_a   6.23009300
_cell_length_b   9.12812000
_cell_length_c   18.57575100
_cell_angle_alpha   90.00000000
_cell_angle_beta   90.00000000
_cell_angle_gamma   90.00000000
_symmetry_Int_Tables_number   1
_chemical_formula_structural   PIBr4
_chemical_formula_sum   'P4 I4 Br16'
_cell_volume   1056.38506192
_cell_formula_units_Z   4
loop_
 _symmetry_equiv_pos_site_id
 _symmetry_equiv_pos_as_xyz
  1  'x, y, z'
loop_
 _atom_site_type_symbol
 _atom_site_label
 _atom_site_symmetry_multiplicity
 _atom_site_fract_x
 _atom_site_fract_y
 _atom_site_fract_z
 _atom_site_occupancy
  P  P0  1  0.037169  0.747957  0.636441  1
  P  P1  1  0.037169  0.252043  0.863559  1
  P  P2  1  0.962831  0.247957  0.363559  1
  P  P3  1  0.962831  0.752043  0.136441  1
  I  I4  1  0.731317  0.983011  0.129398  1
  I  I5  1  0.731317  0.016989  0.370602  1
  I  I6  1  0.268683  0.483011  0.870602  1
  I  I7  1  0.268683  0.516989  0.629398  1
  Br  Br8  1  0.166319  0.742195  0.234058  1
  Br  Br9  1  0.166319  0.257805  0.265942  1
  Br  Br10  1  0.833681  0.242195  0.765942  1
  Br  Br11  1  0.833681  0.757805  0.734058  1
  Br  Br12  1  0.220682  0.044265  0.867378  1
  Br  Br13  1  0.220682  0.955735  0.632622  1
  Br  Br14  1  0.779318  0.544265  0.132622  1
  Br  Br15  1  0.779318  0.455735  0.367378  1
  Br  Br16  1  0.489833  0.764140  0.386264  1
  Br  Br17  1  0.489833  0.235860  0.113736  1
  Br  Br18  1  0.510167  0.264140  0.613736  1
  Br  Br19  1  0.510167  0.735860  0.886264  1
  Br  Br20  1  0.815094  0.755583  0.543929  1
  Br  Br21  1  0.815094  0.244417  0.956071  1
  Br  Br22  1  0.184906  0.255583  0.456071  1
  Br  Br23  1  0.184906  0.744417  0.043929  1
