# generated using pymatgen
data_NdDyY2(MoN3)4
_symmetry_space_group_name_H-M   'P 1'
_cell_length_a   7.28657840
_cell_length_b   7.28658889
_cell_length_c   6.24107300
_cell_angle_alpha   74.74049932
_cell_angle_beta   74.74045238
_cell_angle_gamma   82.35003628
_symmetry_Int_Tables_number   1
_chemical_formula_structural   NdDyY2(MoN3)4
_chemical_formula_sum   'Nd1 Dy1 Y2 Mo4 N12'
_cell_volume   307.68518384
_cell_formula_units_Z   1
loop_
 _symmetry_equiv_pos_site_id
 _symmetry_equiv_pos_as_xyz
  1  'x, y, z'
loop_
 _atom_site_type_symbol
 _atom_site_label
 _atom_site_symmetry_multiplicity
 _atom_site_fract_x
 _atom_site_fract_y
 _atom_site_fract_z
 _atom_site_occupancy
  Nd  Nd0  1  0.694979  0.305021  0.249999  1
  Dy  Dy1  1  0.916029  0.083971  0.750000  1
  Y  Y2  1  0.088762  0.911238  0.250000  1
  Y  Y3  1  0.301596  0.698404  0.750000  1
  Mo  Mo4  1  0.801512  0.619365  0.756238  1
  Mo  Mo5  1  0.198016  0.382347  0.239985  1
  Mo  Mo6  1  0.617653  0.801984  0.260015  1
  Mo  Mo7  1  0.380636  0.198488  0.743763  1
  N  N8  1  0.221812  0.996584  0.850071  1
  N  N9  1  0.348141  0.362438  0.462854  1
  N  N10  1  0.643169  0.636353  0.542659  1
  N  N11  1  0.622006  0.109380  0.663021  1
  N  N12  1  0.003416  0.778188  0.649930  1
  N  N13  1  0.783814  0.996539  0.148940  1
  N  N14  1  0.105637  0.622465  0.154862  1
  N  N15  1  0.890619  0.377995  0.836979  1
  N  N16  1  0.003460  0.216186  0.351058  1
  N  N17  1  0.363647  0.356831  0.957341  1
  N  N18  1  0.637561  0.651859  0.037146  1
  N  N19  1  0.377534  0.894362  0.345139  1
