# generated using pymatgen
data_CeNdZrSc(ReB6)2
_symmetry_space_group_name_H-M   'P 1'
_cell_length_a   3.64444800
_cell_length_b   9.06438977
_cell_length_c   11.48999300
_cell_angle_alpha   89.93535538
_cell_angle_beta   90.00000000
_cell_angle_gamma   90.00000000
_symmetry_Int_Tables_number   1
_chemical_formula_structural   CeNdZrSc(ReB6)2
_chemical_formula_sum   'Ce2 Nd2 Zr2 Sc2 Re4 B24'
_cell_volume   379.56819761
_cell_formula_units_Z   2
loop_
 _symmetry_equiv_pos_site_id
 _symmetry_equiv_pos_as_xyz
  1  'x, y, z'
loop_
 _atom_site_type_symbol
 _atom_site_label
 _atom_site_symmetry_multiplicity
 _atom_site_fract_x
 _atom_site_fract_y
 _atom_site_fract_z
 _atom_site_occupancy
  Ce  Ce0  1  0.000000  0.820507  0.084620  1
  Ce  Ce1  1  0.000000  0.179493  0.915380  1
  Nd  Nd2  1  0.000000  0.322774  0.413989  1
  Nd  Nd3  1  0.000000  0.677226  0.586011  1
  Zr  Zr4  1  0.000000  0.945037  0.371557  1
  Zr  Zr5  1  0.000000  0.054963  0.628443  1
  Sc  Sc6  1  0.000000  0.445961  0.126139  1
  Sc  Sc7  1  0.000000  0.554039  0.873861  1
  Re  Re8  1  0.000000  0.643094  0.315634  1
  Re  Re9  1  0.000000  0.356906  0.684366  1
  Re  Re10  1  0.000000  0.139201  0.180282  1
  Re  Re11  1  0.000000  0.860799  0.819718  1
  B  B12  1  0.500000  0.555602  0.429780  1
  B  B13  1  0.500000  0.444398  0.570220  1
  B  B14  1  0.500000  0.056077  0.068049  1
  B  B15  1  0.500000  0.943923  0.931951  1
  B  B16  1  0.500000  0.752634  0.415801  1
  B  B17  1  0.500000  0.247366  0.584199  1
  B  B18  1  0.500000  0.253936  0.082036  1
  B  B19  1  0.500000  0.746064  0.917964  1
  B  B20  1  0.500000  0.793760  0.263270  1
  B  B21  1  0.500000  0.206240  0.736730  1
  B  B22  1  0.500000  0.295237  0.232961  1
  B  B23  1  0.500000  0.704763  0.767039  1
  B  B24  1  0.500000  0.629334  0.181654  1
  B  B25  1  0.500000  0.370666  0.818346  1
  B  B26  1  0.500000  0.129905  0.314731  1
  B  B27  1  0.500000  0.870095  0.685269  1
  B  B28  1  0.500000  0.982646  0.213051  1
  B  B29  1  0.500000  0.017354  0.786949  1
  B  B30  1  0.500000  0.483476  0.283374  1
  B  B31  1  0.500000  0.516524  0.716626  1
  B  B32  1  0.500000  0.598264  0.026099  1
  B  B33  1  0.500000  0.401736  0.973901  1
  B  B34  1  0.500000  0.098275  0.473619  1
  B  B35  1  0.500000  0.901725  0.526381  1
