# generated using pymatgen
data_Dy16Mg3HgPt4
_symmetry_space_group_name_H-M   'P 1'
_cell_length_a   9.71089723
_cell_length_b   9.75750858
_cell_length_c   9.75750800
_cell_angle_alpha   59.99999520
_cell_angle_beta   59.84108825
_cell_angle_gamma   59.84108910
_symmetry_Int_Tables_number   1
_chemical_formula_structural   Dy16Mg3HgPt4
_chemical_formula_sum   'Dy16 Mg3 Hg1 Pt4'
_cell_volume   652.19109512
_cell_formula_units_Z   1
loop_
 _symmetry_equiv_pos_site_id
 _symmetry_equiv_pos_as_xyz
  1  'x, y, z'
loop_
 _atom_site_type_symbol
 _atom_site_label
 _atom_site_symmetry_multiplicity
 _atom_site_fract_x
 _atom_site_fract_y
 _atom_site_fract_z
 _atom_site_occupancy
  Dy  Dy0  1  0.349993  0.351901  0.351901  1
  Dy  Dy1  1  0.349993  0.351901  0.946207  1
  Dy  Dy2  1  0.349993  0.946207  0.351901  1
  Dy  Dy3  1  0.949618  0.350128  0.350128  1
  Dy  Dy4  1  0.812761  0.187515  0.187515  1
  Dy  Dy5  1  0.189351  0.811246  0.811246  1
  Dy  Dy6  1  0.189351  0.811246  0.188157  1
  Dy  Dy7  1  0.812761  0.187515  0.812208  1
  Dy  Dy8  1  0.189351  0.188157  0.811246  1
  Dy  Dy9  1  0.812761  0.812208  0.187515  1
  Dy  Dy10  1  0.939255  0.564744  0.564744  1
  Dy  Dy11  1  0.566194  0.933946  0.933946  1
  Dy  Dy12  1  0.566194  0.933946  0.565915  1
  Dy  Dy13  1  0.939255  0.564743  0.931258  1
  Dy  Dy14  1  0.566194  0.565915  0.933946  1
  Dy  Dy15  1  0.939255  0.931258  0.564743  1
  Mg  Mg16  1  0.577331  0.580793  0.580793  1
  Mg  Mg17  1  0.577331  0.580793  0.261081  1
  Mg  Mg18  1  0.577331  0.261081  0.580793  1
  Hg  Hg19  1  0.245562  0.584812  0.584812  1
  Pt  Pt20  1  0.143605  0.142860  0.142860  1
  Pt  Pt21  1  0.143605  0.142860  0.570676  1
  Pt  Pt22  1  0.143605  0.570676  0.142860  1
  Pt  Pt23  1  0.569349  0.143551  0.143551  1
