# generated using pymatgen
data_Dy3Er2(In2Co)2
_symmetry_space_group_name_H-M   'P 1'
_cell_length_a   3.57886600
_cell_length_b   7.94505500
_cell_length_c   17.98312800
_cell_angle_alpha   90.00000000
_cell_angle_beta   90.00000000
_cell_angle_gamma   90.00000000
_symmetry_Int_Tables_number   1
_chemical_formula_structural   Dy3Er2(In2Co)2
_chemical_formula_sum   'Dy6 Er4 In8 Co4'
_cell_volume   511.33742644
_cell_formula_units_Z   2
loop_
 _symmetry_equiv_pos_site_id
 _symmetry_equiv_pos_as_xyz
  1  'x, y, z'
loop_
 _atom_site_type_symbol
 _atom_site_label
 _atom_site_symmetry_multiplicity
 _atom_site_fract_x
 _atom_site_fract_y
 _atom_site_fract_z
 _atom_site_occupancy
  Dy  Dy0  1  0.000000  0.500000  0.500000  1
  Dy  Dy1  1  0.000000  0.000000  0.000000  1
  Dy  Dy2  1  0.000000  0.749087  0.279826  1
  Dy  Dy3  1  0.000000  0.250913  0.720174  1
  Dy  Dy4  1  0.000000  0.750913  0.779826  1
  Dy  Dy5  1  0.000000  0.249087  0.220174  1
  Er  Er6  1  0.000000  0.617565  0.091450  1
  Er  Er7  1  0.000000  0.382435  0.908550  1
  Er  Er8  1  0.000000  0.882435  0.591450  1
  Er  Er9  1  0.000000  0.117565  0.408550  1
  In  In10  1  0.500000  0.700927  0.933095  1
  In  In11  1  0.500000  0.299073  0.066905  1
  In  In12  1  0.500000  0.799073  0.433095  1
  In  In13  1  0.500000  0.200927  0.566905  1
  In  In14  1  0.500000  0.570445  0.652632  1
  In  In15  1  0.500000  0.429555  0.347368  1
  In  In16  1  0.500000  0.929555  0.152632  1
  In  In17  1  0.500000  0.070445  0.847368  1
  Co  Co18  1  0.500000  0.525031  0.195933  1
  Co  Co19  1  0.500000  0.474969  0.804067  1
  Co  Co20  1  0.500000  0.974969  0.695933  1
  Co  Co21  1  0.500000  0.025031  0.304067  1
