# generated using pymatgen
data_K4Hf6BI18
_symmetry_space_group_name_H-M   'P 1'
_cell_length_a   11.35818945
_cell_length_b   11.35818875
_cell_length_c   11.12463507
_cell_angle_alpha   77.79685853
_cell_angle_beta   77.79685794
_cell_angle_gamma   117.97693471
_symmetry_Int_Tables_number   1
_chemical_formula_structural   K4Hf6BI18
_chemical_formula_sum   'K4 Hf6 B1 I18'
_cell_volume   1155.86822889
_cell_formula_units_Z   1
loop_
 _symmetry_equiv_pos_site_id
 _symmetry_equiv_pos_as_xyz
  1  'x, y, z'
loop_
 _atom_site_type_symbol
 _atom_site_label
 _atom_site_symmetry_multiplicity
 _atom_site_fract_x
 _atom_site_fract_y
 _atom_site_fract_z
 _atom_site_occupancy
  K  K0  1  0.774451  0.448148  0.666800  1
  K  K1  1  0.551852  0.225549  0.333200  1
  K  K2  1  0.225549  0.551852  0.333200  1
  K  K3  1  0.448148  0.774451  0.666800  1
  Hf  Hf4  1  0.120370  0.120370  0.129206  1
  Hf  Hf5  1  0.879630  0.879630  0.870794  1
  Hf  Hf6  1  0.956360  0.780767  0.135438  1
  Hf  Hf7  1  0.219233  0.043640  0.864562  1
  Hf  Hf8  1  0.043640  0.219233  0.864562  1
  Hf  Hf9  1  0.780767  0.956360  0.135438  1
  B  B10  1  0.000000  0.000000  0.000000  1
  I  I11  1  0.803914  0.593895  0.009499  1
  I  I12  1  0.406106  0.196086  0.990501  1
  I  I13  1  0.196086  0.406106  0.990501  1
  I  I14  1  0.593894  0.803914  0.009499  1
  I  I15  1  0.209436  0.790564  0.000000  1
  I  I16  1  0.790564  0.209436  0.000000  1
  I  I17  1  0.317128  0.317128  0.675984  1
  I  I18  1  0.682872  0.682872  0.324016  1
  I  I19  1  0.890551  0.487904  0.326298  1
  I  I20  1  0.512096  0.109449  0.673702  1
  I  I21  1  0.109449  0.512096  0.673702  1
  I  I22  1  0.487904  0.890551  0.326298  1
  I  I23  1  0.276378  0.276378  0.297764  1
  I  I24  1  0.723622  0.723622  0.702236  1
  I  I25  1  0.085601  0.879146  0.318077  1
  I  I26  1  0.120854  0.914399  0.681923  1
  I  I27  1  0.914399  0.120854  0.681923  1
  I  I28  1  0.879146  0.085601  0.318077  1
