# generated using pymatgen
data_TbLuAl20Os3Rh
_symmetry_space_group_name_H-M   'P 1'
_cell_length_a   6.86134537
_cell_length_b   6.85188049
_cell_length_c   9.14688328
_cell_angle_alpha   90.21189676
_cell_angle_beta   90.30745843
_cell_angle_gamma   96.58796429
_symmetry_Int_Tables_number   1
_chemical_formula_structural   TbLuAl20Os3Rh
_chemical_formula_sum   'Tb1 Lu1 Al20 Os3 Rh1'
_cell_volume   427.17383488
_cell_formula_units_Z   1
loop_
 _symmetry_equiv_pos_site_id
 _symmetry_equiv_pos_as_xyz
  1  'x, y, z'
loop_
 _atom_site_type_symbol
 _atom_site_label
 _atom_site_symmetry_multiplicity
 _atom_site_fract_x
 _atom_site_fract_y
 _atom_site_fract_z
 _atom_site_occupancy
  Tb  Tb0  1  0.872139  0.130693  0.749316  1
  Lu  Lu1  1  0.129624  0.866880  0.251192  1
  Al  Al2  1  0.517117  0.780186  0.747848  1
  Al  Al3  1  0.782881  0.518283  0.249358  1
  Al  Al4  1  0.481452  0.219014  0.252136  1
  Al  Al5  1  0.217761  0.483020  0.750542  1
  Al  Al6  1  0.624126  0.378919  0.952154  1
  Al  Al7  1  0.375473  0.621839  0.048805  1
  Al  Al8  1  0.623446  0.377118  0.545753  1
  Al  Al9  1  0.376013  0.623472  0.453236  1
  Al  Al10  1  0.415889  0.147872  0.749821  1
  Al  Al11  1  0.147570  0.416566  0.250416  1
  Al  Al12  1  0.581413  0.851103  0.250035  1
  Al  Al13  1  0.853401  0.585771  0.749563  1
  Al  Al14  1  0.845031  0.154025  0.398492  1
  Al  Al15  1  0.155634  0.845210  0.600684  1
  Al  Al16  1  0.845991  0.155619  0.103034  1
  Al  Al17  1  0.155091  0.843742  0.897760  1
  Al  Al18  1  0.775516  0.775075  0.001269  1
  Al  Al19  1  0.777174  0.776849  0.498135  1
  Al  Al20  1  0.224795  0.224672  0.000539  1
  Al  Al21  1  0.222640  0.222940  0.500149  1
  Os  Os22  1  0.000274  0.500621  0.000785  1
  Os  Os23  1  0.499418  0.999876  0.499266  1
  Os  Os24  1  0.000169  0.500610  0.499204  1
  Rh  Rh25  1  0.499964  0.000022  0.000510  1
