# generated using pymatgen
data_YbNbB6Os
_symmetry_space_group_name_H-M   'P 1'
_cell_length_a   3.50555000
_cell_length_b   8.94146900
_cell_length_c   11.29222000
_cell_angle_alpha   90.00000000
_cell_angle_beta   90.00000000
_cell_angle_gamma   90.00000000
_symmetry_Int_Tables_number   1
_chemical_formula_structural   YbNbB6Os
_chemical_formula_sum   'Yb4 Nb4 B24 Os4'
_cell_volume   353.95200089
_cell_formula_units_Z   4
loop_
 _symmetry_equiv_pos_site_id
 _symmetry_equiv_pos_as_xyz
  1  'x, y, z'
loop_
 _atom_site_type_symbol
 _atom_site_label
 _atom_site_symmetry_multiplicity
 _atom_site_fract_x
 _atom_site_fract_y
 _atom_site_fract_z
 _atom_site_occupancy
  Yb  Yb0  1  0.000000  0.323172  0.413885  1
  Yb  Yb1  1  0.000000  0.676828  0.586115  1
  Yb  Yb2  1  0.000000  0.823172  0.086115  1
  Yb  Yb3  1  0.000000  0.176828  0.913885  1
  Nb  Nb4  1  0.000000  0.945951  0.376004  1
  Nb  Nb5  1  0.000000  0.054049  0.623997  1
  Nb  Nb6  1  0.000000  0.445951  0.123996  1
  Nb  Nb7  1  0.000000  0.554049  0.876003  1
  B  B8  1  0.500000  0.554433  0.433359  1
  B  B9  1  0.500000  0.445567  0.566641  1
  B  B10  1  0.500000  0.054433  0.066641  1
  B  B11  1  0.500000  0.945567  0.933359  1
  B  B12  1  0.500000  0.753263  0.418232  1
  B  B13  1  0.500000  0.246737  0.581768  1
  B  B14  1  0.500000  0.253263  0.081768  1
  B  B15  1  0.500000  0.746737  0.918232  1
  B  B16  1  0.500000  0.797480  0.262088  1
  B  B17  1  0.500000  0.202520  0.737912  1
  B  B18  1  0.500000  0.297479  0.237912  1
  B  B19  1  0.500000  0.702520  0.762088  1
  B  B20  1  0.500000  0.630286  0.181070  1
  B  B21  1  0.500000  0.369714  0.818930  1
  B  B22  1  0.500000  0.130286  0.318930  1
  B  B23  1  0.500000  0.869714  0.681070  1
  B  B24  1  0.500000  0.981806  0.212508  1
  B  B25  1  0.500000  0.018194  0.787492  1
  B  B26  1  0.500000  0.481806  0.287492  1
  B  B27  1  0.500000  0.518194  0.712508  1
  B  B28  1  0.500000  0.599791  0.026527  1
  B  B29  1  0.500000  0.400209  0.973473  1
  B  B30  1  0.500000  0.099791  0.473473  1
  B  B31  1  0.500000  0.900209  0.526527  1
  Os  Os32  1  0.000000  0.644372  0.317646  1
  Os  Os33  1  0.000000  0.355628  0.682354  1
  Os  Os34  1  0.000000  0.144372  0.182354  1
  Os  Os35  1  0.000000  0.855628  0.817646  1
