# generated using pymatgen
data_Tb2FeTcCl2
_symmetry_space_group_name_H-M   'P 1'
_cell_length_a   3.89808600
_cell_length_b   3.89808693
_cell_length_c   11.45640600
_cell_angle_alpha   90.00000000
_cell_angle_beta   90.00000000
_cell_angle_gamma   120.00000907
_symmetry_Int_Tables_number   1
_chemical_formula_structural   Tb2FeTcCl2
_chemical_formula_sum   'Tb2 Fe1 Tc1 Cl2'
_cell_volume   150.75854054
_cell_formula_units_Z   1
loop_
 _symmetry_equiv_pos_site_id
 _symmetry_equiv_pos_as_xyz
  1  'x, y, z'
loop_
 _atom_site_type_symbol
 _atom_site_label
 _atom_site_symmetry_multiplicity
 _atom_site_fract_x
 _atom_site_fract_y
 _atom_site_fract_z
 _atom_site_occupancy
  Tb  Tb0  1  0.000000  0.000000  0.188949  1
  Tb  Tb1  1  0.000000  0.000000  0.813606  1
  Fe  Fe2  1  0.333334  0.666667  0.981000  1
  Tc  Tc3  1  0.666667  0.333332  0.014248  1
  Cl  Cl4  1  0.333334  0.666667  0.338790  1
  Cl  Cl5  1  0.666667  0.333332  0.663406  1
