# generated using pymatgen
data_DyY3Ni2C5
_symmetry_space_group_name_H-M   'P 1'
_cell_length_a   3.64741100
_cell_length_b   3.69577100
_cell_length_c   11.65128300
_cell_angle_alpha   90.00000000
_cell_angle_beta   90.00000000
_cell_angle_gamma   90.00000000
_symmetry_Int_Tables_number   1
_chemical_formula_structural   DyY3Ni2C5
_chemical_formula_sum   'Dy1 Y3 Ni2 C5'
_cell_volume   157.05924589
_cell_formula_units_Z   1
loop_
 _symmetry_equiv_pos_site_id
 _symmetry_equiv_pos_as_xyz
  1  'x, y, z'
loop_
 _atom_site_type_symbol
 _atom_site_label
 _atom_site_symmetry_multiplicity
 _atom_site_fract_x
 _atom_site_fract_y
 _atom_site_fract_z
 _atom_site_occupancy
  Dy  Dy0  1  0.500000  0.206692  0.500000  1
  Y  Y1  1  0.500000  0.504071  0.203787  1
  Y  Y2  1  0.500000  0.504071  0.796213  1
  Y  Y3  1  0.000000  0.000400  0.000000  1
  Ni  Ni4  1  0.000000  0.697257  0.384381  1
  Ni  Ni5  1  0.000000  0.697257  0.615619  1
  C  C6  1  0.000000  0.000974  0.230918  1
  C  C7  1  0.000000  0.000974  0.769082  1
  C  C8  1  0.000000  0.196663  0.332902  1
  C  C9  1  0.000000  0.196663  0.667098  1
  C  C10  1  0.500000  0.496479  0.000000  1
