# generated using pymatgen
data_Yb4CoNiOs6
_symmetry_space_group_name_H-M   'P 1'
_cell_length_a   5.31405531
_cell_length_b   5.31405529
_cell_length_c   8.54983600
_cell_angle_alpha   90.00000000
_cell_angle_beta   90.00000000
_cell_angle_gamma   122.73986064
_symmetry_Int_Tables_number   1
_chemical_formula_structural   Yb4CoNiOs6
_chemical_formula_sum   'Yb4 Co1 Ni1 Os6'
_cell_volume   203.08389814
_cell_formula_units_Z   1
loop_
 _symmetry_equiv_pos_site_id
 _symmetry_equiv_pos_as_xyz
  1  'x, y, z'
loop_
 _atom_site_type_symbol
 _atom_site_label
 _atom_site_symmetry_multiplicity
 _atom_site_fract_x
 _atom_site_fract_y
 _atom_site_fract_z
 _atom_site_occupancy
  Yb  Yb0  1  0.330540  0.669460  0.434479  1
  Yb  Yb1  1  0.669430  0.330570  0.564617  1
  Yb  Yb2  1  0.669430  0.330570  0.935383  1
  Yb  Yb3  1  0.330540  0.669460  0.065521  1
  Co  Co4  1  0.179548  0.820452  0.750000  1
  Ni  Ni5  1  0.822549  0.177451  0.250000  1
  Os  Os6  1  0.000171  0.999829  0.500484  1
  Os  Os7  1  0.000171  0.999829  0.999516  1
  Os  Os8  1  0.819109  0.664042  0.250000  1
  Os  Os9  1  0.335958  0.180891  0.250000  1
  Os  Os10  1  0.179618  0.337063  0.750000  1
  Os  Os11  1  0.662937  0.820382  0.750000  1
