# generated using pymatgen
data_ErTm2Si2GeRu2
_symmetry_space_group_name_H-M   'P 1'
_cell_length_a   5.69771101
_cell_length_b   5.69771057
_cell_length_c   13.77498100
_cell_angle_alpha   90.00000000
_cell_angle_beta   90.00000000
_cell_angle_gamma   137.24344404
_symmetry_Int_Tables_number   1
_chemical_formula_structural   ErTm2Si2GeRu2
_chemical_formula_sum   'Er2 Tm4 Si4 Ge2 Ru4'
_cell_volume   303.59028699
_cell_formula_units_Z   2
loop_
 _symmetry_equiv_pos_site_id
 _symmetry_equiv_pos_as_xyz
  1  'x, y, z'
loop_
 _atom_site_type_symbol
 _atom_site_label
 _atom_site_symmetry_multiplicity
 _atom_site_fract_x
 _atom_site_fract_y
 _atom_site_fract_z
 _atom_site_occupancy
  Er  Er0  1  0.645426  0.354574  0.250000  1
  Er  Er1  1  0.354574  0.645426  0.750000  1
  Tm  Tm2  1  0.925078  0.074922  0.387528  1
  Tm  Tm3  1  0.074922  0.925078  0.612472  1
  Tm  Tm4  1  0.925078  0.074922  0.112472  1
  Tm  Tm5  1  0.074922  0.925078  0.887528  1
  Si  Si6  1  0.615595  0.384405  0.461340  1
  Si  Si7  1  0.384405  0.615595  0.538660  1
  Si  Si8  1  0.615595  0.384405  0.038660  1
  Si  Si9  1  0.384405  0.615595  0.961340  1
  Ge  Ge10  1  0.339576  0.660424  0.250000  1
  Ge  Ge11  1  0.660424  0.339576  0.750000  1
  Ru  Ru12  1  0.788580  0.211420  0.920074  1
  Ru  Ru13  1  0.211420  0.788580  0.079926  1
  Ru  Ru14  1  0.788580  0.211420  0.579926  1
  Ru  Ru15  1  0.211420  0.788580  0.420074  1
