# generated using pymatgen
data_K(As3Pd5)2
_symmetry_space_group_name_H-M   'P 1'
_cell_length_a   9.81247947
_cell_length_b   9.81248012
_cell_length_c   9.90865500
_cell_angle_alpha   90.00000000
_cell_angle_beta   90.00000000
_cell_angle_gamma   137.09991246
_symmetry_Int_Tables_number   1
_chemical_formula_structural   K(As3Pd5)2
_chemical_formula_sum   'K2 As12 Pd20'
_cell_volume   649.44449144
_cell_formula_units_Z   2
loop_
 _symmetry_equiv_pos_site_id
 _symmetry_equiv_pos_as_xyz
  1  'x, y, z'
loop_
 _atom_site_type_symbol
 _atom_site_label
 _atom_site_symmetry_multiplicity
 _atom_site_fract_x
 _atom_site_fract_y
 _atom_site_fract_z
 _atom_site_occupancy
  K  K0  1  0.000000  0.000000  0.500000  1
  K  K1  1  0.500000  0.500000  0.000000  1
  As  As2  1  0.142415  0.357585  0.750000  1
  As  As3  1  0.357585  0.142415  0.250000  1
  As  As4  1  0.409167  0.590833  0.372907  1
  As  As5  1  0.590833  0.409167  0.627093  1
  As  As6  1  0.090833  0.909167  0.872907  1
  As  As7  1  0.909167  0.090833  0.127093  1
  As  As8  1  0.291931  0.708069  0.073925  1
  As  As9  1  0.708069  0.291931  0.926075  1
  As  As10  1  0.208069  0.791931  0.573925  1
  As  As11  1  0.791931  0.208069  0.426075  1
  As  As12  1  0.857585  0.642415  0.250000  1
  As  As13  1  0.642415  0.857585  0.750000  1
  Pd  Pd14  1  0.211244  0.788756  0.287705  1
  Pd  Pd15  1  0.288756  0.711244  0.787705  1
  Pd  Pd16  1  0.912548  0.587452  0.750000  1
  Pd  Pd17  1  0.711244  0.288756  0.212295  1
  Pd  Pd18  1  0.087452  0.412548  0.250000  1
  Pd  Pd19  1  0.412548  0.087452  0.750000  1
  Pd  Pd20  1  0.956730  0.043270  0.883392  1
  Pd  Pd21  1  0.043270  0.956730  0.116608  1
  Pd  Pd22  1  0.543270  0.456730  0.383392  1
  Pd  Pd23  1  0.456730  0.543270  0.616608  1
  Pd  Pd24  1  0.469499  0.124116  0.469468  1
  Pd  Pd25  1  0.124116  0.469499  0.530532  1
  Pd  Pd26  1  0.030501  0.375884  0.969468  1
  Pd  Pd27  1  0.375884  0.030501  0.030532  1
  Pd  Pd28  1  0.530501  0.875884  0.530532  1
  Pd  Pd29  1  0.875884  0.530501  0.469468  1
  Pd  Pd30  1  0.969499  0.624116  0.030532  1
  Pd  Pd31  1  0.624116  0.969499  0.969468  1
  Pd  Pd32  1  0.587452  0.912548  0.250000  1
  Pd  Pd33  1  0.788756  0.211244  0.712295  1
