# generated using pymatgen
data_Tb4Tm6Ru3Rh
_symmetry_space_group_name_H-M   'P 1'
_cell_length_a   6.31175620
_cell_length_b   7.27064039
_cell_length_c   8.42270239
_cell_angle_alpha   96.89399499
_cell_angle_beta   111.90383316
_cell_angle_gamma   90.03765883
_symmetry_Int_Tables_number   1
_chemical_formula_structural   Tb4Tm6Ru3Rh
_chemical_formula_sum   'Tb4 Tm6 Ru3 Rh1'
_cell_volume   355.59332856
_cell_formula_units_Z   1
loop_
 _symmetry_equiv_pos_site_id
 _symmetry_equiv_pos_as_xyz
  1  'x, y, z'
loop_
 _atom_site_type_symbol
 _atom_site_label
 _atom_site_symmetry_multiplicity
 _atom_site_fract_x
 _atom_site_fract_y
 _atom_site_fract_z
 _atom_site_occupancy
  Tb  Tb0  1  0.790432  0.081349  0.812736  1
  Tb  Tb1  1  0.979521  0.415724  0.190724  1
  Tb  Tb2  1  0.210997  0.916146  0.188332  1
  Tb  Tb3  1  0.025070  0.585341  0.812785  1
  Tm  Tm4  1  0.202941  0.182730  0.564523  1
  Tm  Tm5  1  0.641254  0.315329  0.432081  1
  Tm  Tm6  1  0.793844  0.815187  0.434079  1
  Tm  Tm7  1  0.358441  0.686289  0.564519  1
  Tm  Tm8  1  0.419834  0.249154  0.000696  1
  Tm  Tm9  1  0.579922  0.752003  0.001481  1
  Ru  Ru10  1  0.821579  0.076454  0.220365  1
  Ru  Ru11  1  0.399452  0.575085  0.221880  1
  Ru  Ru12  1  0.179857  0.924485  0.778414  1
  Rh  Rh13  1  0.596855  0.424724  0.777384  1
