# generated using pymatgen
data_Tb5Bi2PbS
_symmetry_space_group_name_H-M   'P 1'
_cell_length_a   9.23419200
_cell_length_b   9.23419245
_cell_length_c   6.60647900
_cell_angle_alpha   90.00000000
_cell_angle_beta   90.00000000
_cell_angle_gamma   120.07551181
_symmetry_Int_Tables_number   1
_chemical_formula_structural   Tb5Bi2PbS
_chemical_formula_sum   'Tb10 Bi4 Pb2 S2'
_cell_volume   487.49206561
_cell_formula_units_Z   2
loop_
 _symmetry_equiv_pos_site_id
 _symmetry_equiv_pos_as_xyz
  1  'x, y, z'
loop_
 _atom_site_type_symbol
 _atom_site_label
 _atom_site_symmetry_multiplicity
 _atom_site_fract_x
 _atom_site_fract_y
 _atom_site_fract_z
 _atom_site_occupancy
  Tb  Tb0  1  0.243371  0.243371  0.750000  1
  Tb  Tb1  1  0.002854  0.756946  0.750000  1
  Tb  Tb2  1  0.243555  0.999725  0.250000  1
  Tb  Tb3  1  0.756946  0.002854  0.750000  1
  Tb  Tb4  1  0.332425  0.667142  0.501647  1
  Tb  Tb5  1  0.667142  0.332425  0.501647  1
  Tb  Tb6  1  0.756283  0.756283  0.250000  1
  Tb  Tb7  1  0.999725  0.243555  0.250000  1
  Tb  Tb8  1  0.332425  0.667142  0.998353  1
  Tb  Tb9  1  0.667142  0.332425  0.998353  1
  Bi  Bi10  1  0.602605  0.999939  0.250000  1
  Bi  Bi11  1  0.999939  0.602605  0.250000  1
  Bi  Bi12  1  0.604654  0.604654  0.750000  1
  Bi  Bi13  1  0.396284  0.396284  0.250000  1
  Pb  Pb14  1  0.000058  0.396237  0.750000  1
  Pb  Pb15  1  0.396237  0.000058  0.750000  1
  S  S16  1  0.999179  0.999179  0.000370  1
  S  S17  1  0.999179  0.999179  0.499630  1
