# generated using pymatgen
data_La16Ga6CoTc
_symmetry_space_group_name_H-M   'P 1'
_cell_length_a   10.71646900
_cell_length_b   10.71705049
_cell_length_c   7.12101200
_cell_angle_alpha   89.99572862
_cell_angle_beta   90.00232145
_cell_angle_gamma   119.99694156
_symmetry_Int_Tables_number   1
_chemical_formula_structural   La16Ga6CoTc
_chemical_formula_sum   'La16 Ga6 Co1 Tc1'
_cell_volume   708.29262691
_cell_formula_units_Z   1
loop_
 _symmetry_equiv_pos_site_id
 _symmetry_equiv_pos_as_xyz
  1  'x, y, z'
loop_
 _atom_site_type_symbol
 _atom_site_label
 _atom_site_symmetry_multiplicity
 _atom_site_fract_x
 _atom_site_fract_y
 _atom_site_fract_z
 _atom_site_occupancy
  La  La0  1  0.666676  0.333337  0.184231  1
  La  La1  1  0.999996  0.999999  0.281863  1
  La  La2  1  0.460519  0.921050  0.292886  1
  La  La3  1  0.078946  0.539480  0.292912  1
  La  La4  1  0.460497  0.539466  0.292877  1
  La  La5  1  0.341139  0.170571  0.492194  1
  La  La6  1  0.829426  0.170566  0.492184  1
  La  La7  1  0.829434  0.658851  0.492182  1
  La  La8  1  0.333344  0.666678  0.676133  1
  La  La9  1  0.000016  0.000015  0.779191  1
  La  La10  1  0.540005  0.080015  0.787552  1
  La  La11  1  0.540011  0.460014  0.787517  1
  La  La12  1  0.920025  0.460024  0.787514  1
  La  La13  1  0.167685  0.832317  0.990929  1
  La  La14  1  0.664622  0.832307  0.990905  1
  La  La15  1  0.167682  0.335368  0.990907  1
  Ga  Ga16  1  0.834240  0.668448  0.034757  1
  Ga  Ga17  1  0.331537  0.165764  0.034743  1
  Ga  Ga18  1  0.834225  0.165757  0.034740  1
  Ga  Ga19  1  0.163639  0.327285  0.534345  1
  Ga  Ga20  1  0.163657  0.836375  0.534348  1
  Ga  Ga21  1  0.672703  0.836351  0.534345  1
  Co  Co22  1  0.666660  0.333327  0.555448  1
  Tc  Tc23  1  0.333319  0.666637  0.051295  1
