# generated using pymatgen
data_Tb2NiAs4Rh5
_symmetry_space_group_name_H-M   'P 1'
_cell_length_a   3.99805700
_cell_length_b   11.34043800
_cell_length_c   13.32349000
_cell_angle_alpha   90.00000000
_cell_angle_beta   90.00000000
_cell_angle_gamma   90.00000000
_symmetry_Int_Tables_number   1
_chemical_formula_structural   Tb2NiAs4Rh5
_chemical_formula_sum   'Tb6 Ni3 As12 Rh15'
_cell_volume   604.08327310
_cell_formula_units_Z   3
loop_
 _symmetry_equiv_pos_site_id
 _symmetry_equiv_pos_as_xyz
  1  'x, y, z'
loop_
 _atom_site_type_symbol
 _atom_site_label
 _atom_site_symmetry_multiplicity
 _atom_site_fract_x
 _atom_site_fract_y
 _atom_site_fract_z
 _atom_site_occupancy
  Tb  Tb0  1  0.000000  0.500000  0.522028  1
  Tb  Tb1  1  0.500000  0.000000  0.474130  1
  Tb  Tb2  1  0.500000  0.812941  0.203445  1
  Tb  Tb3  1  0.500000  0.187059  0.203445  1
  Tb  Tb4  1  0.000000  0.690029  0.796929  1
  Tb  Tb5  1  0.000000  0.309971  0.796929  1
  Ni  Ni6  1  0.000000  0.000000  0.300219  1
  Ni  Ni7  1  0.000000  0.500000  0.972679  1
  Ni  Ni8  1  0.500000  0.000000  0.029086  1
  As  As9  1  0.500000  0.500000  0.874714  1
  As  As10  1  0.000000  0.000000  0.133173  1
  As  As11  1  0.500000  0.500000  0.353799  1
  As  As12  1  0.000000  0.000000  0.646154  1
  As  As13  1  0.500000  0.314755  0.616269  1
  As  As14  1  0.500000  0.685245  0.616269  1
  As  As15  1  0.000000  0.175972  0.378387  1
  As  As16  1  0.000000  0.824028  0.378387  1
  As  As17  1  0.500000  0.857276  0.895442  1
  As  As18  1  0.500000  0.142724  0.895442  1
  As  As19  1  0.000000  0.644032  0.106550  1
  As  As20  1  0.000000  0.355968  0.106550  1
  Rh  Rh21  1  0.500000  0.500000  0.170963  1
  Rh  Rh22  1  0.000000  0.000000  0.830278  1
  Rh  Rh23  1  0.500000  0.500000  0.698698  1
  Rh  Rh24  1  0.500000  0.336233  0.995121  1
  Rh  Rh25  1  0.500000  0.663767  0.995121  1
  Rh  Rh26  1  0.000000  0.161588  0.008595  1
  Rh  Rh27  1  0.000000  0.838412  0.008595  1
  Rh  Rh28  1  0.500000  0.295616  0.430379  1
  Rh  Rh29  1  0.500000  0.704384  0.430379  1
  Rh  Rh30  1  0.000000  0.200861  0.565355  1
  Rh  Rh31  1  0.000000  0.799139  0.565355  1
  Rh  Rh32  1  0.500000  0.874144  0.709642  1
  Rh  Rh33  1  0.500000  0.125856  0.709642  1
  Rh  Rh34  1  0.000000  0.628230  0.290928  1
  Rh  Rh35  1  0.000000  0.371770  0.290928  1
