# generated using pymatgen
data_K4GdSe8N
_symmetry_space_group_name_H-M   'P 1'
_cell_length_a   11.11144953
_cell_length_b   11.04686206
_cell_length_c   19.70130712
_cell_angle_alpha   87.75659189
_cell_angle_beta   91.41810103
_cell_angle_gamma   73.80267802
_symmetry_Int_Tables_number   1
_chemical_formula_structural   K4GdSe8N
_chemical_formula_sum   'K4 Gd1 Se8 N1'
_cell_volume   2318.89692754
_cell_formula_units_Z   1
loop_
 _symmetry_equiv_pos_site_id
 _symmetry_equiv_pos_as_xyz
  1  'x, y, z'
loop_
 _atom_site_type_symbol
 _atom_site_label
 _atom_site_symmetry_multiplicity
 _atom_site_fract_x
 _atom_site_fract_y
 _atom_site_fract_z
 _atom_site_occupancy
  K  K0  1  0.491231  0.107243  0.687737  1
  K  K1  1  0.104795  0.492021  0.188005  1
  K  K2  1  0.857722  0.500063  0.836202  1
  K  K3  1  0.498413  0.859735  0.336387  1
  Gd  Gd4  1  0.357057  0.463846  0.870129  1
  Se  Se5  1  0.049577  0.932228  0.783967  1
  Se  Se6  1  0.935503  0.049687  0.286083  1
  Se  Se7  1  0.073636  0.016362  0.995744  1
  Se  Se8  1  0.014541  0.076340  0.492757  1
  Se  Se9  1  0.584304  0.558360  0.089441  1
  Se  Se10  1  0.561157  0.584099  0.593165  1
  Se  Se11  1  0.468834  0.955604  0.024988  1
  Se  Se12  1  0.951086  0.467145  0.526928  1
  N  N13  1  0.464163  0.349285  0.367467  1
