# generated using pymatgen
data_Dy3ErTi3Nb3Si8
_symmetry_space_group_name_H-M   'P 1'
_cell_length_a   7.05616941
_cell_length_b   7.05452698
_cell_length_c   12.98013502
_cell_angle_alpha   90.08688880
_cell_angle_beta   89.98958312
_cell_angle_gamma   90.03839278
_symmetry_Int_Tables_number   1
_chemical_formula_structural   Dy3ErTi3Nb3Si8
_chemical_formula_sum   'Dy6 Er2 Ti6 Nb6 Si16'
_cell_volume   646.12345051
_cell_formula_units_Z   2
loop_
 _symmetry_equiv_pos_site_id
 _symmetry_equiv_pos_as_xyz
  1  'x, y, z'
loop_
 _atom_site_type_symbol
 _atom_site_label
 _atom_site_symmetry_multiplicity
 _atom_site_fract_x
 _atom_site_fract_y
 _atom_site_fract_z
 _atom_site_occupancy
  Dy  Dy0  1  0.341315  0.001179  0.466297  1
  Dy  Dy1  1  0.498581  0.841365  0.716186  1
  Dy  Dy2  1  0.501619  0.157775  0.216785  1
  Dy  Dy3  1  0.840244  0.499245  0.283615  1
  Dy  Dy4  1  0.158865  0.501167  0.782861  1
  Dy  Dy5  1  0.658208  0.998099  0.966707  1
  Er  Er6  1  0.000121  0.341450  0.533257  1
  Er  Er7  1  0.999458  0.659967  0.033357  1
  Ti  Ti8  1  0.508560  0.347338  0.624547  1
  Ti  Ti9  1  0.653277  0.491184  0.875714  1
  Ti  Ti10  1  0.348111  0.508189  0.375999  1
  Ti  Ti11  1  0.847543  0.991066  0.374081  1
  Ti  Ti12  1  0.008431  0.151728  0.125735  1
  Ti  Ti13  1  0.991227  0.847424  0.626016  1
  Nb  Nb14  1  0.327588  0.328069  0.000330  1
  Nb  Nb15  1  0.172122  0.827709  0.250343  1
  Nb  Nb16  1  0.828547  0.172448  0.749886  1
  Nb  Nb17  1  0.672268  0.671456  0.500102  1
  Nb  Nb18  1  0.151794  0.008457  0.874410  1
  Nb  Nb19  1  0.491488  0.652223  0.123615  1
  Si  Si20  1  0.204847  0.132008  0.682095  1
  Si  Si21  1  0.368799  0.704304  0.932297  1
  Si  Si22  1  0.630999  0.296384  0.434243  1
  Si  Si23  1  0.706354  0.366642  0.066931  1
  Si  Si24  1  0.295725  0.630017  0.565957  1
  Si  Si25  1  0.797289  0.869646  0.183643  1
  Si  Si26  1  0.130399  0.204101  0.316897  1
  Si  Si27  1  0.866461  0.794264  0.816564  1
  Si  Si28  1  0.291552  0.953928  0.064056  1
  Si  Si29  1  0.546992  0.792558  0.314423  1
  Si  Si30  1  0.454129  0.209899  0.812629  1
  Si  Si31  1  0.792426  0.545718  0.686021  1
  Si  Si32  1  0.206051  0.452277  0.187167  1
  Si  Si33  1  0.709444  0.047076  0.563180  1
  Si  Si34  1  0.952670  0.295531  0.936921  1
  Si  Si35  1  0.046499  0.708108  0.437131  1
