# generated using pymatgen
data_Dy3Lu3Pa2(ReB6)4
_symmetry_space_group_name_H-M   'P 1'
_cell_length_a   3.67891900
_cell_length_b   9.12032910
_cell_length_c   11.49183553
_cell_angle_alpha   90.31744287
_cell_angle_beta   90.00000000
_cell_angle_gamma   90.00000000
_symmetry_Int_Tables_number   1
_chemical_formula_structural   Dy3Lu3Pa2(ReB6)4
_chemical_formula_sum   'Dy3 Lu3 Pa2 Re4 B24'
_cell_volume   385.57908814
_cell_formula_units_Z   1
loop_
 _symmetry_equiv_pos_site_id
 _symmetry_equiv_pos_as_xyz
  1  'x, y, z'
loop_
 _atom_site_type_symbol
 _atom_site_label
 _atom_site_symmetry_multiplicity
 _atom_site_fract_x
 _atom_site_fract_y
 _atom_site_fract_z
 _atom_site_occupancy
  Dy  Dy0  1  0.000000  0.823104  0.085235  1
  Dy  Dy1  1  0.000000  0.176951  0.914209  1
  Dy  Dy2  1  0.000000  0.945003  0.372800  1
  Lu  Lu3  1  0.000000  0.055267  0.628384  1
  Lu  Lu4  1  0.000000  0.444127  0.126107  1
  Lu  Lu5  1  0.000000  0.555931  0.873455  1
  Pa  Pa6  1  0.000000  0.321502  0.413544  1
  Pa  Pa7  1  0.000000  0.678717  0.587089  1
  Re  Re8  1  0.000000  0.634551  0.323775  1
  Re  Re9  1  0.000000  0.364092  0.676531  1
  Re  Re10  1  0.000000  0.142372  0.181490  1
  Re  Re11  1  0.000000  0.858502  0.817845  1
  B  B12  1  0.500000  0.553258  0.432960  1
  B  B13  1  0.500000  0.445862  0.567461  1
  B  B14  1  0.500000  0.054387  0.066926  1
  B  B15  1  0.500000  0.946093  0.932347  1
  B  B16  1  0.500000  0.748401  0.419499  1
  B  B17  1  0.500000  0.250238  0.581141  1
  B  B18  1  0.500000  0.250200  0.080190  1
  B  B19  1  0.500000  0.750204  0.919427  1
  B  B20  1  0.500000  0.790891  0.264793  1
  B  B21  1  0.500000  0.207785  0.734874  1
  B  B22  1  0.500000  0.293633  0.233725  1
  B  B23  1  0.500000  0.706937  0.766085  1
  B  B24  1  0.500000  0.630006  0.184336  1
  B  B25  1  0.500000  0.369457  0.815408  1
  B  B26  1  0.500000  0.132798  0.314242  1
  B  B27  1  0.500000  0.868458  0.685488  1
  B  B28  1  0.500000  0.982819  0.211677  1
  B  B29  1  0.500000  0.017912  0.787300  1
  B  B30  1  0.500000  0.482294  0.285805  1
  B  B31  1  0.500000  0.517303  0.714112  1
  B  B32  1  0.500000  0.601339  0.028059  1
  B  B33  1  0.500000  0.398659  0.971528  1
  B  B34  1  0.500000  0.108575  0.471342  1
  B  B35  1  0.500000  0.892373  0.530812  1
