# generated using pymatgen
data_Sm5(Sc5Bi4)3
_symmetry_space_group_name_H-M   'P 1'
_cell_length_a   7.95934198
_cell_length_b   9.12484400
_cell_length_c   11.73950825
_cell_angle_alpha   90.00000000
_cell_angle_beta   90.06684369
_cell_angle_gamma   90.00000000
_symmetry_Int_Tables_number   1
_chemical_formula_structural   Sm5(Sc5Bi4)3
_chemical_formula_sum   'Sm5 Sc15 Bi12'
_cell_volume   852.61353588
_cell_formula_units_Z   1
loop_
 _symmetry_equiv_pos_site_id
 _symmetry_equiv_pos_as_xyz
  1  'x, y, z'
loop_
 _atom_site_type_symbol
 _atom_site_label
 _atom_site_symmetry_multiplicity
 _atom_site_fract_x
 _atom_site_fract_y
 _atom_site_fract_z
 _atom_site_occupancy
  Sm  Sm0  1  0.850912  0.250000  0.218059  1
  Sm  Sm1  1  0.186185  0.250000  0.777970  1
  Sm  Sm2  1  0.817733  0.750000  0.219488  1
  Sm  Sm3  1  0.319350  0.750000  0.281219  1
  Sm  Sm4  1  0.682072  0.250000  0.717666  1
  Sc  Sc5  1  0.018082  0.250000  0.513165  1
  Sc  Sc6  1  0.981941  0.750000  0.491454  1
  Sc  Sc7  1  0.480361  0.750000  0.009238  1
  Sc  Sc8  1  0.517685  0.250000  0.988211  1
  Sc  Sc9  1  0.347564  0.250000  0.277920  1
  Sc  Sc10  1  0.651293  0.750000  0.721769  1
  Sc  Sc11  1  0.151207  0.750000  0.778965  1
  Sc  Sc12  1  0.192038  0.067995  0.060652  1
  Sc  Sc13  1  0.807120  0.932341  0.937049  1
  Sc  Sc14  1  0.307840  0.932462  0.564474  1
  Sc  Sc15  1  0.807120  0.567659  0.937049  1
  Sc  Sc16  1  0.691555  0.065898  0.441121  1
  Sc  Sc17  1  0.192038  0.432005  0.060652  1
  Sc  Sc18  1  0.691555  0.434102  0.441121  1
  Sc  Sc19  1  0.307840  0.567538  0.564474  1
  Bi  Bi20  1  0.400591  0.250000  0.529458  1
  Bi  Bi21  1  0.598097  0.750000  0.470509  1
  Bi  Bi22  1  0.097821  0.750000  0.030374  1
  Bi  Bi23  1  0.901932  0.250000  0.957987  1
  Bi  Bi24  1  0.069087  0.006922  0.336375  1
  Bi  Bi25  1  0.936316  0.987421  0.670453  1
  Bi  Bi26  1  0.436578  0.987610  0.829701  1
  Bi  Bi27  1  0.936316  0.512579  0.670453  1
  Bi  Bi28  1  0.558052  0.008676  0.168452  1
  Bi  Bi29  1  0.069087  0.493078  0.336375  1
  Bi  Bi30  1  0.558052  0.491324  0.168452  1
  Bi  Bi31  1  0.436578  0.512390  0.829701  1
