# generated using pymatgen
data_Rb3Mn(NO3)5
_symmetry_space_group_name_H-M   'P 1'
_cell_length_a   14.53842000
_cell_length_b   8.45772486
_cell_length_c   12.00300400
_cell_angle_alpha   89.66815550
_cell_angle_beta   90.00000000
_cell_angle_gamma   90.00000000
_symmetry_Int_Tables_number   1
_chemical_formula_structural   Rb3Mn(NO3)5
_chemical_formula_sum   'Rb12 Mn4 N20 O60'
_cell_volume   1475.88809759
_cell_formula_units_Z   4
loop_
 _symmetry_equiv_pos_site_id
 _symmetry_equiv_pos_as_xyz
  1  'x, y, z'
loop_
 _atom_site_type_symbol
 _atom_site_label
 _atom_site_symmetry_multiplicity
 _atom_site_fract_x
 _atom_site_fract_y
 _atom_site_fract_z
 _atom_site_occupancy
  Rb  Rb0  1  0.536134  0.724184  0.055193  1
  Rb  Rb1  1  0.038025  0.733646  0.957295  1
  Rb  Rb2  1  0.963866  0.724184  0.555193  1
  Rb  Rb3  1  0.538025  0.266354  0.542705  1
  Rb  Rb4  1  0.770171  0.593350  0.282744  1
  Rb  Rb5  1  0.461975  0.733646  0.457295  1
  Rb  Rb6  1  0.229829  0.406650  0.717256  1
  Rb  Rb7  1  0.729829  0.593350  0.782744  1
  Rb  Rb8  1  0.036134  0.275816  0.444807  1
  Rb  Rb9  1  0.463866  0.275816  0.944807  1
  Rb  Rb10  1  0.961975  0.266354  0.042705  1
  Rb  Rb11  1  0.270171  0.406650  0.217256  1
  Mn  Mn12  1  0.768725  0.078071  0.680379  1
  Mn  Mn13  1  0.231275  0.921929  0.319621  1
  Mn  Mn14  1  0.731275  0.078071  0.180379  1
  Mn  Mn15  1  0.268725  0.921929  0.819621  1
  N  N16  1  0.201693  0.137565  0.973105  1
  N  N17  1  0.810359  0.336688  0.552290  1
  N  N18  1  0.701693  0.862435  0.526895  1
  N  N19  1  0.367609  0.974389  0.168966  1
  N  N20  1  0.689641  0.336688  0.052290  1
  N  N21  1  0.132391  0.974389  0.668966  1
  N  N22  1  0.310359  0.663312  0.947710  1
  N  N23  1  0.921648  0.056676  0.802967  1
  N  N24  1  0.798307  0.862435  0.026895  1
  N  N25  1  0.867609  0.025611  0.331034  1
  N  N26  1  0.421648  0.943324  0.697033  1
  N  N27  1  0.998517  0.458778  0.761003  1
  N  N28  1  0.578352  0.056676  0.302967  1
  N  N29  1  0.632391  0.025611  0.831034  1
  N  N30  1  0.078352  0.943324  0.197033  1
  N  N31  1  0.189641  0.663312  0.447710  1
  N  N32  1  0.501483  0.458778  0.261003  1
  N  N33  1  0.298307  0.137565  0.473105  1
  N  N34  1  0.498517  0.541222  0.738997  1
  N  N35  1  0.001483  0.541222  0.238997  1
  O  O36  1  0.493752  0.954803  0.642147  1
  O  O37  1  0.858358  0.210189  0.557644  1
  O  O38  1  0.925290  0.539412  0.770597  1
  O  O39  1  0.867283  0.175424  0.813795  1
  O  O40  1  0.632717  0.175424  0.313795  1
  O  O41  1  0.953549  0.573684  0.153311  1
  O  O42  1  0.838770  0.776332  0.959362  1
  O  O43  1  0.546451  0.573684  0.653311  1
  O  O44  1  0.834341  0.449960  0.492536  1
  O  O45  1  0.358358  0.789811  0.942356  1
  O  O46  1  0.602377  0.950645  0.233187  1
  O  O47  1  0.993752  0.045197  0.857853  1
  O  O48  1  0.474410  0.414847  0.165819  1
  O  O49  1  0.074710  0.460588  0.229403  1
  O  O50  1  0.574710  0.539412  0.270597  1
  O  O51  1  0.263000  0.659449  0.388407  1
  O  O52  1  0.805146  0.925005  0.303966  1
  O  O53  1  0.638537  0.162889  0.786082  1
  O  O54  1  0.453549  0.426316  0.346689  1
  O  O55  1  0.323115  0.992812  0.458846  1
  O  O56  1  0.237000  0.659449  0.888407  1
  O  O57  1  0.429487  0.009995  0.102701  1
  O  O58  1  0.102377  0.049355  0.266813  1
  O  O59  1  0.425290  0.460588  0.729403  1
  O  O60  1  0.737000  0.340551  0.611593  1
  O  O61  1  0.974410  0.585153  0.334181  1
  O  O62  1  0.769322  0.813687  0.585177  1
  O  O63  1  0.397623  0.049355  0.766813  1
  O  O64  1  0.676885  0.007188  0.541154  1
  O  O65  1  0.006248  0.954803  0.142147  1
  O  O66  1  0.194854  0.074995  0.696034  1
  O  O67  1  0.046451  0.426316  0.846689  1
  O  O68  1  0.141642  0.789811  0.442356  1
  O  O69  1  0.161230  0.223668  0.040638  1
  O  O70  1  0.730678  0.813687  0.085177  1
  O  O71  1  0.665659  0.449960  0.992536  1
  O  O72  1  0.176885  0.992812  0.958846  1
  O  O73  1  0.823115  0.007188  0.041154  1
  O  O74  1  0.230678  0.186313  0.414823  1
  O  O75  1  0.763000  0.340551  0.111593  1
  O  O76  1  0.897623  0.950645  0.733187  1
  O  O77  1  0.929487  0.990005  0.397299  1
  O  O78  1  0.269322  0.186313  0.914823  1
  O  O79  1  0.138537  0.837111  0.713918  1
  O  O80  1  0.861463  0.162889  0.286082  1
  O  O81  1  0.338770  0.223668  0.540638  1
  O  O82  1  0.165659  0.550040  0.507464  1
  O  O83  1  0.367283  0.824576  0.686205  1
  O  O84  1  0.070513  0.009995  0.602701  1
  O  O85  1  0.132717  0.824576  0.186205  1
  O  O86  1  0.661230  0.776332  0.459362  1
  O  O87  1  0.361463  0.837111  0.213918  1
  O  O88  1  0.641642  0.210189  0.057644  1
  O  O89  1  0.570513  0.990005  0.897299  1
  O  O90  1  0.525590  0.585153  0.834181  1
  O  O91  1  0.506248  0.045197  0.357853  1
  O  O92  1  0.305146  0.074995  0.196034  1
  O  O93  1  0.334341  0.550040  0.007464  1
  O  O94  1  0.025590  0.414847  0.665819  1
  O  O95  1  0.694854  0.925005  0.803966  1
