# generated using pymatgen
data_SmCo5Si4Ni
_symmetry_space_group_name_H-M   'P 1'
_cell_length_a   6.60682100
_cell_length_b   6.64567308
_cell_length_c   3.63795900
_cell_angle_alpha   90.00000000
_cell_angle_beta   90.00000000
_cell_angle_gamma   119.80679127
_symmetry_Int_Tables_number   1
_chemical_formula_structural   SmCo5Si4Ni
_chemical_formula_sum   'Sm1 Co5 Si4 Ni1'
_cell_volume   138.59966649
_cell_formula_units_Z   1
loop_
 _symmetry_equiv_pos_site_id
 _symmetry_equiv_pos_as_xyz
  1  'x, y, z'
loop_
 _atom_site_type_symbol
 _atom_site_label
 _atom_site_symmetry_multiplicity
 _atom_site_fract_x
 _atom_site_fract_y
 _atom_site_fract_z
 _atom_site_occupancy
  Sm  Sm0  1  0.998042  0.996085  0.000000  1
  Co  Co1  1  0.534295  0.068590  0.000000  1
  Co  Co2  1  0.933551  0.465810  0.000000  1
  Co  Co3  1  0.532260  0.465810  0.000000  1
  Co  Co4  1  0.589290  0.795190  0.500000  1
  Co  Co5  1  0.205898  0.795190  0.500000  1
  Si  Si6  1  0.336100  0.672200  0.000000  1
  Si  Si7  1  0.799609  0.599219  0.500000  1
  Si  Si8  1  0.403098  0.198764  0.500000  1
  Si  Si9  1  0.795666  0.198764  0.500000  1
  Ni  Ni10  1  0.205523  0.411047  0.500000  1
