# generated using pymatgen
data_HoEr4FeSb2
_symmetry_space_group_name_H-M   'P 1'
_cell_length_a   7.78094900
_cell_length_b   8.75298600
_cell_length_c   12.08084000
_cell_angle_alpha   90.00000000
_cell_angle_beta   90.00000000
_cell_angle_gamma   90.00000000
_symmetry_Int_Tables_number   1
_chemical_formula_structural   HoEr4FeSb2
_chemical_formula_sum   'Ho4 Er16 Fe4 Sb8'
_cell_volume   822.78418447
_cell_formula_units_Z   4
loop_
 _symmetry_equiv_pos_site_id
 _symmetry_equiv_pos_as_xyz
  1  'x, y, z'
loop_
 _atom_site_type_symbol
 _atom_site_label
 _atom_site_symmetry_multiplicity
 _atom_site_fract_x
 _atom_site_fract_y
 _atom_site_fract_z
 _atom_site_occupancy
  Ho  Ho0  1  0.624126  0.750000  0.307529  1
  Ho  Ho1  1  0.124126  0.250000  0.192471  1
  Ho  Ho2  1  0.375874  0.250000  0.692471  1
  Ho  Ho3  1  0.875874  0.750000  0.807529  1
  Er  Er4  1  0.156773  0.750000  0.205351  1
  Er  Er5  1  0.656773  0.250000  0.294649  1
  Er  Er6  1  0.843227  0.250000  0.794649  1
  Er  Er7  1  0.343227  0.750000  0.705351  1
  Er  Er8  1  0.449068  0.750000  0.995949  1
  Er  Er9  1  0.949068  0.250000  0.504051  1
  Er  Er10  1  0.550932  0.250000  0.004051  1
  Er  Er11  1  0.050932  0.750000  0.495949  1
  Er  Er12  1  0.824208  0.964039  0.064208  1
  Er  Er13  1  0.324208  0.035961  0.435792  1
  Er  Er14  1  0.175792  0.464039  0.935792  1
  Er  Er15  1  0.675792  0.535961  0.564208  1
  Er  Er16  1  0.175792  0.035961  0.935792  1
  Er  Er17  1  0.675792  0.964039  0.564208  1
  Er  Er18  1  0.824208  0.535961  0.064208  1
  Er  Er19  1  0.324208  0.464039  0.435792  1
  Fe  Fe20  1  0.427676  0.750000  0.488928  1
  Fe  Fe21  1  0.927676  0.250000  0.011072  1
  Fe  Fe22  1  0.572324  0.250000  0.511072  1
  Fe  Fe23  1  0.072324  0.750000  0.988928  1
  Sb  Sb24  1  0.930714  0.993220  0.328065  1
  Sb  Sb25  1  0.430714  0.006780  0.171935  1
  Sb  Sb26  1  0.069286  0.493220  0.671935  1
  Sb  Sb27  1  0.569286  0.506780  0.828065  1
  Sb  Sb28  1  0.069286  0.006780  0.671935  1
  Sb  Sb29  1  0.569286  0.993220  0.828065  1
  Sb  Sb30  1  0.930714  0.506780  0.328065  1
  Sb  Sb31  1  0.430714  0.493220  0.171935  1
