# generated using pymatgen
data_DyAg6NO11
_symmetry_space_group_name_H-M   'P 1'
_cell_length_a   7.08243072
_cell_length_b   7.08243026
_cell_length_c   7.08243055
_cell_angle_alpha   61.80493093
_cell_angle_beta   61.80492884
_cell_angle_gamma   61.80493433
_symmetry_Int_Tables_number   1
_chemical_formula_structural   DyAg6NO11
_chemical_formula_sum   'Dy1 Ag6 N1 O11'
_cell_volume   261.36310876
_cell_formula_units_Z   1
loop_
 _symmetry_equiv_pos_site_id
 _symmetry_equiv_pos_as_xyz
  1  'x, y, z'
loop_
 _atom_site_type_symbol
 _atom_site_label
 _atom_site_symmetry_multiplicity
 _atom_site_fract_x
 _atom_site_fract_y
 _atom_site_fract_z
 _atom_site_occupancy
  Dy  Dy0  1  0.999048  0.999048  0.999048  1
  Ag  Ag1  1  0.498078  0.001095  0.001095  1
  Ag  Ag2  1  0.500266  0.500266  0.000249  1
  Ag  Ag3  1  0.500266  0.000249  0.500266  1
  Ag  Ag4  1  0.001095  0.001095  0.498078  1
  Ag  Ag5  1  0.000249  0.500266  0.500266  1
  Ag  Ag6  1  0.001095  0.498078  0.001095  1
  N  N7  1  0.500080  0.500080  0.500080  1
  O  O8  1  0.588231  0.142226  0.142226  1
  O  O9  1  0.142226  0.588231  0.142226  1
  O  O10  1  0.137853  0.137853  0.137853  1
  O  O11  1  0.142226  0.142226  0.588231  1
  O  O12  1  0.600478  0.600478  0.299206  1
  O  O13  1  0.600478  0.299206  0.600478  1
  O  O14  1  0.299206  0.600478  0.600478  1
  O  O15  1  0.858874  0.858874  0.409723  1
  O  O16  1  0.858874  0.409723  0.858874  1
  O  O17  1  0.861654  0.861654  0.861654  1
  O  O18  1  0.409723  0.858874  0.858874  1
