# generated using pymatgen
data_Lu4ReTcB12
_symmetry_space_group_name_H-M   'P 1'
_cell_length_a   3.61963100
_cell_length_b   9.06131784
_cell_length_c   11.41062606
_cell_angle_alpha   90.04927161
_cell_angle_beta   90.00000000
_cell_angle_gamma   90.00000000
_symmetry_Int_Tables_number   1
_chemical_formula_structural   Lu4ReTcB12
_chemical_formula_sum   'Lu8 Re2 Tc2 B24'
_cell_volume   374.25272881
_cell_formula_units_Z   2
loop_
 _symmetry_equiv_pos_site_id
 _symmetry_equiv_pos_as_xyz
  1  'x, y, z'
loop_
 _atom_site_type_symbol
 _atom_site_label
 _atom_site_symmetry_multiplicity
 _atom_site_fract_x
 _atom_site_fract_y
 _atom_site_fract_z
 _atom_site_occupancy
  Lu  Lu0  1  0.000000  0.323760  0.413902  1
  Lu  Lu1  1  0.000000  0.676240  0.586098  1
  Lu  Lu2  1  0.000000  0.823226  0.086230  1
  Lu  Lu3  1  0.000000  0.176774  0.913770  1
  Lu  Lu4  1  0.000000  0.942658  0.370365  1
  Lu  Lu5  1  0.000000  0.057342  0.629635  1
  Lu  Lu6  1  0.000000  0.444296  0.130101  1
  Lu  Lu7  1  0.000000  0.555704  0.869899  1
  Re  Re8  1  0.000000  0.139542  0.179368  1
  Re  Re9  1  0.000000  0.860458  0.820632  1
  Tc  Tc10  1  0.000000  0.639561  0.320658  1
  Tc  Tc11  1  0.000000  0.360439  0.679342  1
  B  B12  1  0.500000  0.553208  0.433693  1
  B  B13  1  0.500000  0.446792  0.566307  1
  B  B14  1  0.500000  0.053115  0.066233  1
  B  B15  1  0.500000  0.946885  0.933767  1
  B  B16  1  0.500000  0.750393  0.419761  1
  B  B17  1  0.500000  0.249607  0.580239  1
  B  B18  1  0.500000  0.250884  0.080123  1
  B  B19  1  0.500000  0.749116  0.919877  1
  B  B20  1  0.500000  0.793449  0.264979  1
  B  B21  1  0.500000  0.206551  0.735021  1
  B  B22  1  0.500000  0.293875  0.235235  1
  B  B23  1  0.500000  0.706125  0.764765  1
  B  B24  1  0.500000  0.631129  0.184565  1
  B  B25  1  0.500000  0.368871  0.815435  1
  B  B26  1  0.500000  0.130829  0.315748  1
  B  B27  1  0.500000  0.869171  0.684252  1
  B  B28  1  0.500000  0.980953  0.211988  1
  B  B29  1  0.500000  0.019047  0.788012  1
  B  B30  1  0.500000  0.481465  0.288143  1
  B  B31  1  0.500000  0.518535  0.711857  1
  B  B32  1  0.500000  0.599557  0.027691  1
  B  B33  1  0.500000  0.400443  0.972309  1
  B  B34  1  0.500000  0.099498  0.472185  1
  B  B35  1  0.500000  0.900502  0.527815  1
