# generated using pymatgen
data_Er5Tm(Sc2Sn3)2
_symmetry_space_group_name_H-M   'P 1'
_cell_length_a   6.24450100
_cell_length_b   8.73791227
_cell_length_c   8.74056900
_cell_angle_alpha   120.00805770
_cell_angle_beta   89.99942714
_cell_angle_gamma   89.99904383
_symmetry_Int_Tables_number   1
_chemical_formula_structural   Er5Tm(Sc2Sn3)2
_chemical_formula_sum   'Er5 Tm1 Sc4 Sn6'
_cell_volume   412.99090563
_cell_formula_units_Z   1
loop_
 _symmetry_equiv_pos_site_id
 _symmetry_equiv_pos_as_xyz
  1  'x, y, z'
loop_
 _atom_site_type_symbol
 _atom_site_label
 _atom_site_symmetry_multiplicity
 _atom_site_fract_x
 _atom_site_fract_y
 _atom_site_fract_z
 _atom_site_occupancy
  Er  Er0  1  0.750001  0.238661  0.999915  1
  Er  Er1  1  0.749999  0.761266  0.761213  1
  Er  Er2  1  0.750005  0.999981  0.238878  1
  Er  Er3  1  0.250006  0.761289  0.999967  1
  Er  Er4  1  0.250000  0.238778  0.238717  1
  Tm  Tm5  1  0.249999  0.000028  0.761202  1
  Sc  Sc6  1  0.499981  0.333353  0.666725  1
  Sc  Sc7  1  0.499985  0.666650  0.333306  1
  Sc  Sc8  1  0.000005  0.666651  0.333313  1
  Sc  Sc9  1  0.000012  0.333355  0.666728  1
  Sn  Sn10  1  0.749989  0.601007  0.000000  1
  Sn  Sn11  1  0.749997  0.398959  0.398962  1
  Sn  Sn12  1  0.750006  0.999977  0.601024  1
  Sn  Sn13  1  0.249998  0.398782  0.999857  1
  Sn  Sn14  1  0.250005  0.601255  0.601095  1
  Sn  Sn15  1  0.250007  0.000009  0.399099  1
