# generated using pymatgen
data_Hf4Ti4Al15Os7
_symmetry_space_group_name_H-M   'P 1'
_cell_length_a   8.76793385
_cell_length_b   8.76052442
_cell_length_c   8.75964839
_cell_angle_alpha   120.25666706
_cell_angle_beta   119.97925818
_cell_angle_gamma   89.83261531
_symmetry_Int_Tables_number   1
_chemical_formula_structural   Hf4Ti4Al15Os7
_chemical_formula_sum   'Hf4 Ti4 Al15 Os7'
_cell_volume   474.76557695
_cell_formula_units_Z   1
loop_
 _symmetry_equiv_pos_site_id
 _symmetry_equiv_pos_as_xyz
  1  'x, y, z'
loop_
 _atom_site_type_symbol
 _atom_site_label
 _atom_site_symmetry_multiplicity
 _atom_site_fract_x
 _atom_site_fract_y
 _atom_site_fract_z
 _atom_site_occupancy
  Hf  Hf0  1  0.795168  0.279931  0.062220  1
  Hf  Hf1  1  0.214617  0.286840  0.489854  1
  Hf  Hf2  1  0.212510  0.707314  0.500052  1
  Hf  Hf3  1  0.223457  0.727385  0.938941  1
  Ti  Ti4  1  0.791184  0.729539  0.508326  1
  Ti  Ti5  1  0.777975  0.274728  0.499831  1
  Ti  Ti6  1  0.377413  0.122319  0.743698  1
  Ti  Ti7  1  0.383740  0.637325  0.260253  1
  Al  Al8  1  0.978077  0.495027  0.500339  1
  Al  Al9  1  0.165487  0.334864  0.167337  1
  Al  Al10  1  0.156957  0.982731  0.820228  1
  Al  Al11  1  0.152884  0.341828  0.812736  1
  Al  Al12  1  0.539491  0.347805  0.195674  1
  Al  Al13  1  0.841087  0.651728  0.804994  1
  Al  Al14  1  0.837544  0.025235  0.185890  1
  Al  Al15  1  0.835388  0.659429  0.180416  1
  Al  Al16  1  0.491917  0.663392  0.830262  1
  Al  Al17  1  0.386246  0.125836  0.262326  1
  Al  Al18  1  0.860841  0.118469  0.733119  1
  Al  Al19  1  0.624334  0.879397  0.264291  1
  Al  Al20  1  0.620680  0.362683  0.740975  1
  Al  Al21  1  0.619580  0.875024  0.738333  1
  Al  Al22  1  0.134074  0.876860  0.258990  1
  Os  Os23  1  0.999068  0.998307  0.500591  1
  Os  Os24  1  0.494764  0.996892  0.997846  1
  Os  Os25  1  0.495728  0.498394  0.998878  1
  Os  Os26  1  0.494851  0.499299  0.499686  1
  Os  Os27  1  0.997996  0.499057  0.001738  1
  Os  Os28  1  0.998851  0.002998  0.001899  1
  Os  Os29  1  0.498085  0.999361  0.500276  1
