# generated using pymatgen
data_Tb3Dy(FeC4)2
_symmetry_space_group_name_H-M   'P 1'
_cell_length_a   5.05776122
_cell_length_b   6.63210728
_cell_length_c   6.62698873
_cell_angle_alpha   68.69110763
_cell_angle_beta   67.56696753
_cell_angle_gamma   67.58522652
_symmetry_Int_Tables_number   1
_chemical_formula_structural   Tb3Dy(FeC4)2
_chemical_formula_sum   'Tb3 Dy1 Fe2 C8'
_cell_volume   183.66857112
_cell_formula_units_Z   1
loop_
 _symmetry_equiv_pos_site_id
 _symmetry_equiv_pos_as_xyz
  1  'x, y, z'
loop_
 _atom_site_type_symbol
 _atom_site_label
 _atom_site_symmetry_multiplicity
 _atom_site_fract_x
 _atom_site_fract_y
 _atom_site_fract_z
 _atom_site_occupancy
  Tb  Tb0  1  0.644321  0.197896  0.513463  1
  Tb  Tb1  1  0.355705  0.801907  0.486684  1
  Tb  Tb2  1  0.144536  0.513413  0.197514  1
  Dy  Dy3  1  0.856244  0.486462  0.801051  1
  Fe  Fe4  1  0.249751  0.000215  0.000282  1
  Fe  Fe5  1  0.749752  0.000215  0.000282  1
  C  C6  1  0.872053  0.791062  0.464830  1
  C  C7  1  0.127443  0.208876  0.536239  1
  C  C8  1  0.371834  0.464157  0.792174  1
  C  C9  1  0.628664  0.535705  0.206969  1
  C  C10  1  0.921850  0.913390  0.242909  1
  C  C11  1  0.077522  0.086851  0.758107  1
  C  C12  1  0.421831  0.242248  0.914090  1
  C  C13  1  0.578495  0.757605  0.085406  1
