# generated using pymatgen
data_Tb2Dy5YPt4
_symmetry_space_group_name_H-M   'P 1'
_cell_length_a   4.76814100
_cell_length_b   7.18629558
_cell_length_c   8.84329500
_cell_angle_alpha   89.88990952
_cell_angle_beta   90.00000000
_cell_angle_gamma   90.00000000
_symmetry_Int_Tables_number   1
_chemical_formula_structural   Tb2Dy5YPt4
_chemical_formula_sum   'Tb2 Dy5 Y1 Pt4'
_cell_volume   303.01733702
_cell_formula_units_Z   1
loop_
 _symmetry_equiv_pos_site_id
 _symmetry_equiv_pos_as_xyz
  1  'x, y, z'
loop_
 _atom_site_type_symbol
 _atom_site_label
 _atom_site_symmetry_multiplicity
 _atom_site_fract_x
 _atom_site_fract_y
 _atom_site_fract_z
 _atom_site_occupancy
  Tb  Tb0  1  0.250000  0.490346  0.168473  1
  Tb  Tb1  1  0.750000  0.009319  0.668698  1
  Dy  Dy2  1  0.250000  0.855278  0.920052  1
  Dy  Dy3  1  0.250000  0.354886  0.580017  1
  Dy  Dy4  1  0.750000  0.144288  0.080436  1
  Dy  Dy5  1  0.750000  0.645286  0.419799  1
  Dy  Dy6  1  0.250000  0.990918  0.332324  1
  Y  Y7  1  0.750000  0.509465  0.831358  1
  Pt  Pt8  1  0.250000  0.257161  0.906741  1
  Pt  Pt9  1  0.250000  0.758180  0.592411  1
  Pt  Pt10  1  0.750000  0.743102  0.093352  1
  Pt  Pt11  1  0.750000  0.241770  0.406339  1
