# generated using pymatgen
data_Nd4ErP12Ru15Rh4
_symmetry_space_group_name_H-M   'P 1'
_cell_length_a   12.61533452
_cell_length_b   12.65372131
_cell_length_c   4.00426000
_cell_angle_alpha   90.00000000
_cell_angle_beta   90.00000000
_cell_angle_gamma   119.96169156
_symmetry_Int_Tables_number   1
_chemical_formula_structural   Nd4ErP12Ru15Rh4
_chemical_formula_sum   'Nd4 Er1 P12 Ru15 Rh4'
_cell_volume   553.78023923
_cell_formula_units_Z   1
loop_
 _symmetry_equiv_pos_site_id
 _symmetry_equiv_pos_as_xyz
  1  'x, y, z'
loop_
 _atom_site_type_symbol
 _atom_site_label
 _atom_site_symmetry_multiplicity
 _atom_site_fract_x
 _atom_site_fract_y
 _atom_site_fract_z
 _atom_site_occupancy
  Nd  Nd0  1  0.182996  0.182773  0.500000  1
  Nd  Nd1  1  0.815281  0.997677  0.500000  1
  Nd  Nd2  1  0.000233  0.816604  0.500000  1
  Nd  Nd3  1  0.333278  0.667041  0.000000  1
  Er  Er4  1  0.667065  0.332670  0.000000  1
  P  P5  1  0.812287  0.809903  0.000000  1
  P  P6  1  0.189875  0.002562  0.000000  1
  P  P7  1  0.995754  0.184197  0.000000  1
  P  P8  1  0.170667  0.479170  0.500000  1
  P  P9  1  0.522521  0.696542  0.500000  1
  P  P10  1  0.303191  0.827267  0.500000  1
  P  P11  1  0.698331  0.518832  0.500000  1
  P  P12  1  0.821300  0.301384  0.500000  1
  P  P13  1  0.481475  0.179675  0.500000  1
  P  P14  1  0.374881  0.372278  0.000000  1
  P  P15  1  0.627721  0.999539  0.000000  1
  P  P16  1  0.001044  0.628609  0.000000  1
  Ru  Ru17  1  0.712399  0.710154  0.500000  1
  Ru  Ru18  1  0.289722  0.003138  0.500000  1
  Ru  Ru19  1  0.999779  0.286816  0.500000  1
  Ru  Ru20  1  0.621623  0.805504  0.000000  1
  Ru  Ru21  1  0.194657  0.817229  0.000000  1
  Ru  Ru22  1  0.804249  0.616618  0.000000  1
  Ru  Ru23  1  0.814068  0.195939  0.000000  1
  Ru  Ru24  1  0.382918  0.187565  0.000000  1
  Ru  Ru25  1  0.364056  0.490048  0.500000  1
  Ru  Ru26  1  0.508730  0.876179  0.500000  1
  Ru  Ru27  1  0.123389  0.634795  0.500000  1
  Ru  Ru28  1  0.874576  0.503642  0.500000  1
  Ru  Ru29  1  0.630479  0.125290  0.500000  1
  Ru  Ru30  1  0.494593  0.370364  0.500000  1
  Ru  Ru31  1  0.999749  0.999521  0.000000  1
  Rh  Rh32  1  0.550846  0.554602  0.000000  1
  Rh  Rh33  1  0.446954  0.999908  0.000000  1
  Rh  Rh34  1  0.004787  0.449730  0.000000  1
  Rh  Rh35  1  0.184529  0.376231  0.000000  1
