# generated using pymatgen
data_YTm3ReOs7
_symmetry_space_group_name_H-M   'P 1'
_cell_length_a   5.39093957
_cell_length_b   5.24503182
_cell_length_c   8.88938803
_cell_angle_alpha   89.99062676
_cell_angle_beta   90.00472583
_cell_angle_gamma   120.73360458
_symmetry_Int_Tables_number   1
_chemical_formula_structural   YTm3ReOs7
_chemical_formula_sum   'Y1 Tm3 Re1 Os7'
_cell_volume   216.05133286
_cell_formula_units_Z   1
loop_
 _symmetry_equiv_pos_site_id
 _symmetry_equiv_pos_as_xyz
  1  'x, y, z'
loop_
 _atom_site_type_symbol
 _atom_site_label
 _atom_site_symmetry_multiplicity
 _atom_site_fract_x
 _atom_site_fract_y
 _atom_site_fract_z
 _atom_site_occupancy
  Y  Y0  1  0.670095  0.340188  0.564210  1
  Tm  Tm1  1  0.334407  0.669829  0.434374  1
  Tm  Tm2  1  0.334802  0.670359  0.065055  1
  Tm  Tm3  1  0.670842  0.341571  0.936225  1
  Re  Re4  1  0.162360  0.324549  0.750730  1
  Os  Os5  1  0.009694  0.019987  0.498668  1
  Os  Os6  1  0.009672  0.020020  0.000875  1
  Os  Os7  1  0.170642  0.820332  0.751220  1
  Os  Os8  1  0.646804  0.819563  0.751223  1
  Os  Os9  1  0.822537  0.644843  0.248864  1
  Os  Os10  1  0.830546  0.163212  0.249359  1
  Os  Os11  1  0.337601  0.165546  0.249197  1
