# generated using pymatgen
data_Li3Pr3IrPd2
_symmetry_space_group_name_H-M   'P 1'
_cell_length_a   7.48801000
_cell_length_b   7.48801097
_cell_length_c   4.05901200
_cell_angle_alpha   90.00000000
_cell_angle_beta   90.00000000
_cell_angle_gamma   119.99999573
_symmetry_Int_Tables_number   1
_chemical_formula_structural   Li3Pr3IrPd2
_chemical_formula_sum   'Li3 Pr3 Ir1 Pd2'
_cell_volume   197.09875143
_cell_formula_units_Z   1
loop_
 _symmetry_equiv_pos_site_id
 _symmetry_equiv_pos_as_xyz
  1  'x, y, z'
loop_
 _atom_site_type_symbol
 _atom_site_label
 _atom_site_symmetry_multiplicity
 _atom_site_fract_x
 _atom_site_fract_y
 _atom_site_fract_z
 _atom_site_occupancy
  Li  Li0  1  0.761574  0.763306  0.000000  1
  Li  Li1  1  0.001732  0.238426  0.000000  1
  Li  Li2  1  0.236694  0.998268  0.000000  1
  Pr  Pr3  1  0.582779  0.989591  0.500000  1
  Pr  Pr4  1  0.406812  0.417221  0.500000  1
  Pr  Pr5  1  0.010409  0.593188  0.500000  1
  Ir  Ir6  1  0.333333  0.666667  0.000000  1
  Pd  Pd7  1  0.000000  0.000000  0.500000  1
  Pd  Pd8  1  0.666667  0.333333  0.000000  1
