# generated using pymatgen
data_BaAs12Os3Pt
_symmetry_space_group_name_H-M   'P 1'
_cell_length_a   7.53993183
_cell_length_b   7.53993100
_cell_length_c   7.53993300
_cell_angle_alpha   109.47975802
_cell_angle_beta   109.47975766
_cell_angle_gamma   109.47976401
_symmetry_Int_Tables_number   1
_chemical_formula_structural   BaAs12Os3Pt
_chemical_formula_sum   'Ba1 As12 Os3 Pt1'
_cell_volume   329.87014021
_cell_formula_units_Z   1
loop_
 _symmetry_equiv_pos_site_id
 _symmetry_equiv_pos_as_xyz
  1  'x, y, z'
loop_
 _atom_site_type_symbol
 _atom_site_label
 _atom_site_symmetry_multiplicity
 _atom_site_fract_x
 _atom_site_fract_y
 _atom_site_fract_z
 _atom_site_occupancy
  Ba  Ba0  1  0.000000  0.000000  0.000000  1
  As  As1  1  0.857244  0.652035  0.498983  1
  As  As2  1  0.142756  0.347965  0.501017  1
  As  As3  1  0.151616  0.651282  0.802342  1
  As  As4  1  0.848384  0.348718  0.197658  1
  As  As5  1  0.652035  0.498983  0.857244  1
  As  As6  1  0.347965  0.501017  0.142756  1
  As  As7  1  0.651282  0.802342  0.151616  1
  As  As8  1  0.348718  0.197658  0.848384  1
  As  As9  1  0.498983  0.857244  0.652035  1
  As  As10  1  0.501017  0.142756  0.347965  1
  As  As11  1  0.197658  0.848384  0.348718  1
  As  As12  1  0.802342  0.151616  0.651282  1
  Os  Os13  1  0.500000  0.000000  0.000000  1
  Os  Os14  1  0.000000  0.500000  0.000000  1
  Os  Os15  1  0.000000  0.000000  0.500000  1
  Pt  Pt16  1  0.500000  0.500000  0.500000  1
