# generated using pymatgen
data_Ho2Tm3W2C7
_symmetry_space_group_name_H-M   'P 1'
_cell_length_a   8.34145796
_cell_length_b   8.35360274
_cell_length_c   3.38870300
_cell_angle_alpha   90.00000000
_cell_angle_beta   90.00000000
_cell_angle_gamma   122.24611578
_symmetry_Int_Tables_number   1
_chemical_formula_structural   Ho2Tm3W2C7
_chemical_formula_sum   'Ho2 Tm3 W2 C7'
_cell_volume   199.70938943
_cell_formula_units_Z   1
loop_
 _symmetry_equiv_pos_site_id
 _symmetry_equiv_pos_as_xyz
  1  'x, y, z'
loop_
 _atom_site_type_symbol
 _atom_site_label
 _atom_site_symmetry_multiplicity
 _atom_site_fract_x
 _atom_site_fract_y
 _atom_site_fract_z
 _atom_site_occupancy
  Ho  Ho0  1  0.669004  0.925274  0.500000  1
  Ho  Ho1  1  0.330996  0.074726  0.500000  1
  Tm  Tm2  1  0.500000  0.500000  0.000000  1
  Tm  Tm3  1  0.075599  0.334450  0.500000  1
  Tm  Tm4  1  0.924401  0.665550  0.500000  1
  W  W5  1  0.713106  0.287280  0.000000  1
  W  W6  1  0.286894  0.712720  0.000000  1
  C  C7  1  0.623801  0.377501  0.500000  1
  C  C8  1  0.376199  0.622499  0.500000  1
  C  C9  1  0.000000  0.000000  0.000000  1
  C  C10  1  0.166211  0.169929  0.000000  1
  C  C11  1  0.833789  0.830071  0.000000  1
  C  C12  1  0.000000  0.500000  0.000000  1
  C  C13  1  0.500000  0.000000  0.000000  1
