# generated using pymatgen
data_Th6AlSi11Pt8
_symmetry_space_group_name_H-M   'P 1'
_cell_length_a   4.35918700
_cell_length_b   8.82367801
_cell_length_c   13.19695700
_cell_angle_alpha   80.40176971
_cell_angle_beta   90.00000000
_cell_angle_gamma   90.00000000
_symmetry_Int_Tables_number   1
_chemical_formula_structural   Th6AlSi11Pt8
_chemical_formula_sum   'Th6 Al1 Si11 Pt8'
_cell_volume   500.50266142
_cell_formula_units_Z   1
loop_
 _symmetry_equiv_pos_site_id
 _symmetry_equiv_pos_as_xyz
  1  'x, y, z'
loop_
 _atom_site_type_symbol
 _atom_site_label
 _atom_site_symmetry_multiplicity
 _atom_site_fract_x
 _atom_site_fract_y
 _atom_site_fract_z
 _atom_site_occupancy
  Th  Th0  1  0.250000  0.787712  0.441810  1
  Th  Th1  1  0.250000  0.579160  0.187630  1
  Th  Th2  1  0.750000  0.226364  0.556118  1
  Th  Th3  1  0.750000  0.406174  0.819353  1
  Th  Th4  1  0.750000  0.916805  0.817880  1
  Th  Th5  1  0.250000  0.069676  0.178707  1
  Al  Al6  1  0.750000  0.590175  0.579444  1
  Si  Si7  1  0.750000  0.119976  0.002340  1
  Si  Si8  1  0.750000  0.886879  0.572428  1
  Si  Si9  1  0.250000  0.678005  0.721766  1
  Si  Si10  1  0.750000  0.310426  0.279257  1
  Si  Si11  1  0.750000  0.807058  0.273612  1
  Si  Si12  1  0.250000  0.866035  0.997150  1
  Si  Si13  1  0.250000  0.188104  0.727777  1
  Si  Si14  1  0.250000  0.370002  0.002539  1
  Si  Si15  1  0.250000  0.177446  0.383928  1
  Si  Si16  1  0.750000  0.617651  0.000865  1
  Si  Si17  1  0.250000  0.437396  0.440274  1
  Pt  Pt18  1  0.750000  0.347868  0.091379  1
  Pt  Pt19  1  0.250000  0.956546  0.640281  1
  Pt  Pt20  1  0.750000  0.847023  0.084496  1
  Pt  Pt21  1  0.750000  0.040193  0.369636  1
  Pt  Pt22  1  0.250000  0.637716  0.911591  1
  Pt  Pt23  1  0.250000  0.141149  0.917401  1
  Pt  Pt24  1  0.750000  0.536172  0.372461  1
  Pt  Pt25  1  0.250000  0.458291  0.629879  1
