# generated using pymatgen
data_Ta12Al3Ga5(CoN)4
_symmetry_space_group_name_H-M   'P 1'
_cell_length_a   8.14903060
_cell_length_b   8.15422680
_cell_length_c   8.14903044
_cell_angle_alpha   60.02765900
_cell_angle_beta   60.03712169
_cell_angle_gamma   60.02765787
_symmetry_Int_Tables_number   1
_chemical_formula_structural   Ta12Al3Ga5(CoN)4
_chemical_formula_sum   'Ta12 Al3 Ga5 Co4 N4'
_cell_volume   383.16241716
_cell_formula_units_Z   1
loop_
 _symmetry_equiv_pos_site_id
 _symmetry_equiv_pos_as_xyz
  1  'x, y, z'
loop_
 _atom_site_type_symbol
 _atom_site_label
 _atom_site_symmetry_multiplicity
 _atom_site_fract_x
 _atom_site_fract_y
 _atom_site_fract_z
 _atom_site_occupancy
  Ta  Ta0  1  0.561455  0.938797  0.561455  1
  Ta  Ta1  1  0.310475  0.690435  0.689520  1
  Ta  Ta2  1  0.687764  0.310482  0.311215  1
  Ta  Ta3  1  0.310785  0.688301  0.310785  1
  Ta  Ta4  1  0.689520  0.690435  0.310475  1
  Ta  Ta5  1  0.311215  0.310482  0.687764  1
  Ta  Ta6  1  0.559874  0.561557  0.939685  1
  Ta  Ta7  1  0.939685  0.561557  0.559874  1
  Ta  Ta8  1  0.559012  0.939599  0.939793  1
  Ta  Ta9  1  0.939793  0.939599  0.559012  1
  Ta  Ta10  1  0.690643  0.309407  0.690643  1
  Ta  Ta11  1  0.940679  0.559049  0.940679  1
  Al  Al12  1  0.917700  0.918599  0.245269  1
  Al  Al13  1  0.245269  0.918599  0.917700  1
  Al  Al14  1  0.331441  0.331291  0.331441  1
  Ga  Ga15  1  0.916600  0.916403  0.916600  1
  Ga  Ga16  1  0.999313  0.333532  0.333603  1
  Ga  Ga17  1  0.333428  0.999886  0.333428  1
  Ga  Ga18  1  0.333603  0.333532  0.999313  1
  Ga  Ga19  1  0.916916  0.250015  0.916916  1
  Co  Co20  1  0.125099  0.122238  0.125099  1
  Co  Co21  1  0.624320  0.125396  0.127267  1
  Co  Co22  1  0.126077  0.626181  0.126077  1
  Co  Co23  1  0.127267  0.125396  0.624320  1
  N  N24  1  0.625242  0.623868  0.625242  1
  N  N25  1  0.124683  0.625105  0.626323  1
  N  N26  1  0.625819  0.125152  0.625819  1
  N  N27  1  0.626323  0.625105  0.124683  1
