# generated using pymatgen
data_Rb2YbAs2O7
_symmetry_space_group_name_H-M   'P 1'
_cell_length_a   6.06961064
_cell_length_b   6.06961175
_cell_length_c   13.75958600
_cell_angle_alpha   75.43472557
_cell_angle_beta   75.43472286
_cell_angle_gamma   59.06103857
_symmetry_Int_Tables_number   1
_chemical_formula_structural   Rb2YbAs2O7
_chemical_formula_sum   'Rb4 Yb2 As4 O14'
_cell_volume   416.22441733
_cell_formula_units_Z   2
loop_
 _symmetry_equiv_pos_site_id
 _symmetry_equiv_pos_as_xyz
  1  'x, y, z'
loop_
 _atom_site_type_symbol
 _atom_site_label
 _atom_site_symmetry_multiplicity
 _atom_site_fract_x
 _atom_site_fract_y
 _atom_site_fract_z
 _atom_site_occupancy
  Rb  Rb0  1  0.864740  0.434013  0.332259  1
  Rb  Rb1  1  0.565987  0.135260  0.167741  1
  Rb  Rb2  1  0.135260  0.565987  0.667741  1
  Rb  Rb3  1  0.434013  0.864740  0.832259  1
  Yb  Yb4  1  0.500000  0.000000  0.500000  1
  Yb  Yb5  1  0.000000  0.500000  0.000000  1
  As  As6  1  0.806820  0.255105  0.625445  1
  As  As7  1  0.744895  0.193180  0.874555  1
  As  As8  1  0.193180  0.744895  0.374555  1
  As  As9  1  0.255105  0.806820  0.125445  1
  O  O10  1  0.644384  0.355616  0.750000  1
  O  O11  1  0.355616  0.644384  0.250000  1
  O  O12  1  0.691183  0.550906  0.552383  1
  O  O13  1  0.449094  0.308817  0.947617  1
  O  O14  1  0.308817  0.449094  0.447617  1
  O  O15  1  0.550906  0.691183  0.052383  1
  O  O16  1  0.133708  0.089155  0.627276  1
  O  O17  1  0.910845  0.866292  0.872724  1
  O  O18  1  0.866292  0.910845  0.372724  1
  O  O19  1  0.089155  0.133708  0.127276  1
  O  O20  1  0.064089  0.687345  0.113218  1
  O  O21  1  0.312655  0.935911  0.386782  1
  O  O22  1  0.935911  0.312655  0.886782  1
  O  O23  1  0.687345  0.064089  0.613218  1
