# generated using pymatgen
data_Sr8MnTc3O16
_symmetry_space_group_name_H-M   'P 1'
_cell_length_a   5.61696634
_cell_length_b   8.91914694
_cell_length_c   8.91909888
_cell_angle_alpha   89.21385930
_cell_angle_beta   71.83519498
_cell_angle_gamma   108.16741187
_symmetry_Int_Tables_number   1
_chemical_formula_structural   Sr8MnTc3O16
_chemical_formula_sum   'Sr8 Mn1 Tc3 O16'
_cell_volume   400.34416018
_cell_formula_units_Z   1
loop_
 _symmetry_equiv_pos_site_id
 _symmetry_equiv_pos_as_xyz
  1  'x, y, z'
loop_
 _atom_site_type_symbol
 _atom_site_label
 _atom_site_symmetry_multiplicity
 _atom_site_fract_x
 _atom_site_fract_y
 _atom_site_fract_z
 _atom_site_occupancy
  Sr  Sr0  1  0.252241  0.398412  0.892063  1
  Sr  Sr1  1  0.999923  0.642560  0.642576  1
  Sr  Sr2  1  0.747640  0.891942  0.398601  1
  Sr  Sr3  1  0.500106  0.150840  0.150623  1
  Sr  Sr4  1  0.000035  0.357379  0.357485  1
  Sr  Sr5  1  0.747759  0.601541  0.107892  1
  Sr  Sr6  1  0.499944  0.849186  0.849360  1
  Sr  Sr7  1  0.252315  0.108072  0.601469  1
  Mn  Mn8  1  0.499997  0.499988  0.500010  1
  Tc  Tc9  1  0.254798  0.753862  0.246191  1
  Tc  Tc10  1  0.999995  0.999996  0.000014  1
  Tc  Tc11  1  0.745201  0.246138  0.753806  1
  O  O12  1  0.253879  0.590585  0.083895  1
  O  O13  1  0.999717  0.835623  0.836132  1
  O  O14  1  0.746683  0.084285  0.590106  1
  O  O15  1  0.499700  0.344308  0.344591  1
  O  O16  1  0.000294  0.164408  0.163850  1
  O  O17  1  0.746109  0.409462  0.916098  1
  O  O18  1  0.500321  0.655722  0.655372  1
  O  O19  1  0.253328  0.915670  0.409893  1
  O  O20  1  0.875042  0.124001  0.875761  1
  O  O21  1  0.618220  0.368771  0.631372  1
  O  O22  1  0.381749  0.631256  0.368554  1
  O  O23  1  0.124946  0.875975  0.124296  1
  O  O24  1  0.373664  0.121704  0.877984  1
  O  O25  1  0.110036  0.371423  0.628892  1
  O  O26  1  0.890078  0.628634  0.371044  1
  O  O27  1  0.626276  0.878257  0.122069  1
