# generated using pymatgen
data_Y6Er10Cd4Pd3Pt
_symmetry_space_group_name_H-M   'P 1'
_cell_length_a   9.65209206
_cell_length_b   9.65025144
_cell_length_c   9.65025100
_cell_angle_alpha   59.99999807
_cell_angle_beta   60.00630606
_cell_angle_gamma   60.00630199
_symmetry_Int_Tables_number   1
_chemical_formula_structural   Y6Er10Cd4Pd3Pt
_chemical_formula_sum   'Y6 Er10 Cd4 Pd3 Pt1'
_cell_volume   635.66026540
_cell_formula_units_Z   1
loop_
 _symmetry_equiv_pos_site_id
 _symmetry_equiv_pos_as_xyz
  1  'x, y, z'
loop_
 _atom_site_type_symbol
 _atom_site_label
 _atom_site_symmetry_multiplicity
 _atom_site_fract_x
 _atom_site_fract_y
 _atom_site_fract_z
 _atom_site_occupancy
  Y  Y0  1  0.935611  0.564376  0.564376  1
  Y  Y1  1  0.564319  0.936045  0.936045  1
  Y  Y2  1  0.564319  0.936045  0.563591  1
  Y  Y3  1  0.935611  0.564376  0.935637  1
  Y  Y4  1  0.564319  0.563591  0.936045  1
  Y  Y5  1  0.935611  0.935637  0.564376  1
  Er  Er6  1  0.353759  0.352081  0.352081  1
  Er  Er7  1  0.353759  0.352081  0.942078  1
  Er  Er8  1  0.353759  0.942078  0.352081  1
  Er  Er9  1  0.941506  0.352831  0.352831  1
  Er  Er10  1  0.809685  0.189207  0.189207  1
  Er  Er11  1  0.189370  0.810708  0.810708  1
  Er  Er12  1  0.189370  0.810708  0.189215  1
  Er  Er13  1  0.809685  0.189207  0.811901  1
  Er  Er14  1  0.189370  0.189215  0.810708  1
  Er  Er15  1  0.809685  0.811901  0.189207  1
  Cd  Cd16  1  0.581598  0.581670  0.581670  1
  Cd  Cd17  1  0.581598  0.581670  0.255061  1
  Cd  Cd18  1  0.581598  0.255061  0.581670  1
  Cd  Cd19  1  0.255347  0.581551  0.581551  1
  Pd  Pd20  1  0.143761  0.143893  0.143893  1
  Pd  Pd21  1  0.143761  0.143893  0.568453  1
  Pd  Pd22  1  0.143761  0.568453  0.143893  1
  Pt  Pt23  1  0.568839  0.143720  0.143720  1
