# generated using pymatgen
data_BaFe2Mo(PO4)3
_symmetry_space_group_name_H-M   'P 1'
_cell_length_a   9.42516750
_cell_length_b   9.42516777
_cell_length_c   9.42516805
_cell_angle_alpha   138.15798980
_cell_angle_beta   108.32619212
_cell_angle_gamma   86.59384363
_symmetry_Int_Tables_number   1
_chemical_formula_structural   BaFe2Mo(PO4)3
_chemical_formula_sum   'Ba2 Fe4 Mo2 P6 O24'
_cell_volume   509.59265645
_cell_formula_units_Z   2
loop_
 _symmetry_equiv_pos_site_id
 _symmetry_equiv_pos_as_xyz
  1  'x, y, z'
loop_
 _atom_site_type_symbol
 _atom_site_label
 _atom_site_symmetry_multiplicity
 _atom_site_fract_x
 _atom_site_fract_y
 _atom_site_fract_z
 _atom_site_occupancy
  Ba  Ba0  1  0.750000  0.147581  0.397581  1
  Ba  Ba1  1  0.250000  0.852419  0.602419  1
  Fe  Fe2  1  0.617620  0.617620  0.500000  1
  Fe  Fe3  1  0.382380  0.382380  0.500000  1
  Fe  Fe4  1  0.117620  0.617620  0.000000  1
  Fe  Fe5  1  0.882380  0.382380  0.000000  1
  Mo  Mo6  1  0.000000  0.000000  0.000000  1
  Mo  Mo7  1  0.500000  0.500000  0.000000  1
  P  P8  1  0.323697  0.823697  0.000000  1
  P  P9  1  0.750000  0.649797  0.899797  1
  P  P10  1  0.176303  0.176303  0.500000  1
  P  P11  1  0.676303  0.176303  0.000000  1
  P  P12  1  0.250000  0.350203  0.100203  1
  P  P13  1  0.823697  0.823697  0.500000  1
  O  O14  1  0.582913  0.930520  0.785108  1
  O  O15  1  0.082913  0.297805  0.652394  1
  O  O16  1  0.841168  0.875940  0.034773  1
  O  O17  1  0.354589  0.702195  0.785108  1
  O  O18  1  0.143156  0.212251  0.354735  1
  O  O19  1  0.341168  0.306395  0.965227  1
  O  O20  1  0.642485  0.711580  0.354735  1
  O  O21  1  0.856844  0.787749  0.645265  1
  O  O22  1  0.364471  0.487159  0.351630  1
  O  O23  1  0.145411  0.930520  0.347606  1
  O  O24  1  0.643156  0.288420  0.930905  1
  O  O25  1  0.635529  0.512841  0.648370  1
  O  O26  1  0.857515  0.212251  0.069095  1
  O  O27  1  0.854589  0.069480  0.652394  1
  O  O28  1  0.356844  0.711580  0.069095  1
  O  O29  1  0.357515  0.288420  0.645265  1
  O  O30  1  0.658832  0.693605  0.034773  1
  O  O31  1  0.917087  0.702195  0.347606  1
  O  O32  1  0.158832  0.124059  0.965227  1
  O  O33  1  0.864471  0.512841  0.877313  1
  O  O34  1  0.135529  0.487159  0.122687  1
  O  O35  1  0.142485  0.787749  0.930905  1
  O  O36  1  0.645411  0.297805  0.214892  1
  O  O37  1  0.417087  0.069480  0.214892  1
