# generated using pymatgen
data_Nd4Al18IrPd3Rh2
_symmetry_space_group_name_H-M   'P 1'
_cell_length_a   7.65757607
_cell_length_b   7.65758401
_cell_length_c   9.59119601
_cell_angle_alpha   90.00001964
_cell_angle_beta   90.00052573
_cell_angle_gamma   119.48920705
_symmetry_Int_Tables_number   1
_chemical_formula_structural   Nd4Al18IrPd3Rh2
_chemical_formula_sum   'Nd4 Al18 Ir1 Pd3 Rh2'
_cell_volume   489.55208815
_cell_formula_units_Z   1
loop_
 _symmetry_equiv_pos_site_id
 _symmetry_equiv_pos_as_xyz
  1  'x, y, z'
loop_
 _atom_site_type_symbol
 _atom_site_label
 _atom_site_symmetry_multiplicity
 _atom_site_fract_x
 _atom_site_fract_y
 _atom_site_fract_z
 _atom_site_occupancy
  Nd  Nd0  1  0.994235  0.670440  0.749900  1
  Nd  Nd1  1  0.003778  0.328258  0.250135  1
  Nd  Nd2  1  0.671741  0.996221  0.749867  1
  Nd  Nd3  1  0.329562  0.005765  0.250098  1
  Al  Al4  1  0.133960  0.132878  0.750679  1
  Al  Al5  1  0.867122  0.866042  0.249320  1
  Al  Al6  1  0.006773  0.338948  0.575273  1
  Al  Al7  1  0.001226  0.665282  0.425072  1
  Al  Al8  1  0.998559  0.661103  0.072926  1
  Al  Al9  1  0.338896  0.001442  0.927073  1
  Al  Al10  1  0.002083  0.338916  0.926634  1
  Al  Al11  1  0.661085  0.997918  0.073365  1
  Al  Al12  1  0.661053  0.993228  0.424726  1
  Al  Al13  1  0.334719  0.998774  0.574928  1
  Al  Al14  1  0.337360  0.337588  0.049825  1
  Al  Al15  1  0.662412  0.662640  0.950175  1
  Al  Al16  1  0.661503  0.664701  0.553037  1
  Al  Al17  1  0.335299  0.338498  0.446962  1
  Al  Al18  1  0.339543  0.548374  0.750762  1
  Al  Al19  1  0.661389  0.454624  0.246145  1
  Al  Al20  1  0.545377  0.338611  0.753854  1
  Al  Al21  1  0.451625  0.660457  0.249238  1
  Ir  Ir22  1  0.329014  0.670987  0.499999  1
  Pd  Pd23  1  0.671469  0.328531  0.499999  1
  Pd  Pd24  1  0.999871  0.000129  0.500000  1
  Pd  Pd25  1  0.000044  0.999955  0.000000  1
  Rh  Rh26  1  0.329059  0.670952  0.000005  1
  Rh  Rh27  1  0.671242  0.328738  0.000003  1
