# generated using pymatgen
data_LiCrPdO4
_symmetry_space_group_name_H-M   'P 1'
_cell_length_a   6.03248890
_cell_length_b   6.03469223
_cell_length_c   10.52016593
_cell_angle_alpha   90.63490332
_cell_angle_beta   106.94418118
_cell_angle_gamma   59.21974515
_symmetry_Int_Tables_number   1
_chemical_formula_structural   LiCrPdO4
_chemical_formula_sum   'Li4 Cr4 Pd4 O16'
_cell_volume   310.27405203
_cell_formula_units_Z   4
loop_
 _symmetry_equiv_pos_site_id
 _symmetry_equiv_pos_as_xyz
  1  'x, y, z'
loop_
 _atom_site_type_symbol
 _atom_site_label
 _atom_site_symmetry_multiplicity
 _atom_site_fract_x
 _atom_site_fract_y
 _atom_site_fract_z
 _atom_site_occupancy
  Li  Li0  1  0.138838  0.944705  0.194558  1
  Li  Li1  1  0.139031  0.444813  0.694539  1
  Li  Li2  1  0.860956  0.555174  0.305468  1
  Li  Li3  1  0.861170  0.055348  0.805448  1
  Cr  Cr4  1  0.000041  0.499960  0.999998  1
  Cr  Cr5  1  0.500111  0.499845  0.499984  1
  Cr  Cr6  1  0.999845  0.000121  0.499984  1
  Cr  Cr7  1  0.499944  0.000092  0.000013  1
  Pd  Pd8  1  0.500034  0.000035  0.500026  1
  Pd  Pd9  1  0.499972  0.499908  0.999982  1
  Pd  Pd10  1  0.500230  0.749908  0.749942  1
  Pd  Pd11  1  0.499762  0.250091  0.250040  1
  O  O12  1  0.260835  0.866910  0.393951  1
  O  O13  1  0.260196  0.367801  0.893779  1
  O  O14  1  0.260995  0.643959  0.616998  1
  O  O15  1  0.260087  0.144489  0.117012  1
  O  O16  1  0.739912  0.855505  0.882919  1
  O  O17  1  0.739037  0.356017  0.383091  1
  O  O18  1  0.739853  0.632177  0.106208  1
  O  O19  1  0.739182  0.133100  0.606058  1
  O  O20  1  0.260147  0.097376  0.619192  1
  O  O21  1  0.259274  0.597202  0.118786  1
  O  O22  1  0.716738  0.640824  0.619125  1
  O  O23  1  0.716359  0.140619  0.119090  1
  O  O24  1  0.740743  0.402822  0.881205  1
  O  O25  1  0.739879  0.902620  0.380829  1
  O  O26  1  0.283545  0.859377  0.880856  1
  O  O27  1  0.283282  0.359205  0.380917  1
