# generated using pymatgen
data_Dy4Al6ReOs
_symmetry_space_group_name_H-M   'P 1'
_cell_length_a   5.50384000
_cell_length_b   5.50384028
_cell_length_c   8.90673900
_cell_angle_alpha   90.00000000
_cell_angle_beta   90.00000000
_cell_angle_gamma   120.00001036
_symmetry_Int_Tables_number   1
_chemical_formula_structural   Dy4Al6ReOs
_chemical_formula_sum   'Dy4 Al6 Re1 Os1'
_cell_volume   233.65815045
_cell_formula_units_Z   1
loop_
 _symmetry_equiv_pos_site_id
 _symmetry_equiv_pos_as_xyz
  1  'x, y, z'
loop_
 _atom_site_type_symbol
 _atom_site_label
 _atom_site_symmetry_multiplicity
 _atom_site_fract_x
 _atom_site_fract_y
 _atom_site_fract_z
 _atom_site_occupancy
  Dy  Dy0  1  0.666667  0.333332  0.051934  1
  Dy  Dy1  1  0.666667  0.333332  0.448569  1
  Dy  Dy2  1  0.333333  0.666667  0.551431  1
  Dy  Dy3  1  0.333333  0.666667  0.948066  1
  Al  Al4  1  0.161697  0.323394  0.251449  1
  Al  Al5  1  0.161696  0.838304  0.251449  1
  Al  Al6  1  0.676606  0.838304  0.251449  1
  Al  Al7  1  0.323394  0.161696  0.748552  1
  Al  Al8  1  0.838302  0.161696  0.748552  1
  Al  Al9  1  0.838304  0.676605  0.748552  1
  Re  Re10  1  0.000000  0.000000  0.000000  1
  Os  Os11  1  0.000000  0.000000  0.500000  1
