# generated using pymatgen
data_TbY3Al13Ga5Ir6
_symmetry_space_group_name_H-M   'P 1'
_cell_length_a   7.53661902
_cell_length_b   7.53635012
_cell_length_c   9.58047500
_cell_angle_alpha   90.00000000
_cell_angle_beta   90.00000000
_cell_angle_gamma   119.54182822
_symmetry_Int_Tables_number   1
_chemical_formula_structural   TbY3Al13Ga5Ir6
_chemical_formula_sum   'Tb1 Y3 Al13 Ga5 Ir6'
_cell_volume   473.41489021
_cell_formula_units_Z   1
loop_
 _symmetry_equiv_pos_site_id
 _symmetry_equiv_pos_as_xyz
  1  'x, y, z'
loop_
 _atom_site_type_symbol
 _atom_site_label
 _atom_site_symmetry_multiplicity
 _atom_site_fract_x
 _atom_site_fract_y
 _atom_site_fract_z
 _atom_site_occupancy
  Tb  Tb0  1  0.329317  0.003775  0.750000  1
  Y  Y1  1  0.999700  0.674629  0.250000  1
  Y  Y2  1  0.005265  0.329477  0.750000  1
  Y  Y3  1  0.670360  0.992938  0.250000  1
  Al  Al4  1  0.000609  0.334794  0.072427  1
  Al  Al5  1  0.997149  0.664584  0.928174  1
  Al  Al6  1  0.997149  0.664584  0.571826  1
  Al  Al7  1  0.335570  0.002302  0.427131  1
  Al  Al8  1  0.000609  0.334794  0.427573  1
  Al  Al9  1  0.665139  0.998146  0.571577  1
  Al  Al10  1  0.665139  0.998146  0.928423  1
  Al  Al11  1  0.335570  0.002302  0.072869  1
  Al  Al12  1  0.333948  0.334082  0.551759  1
  Al  Al13  1  0.666285  0.665784  0.443918  1
  Al  Al14  1  0.666285  0.665784  0.056082  1
  Al  Al15  1  0.333948  0.334082  0.948241  1
  Al  Al16  1  0.549737  0.338887  0.250000  1
  Ga  Ga17  1  0.131262  0.132223  0.250000  1
  Ga  Ga18  1  0.870259  0.869883  0.750000  1
  Ga  Ga19  1  0.338674  0.545969  0.250000  1
  Ga  Ga20  1  0.660511  0.452235  0.750000  1
  Ga  Ga21  1  0.452402  0.660285  0.750000  1
  Ir  Ir22  1  0.670328  0.328494  0.002796  1
  Ir  Ir23  1  0.327667  0.671818  0.999709  1
  Ir  Ir24  1  0.327667  0.671818  0.500291  1
  Ir  Ir25  1  0.670328  0.328494  0.497204  1
  Ir  Ir26  1  0.999561  0.999845  0.999997  1
  Ir  Ir27  1  0.999561  0.999845  0.500003  1
