# generated using pymatgen
data_Nb12Al5Ga3Fe3CuC4
_symmetry_space_group_name_H-M   'P 1'
_cell_length_a   8.32420360
_cell_length_b   8.32420321
_cell_length_c   8.32234000
_cell_angle_alpha   59.99587184
_cell_angle_beta   59.99587340
_cell_angle_gamma   60.01877931
_symmetry_Int_Tables_number   1
_chemical_formula_structural   Nb12Al5Ga3Fe3CuC4
_chemical_formula_sum   'Nb12 Al5 Ga3 Fe3 Cu1 C4'
_cell_volume   407.80290887
_cell_formula_units_Z   1
loop_
 _symmetry_equiv_pos_site_id
 _symmetry_equiv_pos_as_xyz
  1  'x, y, z'
loop_
 _atom_site_type_symbol
 _atom_site_label
 _atom_site_symmetry_multiplicity
 _atom_site_fract_x
 _atom_site_fract_y
 _atom_site_fract_z
 _atom_site_occupancy
  Nb  Nb0  1  0.566636  0.938148  0.557123  1
  Nb  Nb1  1  0.311774  0.683204  0.693410  1
  Nb  Nb2  1  0.691399  0.309136  0.308004  1
  Nb  Nb3  1  0.309136  0.691399  0.308004  1
  Nb  Nb4  1  0.691934  0.691934  0.307434  1
  Nb  Nb5  1  0.312401  0.312401  0.692696  1
  Nb  Nb6  1  0.558057  0.558057  0.942685  1
  Nb  Nb7  1  0.938148  0.566636  0.557123  1
  Nb  Nb8  1  0.558491  0.940750  0.941532  1
  Nb  Nb9  1  0.938458  0.938458  0.556151  1
  Nb  Nb10  1  0.683204  0.311774  0.693410  1
  Nb  Nb11  1  0.940750  0.558491  0.941532  1
  Al  Al12  1  0.331132  0.331132  0.006951  1
  Al  Al13  1  0.915101  0.249764  0.919943  1
  Al  Al14  1  0.918743  0.918743  0.243464  1
  Al  Al15  1  0.249764  0.915101  0.919943  1
  Al  Al16  1  0.334641  0.334641  0.330137  1
  Ga  Ga17  1  0.914446  0.914446  0.918288  1
  Ga  Ga18  1  0.996320  0.336997  0.331404  1
  Ga  Ga19  1  0.336997  0.996320  0.331404  1
  Fe  Fe20  1  0.124937  0.124937  0.123504  1
  Fe  Fe21  1  0.624613  0.126513  0.125226  1
  Fe  Fe22  1  0.126513  0.624613  0.125226  1
  Cu  Cu23  1  0.126047  0.126047  0.625542  1
  C  C24  1  0.624939  0.624939  0.624628  1
  C  C25  1  0.124551  0.625682  0.625097  1
  C  C26  1  0.625682  0.124551  0.625097  1
  C  C27  1  0.625186  0.625186  0.125037  1
