# generated using pymatgen
data_Pr3Tm(Lu4Bi3)4
_symmetry_space_group_name_H-M   'P 1'
_cell_length_a   8.23041568
_cell_length_b   9.40960700
_cell_length_c   11.96020597
_cell_angle_alpha   90.00000000
_cell_angle_beta   89.95366356
_cell_angle_gamma   90.00000000
_symmetry_Int_Tables_number   1
_chemical_formula_structural   Pr3Tm(Lu4Bi3)4
_chemical_formula_sum   'Pr3 Tm1 Lu16 Bi12'
_cell_volume   926.25757311
_cell_formula_units_Z   1
loop_
 _symmetry_equiv_pos_site_id
 _symmetry_equiv_pos_as_xyz
  1  'x, y, z'
loop_
 _atom_site_type_symbol
 _atom_site_label
 _atom_site_symmetry_multiplicity
 _atom_site_fract_x
 _atom_site_fract_y
 _atom_site_fract_z
 _atom_site_occupancy
  Pr  Pr0  1  0.184988  0.250000  0.781374  1
  Pr  Pr1  1  0.815977  0.750000  0.219050  1
  Pr  Pr2  1  0.315596  0.750000  0.280891  1
  Tm  Tm3  1  0.686402  0.250000  0.716909  1
  Lu  Lu4  1  0.023015  0.250000  0.512297  1
  Lu  Lu5  1  0.976295  0.750000  0.490513  1
  Lu  Lu6  1  0.477743  0.750000  0.010110  1
  Lu  Lu7  1  0.522835  0.250000  0.988111  1
  Lu  Lu8  1  0.354486  0.250000  0.282002  1
  Lu  Lu9  1  0.646108  0.750000  0.719347  1
  Lu  Lu10  1  0.144805  0.750000  0.779916  1
  Lu  Lu11  1  0.853019  0.250000  0.218861  1
  Lu  Lu12  1  0.191405  0.067850  0.061614  1
  Lu  Lu13  1  0.808062  0.932428  0.937612  1
  Lu  Lu14  1  0.306587  0.932504  0.561912  1
  Lu  Lu15  1  0.808062  0.567572  0.937612  1
  Lu  Lu16  1  0.693223  0.067608  0.438828  1
  Lu  Lu17  1  0.191405  0.432150  0.061614  1
  Lu  Lu18  1  0.693223  0.432392  0.438828  1
  Lu  Lu19  1  0.306587  0.567496  0.561912  1
  Bi  Bi20  1  0.407084  0.250000  0.539507  1
  Bi  Bi21  1  0.597312  0.750000  0.464657  1
  Bi  Bi22  1  0.098691  0.750000  0.034919  1
  Bi  Bi23  1  0.898999  0.250000  0.962462  1
  Bi  Bi24  1  0.065942  0.010667  0.329102  1
  Bi  Bi25  1  0.928970  0.993063  0.672469  1
  Bi  Bi26  1  0.438742  0.992818  0.826245  1
  Bi  Bi27  1  0.928970  0.506937  0.672469  1
  Bi  Bi28  1  0.565392  0.010170  0.171755  1
  Bi  Bi29  1  0.065942  0.489333  0.329102  1
  Bi  Bi30  1  0.565392  0.489830  0.171755  1
  Bi  Bi31  1  0.438742  0.507182  0.826245  1
