# generated using pymatgen
data_Pr4AsPd28Se
_symmetry_space_group_name_H-M   'P 1'
_cell_length_a   9.03499300
_cell_length_b   9.03499300
_cell_length_c   7.23060200
_cell_angle_alpha   90.00000000
_cell_angle_beta   90.00000000
_cell_angle_gamma   90.00000000
_symmetry_Int_Tables_number   1
_chemical_formula_structural   Pr4AsPd28Se
_chemical_formula_sum   'Pr4 As1 Pd28 Se1'
_cell_volume   590.24198415
_cell_formula_units_Z   1
loop_
 _symmetry_equiv_pos_site_id
 _symmetry_equiv_pos_as_xyz
  1  'x, y, z'
loop_
 _atom_site_type_symbol
 _atom_site_label
 _atom_site_symmetry_multiplicity
 _atom_site_fract_x
 _atom_site_fract_y
 _atom_site_fract_z
 _atom_site_occupancy
  Pr  Pr0  1  0.500000  0.000000  0.934332  1
  Pr  Pr1  1  0.000000  0.500000  0.065077  1
  Pr  Pr2  1  0.000000  0.000000  0.500297  1
  Pr  Pr3  1  0.500000  0.500000  0.500297  1
  As  As4  1  0.000000  0.500000  0.548933  1
  Pd  Pd5  1  0.328475  0.828475  0.624439  1
  Pd  Pd6  1  0.328475  0.171525  0.624439  1
  Pd  Pd7  1  0.671525  0.828475  0.624439  1
  Pd  Pd8  1  0.671525  0.171525  0.624439  1
  Pd  Pd9  1  0.168737  0.668737  0.378033  1
  Pd  Pd10  1  0.168737  0.331263  0.378033  1
  Pd  Pd11  1  0.831263  0.668737  0.378033  1
  Pd  Pd12  1  0.831263  0.331263  0.378033  1
  Pd  Pd13  1  0.500000  0.764629  0.251760  1
  Pd  Pd14  1  0.500000  0.235371  0.251760  1
  Pd  Pd15  1  0.264629  0.000000  0.251760  1
  Pd  Pd16  1  0.735371  0.000000  0.251760  1
  Pd  Pd17  1  0.000000  0.732653  0.746016  1
  Pd  Pd18  1  0.000000  0.267347  0.746016  1
  Pd  Pd19  1  0.232653  0.500000  0.746016  1
  Pd  Pd20  1  0.767347  0.500000  0.746016  1
  Pd  Pd21  1  0.500000  0.347884  0.858620  1
  Pd  Pd22  1  0.500000  0.652116  0.858620  1
  Pd  Pd23  1  0.847884  0.000000  0.858620  1
  Pd  Pd24  1  0.152116  0.000000  0.858620  1
  Pd  Pd25  1  0.000000  0.150996  0.141039  1
  Pd  Pd26  1  0.000000  0.849004  0.141039  1
  Pd  Pd27  1  0.650996  0.500000  0.141039  1
  Pd  Pd28  1  0.349004  0.500000  0.141039  1
  Pd  Pd29  1  0.248347  0.748347  0.999818  1
  Pd  Pd30  1  0.248347  0.251653  0.999818  1
  Pd  Pd31  1  0.751653  0.748347  0.999818  1
  Pd  Pd32  1  0.751653  0.251653  0.999818  1
  Se  Se33  1  0.500000  0.000000  0.452163  1
