# generated using pymatgen
data_TeAu2SeO7
_symmetry_space_group_name_H-M   'P 1'
_cell_length_a   4.27630000
_cell_length_b   7.26712972
_cell_length_c   11.76602620
_cell_angle_alpha   90.38544489
_cell_angle_beta   90.00000000
_cell_angle_gamma   90.00000000
_symmetry_Int_Tables_number   1
_chemical_formula_structural   TeAu2SeO7
_chemical_formula_sum   'Te2 Au4 Se2 O14'
_cell_volume   365.63777819
_cell_formula_units_Z   2
loop_
 _symmetry_equiv_pos_site_id
 _symmetry_equiv_pos_as_xyz
  1  'x, y, z'
loop_
 _atom_site_type_symbol
 _atom_site_label
 _atom_site_symmetry_multiplicity
 _atom_site_fract_x
 _atom_site_fract_y
 _atom_site_fract_z
 _atom_site_occupancy
  Te  Te0  1  0.209405  0.615061  0.171289  1
  Te  Te1  1  0.209405  0.384939  0.828711  1
  Au  Au2  1  0.499604  0.694722  0.439643  1
  Au  Au3  1  0.499604  0.305278  0.560357  1
  Au  Au4  1  0.497540  0.812923  0.932879  1
  Au  Au5  1  0.497540  0.187077  0.067121  1
  Se  Se6  1  0.256262  0.900525  0.671655  1
  Se  Se7  1  0.256262  0.099475  0.328345  1
  O  O8  1  0.781247  0.500000  0.500000  1
  O  O9  1  0.788406  0.000000  0.000000  1
  O  O10  1  0.171155  0.877621  0.375689  1
  O  O11  1  0.171155  0.122379  0.624311  1
  O  O12  1  0.156054  0.635869  0.872654  1
  O  O13  1  0.156054  0.364131  0.127346  1
  O  O14  1  0.482225  0.546733  0.294037  1
  O  O15  1  0.482225  0.453267  0.705963  1
  O  O16  1  0.562566  0.332350  0.923625  1
  O  O17  1  0.562566  0.667650  0.076375  1
  O  O18  1  0.574958  0.161299  0.412973  1
  O  O19  1  0.574958  0.838701  0.587027  1
  O  O20  1  0.475806  0.027377  0.209571  1
  O  O21  1  0.475806  0.972623  0.790429  1
