# generated using pymatgen
data_Eu2TcAsO8
_symmetry_space_group_name_H-M   'P 1'
_cell_length_a   6.26924782
_cell_length_b   6.26924747
_cell_length_c   6.26924832
_cell_angle_alpha   106.12160830
_cell_angle_beta   106.12160596
_cell_angle_gamma   116.40068812
_symmetry_Int_Tables_number   1
_chemical_formula_structural   Eu2TcAsO8
_chemical_formula_sum   'Eu2 Tc1 As1 O8'
_cell_volume   187.57621455
_cell_formula_units_Z   1
loop_
 _symmetry_equiv_pos_site_id
 _symmetry_equiv_pos_as_xyz
  1  'x, y, z'
loop_
 _atom_site_type_symbol
 _atom_site_label
 _atom_site_symmetry_multiplicity
 _atom_site_fract_x
 _atom_site_fract_y
 _atom_site_fract_z
 _atom_site_occupancy
  Eu  Eu0  1  0.000000  0.000000  0.000000  1
  Eu  Eu1  1  0.250000  0.750000  0.500000  1
  Tc  Tc2  1  0.750000  0.250000  0.500000  1
  As  As3  1  0.500000  0.500000  0.000000  1
  O  O4  1  0.333245  0.155639  0.822393  1
  O  O5  1  0.764291  0.080667  0.683624  1
  O  O6  1  0.397043  0.080667  0.316376  1
  O  O7  1  0.333245  0.510853  0.177607  1
  O  O8  1  0.489147  0.666755  0.822393  1
  O  O9  1  0.919333  0.602957  0.683624  1
  O  O10  1  0.919333  0.235709  0.316376  1
  O  O11  1  0.844361  0.666755  0.177607  1
