# generated using pymatgen
data_Pr6Nd4Sn5BiBr2
_symmetry_space_group_name_H-M   'P 1'
_cell_length_a   9.60829958
_cell_length_b   9.60829978
_cell_length_c   6.84551300
_cell_angle_alpha   90.00000000
_cell_angle_beta   90.00000000
_cell_angle_gamma   120.28836479
_symmetry_Int_Tables_number   1
_chemical_formula_structural   Pr6Nd4Sn5BiBr2
_chemical_formula_sum   'Pr6 Nd4 Sn5 Bi1 Br2'
_cell_volume   545.70811214
_cell_formula_units_Z   1
loop_
 _symmetry_equiv_pos_site_id
 _symmetry_equiv_pos_as_xyz
  1  'x, y, z'
loop_
 _atom_site_type_symbol
 _atom_site_label
 _atom_site_symmetry_multiplicity
 _atom_site_fract_x
 _atom_site_fract_y
 _atom_site_fract_z
 _atom_site_occupancy
  Pr  Pr0  1  0.269042  0.001078  0.750000  1
  Pr  Pr1  1  0.732872  0.004697  0.250000  1
  Pr  Pr2  1  0.001078  0.269042  0.750000  1
  Pr  Pr3  1  0.004697  0.732872  0.250000  1
  Pr  Pr4  1  0.731501  0.731501  0.750000  1
  Pr  Pr5  1  0.264540  0.264540  0.250000  1
  Nd  Nd6  1  0.330780  0.668175  0.501205  1
  Nd  Nd7  1  0.668175  0.330780  0.501205  1
  Nd  Nd8  1  0.668175  0.330780  0.998795  1
  Nd  Nd9  1  0.330780  0.668175  0.998795  1
  Sn  Sn10  1  0.612751  0.999443  0.750000  1
  Sn  Sn11  1  0.388313  0.001041  0.250000  1
  Sn  Sn12  1  0.999443  0.612751  0.750000  1
  Sn  Sn13  1  0.001041  0.388313  0.250000  1
  Sn  Sn14  1  0.387373  0.387373  0.750000  1
  Bi  Bi15  1  0.612820  0.612820  0.250000  1
  Br  Br16  1  0.998310  0.998310  0.499583  1
  Br  Br17  1  0.998310  0.998310  0.000417  1
