# generated using pymatgen
data_Gd3TiOsC6
_symmetry_space_group_name_H-M   'P 1'
_cell_length_a   8.43397700
_cell_length_b   8.43397632
_cell_length_c   5.10428600
_cell_angle_alpha   90.00000000
_cell_angle_beta   90.00000000
_cell_angle_gamma   119.99998304
_symmetry_Int_Tables_number   1
_chemical_formula_structural   Gd3TiOsC6
_chemical_formula_sum   'Gd6 Ti2 Os2 C12'
_cell_volume   314.43472095
_cell_formula_units_Z   2
loop_
 _symmetry_equiv_pos_site_id
 _symmetry_equiv_pos_as_xyz
  1  'x, y, z'
loop_
 _atom_site_type_symbol
 _atom_site_label
 _atom_site_symmetry_multiplicity
 _atom_site_fract_x
 _atom_site_fract_y
 _atom_site_fract_z
 _atom_site_occupancy
  Gd  Gd0  1  0.622394  0.684832  0.750000  1
  Gd  Gd1  1  0.937563  0.622394  0.250000  1
  Gd  Gd2  1  0.684832  0.062437  0.250000  1
  Gd  Gd3  1  0.315168  0.937563  0.750000  1
  Gd  Gd4  1  0.062437  0.377606  0.750000  1
  Gd  Gd5  1  0.377606  0.315168  0.250000  1
  Ti  Ti6  1  0.000000  0.000000  0.500000  1
  Ti  Ti7  1  0.000000  0.000000  0.000000  1
  Os  Os8  1  0.666667  0.333333  0.750000  1
  Os  Os9  1  0.333333  0.666667  0.250000  1
  C  C10  1  0.961256  0.766731  0.750000  1
  C  C11  1  0.194525  0.961256  0.250000  1
  C  C12  1  0.766731  0.805475  0.250000  1
  C  C13  1  0.233269  0.194525  0.750000  1
  C  C14  1  0.805475  0.038744  0.750000  1
  C  C15  1  0.038744  0.233269  0.250000  1
  C  C16  1  0.868176  0.580522  0.750000  1
  C  C17  1  0.287653  0.868176  0.250000  1
  C  C18  1  0.580522  0.712347  0.250000  1
  C  C19  1  0.419478  0.287653  0.750000  1
  C  C20  1  0.131824  0.419478  0.250000  1
  C  C21  1  0.712347  0.131824  0.750000  1
