# generated using pymatgen
data_HoTmLu2(ReB6)2
_symmetry_space_group_name_H-M   'P 1'
_cell_length_a   3.63645000
_cell_length_b   9.09255500
_cell_length_c   11.46323201
_cell_angle_alpha   90.00326874
_cell_angle_beta   90.00000000
_cell_angle_gamma   90.00000000
_symmetry_Int_Tables_number   1
_chemical_formula_structural   HoTmLu2(ReB6)2
_chemical_formula_sum   'Ho2 Tm2 Lu4 Re4 B24'
_cell_volume   379.02742849
_cell_formula_units_Z   2
loop_
 _symmetry_equiv_pos_site_id
 _symmetry_equiv_pos_as_xyz
  1  'x, y, z'
loop_
 _atom_site_type_symbol
 _atom_site_label
 _atom_site_symmetry_multiplicity
 _atom_site_fract_x
 _atom_site_fract_y
 _atom_site_fract_z
 _atom_site_occupancy
  Ho  Ho0  1  0.000000  0.822832  0.086171  1
  Ho  Ho1  1  0.000000  0.177168  0.913829  1
  Tm  Tm2  1  0.000000  0.323054  0.413936  1
  Tm  Tm3  1  0.000000  0.676946  0.586064  1
  Lu  Lu4  1  0.000000  0.943347  0.370633  1
  Lu  Lu5  1  0.000000  0.056653  0.629367  1
  Lu  Lu6  1  0.000000  0.443336  0.129844  1
  Lu  Lu7  1  0.000000  0.556664  0.870156  1
  Re  Re8  1  0.000000  0.638810  0.320575  1
  Re  Re9  1  0.000000  0.361190  0.679425  1
  Re  Re10  1  0.000000  0.139435  0.180253  1
  Re  Re11  1  0.000000  0.860565  0.819747  1
  B  B12  1  0.500000  0.553122  0.433294  1
  B  B13  1  0.500000  0.446878  0.566706  1
  B  B14  1  0.500000  0.053521  0.067193  1
  B  B15  1  0.500000  0.946479  0.932807  1
  B  B16  1  0.500000  0.750536  0.419152  1
  B  B17  1  0.500000  0.249464  0.580848  1
  B  B18  1  0.500000  0.250815  0.081447  1
  B  B19  1  0.500000  0.749185  0.918553  1
  B  B20  1  0.500000  0.793011  0.265453  1
  B  B21  1  0.500000  0.206989  0.734547  1
  B  B22  1  0.500000  0.293297  0.235119  1
  B  B23  1  0.500000  0.706703  0.764881  1
  B  B24  1  0.500000  0.629939  0.184811  1
  B  B25  1  0.500000  0.370061  0.815189  1
  B  B26  1  0.500000  0.130391  0.315721  1
  B  B27  1  0.500000  0.869609  0.684279  1
  B  B28  1  0.500000  0.981519  0.212718  1
  B  B29  1  0.500000  0.018481  0.787282  1
  B  B30  1  0.500000  0.481045  0.287799  1
  B  B31  1  0.500000  0.518955  0.712201  1
  B  B32  1  0.500000  0.598135  0.027327  1
  B  B33  1  0.500000  0.401865  0.972673  1
  B  B34  1  0.500000  0.098855  0.472510  1
  B  B35  1  0.500000  0.901145  0.527490  1
