# generated using pymatgen
data_NdAuI6
_symmetry_space_group_name_H-M   'P 1'
_cell_length_a   8.82101309
_cell_length_b   11.39687511
_cell_length_c   16.39034956
_cell_angle_alpha   103.24234281
_cell_angle_beta   95.65954905
_cell_angle_gamma   112.20773469
_symmetry_Int_Tables_number   1
_chemical_formula_structural   NdAuI6
_chemical_formula_sum   'Nd4 Au4 I24'
_cell_volume   1453.26574942
_cell_formula_units_Z   4
loop_
 _symmetry_equiv_pos_site_id
 _symmetry_equiv_pos_as_xyz
  1  'x, y, z'
loop_
 _atom_site_type_symbol
 _atom_site_label
 _atom_site_symmetry_multiplicity
 _atom_site_fract_x
 _atom_site_fract_y
 _atom_site_fract_z
 _atom_site_occupancy
  Nd  Nd0  1  0.578413  0.917157  0.621632  1
  Nd  Nd1  1  0.421587  0.082843  0.378368  1
  Nd  Nd2  1  0.978714  0.310281  0.870141  1
  Nd  Nd3  1  0.021286  0.689719  0.129859  1
  Au  Au4  1  0.296185  0.630793  0.763470  1
  Au  Au5  1  0.703815  0.369207  0.236530  1
  Au  Au6  1  0.500000  0.500000  0.500000  1
  Au  Au7  1  0.000000  0.000000  0.000000  1
  I  I8  1  0.615509  0.735297  0.748127  1
  I  I9  1  0.384491  0.264703  0.251873  1
  I  I10  1  0.274307  0.845978  0.735675  1
  I  I11  1  0.725693  0.154022  0.264325  1
  I  I12  1  0.974685  0.530299  0.775326  1
  I  I13  1  0.025315  0.469701  0.224674  1
  I  I14  1  0.318123  0.411642  0.786268  1
  I  I15  1  0.681877  0.588358  0.213732  1
  I  I16  1  0.690710  0.364704  0.506582  1
  I  I17  1  0.309290  0.635296  0.493418  1
  I  I18  1  0.766831  0.727453  0.524202  1
  I  I19  1  0.233169  0.272547  0.475798  1
  I  I20  1  0.784505  0.108755  0.974642  1
  I  I21  1  0.215495  0.891245  0.025358  1
  I  I22  1  0.763506  0.794645  0.031787  1
  I  I23  1  0.236494  0.205355  0.968213  1
  I  I24  1  0.613981  0.190068  0.744521  1
  I  I25  1  0.386019  0.809932  0.255479  1
  I  I26  1  0.957352  0.052713  0.725792  1
  I  I27  1  0.042648  0.947287  0.274208  1
  I  I28  1  0.733053  0.051018  0.481206  1
  I  I29  1  0.266947  0.948982  0.518794  1
  I  I30  1  0.757131  0.434683  0.977236  1
  I  I31  1  0.242869  0.565317  0.022764  1
