# generated using pymatgen
data_Ba2GaTe5As
_symmetry_space_group_name_H-M   'P 1'
_cell_length_a   9.65963500
_cell_length_b   9.96330800
_cell_length_c   13.50263000
_cell_angle_alpha   90.00000000
_cell_angle_beta   90.00000000
_cell_angle_gamma   90.00000000
_symmetry_Int_Tables_number   1
_chemical_formula_structural   Ba2GaTe5As
_chemical_formula_sum   'Ba8 Ga4 Te20 As4'
_cell_volume   1299.51901833
_cell_formula_units_Z   4
loop_
 _symmetry_equiv_pos_site_id
 _symmetry_equiv_pos_as_xyz
  1  'x, y, z'
loop_
 _atom_site_type_symbol
 _atom_site_label
 _atom_site_symmetry_multiplicity
 _atom_site_fract_x
 _atom_site_fract_y
 _atom_site_fract_z
 _atom_site_occupancy
  Ba  Ba0  1  0.994310  0.134208  0.673587  1
  Ba  Ba1  1  0.505690  0.365792  0.173587  1
  Ba  Ba2  1  0.494310  0.865792  0.326413  1
  Ba  Ba3  1  0.005690  0.634208  0.826413  1
  Ba  Ba4  1  0.005690  0.865792  0.326413  1
  Ba  Ba5  1  0.494310  0.634208  0.826413  1
  Ba  Ba6  1  0.505690  0.134208  0.673587  1
  Ba  Ba7  1  0.994310  0.365792  0.173587  1
  Ga  Ga8  1  0.250000  0.838121  0.597519  1
  Ga  Ga9  1  0.250000  0.661879  0.097519  1
  Ga  Ga10  1  0.750000  0.161879  0.402481  1
  Ga  Ga11  1  0.750000  0.338121  0.902481  1
  Te  Te12  1  0.039421  0.669752  0.555685  1
  Te  Te13  1  0.460579  0.830248  0.055685  1
  Te  Te14  1  0.539421  0.330248  0.444315  1
  Te  Te15  1  0.960579  0.169752  0.944315  1
  Te  Te16  1  0.960579  0.330248  0.444315  1
  Te  Te17  1  0.539421  0.169752  0.944315  1
  Te  Te18  1  0.460579  0.669752  0.555685  1
  Te  Te19  1  0.039421  0.830248  0.055685  1
  Te  Te20  1  0.750000  0.949714  0.517015  1
  Te  Te21  1  0.750000  0.550286  0.017015  1
  Te  Te22  1  0.250000  0.050286  0.482985  1
  Te  Te23  1  0.250000  0.449714  0.982985  1
  Te  Te24  1  0.250000  0.911735  0.785742  1
  Te  Te25  1  0.250000  0.588265  0.285742  1
  Te  Te26  1  0.750000  0.088265  0.214258  1
  Te  Te27  1  0.750000  0.411735  0.714258  1
  Te  Te28  1  0.250000  0.400948  0.716537  1
  Te  Te29  1  0.250000  0.099052  0.216537  1
  Te  Te30  1  0.750000  0.599052  0.283463  1
  Te  Te31  1  0.750000  0.900948  0.783463  1
  As  As32  1  0.250000  0.494351  0.529027  1
  As  As33  1  0.250000  0.005649  0.029027  1
  As  As34  1  0.750000  0.505649  0.470973  1
  As  As35  1  0.750000  0.994351  0.970973  1
