# generated using pymatgen
data_Ho16Sc4Ir7Ru5
_symmetry_space_group_name_H-M   'P 1'
_cell_length_a   10.69605372
_cell_length_b   10.69605372
_cell_length_c   6.28085418
_cell_angle_alpha   89.98074867
_cell_angle_beta   89.98074867
_cell_angle_gamma   90.06200781
_symmetry_Int_Tables_number   1
_chemical_formula_structural   Ho16Sc4Ir7Ru5
_chemical_formula_sum   'Ho16 Sc4 Ir7 Ru5'
_cell_volume   718.56416957
_cell_formula_units_Z   1
loop_
 _symmetry_equiv_pos_site_id
 _symmetry_equiv_pos_as_xyz
  1  'x, y, z'
loop_
 _atom_site_type_symbol
 _atom_site_label
 _atom_site_symmetry_multiplicity
 _atom_site_fract_x
 _atom_site_fract_y
 _atom_site_fract_z
 _atom_site_occupancy
  Ho  Ho0  1  0.290092  0.085069  0.376808  1
  Ho  Ho1  1  0.289572  0.914826  0.877002  1
  Ho  Ho2  1  0.710652  0.085303  0.877200  1
  Ho  Ho3  1  0.710389  0.915078  0.375794  1
  Ho  Ho4  1  0.585092  0.790208  0.876808  1
  Ho  Ho5  1  0.585900  0.209968  0.377016  1
  Ho  Ho6  1  0.414786  0.790305  0.376909  1
  Ho  Ho7  1  0.414594  0.209671  0.876184  1
  Ho  Ho8  1  0.209792  0.414908  0.623192  1
  Ho  Ho9  1  0.209695  0.585214  0.123091  1
  Ho  Ho10  1  0.790032  0.414100  0.122984  1
  Ho  Ho11  1  0.790329  0.585406  0.623816  1
  Ho  Ho12  1  0.914931  0.709908  0.123192  1
  Ho  Ho13  1  0.914697  0.289348  0.622800  1
  Ho  Ho14  1  0.085174  0.710428  0.622998  1
  Ho  Ho15  1  0.084922  0.289611  0.124206  1
  Sc  Sc16  1  0.999473  0.000989  0.498665  1
  Sc  Sc17  1  0.999011  0.000527  0.001335  1
  Sc  Sc18  1  0.500025  0.500060  0.000047  1
  Sc  Sc19  1  0.499940  0.499975  0.499953  1
  Ir  Ir20  1  0.852385  0.852155  0.749739  1
  Ir  Ir21  1  0.147845  0.147615  0.750261  1
  Ir  Ir22  1  0.147775  0.852225  0.250000  1
  Ir  Ir23  1  0.646541  0.353459  0.750000  1
  Ir  Ir24  1  0.647254  0.646972  0.249697  1
  Ir  Ir25  1  0.353028  0.352746  0.250303  1
  Ir  Ir26  1  0.352996  0.647004  0.750000  1
  Ru  Ru27  1  0.853356  0.146644  0.250000  1
  Ru  Ru28  1  0.500172  0.000078  0.123306  1
  Ru  Ru29  1  0.499738  0.000113  0.623606  1
  Ru  Ru30  1  0.999887  0.500262  0.876394  1
  Ru  Ru31  1  0.999922  0.499828  0.376694  1
