# generated using pymatgen
data_DyHo2NiSn3Rh2
_symmetry_space_group_name_H-M   'P 1'
_cell_length_a   7.47308400
_cell_length_b   7.50635705
_cell_length_c   3.85975400
_cell_angle_alpha   90.00000000
_cell_angle_beta   90.00000000
_cell_angle_gamma   120.14738343
_symmetry_Int_Tables_number   1
_chemical_formula_structural   DyHo2NiSn3Rh2
_chemical_formula_sum   'Dy1 Ho2 Ni1 Sn3 Rh2'
_cell_volume   187.22870659
_cell_formula_units_Z   1
loop_
 _symmetry_equiv_pos_site_id
 _symmetry_equiv_pos_as_xyz
  1  'x, y, z'
loop_
 _atom_site_type_symbol
 _atom_site_label
 _atom_site_symmetry_multiplicity
 _atom_site_fract_x
 _atom_site_fract_y
 _atom_site_fract_z
 _atom_site_occupancy
  Dy  Dy0  1  0.000000  0.592332  0.500000  1
  Ho  Ho1  1  0.407112  0.407021  0.500000  1
  Ho  Ho2  1  0.592888  0.999908  0.500000  1
  Ni  Ni3  1  0.000000  0.999922  0.500000  1
  Sn  Sn4  1  0.745598  0.746221  0.000000  1
  Sn  Sn5  1  0.254402  0.000623  0.000000  1
  Sn  Sn6  1  0.000000  0.252832  0.000000  1
  Rh  Rh7  1  0.667711  0.334427  0.000000  1
  Rh  Rh8  1  0.332289  0.666716  0.000000  1
