# generated using pymatgen
data_Sc2VFe3
_symmetry_space_group_name_H-M   'P 1'
_cell_length_a   5.07052500
_cell_length_b   5.07052435
_cell_length_c   7.80706400
_cell_angle_alpha   90.00000000
_cell_angle_beta   90.00000000
_cell_angle_gamma   119.99999771
_symmetry_Int_Tables_number   1
_chemical_formula_structural   Sc2VFe3
_chemical_formula_sum   'Sc4 V2 Fe6'
_cell_volume   173.82978075
_cell_formula_units_Z   2
loop_
 _symmetry_equiv_pos_site_id
 _symmetry_equiv_pos_as_xyz
  1  'x, y, z'
loop_
 _atom_site_type_symbol
 _atom_site_label
 _atom_site_symmetry_multiplicity
 _atom_site_fract_x
 _atom_site_fract_y
 _atom_site_fract_z
 _atom_site_occupancy
  Sc  Sc0  1  0.333333  0.666667  0.438209  1
  Sc  Sc1  1  0.666667  0.333333  0.561791  1
  Sc  Sc2  1  0.666667  0.333333  0.938209  1
  Sc  Sc3  1  0.333333  0.666667  0.061791  1
  V  V4  1  0.000000  0.000000  0.500000  1
  V  V5  1  0.000000  0.000000  0.000000  1
  Fe  Fe6  1  0.828440  0.171560  0.250000  1
  Fe  Fe7  1  0.828440  0.656880  0.250000  1
  Fe  Fe8  1  0.343120  0.171560  0.250000  1
  Fe  Fe9  1  0.171560  0.828440  0.750000  1
  Fe  Fe10  1  0.171560  0.343120  0.750000  1
  Fe  Fe11  1  0.656880  0.828440  0.750000  1
