# generated using pymatgen
data_PrNd7(YIr2)2
_symmetry_space_group_name_H-M   'P 1'
_cell_length_a   6.69134853
_cell_length_b   7.30112887
_cell_length_c   8.92722600
_cell_angle_alpha   96.41429299
_cell_angle_beta   112.10523393
_cell_angle_gamma   90.01756908
_symmetry_Int_Tables_number   1
_chemical_formula_structural   PrNd7(YIr2)2
_chemical_formula_sum   'Pr1 Nd7 Y2 Ir4'
_cell_volume   401.12144256
_cell_formula_units_Z   1
loop_
 _symmetry_equiv_pos_site_id
 _symmetry_equiv_pos_as_xyz
  1  'x, y, z'
loop_
 _atom_site_type_symbol
 _atom_site_label
 _atom_site_symmetry_multiplicity
 _atom_site_fract_x
 _atom_site_fract_y
 _atom_site_fract_z
 _atom_site_occupancy
  Pr  Pr0  1  0.975616  0.922561  0.181359  1
  Nd  Nd1  1  0.793120  0.577555  0.816515  1
  Nd  Nd2  1  0.023974  0.078335  0.818642  1
  Nd  Nd3  1  0.206842  0.422306  0.183108  1
  Nd  Nd4  1  0.647692  0.813134  0.432482  1
  Nd  Nd5  1  0.215223  0.685476  0.566152  1
  Nd  Nd6  1  0.352282  0.186932  0.568283  1
  Nd  Nd7  1  0.784658  0.314312  0.434055  1
  Y  Y8  1  0.436065  0.750155  0.999988  1
  Y  Y9  1  0.563396  0.249830  0.999628  1
  Ir  Ir10  1  0.815323  0.570490  0.216292  1
  Ir  Ir11  1  0.600533  0.928679  0.786156  1
  Ir  Ir12  1  0.184224  0.428519  0.784056  1
  Ir  Ir13  1  0.401053  0.071717  0.213285  1
