# generated using pymatgen
data_Eu(ZrSe2)4
_symmetry_space_group_name_H-M   'P 1'
_cell_length_a   8.51453576
_cell_length_b   8.51453566
_cell_length_c   8.51453490
_cell_angle_alpha   52.74390330
_cell_angle_beta   52.74389932
_cell_angle_gamma   52.74390143
_symmetry_Int_Tables_number   1
_chemical_formula_structural   Eu(ZrSe2)4
_chemical_formula_sum   'Eu1 Zr4 Se8'
_cell_volume   362.18789200
_cell_formula_units_Z   1
loop_
 _symmetry_equiv_pos_site_id
 _symmetry_equiv_pos_as_xyz
  1  'x, y, z'
loop_
 _atom_site_type_symbol
 _atom_site_label
 _atom_site_symmetry_multiplicity
 _atom_site_fract_x
 _atom_site_fract_y
 _atom_site_fract_z
 _atom_site_occupancy
  Eu  Eu0  1  0.500000  0.500000  0.500000  1
  Zr  Zr1  1  0.000000  0.500000  0.500000  1
  Zr  Zr2  1  0.500000  0.000000  0.500000  1
  Zr  Zr3  1  0.500000  0.500000  0.000000  1
  Zr  Zr4  1  0.000000  0.000000  0.000000  1
  Se  Se5  1  0.252389  0.761252  0.761252  1
  Se  Se6  1  0.238748  0.238748  0.747611  1
  Se  Se7  1  0.747611  0.238748  0.238748  1
  Se  Se8  1  0.238748  0.747611  0.238748  1
  Se  Se9  1  0.260080  0.260080  0.260080  1
  Se  Se10  1  0.739920  0.739920  0.739920  1
  Se  Se11  1  0.761252  0.252389  0.761252  1
  Se  Se12  1  0.761252  0.761252  0.252389  1
