# generated using pymatgen
data_La4Tc4Os2O19
_symmetry_space_group_name_H-M   'P 1'
_cell_length_a   7.90984561
_cell_length_b   7.91106497
_cell_length_c   7.90967169
_cell_angle_alpha   109.45529504
_cell_angle_beta   109.39588177
_cell_angle_gamma   109.56776245
_symmetry_Int_Tables_number   1
_chemical_formula_structural   La4Tc4Os2O19
_chemical_formula_sum   'La4 Tc4 Os2 O19'
_cell_volume   380.98728277
_cell_formula_units_Z   1
loop_
 _symmetry_equiv_pos_site_id
 _symmetry_equiv_pos_as_xyz
  1  'x, y, z'
loop_
 _atom_site_type_symbol
 _atom_site_label
 _atom_site_symmetry_multiplicity
 _atom_site_fract_x
 _atom_site_fract_y
 _atom_site_fract_z
 _atom_site_occupancy
  La  La0  1  0.000686  0.002285  0.315631  1
  La  La1  1  0.999852  0.314330  0.000541  1
  La  La2  1  0.685623  0.684581  0.686095  1
  La  La3  1  0.313886  0.998796  0.997783  1
  Tc  Tc4  1  0.364322  0.499865  0.864355  1
  Tc  Tc5  1  0.866708  0.366831  0.500368  1
  Tc  Tc6  1  0.499900  0.135421  0.635190  1
  Tc  Tc7  1  0.133425  0.633498  0.500022  1
  Os  Os8  1  0.499710  0.864668  0.364511  1
  Os  Os9  1  0.635689  0.500115  0.135777  1
  O  O10  1  0.323584  0.998789  0.322956  1
  O  O11  1  0.324625  0.324059  0.000852  1
  O  O12  1  0.999967  0.677690  0.678108  1
  O  O13  1  0.677053  0.675531  0.000541  1
  O  O14  1  0.000326  0.322034  0.322105  1
  O  O15  1  0.676526  0.999297  0.675247  1
  O  O16  1  0.999928  0.000042  0.999978  1
  O  O17  1  0.356096  0.296176  0.628553  1
  O  O18  1  0.059548  0.332750  0.703392  1
  O  O19  1  0.727591  0.372041  0.667348  1
  O  O20  1  0.370686  0.667487  0.727135  1
  O  O21  1  0.272112  0.939765  0.644147  1
  O  O22  1  0.628758  0.356709  0.295601  1
  O  O23  1  0.295325  0.627502  0.355265  1
  O  O24  1  0.704310  0.060080  0.331931  1
  O  O25  1  0.938927  0.643584  0.272328  1
  O  O26  1  0.667524  0.728623  0.372322  1
  O  O27  1  0.644071  0.272416  0.940334  1
  O  O28  1  0.333242  0.705036  0.061584  1
