# generated using pymatgen
data_TbLu2Mg3Si2Au
_symmetry_space_group_name_H-M   'P 1'
_cell_length_a   7.18048608
_cell_length_b   7.18048728
_cell_length_c   4.27941700
_cell_angle_alpha   90.00000000
_cell_angle_beta   90.00000000
_cell_angle_gamma   120.28198545
_symmetry_Int_Tables_number   1
_chemical_formula_structural   TbLu2Mg3Si2Au
_chemical_formula_sum   'Tb1 Lu2 Mg3 Si2 Au1'
_cell_volume   190.53814781
_cell_formula_units_Z   1
loop_
 _symmetry_equiv_pos_site_id
 _symmetry_equiv_pos_as_xyz
  1  'x, y, z'
loop_
 _atom_site_type_symbol
 _atom_site_label
 _atom_site_symmetry_multiplicity
 _atom_site_fract_x
 _atom_site_fract_y
 _atom_site_fract_z
 _atom_site_occupancy
  Tb  Tb0  1  0.420529  0.420529  0.000000  1
  Lu  Lu1  1  0.582111  0.001362  0.000000  1
  Lu  Lu2  1  0.001362  0.582111  0.000000  1
  Mg  Mg3  1  0.246706  0.999693  0.500000  1
  Mg  Mg4  1  0.999693  0.246706  0.500000  1
  Mg  Mg5  1  0.753821  0.753821  0.500000  1
  Si  Si6  1  0.331817  0.669465  0.500000  1
  Si  Si7  1  0.669465  0.331817  0.500000  1
  Au  Au8  1  0.994496  0.994496  0.000000  1
