# generated using pymatgen
data_Ho9ErOsRu3
_symmetry_space_group_name_H-M   'P 1'
_cell_length_a   6.30605693
_cell_length_b   7.27952216
_cell_length_c   8.42144077
_cell_angle_alpha   96.74331917
_cell_angle_beta   112.07915740
_cell_angle_gamma   90.02293846
_symmetry_Int_Tables_number   1
_chemical_formula_structural   Ho9ErOsRu3
_chemical_formula_sum   'Ho9 Er1 Os1 Ru3'
_cell_volume   355.34162425
_cell_formula_units_Z   1
loop_
 _symmetry_equiv_pos_site_id
 _symmetry_equiv_pos_as_xyz
  1  'x, y, z'
loop_
 _atom_site_type_symbol
 _atom_site_label
 _atom_site_symmetry_multiplicity
 _atom_site_fract_x
 _atom_site_fract_y
 _atom_site_fract_z
 _atom_site_occupancy
  Ho  Ho0  1  0.792093  0.583248  0.813434  1
  Ho  Ho1  1  0.976274  0.915551  0.183860  1
  Ho  Ho2  1  0.207671  0.415319  0.186254  1
  Ho  Ho3  1  0.023172  0.084559  0.814164  1
  Ho  Ho4  1  0.206683  0.684974  0.565889  1
  Ho  Ho5  1  0.640019  0.816184  0.436195  1
  Ho  Ho6  1  0.794307  0.315306  0.434201  1
  Ho  Ho7  1  0.359155  0.184507  0.564855  1
  Ho  Ho8  1  0.419990  0.749891  0.999315  1
  Er  Er9  1  0.579883  0.250173  0.999981  1
  Os  Os10  1  0.602861  0.924138  0.781119  1
  Ru  Ru11  1  0.824029  0.576404  0.220831  1
  Ru  Ru12  1  0.397002  0.076792  0.220270  1
  Ru  Ru13  1  0.176858  0.422952  0.779633  1
