# generated using pymatgen
data_Ce(SeI)2
_symmetry_space_group_name_H-M   'P 1'
_cell_length_a   7.86744605
_cell_length_b   7.86744577
_cell_length_c   8.64058515
_cell_angle_alpha   78.79338951
_cell_angle_beta   78.79339395
_cell_angle_gamma   120.33849617
_symmetry_Int_Tables_number   1
_chemical_formula_structural   Ce(SeI)2
_chemical_formula_sum   'Ce2 Se4 I4'
_cell_volume   424.89639034
_cell_formula_units_Z   2
loop_
 _symmetry_equiv_pos_site_id
 _symmetry_equiv_pos_as_xyz
  1  'x, y, z'
loop_
 _atom_site_type_symbol
 _atom_site_label
 _atom_site_symmetry_multiplicity
 _atom_site_fract_x
 _atom_site_fract_y
 _atom_site_fract_z
 _atom_site_occupancy
  Ce  Ce0  1  0.855650  0.144350  0.000000  1
  Ce  Ce1  1  0.144350  0.855650  0.000000  1
  Se  Se2  1  0.873686  0.873686  0.275640  1
  Se  Se3  1  0.126314  0.126314  0.724360  1
  Se  Se4  1  0.697781  0.697781  0.110579  1
  Se  Se5  1  0.302219  0.302219  0.889421  1
  I  I6  1  0.421253  0.025883  0.229565  1
  I  I7  1  0.578747  0.974117  0.770435  1
  I  I8  1  0.974117  0.578747  0.770435  1
  I  I9  1  0.025883  0.421253  0.229565  1
