# generated using pymatgen
data_TeP2(O3F)2
_symmetry_space_group_name_H-M   'P 1'
_cell_length_a   5.29952100
_cell_length_b   5.29952041
_cell_length_c   6.69810200
_cell_angle_alpha   90.00000000
_cell_angle_beta   90.00000000
_cell_angle_gamma   119.99999576
_symmetry_Int_Tables_number   1
_chemical_formula_structural   TeP2(O3F)2
_chemical_formula_sum   'Te1 P2 O6 F2'
_cell_volume   162.91294466
_cell_formula_units_Z   1
loop_
 _symmetry_equiv_pos_site_id
 _symmetry_equiv_pos_as_xyz
  1  'x, y, z'
loop_
 _atom_site_type_symbol
 _atom_site_label
 _atom_site_symmetry_multiplicity
 _atom_site_fract_x
 _atom_site_fract_y
 _atom_site_fract_z
 _atom_site_occupancy
  Te  Te0  1  0.000000  0.000000  0.000000  1
  P  P1  1  0.333333  0.666666  0.245450  1
  P  P2  1  0.666667  0.333334  0.754550  1
  O  O3  1  0.285912  0.366658  0.186003  1
  O  O4  1  0.080745  0.714088  0.186003  1
  O  O5  1  0.633343  0.919255  0.186003  1
  O  O6  1  0.366658  0.080745  0.813997  1
  O  O7  1  0.919255  0.285912  0.813997  1
  O  O8  1  0.714088  0.633342  0.813997  1
  F  F9  1  0.666667  0.333334  0.521151  1
  F  F10  1  0.333333  0.666666  0.478849  1
