# generated using pymatgen
data_Hf5Zr5Al2(SnSb)3
_symmetry_space_group_name_H-M   'P 1'
_cell_length_a   8.67264462
_cell_length_b   8.67264435
_cell_length_c   5.85991400
_cell_angle_alpha   90.00000000
_cell_angle_beta   90.00000000
_cell_angle_gamma   119.95655285
_symmetry_Int_Tables_number   1
_chemical_formula_structural   Hf5Zr5Al2(SnSb)3
_chemical_formula_sum   'Hf5 Zr5 Al2 Sn3 Sb3'
_cell_volume   381.86946312
_cell_formula_units_Z   1
loop_
 _symmetry_equiv_pos_site_id
 _symmetry_equiv_pos_as_xyz
  1  'x, y, z'
loop_
 _atom_site_type_symbol
 _atom_site_label
 _atom_site_symmetry_multiplicity
 _atom_site_fract_x
 _atom_site_fract_y
 _atom_site_fract_z
 _atom_site_occupancy
  Hf  Hf0  1  0.725074  0.725074  0.750000  1
  Hf  Hf1  1  0.666822  0.333555  0.998112  1
  Hf  Hf2  1  0.333555  0.666822  0.998112  1
  Hf  Hf3  1  0.333555  0.666822  0.501888  1
  Hf  Hf4  1  0.666822  0.333555  0.501888  1
  Zr  Zr5  1  0.274448  0.000245  0.750000  1
  Zr  Zr6  1  0.000245  0.274448  0.750000  1
  Zr  Zr7  1  0.267439  0.267439  0.250000  1
  Zr  Zr8  1  0.732760  0.999517  0.250000  1
  Zr  Zr9  1  0.999517  0.732760  0.250000  1
  Al  Al10  1  0.999704  0.999704  0.991925  1
  Al  Al11  1  0.999704  0.999704  0.508075  1
  Sn  Sn12  1  0.384280  0.384280  0.750000  1
  Sn  Sn13  1  0.616346  0.999701  0.750000  1
  Sn  Sn14  1  0.999701  0.616346  0.750000  1
  Sb  Sb15  1  0.610048  0.610048  0.250000  1
  Sb  Sb16  1  0.390040  0.999941  0.250000  1
  Sb  Sb17  1  0.999941  0.390040  0.250000  1
