# generated using pymatgen
data_Ca9Y(Sn3H)2
_symmetry_space_group_name_H-M   'P 1'
_cell_length_a   9.41629298
_cell_length_b   9.41631202
_cell_length_c   9.43591853
_cell_angle_alpha   128.66312175
_cell_angle_beta   128.66333950
_cell_angle_gamma   75.55570614
_symmetry_Int_Tables_number   1
_chemical_formula_structural   Ca9Y(Sn3H)2
_chemical_formula_sum   'Ca9 Y1 Sn6 H2'
_cell_volume   496.30398395
_cell_formula_units_Z   1
loop_
 _symmetry_equiv_pos_site_id
 _symmetry_equiv_pos_as_xyz
  1  'x, y, z'
loop_
 _atom_site_type_symbol
 _atom_site_label
 _atom_site_symmetry_multiplicity
 _atom_site_fract_x
 _atom_site_fract_y
 _atom_site_fract_z
 _atom_site_occupancy
  Ca  Ca0  1  0.499291  0.501956  0.000948  1
  Ca  Ca1  1  0.001956  0.999291  0.000948  1
  Ca  Ca2  1  0.185637  0.685637  0.174378  1
  Ca  Ca3  1  0.008477  0.185893  0.498785  1
  Ca  Ca4  1  0.685891  0.508476  0.498784  1
  Ca  Ca5  1  0.490750  0.990748  0.180416  1
  Ca  Ca6  1  0.812164  0.312165  0.822204  1
  Ca  Ca7  1  0.988317  0.812223  0.498713  1
  Ca  Ca8  1  0.312224  0.488319  0.498715  1
  Y  Y9  1  0.513279  0.013279  0.822806  1
  Sn  Sn10  1  0.254460  0.244327  0.994715  1
  Sn  Sn11  1  0.744326  0.754458  0.994712  1
  Sn  Sn12  1  0.868479  0.368472  0.238884  1
  Sn  Sn13  1  0.125691  0.625696  0.751996  1
  Sn  Sn14  1  0.371686  0.127425  0.505023  1
  Sn  Sn15  1  0.627425  0.871687  0.505029  1
  H  H16  1  0.259767  0.759767  0.511023  1
  H  H17  1  0.750181  0.250181  0.501921  1
