# generated using pymatgen
data_YEr7(B6Rh)4
_symmetry_space_group_name_H-M   'P 1'
_cell_length_a   3.63892300
_cell_length_b   9.14696000
_cell_length_c   11.47519800
_cell_angle_alpha   89.99918342
_cell_angle_beta   90.00000000
_cell_angle_gamma   90.00000000
_symmetry_Int_Tables_number   1
_chemical_formula_structural   YEr7(B6Rh)4
_chemical_formula_sum   'Y1 Er7 B24 Rh4'
_cell_volume   381.95291928
_cell_formula_units_Z   1
loop_
 _symmetry_equiv_pos_site_id
 _symmetry_equiv_pos_as_xyz
  1  'x, y, z'
loop_
 _atom_site_type_symbol
 _atom_site_label
 _atom_site_symmetry_multiplicity
 _atom_site_fract_x
 _atom_site_fract_y
 _atom_site_fract_z
 _atom_site_occupancy
  Y  Y0  1  0.500000  0.322384  0.413568  1
  Er  Er1  1  0.500000  0.677749  0.586462  1
  Er  Er2  1  0.500000  0.177797  0.913530  1
  Er  Er3  1  0.500000  0.822189  0.086391  1
  Er  Er4  1  0.500000  0.444468  0.126438  1
  Er  Er5  1  0.500000  0.555653  0.873459  1
  Er  Er6  1  0.500000  0.055438  0.626861  1
  Er  Er7  1  0.500000  0.944199  0.373316  1
  B  B8  1  0.000000  0.109305  0.470338  1
  B  B9  1  0.000000  0.889856  0.529970  1
  B  B10  1  0.000000  0.389489  0.969907  1
  B  B11  1  0.000000  0.610684  0.029949  1
  B  B12  1  0.000000  0.132843  0.315718  1
  B  B13  1  0.000000  0.866535  0.683957  1
  B  B14  1  0.000000  0.366598  0.816238  1
  B  B15  1  0.000000  0.633592  0.183648  1
  B  B16  1  0.000000  0.053903  0.065015  1
  B  B17  1  0.000000  0.945995  0.934775  1
  B  B18  1  0.000000  0.446465  0.565805  1
  B  B19  1  0.000000  0.554646  0.434862  1
  B  B20  1  0.000000  0.483460  0.286248  1
  B  B21  1  0.000000  0.517406  0.713363  1
  B  B22  1  0.000000  0.017092  0.786859  1
  B  B23  1  0.000000  0.982577  0.213138  1
  B  B24  1  0.000000  0.249365  0.078854  1
  B  B25  1  0.000000  0.750637  0.920897  1
  B  B26  1  0.000000  0.250362  0.579864  1
  B  B27  1  0.000000  0.749521  0.420985  1
  B  B28  1  0.000000  0.294254  0.235208  1
  B  B29  1  0.000000  0.705521  0.764204  1
  B  B30  1  0.000000  0.205340  0.736192  1
  B  B31  1  0.000000  0.794596  0.263925  1
  Rh  Rh32  1  0.500000  0.139138  0.178218  1
  Rh  Rh33  1  0.500000  0.860388  0.821398  1
  Rh  Rh34  1  0.500000  0.360214  0.679575  1
  Rh  Rh35  1  0.500000  0.640342  0.320863  1
