# generated using pymatgen
data_Dy3Y3Ga7Co16
_symmetry_space_group_name_H-M   'P 1'
_cell_length_a   8.48308533
_cell_length_b   8.48382759
_cell_length_c   8.48382600
_cell_angle_alpha   59.99999841
_cell_angle_beta   59.99710394
_cell_angle_gamma   59.99710288
_symmetry_Int_Tables_number   1
_chemical_formula_structural   Dy3Y3Ga7Co16
_chemical_formula_sum   'Dy3 Y3 Ga7 Co16'
_cell_volume   431.72122828
_cell_formula_units_Z   1
loop_
 _symmetry_equiv_pos_site_id
 _symmetry_equiv_pos_as_xyz
  1  'x, y, z'
loop_
 _atom_site_type_symbol
 _atom_site_label
 _atom_site_symmetry_multiplicity
 _atom_site_fract_x
 _atom_site_fract_y
 _atom_site_fract_z
 _atom_site_occupancy
  Dy  Dy0  1  0.279689  0.720257  0.720257  1
  Dy  Dy1  1  0.279689  0.720257  0.279796  1
  Dy  Dy2  1  0.279689  0.279796  0.720257  1
  Y  Y3  1  0.718637  0.281083  0.281083  1
  Y  Y4  1  0.718637  0.281083  0.719198  1
  Y  Y5  1  0.718637  0.719198  0.281083  1
  Ga  Ga6  1  0.999665  0.000111  0.000111  1
  Ga  Ga7  1  0.499918  0.999818  0.999818  1
  Ga  Ga8  1  0.499918  0.999818  0.500445  1
  Ga  Ga9  1  0.499918  0.500445  0.999818  1
  Ga  Ga10  1  0.000157  0.499835  0.499835  1
  Ga  Ga11  1  0.000157  0.499835  0.000173  1
  Ga  Ga12  1  0.000157  0.000173  0.499835  1
  Co  Co13  1  0.619796  0.126735  0.126735  1
  Co  Co14  1  0.127335  0.620469  0.126098  1
  Co  Co15  1  0.127335  0.126098  0.620469  1
  Co  Co16  1  0.127335  0.126098  0.126098  1
  Co  Co17  1  0.379227  0.873590  0.873590  1
  Co  Co18  1  0.874063  0.379868  0.873035  1
  Co  Co19  1  0.874063  0.873035  0.379868  1
  Co  Co20  1  0.874063  0.873035  0.873035  1
  Co  Co21  1  0.037136  0.320955  0.320955  1
  Co  Co22  1  0.321280  0.036567  0.321077  1
  Co  Co23  1  0.321280  0.321077  0.036567  1
  Co  Co24  1  0.321280  0.321077  0.321077  1
  Co  Co25  1  0.963969  0.678677  0.678677  1
  Co  Co26  1  0.678990  0.963156  0.678926  1
  Co  Co27  1  0.678990  0.678926  0.963156  1
  Co  Co28  1  0.678990  0.678926  0.678926  1
