# generated using pymatgen
data_NaZr(Ni2As)4
_symmetry_space_group_name_H-M   'P 1'
_cell_length_a   7.16285498
_cell_length_b   7.16285498
_cell_length_c   3.74034600
_cell_angle_alpha   90.00000000
_cell_angle_beta   90.00000000
_cell_angle_gamma   89.14801714
_symmetry_Int_Tables_number   1
_chemical_formula_structural   NaZr(Ni2As)4
_chemical_formula_sum   'Na1 Zr1 Ni8 As4'
_cell_volume   191.88281391
_cell_formula_units_Z   1
loop_
 _symmetry_equiv_pos_site_id
 _symmetry_equiv_pos_as_xyz
  1  'x, y, z'
loop_
 _atom_site_type_symbol
 _atom_site_label
 _atom_site_symmetry_multiplicity
 _atom_site_fract_x
 _atom_site_fract_y
 _atom_site_fract_z
 _atom_site_occupancy
  Na  Na0  1  0.500000  0.500000  0.000000  1
  Zr  Zr1  1  0.000000  0.000000  0.500000  1
  Ni  Ni2  1  0.590139  0.151825  0.500000  1
  Ni  Ni3  1  0.409861  0.848175  0.500000  1
  Ni  Ni4  1  0.088096  0.343000  0.000000  1
  Ni  Ni5  1  0.911904  0.657000  0.000000  1
  Ni  Ni6  1  0.151825  0.590139  0.500000  1
  Ni  Ni7  1  0.848175  0.409861  0.500000  1
  Ni  Ni8  1  0.343000  0.088096  0.000000  1
  Ni  Ni9  1  0.657000  0.911904  0.000000  1
  As  As10  1  0.720775  0.720775  0.500000  1
  As  As11  1  0.279225  0.279225  0.500000  1
  As  As12  1  0.214932  0.785068  0.000000  1
  As  As13  1  0.785068  0.214932  0.000000  1
