# generated using pymatgen
data_Nd4Tc3WF28
_symmetry_space_group_name_H-M   'P 1'
_cell_length_a   5.76067430
_cell_length_b   9.26789833
_cell_length_c   12.43352500
_cell_angle_alpha   62.02173623
_cell_angle_beta   89.96143928
_cell_angle_gamma   89.95052285
_symmetry_Int_Tables_number   1
_chemical_formula_structural   Nd4Tc3WF28
_chemical_formula_sum   'Nd4 Tc3 W1 F28'
_cell_volume   586.23421637
_cell_formula_units_Z   1
loop_
 _symmetry_equiv_pos_site_id
 _symmetry_equiv_pos_as_xyz
  1  'x, y, z'
loop_
 _atom_site_type_symbol
 _atom_site_label
 _atom_site_symmetry_multiplicity
 _atom_site_fract_x
 _atom_site_fract_y
 _atom_site_fract_z
 _atom_site_occupancy
  Nd  Nd0  1  0.758742  0.809692  0.765435  1
  Nd  Nd1  1  0.259392  0.187844  0.736206  1
  Nd  Nd2  1  0.239293  0.189288  0.234432  1
  Nd  Nd3  1  0.740988  0.814518  0.263525  1
  Tc  Tc4  1  0.755688  0.274122  0.957255  1
  Tc  Tc5  1  0.256998  0.725853  0.542677  1
  Tc  Tc6  1  0.244054  0.726437  0.042859  1
  W  W7  1  0.744425  0.273516  0.457621  1
  F  F8  1  0.446768  0.710188  0.921626  1
  F  F9  1  0.947602  0.290172  0.582022  1
  F  F10  1  0.552623  0.290467  0.077858  1
  F  F11  1  0.054220  0.710238  0.421391  1
  F  F12  1  0.447118  0.279208  0.547155  1
  F  F13  1  0.963779  0.716934  0.954684  1
  F  F14  1  0.537351  0.717243  0.454068  1
  F  F15  1  0.035071  0.284008  0.045352  1
  F  F16  1  0.763821  0.513924  0.861547  1
  F  F17  1  0.265776  0.486322  0.639310  1
  F  F18  1  0.236803  0.486742  0.137640  1
  F  F19  1  0.736448  0.517287  0.359320  1
  F  F20  1  0.759781  0.035102  0.052408  1
  F  F21  1  0.260453  0.964598  0.447516  1
  F  F22  1  0.241271  0.965352  0.948002  1
  F  F23  1  0.738854  0.030015  0.553332  1
  F  F24  1  0.985037  0.731660  0.636487  1
  F  F25  1  0.484265  0.267433  0.863991  1
  F  F26  1  0.032461  0.269277  0.362258  1
  F  F27  1  0.516349  0.732785  0.136323  1
  F  F28  1  0.044674  0.744326  0.165728  1
  F  F29  1  0.545287  0.255074  0.331759  1
  F  F30  1  0.955238  0.256871  0.834782  1
  F  F31  1  0.454937  0.742904  0.666096  1
  F  F32  1  0.413923  0.970073  0.231040  1
  F  F33  1  0.912764  0.030896  0.269229  1
  F  F34  1  0.585803  0.028965  0.767778  1
  F  F35  1  0.081939  0.970673  0.731288  1
