# generated using pymatgen
data_CaLaNd2H11
_symmetry_space_group_name_H-M   'P 1'
_cell_length_a   6.73283469
_cell_length_b   6.73283480
_cell_length_c   6.73283400
_cell_angle_alpha   133.80262170
_cell_angle_beta   131.31136098
_cell_angle_gamma   69.37029741
_symmetry_Int_Tables_number   1
_chemical_formula_structural   CaLaNd2H11
_chemical_formula_sum   'Ca1 La1 Nd2 H11'
_cell_volume   162.34689662
_cell_formula_units_Z   1
loop_
 _symmetry_equiv_pos_site_id
 _symmetry_equiv_pos_as_xyz
  1  'x, y, z'
loop_
 _atom_site_type_symbol
 _atom_site_label
 _atom_site_symmetry_multiplicity
 _atom_site_fract_x
 _atom_site_fract_y
 _atom_site_fract_z
 _atom_site_occupancy
  Ca  Ca0  1  0.000000  0.500000  0.500000  1
  La  La1  1  0.500000  0.000000  0.500000  1
  Nd  Nd2  1  0.260511  0.260511  0.000000  1
  Nd  Nd3  1  0.739489  0.739489  0.000000  1
  H  H4  1  0.653017  0.115185  0.011810  1
  H  H5  1  0.346983  0.358793  0.462167  1
  H  H6  1  0.103375  0.641207  0.988190  1
  H  H7  1  0.896625  0.884815  0.537833  1
  H  H8  1  0.896625  0.358793  0.011810  1
  H  H9  1  0.653017  0.641207  0.537833  1
  H  H10  1  0.346983  0.884815  0.988190  1
  H  H11  1  0.103375  0.115185  0.462167  1
  H  H12  1  0.734176  0.234176  0.500000  1
  H  H13  1  0.500000  0.500000  0.000000  1
  H  H14  1  0.265824  0.765824  0.500000  1
