# generated using pymatgen
data_Dy4Ga3SiPd8
_symmetry_space_group_name_H-M   'P 1'
_cell_length_a   5.58587830
_cell_length_b   7.15781100
_cell_length_c   7.36340470
_cell_angle_alpha   90.00000000
_cell_angle_beta   90.45439098
_cell_angle_gamma   90.00000000
_symmetry_Int_Tables_number   1
_chemical_formula_structural   Dy4Ga3SiPd8
_chemical_formula_sum   'Dy4 Ga3 Si1 Pd8'
_cell_volume   294.39925690
_cell_formula_units_Z   1
loop_
 _symmetry_equiv_pos_site_id
 _symmetry_equiv_pos_as_xyz
  1  'x, y, z'
loop_
 _atom_site_type_symbol
 _atom_site_label
 _atom_site_symmetry_multiplicity
 _atom_site_fract_x
 _atom_site_fract_y
 _atom_site_fract_z
 _atom_site_occupancy
  Dy  Dy0  1  0.355811  0.750000  0.029600  1
  Dy  Dy1  1  0.147257  0.750000  0.530207  1
  Dy  Dy2  1  0.641713  0.250000  0.971434  1
  Dy  Dy3  1  0.852648  0.250000  0.468598  1
  Ga  Ga4  1  0.643514  0.750000  0.380333  1
  Ga  Ga5  1  0.857442  0.750000  0.883006  1
  Ga  Ga6  1  0.356531  0.250000  0.616197  1
  Si  Si7  1  0.138975  0.250000  0.118864  1
  Pd  Pd8  1  0.914437  0.548208  0.181711  1
  Pd  Pd9  1  0.590559  0.949172  0.680133  1
  Pd  Pd10  1  0.094959  0.054040  0.825705  1
  Pd  Pd11  1  0.403100  0.445899  0.313332  1
  Pd  Pd12  1  0.094959  0.445960  0.825705  1
  Pd  Pd13  1  0.403100  0.054101  0.313332  1
  Pd  Pd14  1  0.914437  0.951792  0.181711  1
  Pd  Pd15  1  0.590559  0.550828  0.680133  1
