# generated using pymatgen
data_Sm4OsI4
_symmetry_space_group_name_H-M   'P 1'
_cell_length_a   11.02815443
_cell_length_b   11.02815558
_cell_length_c   6.35087538
_cell_angle_alpha   90.59363163
_cell_angle_beta   90.59363689
_cell_angle_gamma   89.74171120
_symmetry_Int_Tables_number   1
_chemical_formula_structural   Sm4OsI4
_chemical_formula_sum   'Sm8 Os2 I8'
_cell_volume   772.30435977
_cell_formula_units_Z   2
loop_
 _symmetry_equiv_pos_site_id
 _symmetry_equiv_pos_as_xyz
  1  'x, y, z'
loop_
 _atom_site_type_symbol
 _atom_site_label
 _atom_site_symmetry_multiplicity
 _atom_site_fract_x
 _atom_site_fract_y
 _atom_site_fract_z
 _atom_site_occupancy
  Sm  Sm0  1  0.790675  0.083863  0.997718  1
  Sm  Sm1  1  0.083863  0.790675  0.497718  1
  Sm  Sm2  1  0.082965  0.209675  0.005458  1
  Sm  Sm3  1  0.209675  0.082965  0.505458  1
  Sm  Sm4  1  0.917035  0.790325  0.994542  1
  Sm  Sm5  1  0.916137  0.209325  0.502282  1
  Sm  Sm6  1  0.209325  0.916137  0.002282  1
  Sm  Sm7  1  0.790325  0.917035  0.494542  1
  Os  Os8  1  0.999942  0.000058  0.250000  1
  Os  Os9  1  0.000058  0.999942  0.750000  1
  I  I10  1  0.631233  0.160425  0.500421  1
  I  I11  1  0.842145  0.632038  0.501657  1
  I  I12  1  0.367962  0.157855  0.998343  1
  I  I13  1  0.157855  0.367962  0.498343  1
  I  I14  1  0.632038  0.842145  0.001657  1
  I  I15  1  0.368767  0.839575  0.499579  1
  I  I16  1  0.160425  0.631233  0.000421  1
  I  I17  1  0.839575  0.368767  0.999579  1
