# generated using pymatgen
data_La8Dy3Tm9Pb16
_symmetry_space_group_name_H-M   'P 1'
_cell_length_a   8.26708611
_cell_length_b   8.35446270
_cell_length_c   15.76139400
_cell_angle_alpha   90.00560993
_cell_angle_beta   90.00945332
_cell_angle_gamma   90.03607271
_symmetry_Int_Tables_number   1
_chemical_formula_structural   La8Dy3Tm9Pb16
_chemical_formula_sum   'La8 Dy3 Tm9 Pb16'
_cell_volume   1088.59294918
_cell_formula_units_Z   1
loop_
 _symmetry_equiv_pos_site_id
 _symmetry_equiv_pos_as_xyz
  1  'x, y, z'
loop_
 _atom_site_type_symbol
 _atom_site_label
 _atom_site_symmetry_multiplicity
 _atom_site_fract_x
 _atom_site_fract_y
 _atom_site_fract_z
 _atom_site_occupancy
  La  La0  1  0.481029  0.677297  0.595105  1
  La  La1  1  0.981101  0.822876  0.904327  1
  La  La2  1  0.518901  0.322926  0.096305  1
  La  La3  1  0.018985  0.176885  0.404046  1
  La  La4  1  0.518389  0.322704  0.404166  1
  La  La5  1  0.018608  0.177026  0.096019  1
  La  La6  1  0.481887  0.677232  0.904535  1
  La  La7  1  0.981403  0.822425  0.595356  1
  Dy  Dy8  1  0.859171  0.658442  0.123685  1
  Dy  Dy9  1  0.640655  0.158171  0.876887  1
  Dy  Dy10  1  0.140835  0.341819  0.622508  1
  Tm  Tm11  1  0.641570  0.157725  0.623581  1
  Tm  Tm12  1  0.141544  0.342119  0.876429  1
  Tm  Tm13  1  0.358524  0.842214  0.123859  1
  Tm  Tm14  1  0.858701  0.657208  0.376556  1
  Tm  Tm15  1  0.359046  0.842530  0.376178  1
  Tm  Tm16  1  0.806725  0.494604  0.749574  1
  Tm  Tm17  1  0.306756  0.005030  0.750098  1
  Tm  Tm18  1  0.193657  0.505774  0.249993  1
  Tm  Tm19  1  0.692949  0.994778  0.250712  1
  Pb  Pb20  1  0.697604  0.956160  0.455883  1
  Pb  Pb21  1  0.199427  0.543140  0.044011  1
  Pb  Pb22  1  0.300441  0.043110  0.956460  1
  Pb  Pb23  1  0.800259  0.456670  0.543536  1
  Pb  Pb24  1  0.303830  0.042065  0.543640  1
  Pb  Pb25  1  0.803854  0.457204  0.955706  1
  Pb  Pb26  1  0.696510  0.957206  0.045080  1
  Pb  Pb27  1  0.197601  0.544454  0.454636  1
  Pb  Pb28  1  0.445254  0.370800  0.749753  1
  Pb  Pb29  1  0.945639  0.129340  0.749898  1
  Pb  Pb30  1  0.554087  0.630089  0.250560  1
  Pb  Pb31  1  0.054896  0.870773  0.250644  1
  Pb  Pb32  1  0.669470  0.850710  0.749600  1
  Pb  Pb33  1  0.169425  0.649138  0.750212  1
  Pb  Pb34  1  0.330521  0.148711  0.250111  1
  Pb  Pb35  1  0.830744  0.350644  0.250355  1
