# generated using pymatgen
data_Y12InCo4Ni
_symmetry_space_group_name_H-M   'P 1'
_cell_length_a   8.32038739
_cell_length_b   8.32038670
_cell_length_c   8.32038719
_cell_angle_alpha   110.74527502
_cell_angle_beta   110.73152690
_cell_angle_gamma   106.96553851
_symmetry_Int_Tables_number   1
_chemical_formula_structural   Y12InCo4Ni
_chemical_formula_sum   'Y12 In1 Co4 Ni1'
_cell_volume   442.78077911
_cell_formula_units_Z   1
loop_
 _symmetry_equiv_pos_site_id
 _symmetry_equiv_pos_as_xyz
  1  'x, y, z'
loop_
 _atom_site_type_symbol
 _atom_site_label
 _atom_site_symmetry_multiplicity
 _atom_site_fract_x
 _atom_site_fract_y
 _atom_site_fract_z
 _atom_site_occupancy
  Y  Y0  1  0.406152  0.210989  0.195163  1
  Y  Y1  1  0.593848  0.789011  0.804837  1
  Y  Y2  1  0.015827  0.210989  0.804837  1
  Y  Y3  1  0.984173  0.789011  0.195163  1
  Y  Y4  1  0.187041  0.293205  0.480246  1
  Y  Y5  1  0.812959  0.706795  0.519754  1
  Y  Y6  1  0.187041  0.706795  0.893836  1
  Y  Y7  1  0.812959  0.293205  0.106164  1
  Y  Y8  1  0.314182  0.618441  0.304260  1
  Y  Y9  1  0.685818  0.381559  0.695740  1
  Y  Y10  1  0.314182  0.009921  0.695740  1
  Y  Y11  1  0.685818  0.990079  0.304260  1
  In  In12  1  0.500000  0.500000  0.000000  1
  Co  Co13  1  0.380649  0.000000  0.380649  1
  Co  Co14  1  0.619351  0.000000  0.619351  1
  Co  Co15  1  0.111150  0.611150  0.500000  1
  Co  Co16  1  0.888850  0.388850  0.500000  1
  Ni  Ni17  1  0.000000  0.000000  0.000000  1
