# generated using pymatgen
data_Ho3Al3ZnSiPt
_symmetry_space_group_name_H-M   'P 1'
_cell_length_a   6.92834800
_cell_length_b   6.92834768
_cell_length_c   4.23122600
_cell_angle_alpha   90.00000000
_cell_angle_beta   90.00000000
_cell_angle_gamma   120.00000155
_symmetry_Int_Tables_number   1
_chemical_formula_structural   Ho3Al3ZnSiPt
_chemical_formula_sum   'Ho3 Al3 Zn1 Si1 Pt1'
_cell_volume   175.89610159
_cell_formula_units_Z   1
loop_
 _symmetry_equiv_pos_site_id
 _symmetry_equiv_pos_as_xyz
  1  'x, y, z'
loop_
 _atom_site_type_symbol
 _atom_site_label
 _atom_site_symmetry_multiplicity
 _atom_site_fract_x
 _atom_site_fract_y
 _atom_site_fract_z
 _atom_site_occupancy
  Ho  Ho0  1  0.418375  0.998445  0.000000  1
  Ho  Ho1  1  0.001555  0.419931  0.000000  1
  Ho  Ho2  1  0.580069  0.581625  0.000000  1
  Al  Al3  1  0.763837  0.002546  0.500001  1
  Al  Al4  1  0.238710  0.236164  0.500001  1
  Al  Al5  1  0.997454  0.761291  0.500001  1
  Zn  Zn6  1  0.666667  0.333334  0.500001  1
  Si  Si7  1  0.333333  0.666667  0.500001  1
  Pt  Pt8  1  0.000000  0.000000  0.000000  1
