# generated using pymatgen
data_Nd3Zn3Pd2Ru
_symmetry_space_group_name_H-M   'P 1'
_cell_length_a   7.36659100
_cell_length_b   7.36659166
_cell_length_c   4.02394900
_cell_angle_alpha   90.00000000
_cell_angle_beta   90.00000000
_cell_angle_gamma   119.99999253
_symmetry_Int_Tables_number   1
_chemical_formula_structural   Nd3Zn3Pd2Ru
_chemical_formula_sum   'Nd3 Zn3 Pd2 Ru1'
_cell_volume   189.11078067
_cell_formula_units_Z   1
loop_
 _symmetry_equiv_pos_site_id
 _symmetry_equiv_pos_as_xyz
  1  'x, y, z'
loop_
 _atom_site_type_symbol
 _atom_site_label
 _atom_site_symmetry_multiplicity
 _atom_site_fract_x
 _atom_site_fract_y
 _atom_site_fract_z
 _atom_site_occupancy
  Nd  Nd0  1  0.417442  0.405911  0.000000  1
  Nd  Nd1  1  0.594089  0.011531  0.000000  1
  Nd  Nd2  1  0.988469  0.582558  0.000000  1
  Zn  Zn3  1  0.756386  0.753519  0.500000  1
  Zn  Zn4  1  0.246481  0.002867  0.500000  1
  Zn  Zn5  1  0.997133  0.243614  0.500000  1
  Pd  Pd6  1  0.000000  0.000000  0.000000  1
  Pd  Pd7  1  0.333333  0.666667  0.500000  1
  Ru  Ru8  1  0.666667  0.333333  0.500000  1
