# generated using pymatgen
data_Nd3Y(SeO3)6
_symmetry_space_group_name_H-M   'P 1'
_cell_length_a   7.29208475
_cell_length_b   8.33156931
_cell_length_c   9.27048832
_cell_angle_alpha   70.97081506
_cell_angle_beta   70.09056321
_cell_angle_gamma   66.15161316
_symmetry_Int_Tables_number   1
_chemical_formula_structural   Nd3Y(SeO3)6
_chemical_formula_sum   'Nd3 Y1 Se6 O18'
_cell_volume   472.58442224
_cell_formula_units_Z   1
loop_
 _symmetry_equiv_pos_site_id
 _symmetry_equiv_pos_as_xyz
  1  'x, y, z'
loop_
 _atom_site_type_symbol
 _atom_site_label
 _atom_site_symmetry_multiplicity
 _atom_site_fract_x
 _atom_site_fract_y
 _atom_site_fract_z
 _atom_site_occupancy
  Nd  Nd0  1  0.258935  0.266012  0.198910  1
  Nd  Nd1  1  0.335172  0.728526  0.589433  1
  Nd  Nd2  1  0.667638  0.267149  0.411753  1
  Y  Y3  1  0.740531  0.736845  0.801203  1
  Se  Se4  1  0.111710  0.241663  0.585319  1
  Se  Se5  1  0.428842  0.773321  0.196593  1
  Se  Se6  1  0.149261  0.755385  0.961400  1
  Se  Se7  1  0.849017  0.255194  0.032073  1
  Se  Se8  1  0.574079  0.219500  0.802409  1
  Se  Se9  1  0.886933  0.755916  0.420941  1
  O  O10  1  0.154228  0.019340  0.655247  1
  O  O11  1  0.165956  0.576513  0.116421  1
  O  O12  1  0.026720  0.707759  0.559054  1
  O  O13  1  0.339099  0.250811  0.441873  1
  O  O14  1  0.061850  0.700028  0.836323  1
  O  O15  1  0.597423  0.288154  0.147069  1
  O  O16  1  0.355055  0.205423  0.942319  1
  O  O17  1  0.365558  0.937195  0.300497  1
  O  O18  1  0.518182  0.594396  0.346071  1
  O  O19  1  0.487952  0.399203  0.652379  1
  O  O20  1  0.641654  0.052830  0.700106  1
  O  O21  1  0.643520  0.790463  0.050732  1
  O  O22  1  0.404128  0.713832  0.849133  1
  O  O23  1  0.932847  0.304866  0.161926  1
  O  O24  1  0.660323  0.750046  0.566610  1
  O  O25  1  0.969132  0.293051  0.447959  1
  O  O26  1  0.827378  0.438909  0.881359  1
  O  O27  1  0.846879  0.977667  0.344890  1
