# generated using pymatgen
data_SrSe23
_symmetry_space_group_name_H-M   'P 1'
_cell_length_a   5.39746973
_cell_length_b   10.07725771
_cell_length_c   16.08222516
_cell_angle_alpha   93.36146705
_cell_angle_beta   86.96594743
_cell_angle_gamma   87.56530033
_symmetry_Int_Tables_number   1
_chemical_formula_structural   SrSe23
_chemical_formula_sum   'Sr1 Se23'
_cell_volume   871.09826451
_cell_formula_units_Z   1
loop_
 _symmetry_equiv_pos_site_id
 _symmetry_equiv_pos_as_xyz
  1  'x, y, z'
loop_
 _atom_site_type_symbol
 _atom_site_label
 _atom_site_symmetry_multiplicity
 _atom_site_fract_x
 _atom_site_fract_y
 _atom_site_fract_z
 _atom_site_occupancy
  Sr  Sr0  1  0.422626  0.185941  0.375522  1
  Se  Se1  1  0.425209  0.843500  0.383507  1
  Se  Se2  1  0.040247  0.309188  0.151004  1
  Se  Se3  1  0.890741  0.251422  0.460812  1
  Se  Se4  1  0.199075  0.802453  0.508744  1
  Se  Se5  1  0.210357  0.234677  0.016553  1
  Se  Se6  1  0.795081  0.720956  0.018696  1
  Se  Se7  1  0.099064  0.442211  0.347991  1
  Se  Se8  1  0.694724  0.635295  0.350641  1
  Se  Se9  1  0.780503  0.135435  0.193908  1
  Se  Se10  1  0.288709  0.870218  0.149546  1
  Se  Se11  1  0.722247  0.625985  0.617862  1
  Se  Se12  1  0.319432  0.336625  0.604847  1
  Se  Se13  1  0.230466  0.860779  0.856894  1
  Se  Se14  1  0.730813  0.135422  0.865118  1
  Se  Se15  1  0.083618  0.672533  0.120386  1
  Se  Se16  1  0.477771  0.826499  0.616460  1
  Se  Se17  1  0.607473  0.157359  0.562436  1
  Se  Se18  1  0.003527  0.672589  0.886610  1
  Se  Se19  1  0.967817  0.314999  0.910147  1
  Se  Se20  1  0.443854  0.505536  0.263065  1
  Se  Se21  1  0.052420  0.987320  0.263870  1
  Se  Se22  1  0.518087  0.476404  0.703034  1
  Se  Se23  1  0.996138  0.996653  0.772351  1
