# generated using pymatgen
data_K2AcGa12
_symmetry_space_group_name_H-M   'P 1'
_cell_length_a   8.93459659
_cell_length_b   8.93437994
_cell_length_c   8.93437901
_cell_angle_alpha   149.92106303
_cell_angle_beta   104.49058712
_cell_angle_gamma   83.36407162
_symmetry_Int_Tables_number   1
_chemical_formula_structural   K2AcGa12
_chemical_formula_sum   'K2 Ac1 Ga12'
_cell_volume   338.49951947
_cell_formula_units_Z   1
loop_
 _symmetry_equiv_pos_site_id
 _symmetry_equiv_pos_as_xyz
  1  'x, y, z'
loop_
 _atom_site_type_symbol
 _atom_site_label
 _atom_site_symmetry_multiplicity
 _atom_site_fract_x
 _atom_site_fract_y
 _atom_site_fract_z
 _atom_site_occupancy
  K  K0  1  0.000661  0.000293  0.000368  1
  K  K1  1  0.334027  0.333093  0.000936  1
  Ac  Ac2  1  0.667571  0.666623  0.000947  1
  Ga  Ga3  1  0.619968  0.000270  0.619699  1
  Ga  Ga4  1  0.382647  0.000275  0.382372  1
  Ga  Ga5  1  0.253789  0.500678  0.753111  1
  Ga  Ga6  1  0.749368  0.500639  0.248729  1
  Ga  Ga7  1  0.585533  0.832490  0.753043  1
  Ga  Ga8  1  0.917226  0.166877  0.750349  1
  Ga  Ga9  1  0.286659  0.666584  0.620076  1
  Ga  Ga10  1  0.952342  0.333133  0.619209  1
  Ga  Ga11  1  0.048020  0.666969  0.381051  1
  Ga  Ga12  1  0.714688  0.332754  0.381936  1
  Ga  Ga13  1  0.081263  0.833012  0.248251  1
  Ga  Ga14  1  0.417236  0.166308  0.250929  1
