# generated using pymatgen
data_Ba8TmPaSe12
_symmetry_space_group_name_H-M   'P 1'
_cell_length_a   9.05778798
_cell_length_b   9.05778885
_cell_length_c   9.05778800
_cell_angle_alpha   89.49560429
_cell_angle_beta   89.49560424
_cell_angle_gamma   89.49560497
_symmetry_Int_Tables_number   1
_chemical_formula_structural   Ba8TmPaSe12
_chemical_formula_sum   'Ba8 Tm1 Pa1 Se12'
_cell_volume   743.04702689
_cell_formula_units_Z   1
loop_
 _symmetry_equiv_pos_site_id
 _symmetry_equiv_pos_as_xyz
  1  'x, y, z'
loop_
 _atom_site_type_symbol
 _atom_site_label
 _atom_site_symmetry_multiplicity
 _atom_site_fract_x
 _atom_site_fract_y
 _atom_site_fract_z
 _atom_site_occupancy
  Ba  Ba0  1  0.870780  0.621387  0.257959  1
  Ba  Ba1  1  0.257959  0.870780  0.621387  1
  Ba  Ba2  1  0.621387  0.257959  0.870780  1
  Ba  Ba3  1  0.742041  0.129220  0.378613  1
  Ba  Ba4  1  0.378613  0.742041  0.129220  1
  Ba  Ba5  1  0.129220  0.378613  0.742041  1
  Ba  Ba6  1  0.255570  0.255570  0.255570  1
  Ba  Ba7  1  0.744430  0.744430  0.744430  1
  Tm  Tm8  1  0.500000  0.500000  0.500000  1
  Pa  Pa9  1  0.000000  0.000000  0.000000  1
  Se  Se10  1  0.201004  0.564192  0.421354  1
  Se  Se11  1  0.421354  0.201004  0.564192  1
  Se  Se12  1  0.564192  0.421354  0.201004  1
  Se  Se13  1  0.926719  0.058894  0.705962  1
  Se  Se14  1  0.705962  0.926719  0.058894  1
  Se  Se15  1  0.058894  0.705962  0.926719  1
  Se  Se16  1  0.798996  0.435808  0.578646  1
  Se  Se17  1  0.578646  0.798996  0.435808  1
  Se  Se18  1  0.435808  0.578646  0.798996  1
  Se  Se19  1  0.073281  0.941106  0.294038  1
  Se  Se20  1  0.294038  0.073281  0.941106  1
  Se  Se21  1  0.941106  0.294038  0.073281  1
