# generated using pymatgen
data_YbY3Er(In2Pt)2
_symmetry_space_group_name_H-M   'P 1'
_cell_length_a   3.61036100
_cell_length_b   8.20232607
_cell_length_c   18.41021809
_cell_angle_alpha   90.18873558
_cell_angle_beta   90.00000000
_cell_angle_gamma   90.00000000
_symmetry_Int_Tables_number   1
_chemical_formula_structural   YbY3Er(In2Pt)2
_chemical_formula_sum   'Yb2 Y6 Er2 In8 Pt4'
_cell_volume   545.18542424
_cell_formula_units_Z   2
loop_
 _symmetry_equiv_pos_site_id
 _symmetry_equiv_pos_as_xyz
  1  'x, y, z'
loop_
 _atom_site_type_symbol
 _atom_site_label
 _atom_site_symmetry_multiplicity
 _atom_site_fract_x
 _atom_site_fract_y
 _atom_site_fract_z
 _atom_site_occupancy
  Yb  Yb0  1  0.000000  0.000000  0.000000  1
  Yb  Yb1  1  0.000000  0.500000  0.500000  1
  Y  Y2  1  0.000000  0.119256  0.414472  1
  Y  Y3  1  0.000000  0.880744  0.585528  1
  Y  Y4  1  0.000000  0.380246  0.914370  1
  Y  Y5  1  0.000000  0.619754  0.085630  1
  Y  Y6  1  0.000000  0.243236  0.220336  1
  Y  Y7  1  0.000000  0.756764  0.779664  1
  Er  Er8  1  0.000000  0.256403  0.720734  1
  Er  Er9  1  0.000000  0.743597  0.279266  1
  In  In10  1  0.500000  0.426859  0.351221  1
  In  In11  1  0.500000  0.573141  0.648779  1
  In  In12  1  0.500000  0.074665  0.851125  1
  In  In13  1  0.500000  0.925335  0.148875  1
  In  In14  1  0.500000  0.292730  0.066946  1
  In  In15  1  0.500000  0.707270  0.933054  1
  In  In16  1  0.500000  0.207903  0.567361  1
  In  In17  1  0.500000  0.792097  0.432639  1
  Pt  Pt18  1  0.500000  0.019920  0.302752  1
  Pt  Pt19  1  0.500000  0.980080  0.697248  1
  Pt  Pt20  1  0.500000  0.474693  0.802093  1
  Pt  Pt21  1  0.500000  0.525307  0.197907  1
