# generated using pymatgen
data_Ba2NpN3
_symmetry_space_group_name_H-M   'P 1'
_cell_length_a   7.56617177
_cell_length_b   7.56617239
_cell_length_c   12.14339070
_cell_angle_alpha   89.98771572
_cell_angle_beta   89.98771819
_cell_angle_gamma   131.97762028
_symmetry_Int_Tables_number   1
_chemical_formula_structural   Ba2NpN3
_chemical_formula_sum   'Ba8 Np4 N12'
_cell_volume   516.79520510
_cell_formula_units_Z   4
loop_
 _symmetry_equiv_pos_site_id
 _symmetry_equiv_pos_as_xyz
  1  'x, y, z'
loop_
 _atom_site_type_symbol
 _atom_site_label
 _atom_site_symmetry_multiplicity
 _atom_site_fract_x
 _atom_site_fract_y
 _atom_site_fract_z
 _atom_site_occupancy
  Ba  Ba0  1  0.103141  0.397872  0.131501  1
  Ba  Ba1  1  0.397872  0.103141  0.631501  1
  Ba  Ba2  1  0.896859  0.602128  0.868499  1
  Ba  Ba3  1  0.602128  0.896859  0.368499  1
  Ba  Ba4  1  0.094596  0.404590  0.630470  1
  Ba  Ba5  1  0.595410  0.905404  0.869530  1
  Ba  Ba6  1  0.905404  0.595410  0.369530  1
  Ba  Ba7  1  0.404590  0.094596  0.130470  1
  Np  Np8  1  0.254464  0.245127  0.374141  1
  Np  Np9  1  0.745536  0.754873  0.625859  1
  Np  Np10  1  0.754873  0.745536  0.125859  1
  Np  Np11  1  0.245127  0.254464  0.874141  1
  N  N12  1  0.100017  0.394112  0.883815  1
  N  N13  1  0.605888  0.899983  0.616185  1
  N  N14  1  0.899983  0.605888  0.116185  1
  N  N15  1  0.394112  0.100017  0.383815  1
  N  N16  1  0.995564  0.004436  0.750000  1
  N  N17  1  0.004436  0.995564  0.250000  1
  N  N18  1  0.494218  0.505782  0.750000  1
  N  N19  1  0.610805  0.885773  0.115521  1
  N  N20  1  0.885773  0.610805  0.615521  1
  N  N21  1  0.389195  0.114227  0.884479  1
  N  N22  1  0.114227  0.389195  0.384479  1
  N  N23  1  0.505782  0.494218  0.250000  1
