# generated using pymatgen
data_K3TlCd2(BSe)18
_symmetry_space_group_name_H-M   'P 1'
_cell_length_a   9.84855171
_cell_length_b   10.57574864
_cell_length_c   11.21832988
_cell_angle_alpha   99.60569984
_cell_angle_beta   91.55301380
_cell_angle_gamma   116.14592041
_symmetry_Int_Tables_number   1
_chemical_formula_structural   K3TlCd2(BSe)18
_chemical_formula_sum   'K3 Tl1 Cd2 B18 Se18'
_cell_volume   1027.47934422
_cell_formula_units_Z   1
loop_
 _symmetry_equiv_pos_site_id
 _symmetry_equiv_pos_as_xyz
  1  'x, y, z'
loop_
 _atom_site_type_symbol
 _atom_site_label
 _atom_site_symmetry_multiplicity
 _atom_site_fract_x
 _atom_site_fract_y
 _atom_site_fract_z
 _atom_site_occupancy
  K  K0  1  0.792002  0.174408  0.007870  1
  K  K1  1  0.208499  0.825990  0.993205  1
  K  K2  1  0.177949  0.347559  0.500454  1
  Tl  Tl3  1  0.819561  0.649721  0.508220  1
  Cd  Cd4  1  0.319046  0.318013  0.076593  1
  Cd  Cd5  1  0.681252  0.682798  0.923859  1
  B  B6  1  0.516332  0.165257  0.551820  1
  B  B7  1  0.483561  0.834424  0.447803  1
  B  B8  1  0.664551  0.120882  0.588235  1
  B  B9  1  0.335314  0.878923  0.411758  1
  B  B10  1  0.486779  0.042010  0.649192  1
  B  B11  1  0.513351  0.958063  0.350785  1
  B  B12  1  0.337315  0.008619  0.537729  1
  B  B13  1  0.662659  0.991131  0.462123  1
  B  B14  1  0.422498  0.065526  0.404983  1
  B  B15  1  0.577531  0.934249  0.594710  1
  B  B16  1  0.623094  0.134369  0.436471  1
  B  B17  1  0.377183  0.865765  0.563476  1
  B  B18  1  0.757353  0.420225  0.712627  1
  B  B19  1  0.243042  0.580455  0.286250  1
  B  B20  1  0.249671  0.084148  0.780616  1
  B  B21  1  0.749857  0.914965  0.219403  1
  B  B22  1  0.572193  0.289056  0.257712  1
  B  B23  1  0.428331  0.711009  0.741775  1
  Se  Se24  1  0.558262  0.367581  0.625962  1
  Se  Se25  1  0.441820  0.632495  0.373213  1
  Se  Se26  1  0.844098  0.282589  0.698288  1
  Se  Se27  1  0.155042  0.717405  0.302837  1
  Se  Se28  1  0.449880  0.094497  0.821946  1
  Se  Se29  1  0.550730  0.906583  0.177985  1
  Se  Se30  1  0.160130  0.028656  0.608840  1
  Se  Se31  1  0.838855  0.969119  0.391083  1
  Se  Se32  1  0.362584  0.161199  0.286876  1
  Se  Se33  1  0.638066  0.837741  0.711668  1
  Se  Se34  1  0.748343  0.293393  0.349746  1
  Se  Se35  1  0.252227  0.707900  0.651197  1
  Se  Se36  1  0.877797  0.615455  0.803912  1
  Se  Se37  1  0.122687  0.388480  0.189362  1
  Se  Se38  1  0.125643  0.111963  0.903549  1
  Se  Se39  1  0.874389  0.887592  0.096384  1
  Se  Se40  1  0.609354  0.408989  0.136976  1
  Se  Se41  1  0.391168  0.590799  0.862508  1
