# generated using pymatgen
data_Y2Ho2ScOs7
_symmetry_space_group_name_H-M   'P 1'
_cell_length_a   5.39416300
_cell_length_b   5.39416222
_cell_length_c   8.88788100
_cell_angle_alpha   90.00000000
_cell_angle_beta   90.00000000
_cell_angle_gamma   120.00001092
_symmetry_Int_Tables_number   1
_chemical_formula_structural   Y2Ho2ScOs7
_chemical_formula_sum   'Y2 Ho2 Sc1 Os7'
_cell_volume   223.96331328
_cell_formula_units_Z   1
loop_
 _symmetry_equiv_pos_site_id
 _symmetry_equiv_pos_as_xyz
  1  'x, y, z'
loop_
 _atom_site_type_symbol
 _atom_site_label
 _atom_site_symmetry_multiplicity
 _atom_site_fract_x
 _atom_site_fract_y
 _atom_site_fract_z
 _atom_site_occupancy
  Y  Y0  1  0.333333  0.666667  0.422668  1
  Y  Y1  1  0.666667  0.333333  0.577332  1
  Ho  Ho2  1  0.666667  0.333333  0.940200  1
  Ho  Ho3  1  0.333333  0.666667  0.059800  1
  Sc  Sc4  1  0.000000  0.000000  0.500000  1
  Os  Os5  1  0.000000  0.000000  0.000000  1
  Os  Os6  1  0.827358  0.172642  0.244476  1
  Os  Os7  1  0.827358  0.654716  0.244476  1
  Os  Os8  1  0.345284  0.172642  0.244476  1
  Os  Os9  1  0.172642  0.827358  0.755524  1
  Os  Os10  1  0.172642  0.345284  0.755524  1
  Os  Os11  1  0.654716  0.827358  0.755524  1
