# generated using pymatgen
data_Dy9Zr3Ga20
_symmetry_space_group_name_H-M   'P 1'
_cell_length_a   6.06469333
_cell_length_b   9.49361200
_cell_length_c   11.39835211
_cell_angle_alpha   90.00000000
_cell_angle_beta   90.16970852
_cell_angle_gamma   90.00000000
_symmetry_Int_Tables_number   1
_chemical_formula_structural   Dy9Zr3Ga20
_chemical_formula_sum   'Dy9 Zr3 Ga20'
_cell_volume   656.26688024
_cell_formula_units_Z   1
loop_
 _symmetry_equiv_pos_site_id
 _symmetry_equiv_pos_as_xyz
  1  'x, y, z'
loop_
 _atom_site_type_symbol
 _atom_site_label
 _atom_site_symmetry_multiplicity
 _atom_site_fract_x
 _atom_site_fract_y
 _atom_site_fract_z
 _atom_site_occupancy
  Dy  Dy0  1  0.349031  0.250000  0.421635  1
  Dy  Dy1  1  0.885900  0.509975  0.352029  1
  Dy  Dy2  1  0.615435  0.987672  0.852830  1
  Dy  Dy3  1  0.111928  0.009810  0.649615  1
  Dy  Dy4  1  0.388068  0.489882  0.148040  1
  Dy  Dy5  1  0.111928  0.490190  0.649615  1
  Dy  Dy6  1  0.388068  0.010118  0.148040  1
  Dy  Dy7  1  0.885900  0.990025  0.352029  1
  Dy  Dy8  1  0.615435  0.512328  0.852830  1
  Zr  Zr9  1  0.859761  0.750000  0.076147  1
  Zr  Zr10  1  0.641695  0.750000  0.579995  1
  Zr  Zr11  1  0.145615  0.250000  0.922675  1
  Ga  Ga12  1  0.872969  0.050373  0.086579  1
  Ga  Ga13  1  0.624911  0.450392  0.590650  1
  Ga  Ga14  1  0.127308  0.552712  0.913238  1
  Ga  Ga15  1  0.374561  0.938474  0.412117  1
  Ga  Ga16  1  0.127308  0.947288  0.913238  1
  Ga  Ga17  1  0.374561  0.561526  0.412117  1
  Ga  Ga18  1  0.872969  0.449627  0.086579  1
  Ga  Ga19  1  0.624911  0.049608  0.590650  1
  Ga  Ga20  1  0.164041  0.750000  0.252618  1
  Ga  Ga21  1  0.333348  0.750000  0.753233  1
  Ga  Ga22  1  0.834756  0.250000  0.749879  1
  Ga  Ga23  1  0.676529  0.250000  0.244704  1
  Ga  Ga24  1  0.388428  0.750000  0.004667  1
  Ga  Ga25  1  0.104235  0.750000  0.505485  1
  Ga  Ga26  1  0.616314  0.250000  0.992300  1
  Ga  Ga27  1  0.874620  0.250000  0.499220  1
  Ga  Ga28  1  0.602164  0.750000  0.288772  1
  Ga  Ga29  1  0.902712  0.750000  0.794701  1
  Ga  Ga30  1  0.403741  0.250000  0.710313  1
  Ga  Ga31  1  0.100847  0.250000  0.193461  1
