# generated using pymatgen
data_Ba2B2Pd4Pt3Au
_symmetry_space_group_name_H-M   'P 1'
_cell_length_a   5.71249304
_cell_length_b   5.74319606
_cell_length_c   7.62462253
_cell_angle_alpha   90.01132781
_cell_angle_beta   90.04282097
_cell_angle_gamma   119.61677730
_symmetry_Int_Tables_number   1
_chemical_formula_structural   Ba2B2Pd4Pt3Au
_chemical_formula_sum   'Ba2 B2 Pd4 Pt3 Au1'
_cell_volume   217.46644146
_cell_formula_units_Z   1
loop_
 _symmetry_equiv_pos_site_id
 _symmetry_equiv_pos_as_xyz
  1  'x, y, z'
loop_
 _atom_site_type_symbol
 _atom_site_label
 _atom_site_symmetry_multiplicity
 _atom_site_fract_x
 _atom_site_fract_y
 _atom_site_fract_z
 _atom_site_occupancy
  Ba  Ba0  1  0.999951  0.000634  0.502781  1
  Ba  Ba1  1  0.000014  0.000009  0.003007  1
  B  B2  1  0.333182  0.657841  0.997818  1
  B  B3  1  0.666847  0.340940  0.998093  1
  Pd  Pd4  1  0.667169  0.336427  0.499752  1
  Pd  Pd5  1  0.500391  0.000396  0.191438  1
  Pd  Pd6  1  0.499628  0.999933  0.806322  1
  Pd  Pd7  1  0.000101  0.500287  0.195431  1
  Pt  Pt8  1  0.998995  0.499594  0.809399  1
  Pt  Pt9  1  0.500931  0.499803  0.193089  1
  Pt  Pt10  1  0.500205  0.499331  0.804152  1
  Au  Au11  1  0.332587  0.664803  0.498718  1
