# generated using pymatgen
data_Co2SeCl2O3
_symmetry_space_group_name_H-M   'P 1'
_cell_length_a   10.48648000
_cell_length_b   7.80916135
_cell_length_c   7.83914571
_cell_angle_alpha   80.71517366
_cell_angle_beta   90.00000000
_cell_angle_gamma   90.00000000
_symmetry_Int_Tables_number   1
_chemical_formula_structural   Co2SeCl2O3
_chemical_formula_sum   'Co8 Se4 Cl8 O12'
_cell_volume   633.54190437
_cell_formula_units_Z   4
loop_
 _symmetry_equiv_pos_site_id
 _symmetry_equiv_pos_as_xyz
  1  'x, y, z'
loop_
 _atom_site_type_symbol
 _atom_site_label
 _atom_site_symmetry_multiplicity
 _atom_site_fract_x
 _atom_site_fract_y
 _atom_site_fract_z
 _atom_site_occupancy
  Co  Co0  1  0.005411  0.107233  0.214839  1
  Co  Co1  1  0.279619  0.129476  0.908728  1
  Co  Co2  1  0.505411  0.392767  0.785161  1
  Co  Co3  1  0.779619  0.370524  0.091272  1
  Co  Co4  1  0.994589  0.892767  0.785161  1
  Co  Co5  1  0.720381  0.870524  0.091272  1
  Co  Co6  1  0.220381  0.629476  0.908728  1
  Co  Co7  1  0.494589  0.607233  0.214839  1
  Se  Se8  1  0.966581  0.683591  0.188198  1
  Se  Se9  1  0.533419  0.183591  0.188198  1
  Se  Se10  1  0.466581  0.816409  0.811802  1
  Se  Se11  1  0.033419  0.316409  0.811802  1
  Cl  Cl12  1  0.284212  0.541014  0.213357  1
  Cl  Cl13  1  0.215788  0.041014  0.213357  1
  Cl  Cl14  1  0.398249  0.237445  0.611066  1
  Cl  Cl15  1  0.898249  0.262555  0.388934  1
  Cl  Cl16  1  0.715788  0.458986  0.786643  1
  Cl  Cl17  1  0.601751  0.762555  0.388934  1
  Cl  Cl18  1  0.784212  0.958986  0.786643  1
  Cl  Cl19  1  0.101751  0.737445  0.611066  1
  O  O20  1  0.045513  0.714229  0.988494  1
  O  O21  1  0.683012  0.119079  0.126662  1
  O  O22  1  0.090119  0.107354  0.807359  1
  O  O23  1  0.954487  0.285771  0.011506  1
  O  O24  1  0.409881  0.607354  0.807359  1
  O  O25  1  0.545513  0.785771  0.011506  1
  O  O26  1  0.454487  0.214229  0.988494  1
  O  O27  1  0.316988  0.880921  0.873338  1
  O  O28  1  0.590119  0.392646  0.192641  1
  O  O29  1  0.183012  0.380921  0.873338  1
  O  O30  1  0.909881  0.892646  0.192641  1
  O  O31  1  0.816988  0.619079  0.126662  1
