# generated using pymatgen
data_Pr2Nb3Co9P7
_symmetry_space_group_name_H-M   'P 1'
_cell_length_a   3.74037600
_cell_length_b   9.32284782
_cell_length_c   9.32284700
_cell_angle_alpha   120.00000063
_cell_angle_beta   90.00000000
_cell_angle_gamma   90.00000000
_symmetry_Int_Tables_number   1
_chemical_formula_structural   Pr2Nb3Co9P7
_chemical_formula_sum   'Pr2 Nb3 Co9 P7'
_cell_volume   281.54190374
_cell_formula_units_Z   1
loop_
 _symmetry_equiv_pos_site_id
 _symmetry_equiv_pos_as_xyz
  1  'x, y, z'
loop_
 _atom_site_type_symbol
 _atom_site_label
 _atom_site_symmetry_multiplicity
 _atom_site_fract_x
 _atom_site_fract_y
 _atom_site_fract_z
 _atom_site_occupancy
  Pr  Pr0  1  0.000000  0.666667  0.333333  1
  Pr  Pr1  1  0.500000  0.333333  0.666667  1
  Nb  Nb2  1  0.500000  0.777074  0.895975  1
  Nb  Nb3  1  0.500000  0.118901  0.222926  1
  Nb  Nb4  1  0.500000  0.104025  0.881099  1
  Co  Co5  1  0.000000  0.570111  0.940872  1
  Co  Co6  1  0.000000  0.370761  0.429889  1
  Co  Co7  1  0.000000  0.059128  0.629239  1
  Co  Co8  1  0.000000  0.877629  0.158832  1
  Co  Co9  1  0.000000  0.281203  0.122371  1
  Co  Co10  1  0.000000  0.841168  0.718797  1
  Co  Co11  1  0.500000  0.948124  0.386376  1
  Co  Co12  1  0.500000  0.438251  0.051876  1
  Co  Co13  1  0.500000  0.613624  0.561749  1
  P  P14  1  0.000000  0.000000  0.000000  1
  P  P15  1  0.500000  0.709170  0.117156  1
  P  P16  1  0.500000  0.407987  0.290830  1
  P  P17  1  0.500000  0.882844  0.592013  1
  P  P18  1  0.000000  0.586981  0.689032  1
  P  P19  1  0.000000  0.102052  0.413019  1
  P  P20  1  0.000000  0.310968  0.897948  1
