# generated using pymatgen
data_La3InSe6
_symmetry_space_group_name_H-M   'P 1'
_cell_length_a   9.39004675
_cell_length_b   9.39004610
_cell_length_c   7.15250600
_cell_angle_alpha   90.00000000
_cell_angle_beta   90.00000000
_cell_angle_gamma   102.66791181
_symmetry_Int_Tables_number   1
_chemical_formula_structural   La3InSe6
_chemical_formula_sum   'La6 In2 Se12'
_cell_volume   615.30593424
_cell_formula_units_Z   2
loop_
 _symmetry_equiv_pos_site_id
 _symmetry_equiv_pos_as_xyz
  1  'x, y, z'
loop_
 _atom_site_type_symbol
 _atom_site_label
 _atom_site_symmetry_multiplicity
 _atom_site_fract_x
 _atom_site_fract_y
 _atom_site_fract_z
 _atom_site_occupancy
  La  La0  1  0.284227  0.086812  0.222641  1
  La  La1  1  0.913188  0.715773  0.222641  1
  La  La2  1  0.715773  0.913188  0.722641  1
  La  La3  1  0.086812  0.284227  0.722641  1
  La  La4  1  0.401004  0.598996  0.139139  1
  La  La5  1  0.598996  0.401004  0.639139  1
  In  In6  1  0.200210  0.799790  0.758846  1
  In  In7  1  0.799790  0.200210  0.258846  1
  Se  Se8  1  0.561382  0.096290  0.449324  1
  Se  Se9  1  0.903710  0.438618  0.449324  1
  Se  Se10  1  0.438618  0.903710  0.949324  1
  Se  Se11  1  0.096290  0.561382  0.949324  1
  Se  Se12  1  0.633690  0.689092  0.430908  1
  Se  Se13  1  0.310908  0.366310  0.430908  1
  Se  Se14  1  0.366310  0.310908  0.930908  1
  Se  Se15  1  0.689092  0.633690  0.930908  1
  Se  Se16  1  0.219523  0.780477  0.398116  1
  Se  Se17  1  0.780477  0.219523  0.898116  1
  Se  Se18  1  0.965604  0.034396  0.413152  1
  Se  Se19  1  0.034396  0.965604  0.913152  1
