# generated using pymatgen
data_Yb3Hg3Pd2Pt
_symmetry_space_group_name_H-M   'P 1'
_cell_length_a   7.66502700
_cell_length_b   7.66502666
_cell_length_c   3.93354200
_cell_angle_alpha   90.00000000
_cell_angle_beta   90.00000000
_cell_angle_gamma   119.99999715
_symmetry_Int_Tables_number   1
_chemical_formula_structural   Yb3Hg3Pd2Pt
_chemical_formula_sum   'Yb3 Hg3 Pd2 Pt1'
_cell_volume   200.14364029
_cell_formula_units_Z   1
loop_
 _symmetry_equiv_pos_site_id
 _symmetry_equiv_pos_as_xyz
  1  'x, y, z'
loop_
 _atom_site_type_symbol
 _atom_site_label
 _atom_site_symmetry_multiplicity
 _atom_site_fract_x
 _atom_site_fract_y
 _atom_site_fract_z
 _atom_site_occupancy
  Yb  Yb0  1  0.404565  0.397568  0.500000  1
  Yb  Yb1  1  0.602432  0.006996  0.500000  1
  Yb  Yb2  1  0.993004  0.595435  0.500000  1
  Hg  Hg3  1  0.731518  0.736512  0.000000  1
  Hg  Hg4  1  0.263488  0.995007  0.000000  1
  Hg  Hg5  1  0.004993  0.268482  0.000000  1
  Pd  Pd6  1  0.333333  0.666667  0.000000  1
  Pd  Pd7  1  0.000000  0.000000  0.500000  1
  Pt  Pt8  1  0.666667  0.333333  0.000000  1
