# generated using pymatgen
data_Dy3Ho(Sc4Bi3)4
_symmetry_space_group_name_H-M   'P 1'
_cell_length_a   7.88819401
_cell_length_b   9.05714300
_cell_length_c   11.55552501
_cell_angle_alpha   90.00000000
_cell_angle_beta   90.00450275
_cell_angle_gamma   90.00000000
_symmetry_Int_Tables_number   1
_chemical_formula_structural   Dy3Ho(Sc4Bi3)4
_chemical_formula_sum   'Dy3 Ho1 Sc16 Bi12'
_cell_volume   825.57871695
_cell_formula_units_Z   1
loop_
 _symmetry_equiv_pos_site_id
 _symmetry_equiv_pos_as_xyz
  1  'x, y, z'
loop_
 _atom_site_type_symbol
 _atom_site_label
 _atom_site_symmetry_multiplicity
 _atom_site_fract_x
 _atom_site_fract_y
 _atom_site_fract_z
 _atom_site_occupancy
  Dy  Dy0  1  0.815145  0.250000  0.281005  1
  Dy  Dy1  1  0.684838  0.750000  0.781028  1
  Dy  Dy2  1  0.184829  0.750000  0.718977  1
  Ho  Ho3  1  0.315110  0.250000  0.218898  1
  Sc  Sc4  1  0.348638  0.750000  0.220338  1
  Sc  Sc5  1  0.848656  0.750000  0.279657  1
  Sc  Sc6  1  0.651349  0.250000  0.779652  1
  Sc  Sc7  1  0.151370  0.250000  0.720336  1
  Sc  Sc8  1  0.693309  0.567138  0.061782  1
  Sc  Sc9  1  0.193305  0.932867  0.438194  1
  Sc  Sc10  1  0.306704  0.067106  0.938250  1
  Sc  Sc11  1  0.806714  0.432898  0.561783  1
  Sc  Sc12  1  0.306704  0.432894  0.938250  1
  Sc  Sc13  1  0.806714  0.067102  0.561783  1
  Sc  Sc14  1  0.693309  0.932862  0.061782  1
  Sc  Sc15  1  0.193305  0.567133  0.438194  1
  Sc  Sc16  1  0.481321  0.250000  0.488762  1
  Sc  Sc17  1  0.981435  0.250000  0.011251  1
  Sc  Sc18  1  0.518589  0.750000  0.511184  1
  Sc  Sc19  1  0.018639  0.750000  0.988802  1
  Bi  Bi20  1  0.402632  0.750000  0.966731  1
  Bi  Bi21  1  0.902619  0.750000  0.533278  1
  Bi  Bi22  1  0.597209  0.250000  0.033446  1
  Bi  Bi23  1  0.097489  0.250000  0.466638  1
  Bi  Bi24  1  0.563626  0.989872  0.328256  1
  Bi  Bi25  1  0.063899  0.510081  0.171738  1
  Bi  Bi26  1  0.436257  0.489792  0.671692  1
  Bi  Bi27  1  0.936252  0.010204  0.828313  1
  Bi  Bi28  1  0.436257  0.010208  0.671692  1
  Bi  Bi29  1  0.936252  0.489796  0.828313  1
  Bi  Bi30  1  0.563626  0.510128  0.328256  1
  Bi  Bi31  1  0.063899  0.989919  0.171738  1
