# generated using pymatgen
data_Sr3(LaSi2)2
_symmetry_space_group_name_H-M   'P 1'
_cell_length_a   8.23017100
_cell_length_b   8.23017100
_cell_length_c   15.66113900
_cell_angle_alpha   90.00000000
_cell_angle_beta   90.00000000
_cell_angle_gamma   90.00000000
_symmetry_Int_Tables_number   1
_chemical_formula_structural   Sr3(LaSi2)2
_chemical_formula_sum   'Sr12 La8 Si16'
_cell_volume   1060.81844301
_cell_formula_units_Z   4
loop_
 _symmetry_equiv_pos_site_id
 _symmetry_equiv_pos_as_xyz
  1  'x, y, z'
loop_
 _atom_site_type_symbol
 _atom_site_label
 _atom_site_symmetry_multiplicity
 _atom_site_fract_x
 _atom_site_fract_y
 _atom_site_fract_z
 _atom_site_occupancy
  Sr  Sr0  1  0.128495  0.486545  0.453441  1
  Sr  Sr1  1  0.871505  0.513456  0.953441  1
  Sr  Sr2  1  0.628495  0.013455  0.296559  1
  Sr  Sr3  1  0.371505  0.986544  0.796559  1
  Sr  Sr4  1  0.513456  0.871505  0.046559  1
  Sr  Sr5  1  0.486545  0.128495  0.546559  1
  Sr  Sr6  1  0.986544  0.371505  0.203441  1
  Sr  Sr7  1  0.013455  0.628495  0.703441  1
  Sr  Sr8  1  0.189973  0.189973  0.000000  1
  Sr  Sr9  1  0.810027  0.810027  0.500000  1
  Sr  Sr10  1  0.689974  0.310026  0.750000  1
  Sr  Sr11  1  0.310026  0.689974  0.250000  1
  La  La12  1  0.127702  0.012094  0.374552  1
  La  La13  1  0.872298  0.987906  0.874551  1
  La  La14  1  0.627702  0.487906  0.375448  1
  La  La15  1  0.372298  0.512094  0.875448  1
  La  La16  1  0.987906  0.872298  0.125449  1
  La  La17  1  0.012094  0.127702  0.625448  1
  La  La18  1  0.512094  0.372298  0.124552  1
  La  La19  1  0.487906  0.627702  0.624551  1
  Si  Si20  1  0.273546  0.088071  0.195667  1
  Si  Si21  1  0.726455  0.911929  0.695666  1
  Si  Si22  1  0.773545  0.411930  0.554334  1
  Si  Si23  1  0.226453  0.588070  0.054333  1
  Si  Si24  1  0.911929  0.726455  0.304333  1
  Si  Si25  1  0.088071  0.273546  0.804334  1
  Si  Si26  1  0.588070  0.226453  0.945666  1
  Si  Si27  1  0.411930  0.773545  0.445666  1
  Si  Si28  1  0.347033  0.290729  0.302408  1
  Si  Si29  1  0.652967  0.709271  0.802408  1
  Si  Si30  1  0.847032  0.209270  0.447592  1
  Si  Si31  1  0.152968  0.790730  0.947592  1
  Si  Si32  1  0.709271  0.652967  0.197592  1
  Si  Si33  1  0.290729  0.347033  0.697592  1
  Si  Si34  1  0.790730  0.152968  0.052408  1
  Si  Si35  1  0.209270  0.847032  0.552408  1
