# generated using pymatgen
data_Tb7Ho9(ErPt4)4
_symmetry_space_group_name_H-M   'P 1'
_cell_length_a   7.46931904
_cell_length_b   7.56366203
_cell_length_c   14.73647602
_cell_angle_alpha   90.00254373
_cell_angle_beta   89.99387181
_cell_angle_gamma   89.98974002
_symmetry_Int_Tables_number   1
_chemical_formula_structural   Tb7Ho9(ErPt4)4
_chemical_formula_sum   'Tb7 Ho9 Er4 Pt16'
_cell_volume   832.54315991
_cell_formula_units_Z   1
loop_
 _symmetry_equiv_pos_site_id
 _symmetry_equiv_pos_as_xyz
  1  'x, y, z'
loop_
 _atom_site_type_symbol
 _atom_site_label
 _atom_site_symmetry_multiplicity
 _atom_site_fract_x
 _atom_site_fract_y
 _atom_site_fract_z
 _atom_site_occupancy
  Tb  Tb0  1  0.001410  0.820659  0.906852  1
  Tb  Tb1  1  0.498579  0.320609  0.093093  1
  Tb  Tb2  1  0.998541  0.179408  0.406888  1
  Tb  Tb3  1  0.498644  0.320919  0.407037  1
  Tb  Tb4  1  0.998531  0.179386  0.093126  1
  Tb  Tb5  1  0.501387  0.679395  0.906887  1
  Tb  Tb6  1  0.001510  0.820399  0.593052  1
  Ho  Ho7  1  0.656670  0.168076  0.622628  1
  Ho  Ho8  1  0.156780  0.331929  0.877281  1
  Ho  Ho9  1  0.343203  0.831973  0.122703  1
  Ho  Ho10  1  0.843099  0.667964  0.377409  1
  Ho  Ho11  1  0.343569  0.831716  0.377513  1
  Ho  Ho12  1  0.843232  0.668092  0.122669  1
  Ho  Ho13  1  0.656716  0.168122  0.877272  1
  Ho  Ho14  1  0.157143  0.332216  0.622566  1
  Ho  Ho15  1  0.501944  0.679765  0.593200  1
  Er  Er16  1  0.819101  0.511796  0.749802  1
  Er  Er17  1  0.319362  0.988105  0.749861  1
  Er  Er18  1  0.180706  0.488282  0.250002  1
  Er  Er19  1  0.680732  0.011760  0.250044  1
  Pt  Pt20  1  0.682870  0.967014  0.458074  1
  Pt  Pt21  1  0.182935  0.532574  0.042088  1
  Pt  Pt22  1  0.317093  0.032533  0.957954  1
  Pt  Pt23  1  0.816043  0.468048  0.542222  1
  Pt  Pt24  1  0.317284  0.031800  0.542278  1
  Pt  Pt25  1  0.817011  0.467351  0.957963  1
  Pt  Pt26  1  0.683002  0.967413  0.042062  1
  Pt  Pt27  1  0.183136  0.532868  0.458137  1
  Pt  Pt28  1  0.453961  0.387342  0.749832  1
  Pt  Pt29  1  0.953757  0.112845  0.750017  1
  Pt  Pt30  1  0.546121  0.613024  0.249993  1
  Pt  Pt31  1  0.046107  0.886976  0.250001  1
  Pt  Pt32  1  0.682008  0.856349  0.749607  1
  Pt  Pt33  1  0.182731  0.643300  0.749867  1
  Pt  Pt34  1  0.317551  0.143273  0.250011  1
  Pt  Pt35  1  0.817532  0.356718  0.250009  1
