# generated using pymatgen
data_Dy5YCo16(P6W)2
_symmetry_space_group_name_H-M   'P 1'
_cell_length_a   3.72123800
_cell_length_b   10.55474300
_cell_length_c   12.24973200
_cell_angle_alpha   90.00000000
_cell_angle_beta   90.00000000
_cell_angle_gamma   90.00000000
_symmetry_Int_Tables_number   1
_chemical_formula_structural   Dy5YCo16(P6W)2
_chemical_formula_sum   'Dy5 Y1 Co16 P12 W2'
_cell_volume   481.12918031
_cell_formula_units_Z   1
loop_
 _symmetry_equiv_pos_site_id
 _symmetry_equiv_pos_as_xyz
  1  'x, y, z'
loop_
 _atom_site_type_symbol
 _atom_site_label
 _atom_site_symmetry_multiplicity
 _atom_site_fract_x
 _atom_site_fract_y
 _atom_site_fract_z
 _atom_site_occupancy
  Dy  Dy0  1  0.000000  0.500000  0.524120  1
  Dy  Dy1  1  0.500000  0.819332  0.204984  1
  Dy  Dy2  1  0.500000  0.180668  0.204984  1
  Dy  Dy3  1  0.000000  0.680696  0.795021  1
  Dy  Dy4  1  0.000000  0.319304  0.795021  1
  Y  Y5  1  0.500000  0.000000  0.475905  1
  Co  Co6  1  0.500000  0.500000  0.701253  1
  Co  Co7  1  0.000000  0.000000  0.298604  1
  Co  Co8  1  0.000000  0.500000  0.987064  1
  Co  Co9  1  0.500000  0.000000  0.012928  1
  Co  Co10  1  0.500000  0.332731  0.990423  1
  Co  Co11  1  0.500000  0.667269  0.990423  1
  Co  Co12  1  0.000000  0.167272  0.009578  1
  Co  Co13  1  0.000000  0.832728  0.009578  1
  Co  Co14  1  0.500000  0.295938  0.431318  1
  Co  Co15  1  0.500000  0.704062  0.431318  1
  Co  Co16  1  0.000000  0.204169  0.568712  1
  Co  Co17  1  0.000000  0.795831  0.568712  1
  Co  Co18  1  0.500000  0.878388  0.707691  1
  Co  Co19  1  0.500000  0.121612  0.707691  1
  Co  Co20  1  0.000000  0.621598  0.292344  1
  Co  Co21  1  0.000000  0.378402  0.292344  1
  P  P22  1  0.500000  0.500000  0.880673  1
  P  P23  1  0.000000  0.000000  0.119339  1
  P  P24  1  0.500000  0.500000  0.349787  1
  P  P25  1  0.000000  0.000000  0.650310  1
  P  P26  1  0.500000  0.311131  0.615811  1
  P  P27  1  0.500000  0.688869  0.615811  1
  P  P28  1  0.000000  0.188931  0.384131  1
  P  P29  1  0.000000  0.811069  0.384131  1
  P  P30  1  0.500000  0.844261  0.892817  1
  P  P31  1  0.500000  0.155739  0.892817  1
  P  P32  1  0.000000  0.655745  0.107178  1
  P  P33  1  0.000000  0.344255  0.107178  1
  W  W34  1  0.500000  0.500000  0.156062  1
  W  W35  1  0.000000  0.000000  0.843942  1
