# generated using pymatgen
data_Tb11Nd5MgHg3Pt4
_symmetry_space_group_name_H-M   'P 1'
_cell_length_a   9.75808756
_cell_length_b   9.78185355
_cell_length_c   9.78185387
_cell_angle_alpha   60.42020754
_cell_angle_beta   60.30970826
_cell_angle_gamma   60.30971190
_symmetry_Int_Tables_number   1
_chemical_formula_structural   Tb11Nd5MgHg3Pt4
_chemical_formula_sum   'Tb11 Nd5 Mg1 Hg3 Pt4'
_cell_volume   665.39940377
_cell_formula_units_Z   1
loop_
 _symmetry_equiv_pos_site_id
 _symmetry_equiv_pos_as_xyz
  1  'x, y, z'
loop_
 _atom_site_type_symbol
 _atom_site_label
 _atom_site_symmetry_multiplicity
 _atom_site_fract_x
 _atom_site_fract_y
 _atom_site_fract_z
 _atom_site_occupancy
  Tb  Tb0  1  0.350016  0.348719  0.348719  1
  Tb  Tb1  1  0.351878  0.352419  0.946625  1
  Tb  Tb2  1  0.351878  0.946625  0.352419  1
  Tb  Tb3  1  0.938539  0.354384  0.354384  1
  Tb  Tb4  1  0.809530  0.191387  0.191387  1
  Tb  Tb5  1  0.186108  0.812148  0.812148  1
  Tb  Tb6  1  0.185388  0.812732  0.191158  1
  Tb  Tb7  1  0.808203  0.191667  0.809100  1
  Tb  Tb8  1  0.185388  0.191158  0.812732  1
  Tb  Tb9  1  0.808203  0.809100  0.191667  1
  Tb  Tb10  1  0.940500  0.559366  0.559366  1
  Nd  Nd11  1  0.558618  0.939128  0.939128  1
  Nd  Nd12  1  0.561576  0.938780  0.562866  1
  Nd  Nd13  1  0.938126  0.561777  0.933845  1
  Nd  Nd14  1  0.561576  0.562866  0.938780  1
  Nd  Nd15  1  0.938126  0.933845  0.561777  1
  Mg  Mg16  1  0.284233  0.571507  0.571507  1
  Hg  Hg17  1  0.585245  0.584558  0.584558  1
  Hg  Hg18  1  0.581209  0.585413  0.248710  1
  Hg  Hg19  1  0.581209  0.248710  0.585413  1
  Pt  Pt20  1  0.142461  0.144802  0.144802  1
  Pt  Pt21  1  0.140156  0.144887  0.571853  1
  Pt  Pt22  1  0.140156  0.571853  0.144887  1
  Pt  Pt23  1  0.571677  0.142172  0.142172  1
