# generated using pymatgen
data_Pu2VGeF14
_symmetry_space_group_name_H-M   'P 1'
_cell_length_a   5.65051668
_cell_length_b   9.03422782
_cell_length_c   12.07460300
_cell_angle_alpha   62.73252981
_cell_angle_beta   89.97179075
_cell_angle_gamma   90.03622718
_symmetry_Int_Tables_number   1
_chemical_formula_structural   Pu2VGeF14
_chemical_formula_sum   'Pu4 V2 Ge2 F28'
_cell_volume   547.89042811
_cell_formula_units_Z   2
loop_
 _symmetry_equiv_pos_site_id
 _symmetry_equiv_pos_as_xyz
  1  'x, y, z'
loop_
 _atom_site_type_symbol
 _atom_site_label
 _atom_site_symmetry_multiplicity
 _atom_site_fract_x
 _atom_site_fract_y
 _atom_site_fract_z
 _atom_site_occupancy
  Pu  Pu0  1  0.254344  0.797164  0.270566  1
  Pu  Pu1  1  0.745656  0.202836  0.729434  1
  Pu  Pu2  1  0.756779  0.188048  0.240571  1
  Pu  Pu3  1  0.243221  0.811952  0.759429  1
  V  V4  1  0.254536  0.269299  0.460022  1
  V  V5  1  0.745464  0.730701  0.539978  1
  Ge  Ge6  1  0.756288  0.729187  0.039149  1
  Ge  Ge7  1  0.243712  0.270813  0.960851  1
  F  F8  1  0.955289  0.712438  0.415526  1
  F  F9  1  0.044711  0.287562  0.584474  1
  F  F10  1  0.444391  0.289649  0.072480  1
  F  F11  1  0.555609  0.710351  0.927520  1
  F  F12  1  0.501852  0.737417  0.132035  1
  F  F13  1  0.498148  0.262583  0.867965  1
  F  F14  1  0.981227  0.264793  0.359017  1
  F  F15  1  0.018773  0.735207  0.640983  1
  F  F16  1  0.954897  0.746313  0.156231  1
  F  F17  1  0.045103  0.253687  0.843769  1
  F  F18  1  0.454683  0.253094  0.329934  1
  F  F19  1  0.545317  0.746906  0.670066  1
  F  F20  1  0.763224  0.502588  0.131415  1
  F  F21  1  0.236776  0.497412  0.868585  1
  F  F22  1  0.270022  0.512783  0.358685  1
  F  F23  1  0.729978  0.487217  0.641315  1
  F  F24  1  0.978609  0.284192  0.044872  1
  F  F25  1  0.021391  0.715808  0.955128  1
  F  F26  1  0.457501  0.723941  0.448708  1
  F  F27  1  0.542499  0.276059  0.551292  1
  F  F28  1  0.743260  0.972791  0.441926  1
  F  F29  1  0.256740  0.027209  0.558074  1
  F  F30  1  0.240784  0.044832  0.048573  1
  F  F31  1  0.759216  0.955168  0.951427  1
  F  F32  1  0.582576  0.971460  0.229978  1
  F  F33  1  0.417424  0.028540  0.770022  1
  F  F34  1  0.082890  0.027692  0.266472  1
  F  F35  1  0.917110  0.972308  0.733528  1
