# generated using pymatgen
data_Pa2AlSi2
_symmetry_space_group_name_H-M   'P 1'
_cell_length_a   5.63880402
_cell_length_b   5.63880380
_cell_length_c   5.63880439
_cell_angle_alpha   139.22932963
_cell_angle_beta   119.28380054
_cell_angle_gamma   75.73154800
_symmetry_Int_Tables_number   1
_chemical_formula_structural   Pa2AlSi2
_chemical_formula_sum   'Pa2 Al1 Si2'
_cell_volume   99.67296533
_cell_formula_units_Z   1
loop_
 _symmetry_equiv_pos_site_id
 _symmetry_equiv_pos_as_xyz
  1  'x, y, z'
loop_
 _atom_site_type_symbol
 _atom_site_label
 _atom_site_symmetry_multiplicity
 _atom_site_fract_x
 _atom_site_fract_y
 _atom_site_fract_z
 _atom_site_occupancy
  Pa  Pa0  1  0.718216  0.218216  0.500000  1
  Pa  Pa1  1  0.281784  0.781784  0.500000  1
  Al  Al2  1  0.000000  0.000000  0.000000  1
  Si  Si3  1  0.291985  0.500000  0.791985  1
  Si  Si4  1  0.708015  0.500000  0.208015  1
