# generated using pymatgen
data_TbEr4(CoO6)2
_symmetry_space_group_name_H-M   'P 1'
_cell_length_a   6.71153558
_cell_length_b   6.71153571
_cell_length_c   7.14265978
_cell_angle_alpha   74.55759496
_cell_angle_beta   74.55759677
_cell_angle_gamma   50.49197795
_symmetry_Int_Tables_number   1
_chemical_formula_structural   TbEr4(CoO6)2
_chemical_formula_sum   'Tb1 Er4 Co2 O12'
_cell_volume   237.23289173
_cell_formula_units_Z   1
loop_
 _symmetry_equiv_pos_site_id
 _symmetry_equiv_pos_as_xyz
  1  'x, y, z'
loop_
 _atom_site_type_symbol
 _atom_site_label
 _atom_site_symmetry_multiplicity
 _atom_site_fract_x
 _atom_site_fract_y
 _atom_site_fract_z
 _atom_site_occupancy
  Tb  Tb0  1  0.000000  0.000000  0.500000  1
  Er  Er1  1  0.305761  0.305761  0.355882  1
  Er  Er2  1  0.694239  0.694239  0.644118  1
  Er  Er3  1  0.307399  0.307399  0.835713  1
  Er  Er4  1  0.692601  0.692601  0.164287  1
  Co  Co5  1  0.755566  0.244434  0.000000  1
  Co  Co6  1  0.244434  0.755566  0.000000  1
  O  O7  1  0.900948  0.418536  0.921325  1
  O  O8  1  0.418536  0.900948  0.921325  1
  O  O9  1  0.099052  0.581464  0.078675  1
  O  O10  1  0.581464  0.099052  0.078675  1
  O  O11  1  0.096599  0.594911  0.577446  1
  O  O12  1  0.594911  0.096599  0.577446  1
  O  O13  1  0.903401  0.405089  0.422554  1
  O  O14  1  0.405089  0.903401  0.422554  1
  O  O15  1  0.000936  0.000936  0.828720  1
  O  O16  1  0.999064  0.999064  0.171280  1
  O  O17  1  0.500102  0.500102  0.822814  1
  O  O18  1  0.499898  0.499898  0.177186  1
