# generated using pymatgen
data_Ca2PBrO4
_symmetry_space_group_name_H-M   'P 1'
_cell_length_a   6.30821800
_cell_length_b   7.09504800
_cell_length_c   11.14021600
_cell_angle_alpha   90.00000000
_cell_angle_beta   90.00000000
_cell_angle_gamma   90.00000000
_symmetry_Int_Tables_number   1
_chemical_formula_structural   Ca2PBrO4
_chemical_formula_sum   'Ca8 P4 Br4 O16'
_cell_volume   498.60386742
_cell_formula_units_Z   4
loop_
 _symmetry_equiv_pos_site_id
 _symmetry_equiv_pos_as_xyz
  1  'x, y, z'
loop_
 _atom_site_type_symbol
 _atom_site_label
 _atom_site_symmetry_multiplicity
 _atom_site_fract_x
 _atom_site_fract_y
 _atom_site_fract_z
 _atom_site_occupancy
  Ca  Ca0  1  0.361208  0.750000  0.500000  1
  Ca  Ca1  1  0.113098  0.028516  0.750000  1
  Ca  Ca2  1  0.638792  0.250000  0.500000  1
  Ca  Ca3  1  0.113098  0.471484  0.250000  1
  Ca  Ca4  1  0.638792  0.250000  0.000000  1
  Ca  Ca5  1  0.886902  0.528516  0.750000  1
  Ca  Ca6  1  0.361208  0.750000  0.000000  1
  Ca  Ca7  1  0.886902  0.971484  0.250000  1
  P  P8  1  0.860256  0.750000  0.000000  1
  P  P9  1  0.139744  0.250000  0.500000  1
  P  P10  1  0.139744  0.250000  0.000000  1
  P  P11  1  0.860256  0.750000  0.500000  1
  Br  Br12  1  0.514196  0.215875  0.250000  1
  Br  Br13  1  0.514196  0.284125  0.750000  1
  Br  Br14  1  0.485804  0.715875  0.250000  1
  Br  Br15  1  0.485804  0.784125  0.750000  1
  O  O16  1  0.992262  0.228683  0.112978  1
  O  O17  1  0.283160  0.423962  0.478690  1
  O  O18  1  0.007738  0.728683  0.387022  1
  O  O19  1  0.716840  0.923962  0.478690  1
  O  O20  1  0.007738  0.771317  0.612978  1
  O  O21  1  0.716840  0.576038  0.521310  1
  O  O22  1  0.992262  0.228683  0.387022  1
  O  O23  1  0.992262  0.271317  0.887022  1
  O  O24  1  0.716840  0.923962  0.021310  1
  O  O25  1  0.992262  0.271317  0.612978  1
  O  O26  1  0.716840  0.576038  0.978690  1
  O  O27  1  0.283160  0.423962  0.021310  1
  O  O28  1  0.007738  0.728683  0.112978  1
  O  O29  1  0.007738  0.771317  0.887022  1
  O  O30  1  0.283160  0.076038  0.521310  1
  O  O31  1  0.283160  0.076038  0.978690  1
