# generated using pymatgen
data_Tb8BSBr12
_symmetry_space_group_name_H-M   'P 1'
_cell_length_a   4.00489000
_cell_length_b   13.04180754
_cell_length_c   13.76759009
_cell_angle_alpha   90.31258951
_cell_angle_beta   90.00000000
_cell_angle_gamma   90.00000000
_symmetry_Int_Tables_number   1
_chemical_formula_structural   Tb8BSBr12
_chemical_formula_sum   'Tb8 B1 S1 Br12'
_cell_volume   719.08435993
_cell_formula_units_Z   1
loop_
 _symmetry_equiv_pos_site_id
 _symmetry_equiv_pos_as_xyz
  1  'x, y, z'
loop_
 _atom_site_type_symbol
 _atom_site_label
 _atom_site_symmetry_multiplicity
 _atom_site_fract_x
 _atom_site_fract_y
 _atom_site_fract_z
 _atom_site_occupancy
  Tb  Tb0  1  0.500000  0.112527  0.349655  1
  Tb  Tb1  1  0.500000  0.887473  0.650345  1
  Tb  Tb2  1  0.500000  0.618093  0.157673  1
  Tb  Tb3  1  0.500000  0.381907  0.842327  1
  Tb  Tb4  1  0.000000  0.108338  0.572871  1
  Tb  Tb5  1  0.000000  0.891662  0.427129  1
  Tb  Tb6  1  0.000000  0.612491  0.924668  1
  Tb  Tb7  1  0.000000  0.387509  0.075332  1
  B  B8  1  0.500000  0.000000  0.500000  1
  S  S9  1  0.500000  0.500000  0.000000  1
  Br  Br10  1  0.500000  0.249794  0.161701  1
  Br  Br11  1  0.500000  0.750206  0.838299  1
  Br  Br12  1  0.500000  0.746837  0.334282  1
  Br  Br13  1  0.500000  0.253163  0.665718  1
  Br  Br14  1  0.000000  0.258834  0.415029  1
  Br  Br15  1  0.000000  0.741166  0.584971  1
  Br  Br16  1  0.000000  0.757918  0.086227  1
  Br  Br17  1  0.000000  0.242082  0.913773  1
  Br  Br18  1  0.000000  0.999942  0.240106  1
  Br  Br19  1  0.000000  0.000058  0.759894  1
  Br  Br20  1  0.000000  0.500665  0.259072  1
  Br  Br21  1  0.000000  0.499335  0.740928  1
