# generated using pymatgen
data_Dy12Co6Pb
_symmetry_space_group_name_H-M   'P 1'
_cell_length_a   8.37837728
_cell_length_b   8.37837684
_cell_length_c   8.37837700
_cell_angle_alpha   109.47121860
_cell_angle_beta   109.47121755
_cell_angle_gamma   109.47122477
_symmetry_Int_Tables_number   1
_chemical_formula_structural   Dy12Co6Pb
_chemical_formula_sum   'Dy12 Co6 Pb1'
_cell_volume   452.74932940
_cell_formula_units_Z   1
loop_
 _symmetry_equiv_pos_site_id
 _symmetry_equiv_pos_as_xyz
  1  'x, y, z'
loop_
 _atom_site_type_symbol
 _atom_site_label
 _atom_site_symmetry_multiplicity
 _atom_site_fract_x
 _atom_site_fract_y
 _atom_site_fract_z
 _atom_site_occupancy
  Dy  Dy0  1  0.805661  0.500754  0.695094  1
  Dy  Dy1  1  0.695094  0.194339  0.889433  1
  Dy  Dy2  1  0.194339  0.889433  0.695094  1
  Dy  Dy3  1  0.304906  0.194339  0.499246  1
  Dy  Dy4  1  0.695094  0.805661  0.500754  1
  Dy  Dy5  1  0.499246  0.304906  0.194339  1
  Dy  Dy6  1  0.805661  0.110567  0.304906  1
  Dy  Dy7  1  0.889433  0.695094  0.194339  1
  Dy  Dy8  1  0.110567  0.304906  0.805661  1
  Dy  Dy9  1  0.304906  0.805661  0.110567  1
  Dy  Dy10  1  0.500754  0.695094  0.805661  1
  Dy  Dy11  1  0.194339  0.499246  0.304906  1
  Co  Co12  1  0.613324  0.113324  0.500000  1
  Co  Co13  1  0.500000  0.613324  0.113324  1
  Co  Co14  1  0.500000  0.386676  0.886676  1
  Co  Co15  1  0.386676  0.886676  0.500000  1
  Co  Co16  1  0.113324  0.500000  0.613324  1
  Co  Co17  1  0.886676  0.500000  0.386676  1
  Pb  Pb18  1  0.000000  0.000000  0.000000  1
