# generated using pymatgen
data_Tb4C7
_symmetry_space_group_name_H-M   'P 1'
_cell_length_a   13.79963500
_cell_length_b   3.74355005
_cell_length_c   6.51357208
_cell_angle_alpha   75.42679073
_cell_angle_beta   90.00000000
_cell_angle_gamma   90.00000000
_symmetry_Int_Tables_number   1
_chemical_formula_structural   Tb4C7
_chemical_formula_sum   'Tb8 C14'
_cell_volume   325.66281199
_cell_formula_units_Z   2
loop_
 _symmetry_equiv_pos_site_id
 _symmetry_equiv_pos_as_xyz
  1  'x, y, z'
loop_
 _atom_site_type_symbol
 _atom_site_label
 _atom_site_symmetry_multiplicity
 _atom_site_fract_x
 _atom_site_fract_y
 _atom_site_fract_z
 _atom_site_occupancy
  Tb  Tb0  1  0.336244  0.947918  0.660974  1
  Tb  Tb1  1  0.663756  0.052082  0.339026  1
  Tb  Tb2  1  0.836244  0.052082  0.839026  1
  Tb  Tb3  1  0.163756  0.947918  0.160974  1
  Tb  Tb4  1  0.055300  0.631305  0.739355  1
  Tb  Tb5  1  0.944700  0.368695  0.260645  1
  Tb  Tb6  1  0.555300  0.368695  0.760645  1
  Tb  Tb7  1  0.444700  0.631305  0.239355  1
  C  C8  1  0.895296  0.736926  0.549046  1
  C  C9  1  0.104704  0.263074  0.450954  1
  C  C10  1  0.395296  0.263074  0.950954  1
  C  C11  1  0.604704  0.736926  0.049046  1
  C  C12  1  0.216863  0.533539  0.925362  1
  C  C13  1  0.783137  0.466461  0.074638  1
  C  C14  1  0.716863  0.466461  0.574638  1
  C  C15  1  0.283137  0.533539  0.425362  1
  C  C16  1  0.804037  0.620572  0.546068  1
  C  C17  1  0.195963  0.379428  0.453932  1
  C  C18  1  0.304037  0.379428  0.953932  1
  C  C19  1  0.695963  0.620572  0.046068  1
  C  C20  1  0.500000  0.000000  0.500000  1
  C  C21  1  0.000000  0.000000  0.000000  1
