# generated using pymatgen
data_Np8ScSe17
_symmetry_space_group_name_H-M   'P 1'
_cell_length_a   8.25990175
_cell_length_b   8.25990031
_cell_length_c   11.03208542
_cell_angle_alpha   80.63613917
_cell_angle_beta   80.63614029
_cell_angle_gamma   65.06374596
_symmetry_Int_Tables_number   1
_chemical_formula_structural   Np8ScSe17
_chemical_formula_sum   'Np8 Sc1 Se17'
_cell_volume   669.67849453
_cell_formula_units_Z   1
loop_
 _symmetry_equiv_pos_site_id
 _symmetry_equiv_pos_as_xyz
  1  'x, y, z'
loop_
 _atom_site_type_symbol
 _atom_site_label
 _atom_site_symmetry_multiplicity
 _atom_site_fract_x
 _atom_site_fract_y
 _atom_site_fract_z
 _atom_site_occupancy
  Np  Np0  1  0.794175  0.794175  0.459728  1
  Np  Np1  1  0.205825  0.205825  0.540272  1
  Np  Np2  1  0.699316  0.182643  0.697520  1
  Np  Np3  1  0.182643  0.699316  0.697520  1
  Np  Np4  1  0.817357  0.300684  0.302480  1
  Np  Np5  1  0.680945  0.680945  0.981169  1
  Np  Np6  1  0.319055  0.319055  0.018831  1
  Np  Np7  1  0.300684  0.817357  0.302480  1
  Sc  Sc8  1  0.000000  0.000000  0.000000  1
  Se  Se9  1  0.478857  0.478857  0.168882  1
  Se  Se10  1  0.696885  0.696885  0.248618  1
  Se  Se11  1  0.568617  0.176282  0.465061  1
  Se  Se12  1  0.057978  0.669460  0.964116  1
  Se  Se13  1  0.209986  0.209986  0.278696  1
  Se  Se14  1  0.431383  0.823718  0.534939  1
  Se  Se15  1  0.521143  0.521143  0.831118  1
  Se  Se16  1  0.669460  0.057978  0.964116  1
  Se  Se17  1  0.938062  0.938062  0.235163  1
  Se  Se18  1  0.061938  0.061938  0.764837  1
  Se  Se19  1  0.303115  0.303115  0.751382  1
  Se  Se20  1  0.330540  0.942022  0.035884  1
  Se  Se21  1  0.823718  0.431383  0.534939  1
  Se  Se22  1  0.942022  0.330540  0.035884  1
  Se  Se23  1  0.176282  0.568617  0.465061  1
  Se  Se24  1  0.000000  0.000000  0.500000  1
  Se  Se25  1  0.790014  0.790014  0.721304  1
