# generated using pymatgen
data_Gd3Dy(As4O9)2
_symmetry_space_group_name_H-M   'P 1'
_cell_length_a   6.81799523
_cell_length_b   7.60868864
_cell_length_c   9.88156014
_cell_angle_alpha   94.97536955
_cell_angle_beta   104.14122093
_cell_angle_gamma   104.76741750
_symmetry_Int_Tables_number   1
_chemical_formula_structural   Gd3Dy(As4O9)2
_chemical_formula_sum   'Gd3 Dy1 As8 O18'
_cell_volume   474.55490823
_cell_formula_units_Z   1
loop_
 _symmetry_equiv_pos_site_id
 _symmetry_equiv_pos_as_xyz
  1  'x, y, z'
loop_
 _atom_site_type_symbol
 _atom_site_label
 _atom_site_symmetry_multiplicity
 _atom_site_fract_x
 _atom_site_fract_y
 _atom_site_fract_z
 _atom_site_occupancy
  Gd  Gd0  1  0.245095  0.940448  0.615753  1
  Gd  Gd1  1  0.756038  0.060888  0.384206  1
  Gd  Gd2  1  0.719941  0.531480  0.409156  1
  Dy  Dy3  1  0.279805  0.470400  0.591710  1
  As  As4  1  0.680082  0.776429  0.075987  1
  As  As5  1  0.319786  0.225010  0.922494  1
  As  As6  1  0.173691  0.753001  0.912470  1
  As  As7  1  0.826445  0.246446  0.086024  1
  As  As8  1  0.743898  0.915509  0.709670  1
  As  As9  1  0.255060  0.083340  0.290621  1
  As  As10  1  0.808719  0.350251  0.701702  1
  As  As11  1  0.190404  0.648791  0.299241  1
  O  O12  1  0.721427  0.750594  0.255563  1
  O  O13  1  0.279612  0.252637  0.743345  1
  O  O14  1  0.316085  0.979188  0.871737  1
  O  O15  1  0.683221  0.021372  0.126941  1
  O  O16  1  0.606822  0.322181  0.985780  1
  O  O17  1  0.393163  0.678311  0.014187  1
  O  O18  1  0.131582  0.646493  0.739044  1
  O  O19  1  0.870559  0.351965  0.260098  1
  O  O20  1  0.845208  0.873235  0.560455  1
  O  O21  1  0.155831  0.128286  0.440314  1
  O  O22  1  0.486046  0.767715  0.666481  1
  O  O23  1  0.513064  0.230005  0.332551  1
  O  O24  1  0.370117  0.534059  0.380184  1
  O  O25  1  0.625382  0.462547  0.621918  1
  O  O26  1  0.090640  0.668345  0.453326  1
  O  O27  1  0.912519  0.331990  0.548844  1
  O  O28  1  0.372878  0.898160  0.358652  1
  O  O29  1  0.626881  0.100926  0.641545  1
