# generated using pymatgen
data_NiSb14Mo5
_symmetry_space_group_name_H-M   'P 1'
_cell_length_a   8.33171711
_cell_length_b   8.33171692
_cell_length_c   8.33171713
_cell_angle_alpha   109.62807178
_cell_angle_beta   109.62806457
_cell_angle_gamma   109.15798399
_symmetry_Int_Tables_number   1
_chemical_formula_structural   NiSb14Mo5
_chemical_formula_sum   'Ni1 Sb14 Mo5'
_cell_volume   445.21715584
_cell_formula_units_Z   1
loop_
 _symmetry_equiv_pos_site_id
 _symmetry_equiv_pos_as_xyz
  1  'x, y, z'
loop_
 _atom_site_type_symbol
 _atom_site_label
 _atom_site_symmetry_multiplicity
 _atom_site_fract_x
 _atom_site_fract_y
 _atom_site_fract_z
 _atom_site_occupancy
  Ni  Ni0  1  0.338225  0.338225  0.000000  1
  Sb  Sb1  1  0.747829  0.247829  0.500000  1
  Sb  Sb2  1  0.505866  0.251662  0.745797  1
  Sb  Sb3  1  0.505866  0.760069  0.254203  1
  Sb  Sb4  1  0.251662  0.505866  0.745797  1
  Sb  Sb5  1  0.760069  0.505866  0.254203  1
  Sb  Sb6  1  0.247829  0.747829  0.500000  1
  Sb  Sb7  1  0.326498  0.326498  0.327008  1
  Sb  Sb8  1  0.998486  0.998486  0.323896  1
  Sb  Sb9  1  0.326498  0.999490  0.000000  1
  Sb  Sb10  1  0.999490  0.326498  0.000000  1
  Sb  Sb11  1  0.674589  0.998486  0.000000  1
  Sb  Sb12  1  0.998486  0.674589  0.000000  1
  Sb  Sb13  1  0.999490  0.999490  0.672992  1
  Sb  Sb14  1  0.674589  0.674589  0.676104  1
  Mo  Mo15  1  0.999260  0.339632  0.340372  1
  Mo  Mo16  1  0.999260  0.658887  0.659628  1
  Mo  Mo17  1  0.658887  0.999260  0.659628  1
  Mo  Mo18  1  0.339632  0.999260  0.340372  1
  Mo  Mo19  1  0.647491  0.647491  0.000000  1
