# generated using pymatgen
data_Y7Tm(Si3Pt)4
_symmetry_space_group_name_H-M   'P 1'
_cell_length_a   8.13933512
_cell_length_b   8.14951833
_cell_length_c   8.18396900
_cell_angle_alpha   90.00000000
_cell_angle_beta   90.00000000
_cell_angle_gamma   120.04139014
_symmetry_Int_Tables_number   1
_chemical_formula_structural   Y7Tm(Si3Pt)4
_chemical_formula_sum   'Y7 Tm1 Si12 Pt4'
_cell_volume   469.93110729
_cell_formula_units_Z   1
loop_
 _symmetry_equiv_pos_site_id
 _symmetry_equiv_pos_as_xyz
  1  'x, y, z'
loop_
 _atom_site_type_symbol
 _atom_site_label
 _atom_site_symmetry_multiplicity
 _atom_site_fract_x
 _atom_site_fract_y
 _atom_site_fract_z
 _atom_site_occupancy
  Y  Y0  1  0.999997  0.999999  0.250000  1
  Y  Y1  1  0.999994  0.999997  0.750000  1
  Y  Y2  1  0.499066  0.500909  0.250000  1
  Y  Y3  1  0.500908  0.001813  0.750000  1
  Y  Y4  1  0.499066  0.998155  0.250000  1
  Y  Y5  1  0.500908  0.499097  0.750000  1
  Y  Y6  1  0.998183  0.499093  0.750000  1
  Tm  Tm7  1  0.001878  0.500938  0.250000  1
  Si  Si8  1  0.165407  0.331154  0.999420  1
  Si  Si9  1  0.668935  0.834467  0.999086  1
  Si  Si10  1  0.165407  0.331154  0.500580  1
  Si  Si11  1  0.331061  0.165531  0.000890  1
  Si  Si12  1  0.165407  0.834252  0.999420  1
  Si  Si13  1  0.668935  0.834467  0.500914  1
  Si  Si14  1  0.834592  0.668849  0.001228  1
  Si  Si15  1  0.331061  0.165531  0.499110  1
  Si  Si16  1  0.165407  0.834252  0.500580  1
  Si  Si17  1  0.834592  0.668849  0.498772  1
  Si  Si18  1  0.834592  0.165744  0.001228  1
  Si  Si19  1  0.834592  0.165744  0.498772  1
  Pt  Pt20  1  0.332523  0.666262  0.999456  1
  Pt  Pt21  1  0.332523  0.666262  0.500544  1
  Pt  Pt22  1  0.667483  0.333741  0.002175  1
  Pt  Pt23  1  0.667483  0.333741  0.497825  1
