# generated using pymatgen
data_PrHo2TaO7
_symmetry_space_group_name_H-M   'P 1'
_cell_length_a   6.51721637
_cell_length_b   6.51721614
_cell_length_c   7.59965200
_cell_angle_alpha   90.00000000
_cell_angle_beta   90.00000000
_cell_angle_gamma   109.00981145
_symmetry_Int_Tables_number   1
_chemical_formula_structural   PrHo2TaO7
_chemical_formula_sum   'Pr2 Ho4 Ta2 O14'
_cell_volume   305.18446325
_cell_formula_units_Z   2
loop_
 _symmetry_equiv_pos_site_id
 _symmetry_equiv_pos_as_xyz
  1  'x, y, z'
loop_
 _atom_site_type_symbol
 _atom_site_label
 _atom_site_symmetry_multiplicity
 _atom_site_fract_x
 _atom_site_fract_y
 _atom_site_fract_z
 _atom_site_occupancy
  Pr  Pr0  1  0.516088  0.516088  0.500000  1
  Pr  Pr1  1  0.483912  0.483912  0.000000  1
  Ho  Ho2  1  0.000943  0.533313  0.244163  1
  Ho  Ho3  1  0.999057  0.466687  0.744163  1
  Ho  Ho4  1  0.533313  0.000943  0.755837  1
  Ho  Ho5  1  0.466687  0.999057  0.255837  1
  Ta  Ta6  1  0.001709  0.001709  0.500000  1
  Ta  Ta7  1  0.998291  0.998291  0.000000  1
  O  O8  1  0.935021  0.064979  0.750000  1
  O  O9  1  0.064979  0.935021  0.250000  1
  O  O10  1  0.354825  0.645175  0.250000  1
  O  O11  1  0.645175  0.354825  0.750000  1
  O  O12  1  0.361921  0.638079  0.750000  1
  O  O13  1  0.638079  0.361921  0.250000  1
  O  O14  1  0.323924  0.073077  0.973014  1
  O  O15  1  0.676076  0.926923  0.473014  1
  O  O16  1  0.313675  0.059621  0.540158  1
  O  O17  1  0.686325  0.940379  0.040158  1
  O  O18  1  0.059621  0.313675  0.459842  1
  O  O19  1  0.940379  0.686325  0.959842  1
  O  O20  1  0.926923  0.676076  0.526986  1
  O  O21  1  0.073077  0.323924  0.026986  1
