# generated using pymatgen
data_La6OsAuI6
_symmetry_space_group_name_H-M   'P 1'
_cell_length_a   11.20833917
_cell_length_b   11.20833837
_cell_length_c   10.98698153
_cell_angle_alpha   109.36573172
_cell_angle_beta   109.36573293
_cell_angle_gamma   110.48142879
_symmetry_Int_Tables_number   1
_chemical_formula_structural   La6OsAuI6
_chemical_formula_sum   'La12 Os2 Au2 I12'
_cell_volume   1051.81413707
_cell_formula_units_Z   2
loop_
 _symmetry_equiv_pos_site_id
 _symmetry_equiv_pos_as_xyz
  1  'x, y, z'
loop_
 _atom_site_type_symbol
 _atom_site_label
 _atom_site_symmetry_multiplicity
 _atom_site_fract_x
 _atom_site_fract_y
 _atom_site_fract_z
 _atom_site_occupancy
  La  La0  1  0.460589  0.489238  0.223607  1
  La  La1  1  0.765632  0.236983  0.276393  1
  La  La2  1  0.768895  0.030121  0.489023  1
  La  La3  1  0.220128  0.458901  0.489023  1
  La  La4  1  0.263017  0.734368  0.223607  1
  La  La5  1  0.041099  0.279872  0.010977  1
  La  La6  1  0.010762  0.039411  0.276393  1
  La  La7  1  0.469879  0.731105  0.010977  1
  La  La8  1  0.484237  0.234237  0.468473  1
  La  La9  1  0.020961  0.479039  0.750000  1
  La  La10  1  0.265763  0.015763  0.031527  1
  La  La11  1  0.229039  0.270961  0.750000  1
  Os  Os12  1  0.999721  0.249721  0.499441  1
  Os  Os13  1  0.250279  0.500279  0.000559  1
  Au  Au14  1  0.249968  0.250032  0.250000  1
  Au  Au15  1  0.500032  0.999968  0.250000  1
  I  I16  1  0.251207  0.760322  0.742642  1
  I  I17  1  0.517680  0.508566  0.757358  1
  I  I18  1  0.985574  0.742678  0.992964  1
  I  I19  1  0.739678  0.248793  0.757358  1
  I  I20  1  0.991434  0.982320  0.742642  1
  I  I21  1  0.249713  0.992610  0.507036  1
  I  I22  1  0.757322  0.514426  0.507036  1
  I  I23  1  0.507390  0.250287  0.992964  1
  I  I24  1  0.758687  0.741313  0.250000  1
  I  I25  1  0.742520  0.992520  0.985039  1
  I  I26  1  0.991313  0.508687  0.250000  1
  I  I27  1  0.507480  0.757480  0.514961  1
