# generated using pymatgen
data_Tb12InFe2TcAg
_symmetry_space_group_name_H-M   'P 1'
_cell_length_a   8.36237925
_cell_length_b   8.36252942
_cell_length_c   8.36238000
_cell_angle_alpha   110.53313537
_cell_angle_beta   107.12527992
_cell_angle_gamma   110.77973619
_symmetry_Int_Tables_number   1
_chemical_formula_structural   Tb12InFe2TcAg
_chemical_formula_sum   'Tb12 In1 Fe2 Tc1 Ag1'
_cell_volume   449.60804405
_cell_formula_units_Z   1
loop_
 _symmetry_equiv_pos_site_id
 _symmetry_equiv_pos_as_xyz
  1  'x, y, z'
loop_
 _atom_site_type_symbol
 _atom_site_label
 _atom_site_symmetry_multiplicity
 _atom_site_fract_x
 _atom_site_fract_y
 _atom_site_fract_z
 _atom_site_occupancy
  Tb  Tb0  1  0.309154  0.307874  0.617018  1
  Tb  Tb1  1  0.690846  0.692126  0.382982  1
  Tb  Tb2  1  0.690857  0.307874  0.998720  1
  Tb  Tb3  1  0.309143  0.692126  0.001280  1
  Tb  Tb4  1  0.194767  0.447384  0.252617  1
  Tb  Tb5  1  0.805233  0.552616  0.747383  1
  Tb  Tb6  1  0.194765  0.942128  0.747364  1
  Tb  Tb7  1  0.960517  0.191504  0.768971  1
  Tb  Tb8  1  0.805235  0.057872  0.252636  1
  Tb  Tb9  1  0.039483  0.808496  0.231029  1
  Tb  Tb10  1  0.422532  0.191504  0.230986  1
  Tb  Tb11  1  0.577468  0.808496  0.769014  1
  In  In12  1  0.500000  0.000000  0.500000  1
  Fe  Fe13  1  0.383818  0.383746  0.999928  1
  Fe  Fe14  1  0.616182  0.616254  0.000072  1
  Tc  Tc15  1  0.000000  0.000000  0.000000  1
  Ag  Ag16  1  0.000000  0.500000  0.500000  1
