# generated using pymatgen
data_Lu4Sc4Ga3Fe
_symmetry_space_group_name_H-M   'P 1'
_cell_length_a   9.53086000
_cell_length_b   9.53085924
_cell_length_c   6.90311600
_cell_angle_alpha   90.00000000
_cell_angle_beta   90.00000000
_cell_angle_gamma   120.00000264
_symmetry_Int_Tables_number   1
_chemical_formula_structural   Lu4Sc4Ga3Fe
_chemical_formula_sum   'Lu8 Sc8 Ga6 Fe2'
_cell_volume   543.05014890
_cell_formula_units_Z   2
loop_
 _symmetry_equiv_pos_site_id
 _symmetry_equiv_pos_as_xyz
  1  'x, y, z'
loop_
 _atom_site_type_symbol
 _atom_site_label
 _atom_site_symmetry_multiplicity
 _atom_site_fract_x
 _atom_site_fract_y
 _atom_site_fract_z
 _atom_site_occupancy
  Lu  Lu0  1  0.465348  0.534652  0.211756  1
  Lu  Lu1  1  0.069302  0.534652  0.211756  1
  Lu  Lu2  1  0.465348  0.930698  0.211756  1
  Lu  Lu3  1  0.534652  0.465348  0.711756  1
  Lu  Lu4  1  0.930698  0.465348  0.711756  1
  Lu  Lu5  1  0.534652  0.069302  0.711756  1
  Lu  Lu6  1  0.000000  0.000000  0.230608  1
  Lu  Lu7  1  0.000000  0.000000  0.730608  1
  Sc  Sc8  1  0.175186  0.824814  0.513562  1
  Sc  Sc9  1  0.649629  0.824814  0.513562  1
  Sc  Sc10  1  0.175186  0.350371  0.513562  1
  Sc  Sc11  1  0.824814  0.175186  0.013562  1
  Sc  Sc12  1  0.350371  0.175186  0.013562  1
  Sc  Sc13  1  0.824814  0.649629  0.013562  1
  Sc  Sc14  1  0.333333  0.666667  0.822233  1
  Sc  Sc15  1  0.666667  0.333333  0.322233  1
  Ga  Ga16  1  0.164140  0.835860  0.949954  1
  Ga  Ga17  1  0.671718  0.835860  0.949954  1
  Ga  Ga18  1  0.164140  0.328282  0.949954  1
  Ga  Ga19  1  0.835860  0.164140  0.449954  1
  Ga  Ga20  1  0.328282  0.164140  0.449954  1
  Ga  Ga21  1  0.835860  0.671718  0.449954  1
  Fe  Fe22  1  0.333333  0.666667  0.458362  1
  Fe  Fe23  1  0.666667  0.333333  0.958362  1
