# generated using pymatgen
data_Tb4B16Ir3Rh
_symmetry_space_group_name_H-M   'P 1'
_cell_length_a   7.02625128
_cell_length_b   7.02621211
_cell_length_c   7.02594694
_cell_angle_alpha   111.50269248
_cell_angle_beta   111.70040356
_cell_angle_gamma   105.29982985
_symmetry_Int_Tables_number   1
_chemical_formula_structural   Tb4B16Ir3Rh
_chemical_formula_sum   'Tb4 B16 Ir3 Rh1'
_cell_volume   265.92255941
_cell_formula_units_Z   1
loop_
 _symmetry_equiv_pos_site_id
 _symmetry_equiv_pos_as_xyz
  1  'x, y, z'
loop_
 _atom_site_type_symbol
 _atom_site_label
 _atom_site_symmetry_multiplicity
 _atom_site_fract_x
 _atom_site_fract_y
 _atom_site_fract_z
 _atom_site_occupancy
  Tb  Tb0  1  0.216977  0.215403  0.001618  1
  Tb  Tb1  1  0.786249  0.784680  0.001695  1
  Tb  Tb2  1  0.749202  0.249175  0.499997  1
  Tb  Tb3  1  0.250781  0.750831  0.499973  1
  B  B4  1  0.107506  0.262393  0.369880  1
  B  B5  1  0.893174  0.736434  0.629607  1
  B  B6  1  0.893178  0.263676  0.156835  1
  B  B7  1  0.107490  0.737517  0.845038  1
  B  B8  1  0.734941  0.892776  0.627721  1
  B  B9  1  0.264667  0.107024  0.371674  1
  B  B10  1  0.734878  0.107249  0.842153  1
  B  B11  1  0.264786  0.892948  0.157718  1
  B  B12  1  0.414261  0.413747  0.525170  1
  B  B13  1  0.888380  0.887706  0.473218  1
  B  B14  1  0.585540  0.112274  0.000723  1
  B  B15  1  0.111407  0.586228  0.000481  1
  B  B16  1  0.585496  0.584824  0.473166  1
  B  B17  1  0.111403  0.110873  0.525117  1
  B  B18  1  0.888452  0.415192  0.000744  1
  B  B19  1  0.414256  0.889070  0.000489  1
  Ir  Ir20  1  0.499131  0.260280  0.759356  1
  Ir  Ir21  1  0.499098  0.739741  0.238899  1
  Ir  Ir22  1  0.741621  0.500008  0.241678  1
  Rh  Rh23  1  0.257132  0.499952  0.757049  1
