# generated using pymatgen
data_Sm6TiMn2NbC12
_symmetry_space_group_name_H-M   'P 1'
_cell_length_a   8.29832700
_cell_length_b   8.29832712
_cell_length_c   5.12639500
_cell_angle_alpha   90.00000000
_cell_angle_beta   90.00000000
_cell_angle_gamma   119.99998755
_symmetry_Int_Tables_number   1
_chemical_formula_structural   Sm6TiMn2NbC12
_chemical_formula_sum   'Sm6 Ti1 Mn2 Nb1 C12'
_cell_volume   305.71999797
_cell_formula_units_Z   1
loop_
 _symmetry_equiv_pos_site_id
 _symmetry_equiv_pos_as_xyz
  1  'x, y, z'
loop_
 _atom_site_type_symbol
 _atom_site_label
 _atom_site_symmetry_multiplicity
 _atom_site_fract_x
 _atom_site_fract_y
 _atom_site_fract_z
 _atom_site_occupancy
  Sm  Sm0  1  0.614542  0.676692  0.750856  1
  Sm  Sm1  1  0.937851  0.614542  0.249144  1
  Sm  Sm2  1  0.676692  0.062149  0.249144  1
  Sm  Sm3  1  0.323308  0.937851  0.750856  1
  Sm  Sm4  1  0.062149  0.385458  0.750856  1
  Sm  Sm5  1  0.385458  0.323308  0.249144  1
  Ti  Ti6  1  0.000000  0.000000  0.000000  1
  Mn  Mn7  1  0.666667  0.333333  0.750474  1
  Mn  Mn8  1  0.333333  0.666667  0.249526  1
  Nb  Nb9  1  0.000000  0.000000  0.500000  1
  C  C10  1  0.959875  0.758149  0.752290  1
  C  C11  1  0.201725  0.959875  0.247710  1
  C  C12  1  0.758149  0.798275  0.247710  1
  C  C13  1  0.241851  0.201725  0.752290  1
  C  C14  1  0.798275  0.040125  0.752290  1
  C  C15  1  0.040125  0.241851  0.247710  1
  C  C16  1  0.859969  0.568280  0.749930  1
  C  C17  1  0.291689  0.859969  0.250070  1
  C  C18  1  0.568280  0.708311  0.250070  1
  C  C19  1  0.431720  0.291689  0.749930  1
  C  C20  1  0.140031  0.431720  0.250070  1
  C  C21  1  0.708311  0.140031  0.749930  1
