# generated using pymatgen
data_Lu9Sc3InCo4Au
_symmetry_space_group_name_H-M   'P 1'
_cell_length_a   8.06025596
_cell_length_b   8.05017299
_cell_length_c   8.05017337
_cell_angle_alpha   110.75317512
_cell_angle_beta   111.36278477
_cell_angle_gamma   106.29467986
_symmetry_Int_Tables_number   1
_chemical_formula_structural   Lu9Sc3InCo4Au
_chemical_formula_sum   'Lu9 Sc3 In1 Co4 Au1'
_cell_volume   401.42339766
_cell_formula_units_Z   1
loop_
 _symmetry_equiv_pos_site_id
 _symmetry_equiv_pos_as_xyz
  1  'x, y, z'
loop_
 _atom_site_type_symbol
 _atom_site_label
 _atom_site_symmetry_multiplicity
 _atom_site_fract_x
 _atom_site_fract_y
 _atom_site_fract_z
 _atom_site_occupancy
  Lu  Lu0  1  0.977252  0.773942  0.203310  1
  Lu  Lu1  1  0.190978  0.289905  0.478915  1
  Lu  Lu2  1  0.809844  0.712393  0.525546  1
  Lu  Lu3  1  0.190978  0.712064  0.901074  1
  Lu  Lu4  1  0.809844  0.284298  0.097450  1
  Lu  Lu5  1  0.315452  0.613956  0.301973  1
  Lu  Lu6  1  0.684867  0.383044  0.695932  1
  Lu  Lu7  1  0.315452  0.013478  0.701497  1
  Lu  Lu8  1  0.684867  0.988935  0.301822  1
  Sc  Sc9  1  0.430485  0.223957  0.206529  1
  Sc  Sc10  1  0.568967  0.776038  0.792928  1
  Sc  Sc11  1  0.016913  0.224482  0.792432  1
  In  In12  1  0.495512  0.497377  0.998135  1
  Co  Co13  1  0.376599  0.002597  0.374001  1
  Co  Co14  1  0.629976  0.999637  0.630340  1
  Co  Co15  1  0.115692  0.614686  0.501006  1
  Co  Co16  1  0.886204  0.386092  0.500112  1
  Au  Au17  1  0.000117  0.003119  0.996998  1
