# generated using pymatgen
data_DyLu2Sn3HgRh2
_symmetry_space_group_name_H-M   'P 1'
_cell_length_a   7.70203512
_cell_length_b   7.65642960
_cell_length_c   3.85785200
_cell_angle_alpha   90.00000000
_cell_angle_beta   90.00000000
_cell_angle_gamma   119.97689315
_symmetry_Int_Tables_number   1
_chemical_formula_structural   DyLu2Sn3HgRh2
_chemical_formula_sum   'Dy1 Lu2 Sn3 Hg1 Rh2'
_cell_volume   197.06479969
_cell_formula_units_Z   1
loop_
 _symmetry_equiv_pos_site_id
 _symmetry_equiv_pos_as_xyz
  1  'x, y, z'
loop_
 _atom_site_type_symbol
 _atom_site_label
 _atom_site_symmetry_multiplicity
 _atom_site_fract_x
 _atom_site_fract_y
 _atom_site_fract_z
 _atom_site_occupancy
  Dy  Dy0  1  0.020622  0.608607  0.500000  1
  Lu  Lu1  1  0.389026  0.412522  0.500000  1
  Lu  Lu2  1  0.587990  0.976079  0.500000  1
  Sn  Sn3  1  0.740837  0.749061  0.000000  1
  Sn  Sn4  1  0.252136  0.994136  0.000000  1
  Sn  Sn5  1  0.007915  0.258793  0.000000  1
  Hg  Hg6  1  0.664072  0.331236  0.000000  1
  Rh  Rh7  1  0.337256  0.667812  0.000000  1
  Rh  Rh8  1  0.000146  0.001753  0.500000  1
