# generated using pymatgen
data_Nd8Cd2NiIr
_symmetry_space_group_name_H-M   'P 1'
_cell_length_a   9.95196889
_cell_length_b   9.95196954
_cell_length_c   9.92326800
_cell_angle_alpha   60.09535637
_cell_angle_beta   60.09535422
_cell_angle_gamma   60.45843555
_symmetry_Int_Tables_number   1
_chemical_formula_structural   Nd8Cd2NiIr
_chemical_formula_sum   'Nd16 Cd4 Ni2 Ir2'
_cell_volume   698.34284094
_cell_formula_units_Z   2
loop_
 _symmetry_equiv_pos_site_id
 _symmetry_equiv_pos_as_xyz
  1  'x, y, z'
loop_
 _atom_site_type_symbol
 _atom_site_label
 _atom_site_symmetry_multiplicity
 _atom_site_fract_x
 _atom_site_fract_y
 _atom_site_fract_z
 _atom_site_occupancy
  Nd  Nd0  1  0.346444  0.346444  0.350755  1
  Nd  Nd1  1  0.346444  0.346444  0.956357  1
  Nd  Nd2  1  0.347039  0.953858  0.349551  1
  Nd  Nd3  1  0.953858  0.347039  0.349551  1
  Nd  Nd4  1  0.811789  0.190192  0.189318  1
  Nd  Nd5  1  0.190192  0.811789  0.808700  1
  Nd  Nd6  1  0.190192  0.811789  0.189318  1
  Nd  Nd7  1  0.811789  0.190192  0.808700  1
  Nd  Nd8  1  0.190349  0.190349  0.809651  1
  Nd  Nd9  1  0.810362  0.810362  0.189638  1
  Nd  Nd10  1  0.939114  0.563944  0.559863  1
  Nd  Nd11  1  0.563944  0.939114  0.937081  1
  Nd  Nd12  1  0.563944  0.939114  0.559863  1
  Nd  Nd13  1  0.939114  0.563944  0.937081  1
  Nd  Nd14  1  0.560253  0.560253  0.939747  1
  Nd  Nd15  1  0.936637  0.936637  0.563363  1
  Cd  Cd16  1  0.580541  0.580541  0.579212  1
  Cd  Cd17  1  0.580541  0.580541  0.259705  1
  Cd  Cd18  1  0.580521  0.258765  0.580357  1
  Cd  Cd19  1  0.258765  0.580521  0.580357  1
  Ni  Ni20  1  0.141573  0.141573  0.144241  1
  Ni  Ni21  1  0.141573  0.141573  0.572612  1
  Ir  Ir22  1  0.141804  0.573214  0.142491  1
  Ir  Ir23  1  0.573214  0.141804  0.142491  1
