# generated using pymatgen
data_Nb2AlB2Os5
_symmetry_space_group_name_H-M   'P 1'
_cell_length_a   9.42065700
_cell_length_b   9.42065700
_cell_length_c   2.98835800
_cell_angle_alpha   90.00000000
_cell_angle_beta   90.00000000
_cell_angle_gamma   90.00000000
_symmetry_Int_Tables_number   1
_chemical_formula_structural   Nb2AlB2Os5
_chemical_formula_sum   'Nb4 Al2 B4 Os10'
_cell_volume   265.21312166
_cell_formula_units_Z   2
loop_
 _symmetry_equiv_pos_site_id
 _symmetry_equiv_pos_as_xyz
  1  'x, y, z'
loop_
 _atom_site_type_symbol
 _atom_site_label
 _atom_site_symmetry_multiplicity
 _atom_site_fract_x
 _atom_site_fract_y
 _atom_site_fract_z
 _atom_site_occupancy
  Nb  Nb0  1  0.822349  0.677651  0.000000  1
  Nb  Nb1  1  0.177651  0.322349  0.000000  1
  Nb  Nb2  1  0.322349  0.822349  0.000000  1
  Nb  Nb3  1  0.677651  0.177651  0.000000  1
  Al  Al4  1  0.500000  0.500000  0.000000  1
  Al  Al5  1  0.000000  0.000000  0.000000  1
  B  B6  1  0.624788  0.875212  0.000000  1
  B  B7  1  0.375212  0.124788  0.000000  1
  B  B8  1  0.124788  0.624788  0.000000  1
  B  B9  1  0.875212  0.375212  0.000000  1
  Os  Os10  1  0.567635  0.714447  0.500000  1
  Os  Os11  1  0.432365  0.285553  0.500000  1
  Os  Os12  1  0.067635  0.785553  0.500000  1
  Os  Os13  1  0.932365  0.214447  0.500000  1
  Os  Os14  1  0.285553  0.567635  0.500000  1
  Os  Os15  1  0.714447  0.432365  0.500000  1
  Os  Os16  1  0.214447  0.067635  0.500000  1
  Os  Os17  1  0.785553  0.932365  0.500000  1
  Os  Os18  1  0.500000  0.000000  0.500000  1
  Os  Os19  1  0.000000  0.500000  0.500000  1
