# generated using pymatgen
data_U2TiVN4
_symmetry_space_group_name_H-M   'P 1'
_cell_length_a   3.19351000
_cell_length_b   5.49422500
_cell_length_c   10.75167700
_cell_angle_alpha   90.00000000
_cell_angle_beta   90.00000000
_cell_angle_gamma   90.00000000
_symmetry_Int_Tables_number   1
_chemical_formula_structural   U2TiVN4
_chemical_formula_sum   'U4 Ti2 V2 N8'
_cell_volume   188.64744607
_cell_formula_units_Z   2
loop_
 _symmetry_equiv_pos_site_id
 _symmetry_equiv_pos_as_xyz
  1  'x, y, z'
loop_
 _atom_site_type_symbol
 _atom_site_label
 _atom_site_symmetry_multiplicity
 _atom_site_fract_x
 _atom_site_fract_y
 _atom_site_fract_z
 _atom_site_occupancy
  U  U0  1  0.750000  0.076469  0.858248  1
  U  U1  1  0.750000  0.579222  0.643918  1
  U  U2  1  0.250000  0.920778  0.143918  1
  U  U3  1  0.250000  0.423531  0.358248  1
  Ti  Ti4  1  0.250000  0.076783  0.598106  1
  Ti  Ti5  1  0.750000  0.423217  0.098106  1
  V  V6  1  0.250000  0.578190  0.900164  1
  V  V7  1  0.750000  0.921810  0.400164  1
  N  N8  1  0.250000  0.337761  0.746923  1
  N  N9  1  0.750000  0.162239  0.246923  1
  N  N10  1  0.250000  0.254067  0.004943  1
  N  N11  1  0.750000  0.666091  0.255652  1
  N  N12  1  0.250000  0.833909  0.755652  1
  N  N13  1  0.750000  0.743886  0.992046  1
  N  N14  1  0.750000  0.245933  0.504943  1
  N  N15  1  0.250000  0.756114  0.492046  1
