# generated using pymatgen
data_Ag2Ir2O7
_symmetry_space_group_name_H-M   'P 1'
_cell_length_a   7.22174557
_cell_length_b   7.22174540
_cell_length_c   7.22174600
_cell_angle_alpha   59.99999723
_cell_angle_beta   59.99999803
_cell_angle_gamma   59.99999260
_symmetry_Int_Tables_number   1
_chemical_formula_structural   Ag2Ir2O7
_chemical_formula_sum   'Ag4 Ir4 O14'
_cell_volume   266.32475050
_cell_formula_units_Z   2
loop_
 _symmetry_equiv_pos_site_id
 _symmetry_equiv_pos_as_xyz
  1  'x, y, z'
loop_
 _atom_site_type_symbol
 _atom_site_label
 _atom_site_symmetry_multiplicity
 _atom_site_fract_x
 _atom_site_fract_y
 _atom_site_fract_z
 _atom_site_occupancy
  Ag  Ag0  1  0.125000  0.125000  0.625000  1
  Ag  Ag1  1  0.125000  0.125000  0.125000  1
  Ag  Ag2  1  0.625000  0.125000  0.125000  1
  Ag  Ag3  1  0.125000  0.625000  0.125000  1
  Ir  Ir4  1  0.625000  0.625000  0.625000  1
  Ir  Ir5  1  0.125000  0.625000  0.625000  1
  Ir  Ir6  1  0.625000  0.125000  0.625000  1
  Ir  Ir7  1  0.625000  0.625000  0.125000  1
  O  O8  1  0.948357  0.551643  0.551643  1
  O  O9  1  0.301643  0.301643  0.698357  1
  O  O10  1  0.948357  0.551643  0.948357  1
  O  O11  1  0.698357  0.301643  0.301643  1
  O  O12  1  0.551643  0.551643  0.948357  1
  O  O13  1  0.551643  0.948357  0.551643  1
  O  O14  1  0.551643  0.948357  0.948357  1
  O  O15  1  0.250000  0.250000  0.250000  1
  O  O16  1  0.301643  0.698357  0.698357  1
  O  O17  1  0.698357  0.301643  0.698357  1
  O  O18  1  0.000000  0.000000  0.000000  1
  O  O19  1  0.948357  0.948357  0.551643  1
  O  O20  1  0.301643  0.698357  0.301643  1
  O  O21  1  0.698357  0.698357  0.301643  1
