# generated using pymatgen
data_Hf3Al2ZnPdPt2
_symmetry_space_group_name_H-M   'P 1'
_cell_length_a   7.16449267
_cell_length_b   7.13081211
_cell_length_c   7.10740330
_cell_angle_alpha   89.99999999
_cell_angle_beta   90.21143977
_cell_angle_gamma   119.84460900
_symmetry_Int_Tables_number   1
_chemical_formula_structural   Hf3Al2ZnPdPt2
_chemical_formula_sum   'Hf6 Al4 Zn2 Pd2 Pt4'
_cell_volume   314.94882858
_cell_formula_units_Z   2
loop_
 _symmetry_equiv_pos_site_id
 _symmetry_equiv_pos_as_xyz
  1  'x, y, z'
loop_
 _atom_site_type_symbol
 _atom_site_label
 _atom_site_symmetry_multiplicity
 _atom_site_fract_x
 _atom_site_fract_y
 _atom_site_fract_z
 _atom_site_occupancy
  Hf  Hf0  1  0.577875  0.975535  0.754351  1
  Hf  Hf1  1  0.021809  0.606863  0.753941  1
  Hf  Hf2  1  0.400108  0.419021  0.755739  1
  Hf  Hf3  1  0.978191  0.585053  0.246059  1
  Hf  Hf4  1  0.599892  0.018912  0.244261  1
  Hf  Hf5  1  0.422125  0.397661  0.245649  1
  Al  Al6  1  0.000000  0.252843  0.000000  1
  Al  Al7  1  0.738584  0.739784  0.500623  1
  Al  Al8  1  0.261416  0.001200  0.499377  1
  Al  Al9  1  0.000000  0.263626  0.500000  1
  Zn  Zn10  1  0.736556  0.739236  0.999432  1
  Zn  Zn11  1  0.263444  0.002679  0.000568  1
  Pd  Pd12  1  0.000835  0.003641  0.744095  1
  Pd  Pd13  1  0.999165  0.002806  0.255905  1
  Pt  Pt14  1  0.674048  0.332910  0.970958  1
  Pt  Pt15  1  0.666575  0.332971  0.530109  1
  Pt  Pt16  1  0.333425  0.666396  0.469892  1
  Pt  Pt17  1  0.325952  0.658864  0.029042  1
