# generated using pymatgen
data_BaMgNiH4
_symmetry_space_group_name_H-M   'P 1'
_cell_length_a   7.15032100
_cell_length_b   7.15032100
_cell_length_c   7.15032100
_cell_angle_alpha   90.00000000
_cell_angle_beta   90.00000000
_cell_angle_gamma   90.00000000
_symmetry_Int_Tables_number   1
_chemical_formula_structural   BaMgNiH4
_chemical_formula_sum   'Ba4 Mg4 Ni4 H16'
_cell_volume   365.57510818
_cell_formula_units_Z   4
loop_
 _symmetry_equiv_pos_site_id
 _symmetry_equiv_pos_as_xyz
  1  'x, y, z'
loop_
 _atom_site_type_symbol
 _atom_site_label
 _atom_site_symmetry_multiplicity
 _atom_site_fract_x
 _atom_site_fract_y
 _atom_site_fract_z
 _atom_site_occupancy
  Ba  Ba0  1  0.159191  0.659191  0.840809  1
  Ba  Ba1  1  0.659191  0.840809  0.159191  1
  Ba  Ba2  1  0.840809  0.159191  0.659191  1
  Ba  Ba3  1  0.340809  0.340809  0.340809  1
  Mg  Mg4  1  0.852879  0.352879  0.147121  1
  Mg  Mg5  1  0.352879  0.147121  0.852879  1
  Mg  Mg6  1  0.147121  0.852879  0.352879  1
  Mg  Mg7  1  0.647121  0.647121  0.647121  1
  Ni  Ni8  1  0.428122  0.928122  0.571878  1
  Ni  Ni9  1  0.928122  0.571878  0.428122  1
  Ni  Ni10  1  0.571878  0.428122  0.928122  1
  Ni  Ni11  1  0.071878  0.071878  0.071878  1
  H  H12  1  0.558898  0.058898  0.441102  1
  H  H13  1  0.058898  0.441102  0.558898  1
  H  H14  1  0.441102  0.558898  0.058898  1
  H  H15  1  0.941102  0.941102  0.941102  1
  H  H16  1  0.269819  0.969497  0.092873  1
  H  H17  1  0.907127  0.769819  0.530503  1
  H  H18  1  0.469497  0.407127  0.730181  1
  H  H19  1  0.769819  0.530503  0.907127  1
  H  H20  1  0.407127  0.730181  0.469497  1
  H  H21  1  0.969497  0.092873  0.269819  1
  H  H22  1  0.730181  0.469497  0.407127  1
  H  H23  1  0.092873  0.269819  0.969497  1
  H  H24  1  0.530503  0.907127  0.769819  1
  H  H25  1  0.230181  0.030503  0.592873  1
  H  H26  1  0.592873  0.230181  0.030503  1
  H  H27  1  0.030503  0.592873  0.230181  1
