# generated using pymatgen
data_Nd2AlOsI
_symmetry_space_group_name_H-M   'P 1'
_cell_length_a   4.34774400
_cell_length_b   4.34774385
_cell_length_c   17.48527100
_cell_angle_alpha   90.00000000
_cell_angle_beta   90.00000000
_cell_angle_gamma   120.00001638
_symmetry_Int_Tables_number   1
_chemical_formula_structural   Nd2AlOsI
_chemical_formula_sum   'Nd4 Al2 Os2 I2'
_cell_volume   286.24034153
_cell_formula_units_Z   2
loop_
 _symmetry_equiv_pos_site_id
 _symmetry_equiv_pos_as_xyz
  1  'x, y, z'
loop_
 _atom_site_type_symbol
 _atom_site_label
 _atom_site_symmetry_multiplicity
 _atom_site_fract_x
 _atom_site_fract_y
 _atom_site_fract_z
 _atom_site_occupancy
  Nd  Nd0  1  0.000000  0.000000  0.395308  1
  Nd  Nd1  1  0.000000  0.000000  0.895308  1
  Nd  Nd2  1  0.000000  0.000000  0.604759  1
  Nd  Nd3  1  0.000000  0.000000  0.104759  1
  Al  Al4  1  0.333333  0.666667  0.500466  1
  Al  Al5  1  0.666667  0.333333  0.000466  1
  Os  Os6  1  0.666667  0.333333  0.499951  1
  Os  Os7  1  0.333333  0.666667  0.999951  1
  I  I8  1  0.333333  0.666667  0.249517  1
  I  I9  1  0.666667  0.333333  0.749517  1
