# generated using pymatgen
data_ZnPt4Pb3O14
_symmetry_space_group_name_H-M   'P 1'
_cell_length_a   7.37637823
_cell_length_b   7.25261093
_cell_length_c   7.37637700
_cell_angle_alpha   59.43386454
_cell_angle_beta   60.00000103
_cell_angle_gamma   59.43386419
_symmetry_Int_Tables_number   1
_chemical_formula_structural   ZnPt4Pb3O14
_chemical_formula_sum   'Zn1 Pt4 Pb3 O14'
_cell_volume   276.62782229
_cell_formula_units_Z   1
loop_
 _symmetry_equiv_pos_site_id
 _symmetry_equiv_pos_as_xyz
  1  'x, y, z'
loop_
 _atom_site_type_symbol
 _atom_site_label
 _atom_site_symmetry_multiplicity
 _atom_site_fract_x
 _atom_site_fract_y
 _atom_site_fract_z
 _atom_site_occupancy
  Zn  Zn0  1  0.625000  0.125000  0.625000  1
  Pt  Pt1  1  0.125000  0.125000  0.625000  1
  Pt  Pt2  1  0.125000  0.625000  0.125000  1
  Pt  Pt3  1  0.625000  0.125000  0.125000  1
  Pt  Pt4  1  0.125000  0.125000  0.125000  1
  Pb  Pb5  1  0.625000  0.625000  0.125000  1
  Pb  Pb6  1  0.125000  0.625000  0.625000  1
  Pb  Pb7  1  0.625000  0.625000  0.625000  1
  O  O8  1  0.509766  0.470703  0.509766  1
  O  O9  1  0.740234  0.779297  0.740234  1
  O  O10  1  0.457624  0.047241  0.457624  1
  O  O11  1  0.209228  0.789573  0.209228  1
  O  O12  1  0.458029  0.460427  0.040772  1
  O  O13  1  0.040772  0.460427  0.458029  1
  O  O14  1  0.457624  0.047241  0.037512  1
  O  O15  1  0.037512  0.047241  0.457624  1
  O  O16  1  0.040772  0.460427  0.040772  1
  O  O17  1  0.792376  0.202759  0.212488  1
  O  O18  1  0.209228  0.789573  0.791971  1
  O  O19  1  0.792376  0.202759  0.792376  1
  O  O20  1  0.212488  0.202759  0.792376  1
  O  O21  1  0.791971  0.789573  0.209228  1
