# generated using pymatgen
data_Tb8In3Tc
_symmetry_space_group_name_H-M   'P 1'
_cell_length_a   10.45575328
_cell_length_b   10.45229124
_cell_length_c   7.11763700
_cell_angle_alpha   90.00317861
_cell_angle_beta   89.99617482
_cell_angle_gamma   119.98508583
_symmetry_Int_Tables_number   1
_chemical_formula_structural   Tb8In3Tc
_chemical_formula_sum   'Tb16 In6 Tc2'
_cell_volume   673.74963646
_cell_formula_units_Z   2
loop_
 _symmetry_equiv_pos_site_id
 _symmetry_equiv_pos_as_xyz
  1  'x, y, z'
loop_
 _atom_site_type_symbol
 _atom_site_label
 _atom_site_symmetry_multiplicity
 _atom_site_fract_x
 _atom_site_fract_y
 _atom_site_fract_z
 _atom_site_occupancy
  Tb  Tb0  1  0.823042  0.646135  0.493656  1
  Tb  Tb1  1  0.353809  0.176904  0.493747  1
  Tb  Tb2  1  0.823077  0.176906  0.493631  1
  Tb  Tb3  1  0.176971  0.353887  0.993641  1
  Tb  Tb4  1  0.646161  0.823081  0.993649  1
  Tb  Tb5  1  0.176956  0.823077  0.993668  1
  Tb  Tb6  1  0.666646  0.333336  0.164095  1
  Tb  Tb7  1  0.333352  0.666670  0.664152  1
  Tb  Tb8  1  0.533229  0.066407  0.792411  1
  Tb  Tb9  1  0.933611  0.466780  0.792428  1
  Tb  Tb10  1  0.533177  0.466814  0.792464  1
  Tb  Tb11  1  0.466772  0.933546  0.292369  1
  Tb  Tb12  1  0.066456  0.533231  0.292408  1
  Tb  Tb13  1  0.466767  0.533226  0.292369  1
  Tb  Tb14  1  0.999958  0.999993  0.771088  1
  Tb  Tb15  1  0.000055  0.000050  0.271155  1
  In  In16  1  0.837128  0.674252  0.035844  1
  In  In17  1  0.325761  0.162849  0.035809  1
  In  In18  1  0.837098  0.162876  0.035787  1
  In  In19  1  0.162875  0.325776  0.535831  1
  In  In20  1  0.674188  0.837118  0.535703  1
  In  In21  1  0.162898  0.837095  0.535768  1
  Tc  Tc22  1  0.666679  0.333337  0.562190  1
  Tc  Tc23  1  0.333333  0.666653  0.062211  1
