# generated using pymatgen
data_Li2Tb7Y(Si6Pd)2
_symmetry_space_group_name_H-M   'P 1'
_cell_length_a   8.15595200
_cell_length_b   8.15595096
_cell_length_c   8.12896700
_cell_angle_alpha   90.00000000
_cell_angle_beta   90.00000000
_cell_angle_gamma   119.99999611
_symmetry_Int_Tables_number   1
_chemical_formula_structural   Li2Tb7Y(Si6Pd)2
_chemical_formula_sum   'Li2 Tb7 Y1 Si12 Pd2'
_cell_volume   468.29042307
_cell_formula_units_Z   1
loop_
 _symmetry_equiv_pos_site_id
 _symmetry_equiv_pos_as_xyz
  1  'x, y, z'
loop_
 _atom_site_type_symbol
 _atom_site_label
 _atom_site_symmetry_multiplicity
 _atom_site_fract_x
 _atom_site_fract_y
 _atom_site_fract_z
 _atom_site_occupancy
  Li  Li0  1  0.333333  0.666667  0.002472  1
  Li  Li1  1  0.666667  0.333333  0.997520  1
  Tb  Tb2  1  0.500775  0.001550  0.250144  1
  Tb  Tb3  1  0.499223  0.998446  0.749867  1
  Tb  Tb4  1  0.998450  0.499225  0.250144  1
  Tb  Tb5  1  0.001554  0.500777  0.749867  1
  Tb  Tb6  1  0.500775  0.499225  0.250144  1
  Tb  Tb7  1  0.499223  0.500777  0.749867  1
  Tb  Tb8  1  0.000000  0.000000  0.247270  1
  Y  Y9  1  0.000000  0.000000  0.752724  1
  Si  Si10  1  0.167550  0.335100  0.998175  1
  Si  Si11  1  0.832449  0.664898  0.001814  1
  Si  Si12  1  0.664900  0.832450  0.998175  1
  Si  Si13  1  0.834167  0.668335  0.502018  1
  Si  Si14  1  0.335102  0.167551  0.001814  1
  Si  Si15  1  0.165834  0.331668  0.497986  1
  Si  Si16  1  0.167550  0.832450  0.998175  1
  Si  Si17  1  0.331665  0.165833  0.502018  1
  Si  Si18  1  0.832449  0.167551  0.001814  1
  Si  Si19  1  0.668332  0.834166  0.497986  1
  Si  Si20  1  0.834167  0.165833  0.502018  1
  Si  Si21  1  0.165834  0.834166  0.497986  1
  Pd  Pd22  1  0.666667  0.333333  0.501632  1
  Pd  Pd23  1  0.333333  0.666667  0.498368  1
