# generated using pymatgen
data_LaPr9(Ga2Ru3)2
_symmetry_space_group_name_H-M   'P 1'
_cell_length_a   8.65973762
_cell_length_b   8.58661896
_cell_length_c   8.58662000
_cell_angle_alpha   108.95053882
_cell_angle_beta   109.73672736
_cell_angle_gamma   109.38098222
_symmetry_Int_Tables_number   1
_chemical_formula_structural   LaPr9(Ga2Ru3)2
_chemical_formula_sum   'La1 Pr9 Ga4 Ru6'
_cell_volume   493.57085115
_cell_formula_units_Z   1
loop_
 _symmetry_equiv_pos_site_id
 _symmetry_equiv_pos_as_xyz
  1  'x, y, z'
loop_
 _atom_site_type_symbol
 _atom_site_label
 _atom_site_symmetry_multiplicity
 _atom_site_fract_x
 _atom_site_fract_y
 _atom_site_fract_z
 _atom_site_occupancy
  La  La0  1  0.250000  0.691027  0.441027  1
  Pr  Pr1  1  0.750000  0.813758  0.063758  1
  Pr  Pr2  1  0.437133  0.252879  0.687315  1
  Pr  Pr3  1  0.684431  0.435875  0.249331  1
  Pr  Pr4  1  0.062867  0.750181  0.815746  1
  Pr  Pr5  1  0.815569  0.064899  0.751444  1
  Pr  Pr6  1  0.216199  0.215799  0.217581  1
  Pr  Pr7  1  0.502393  0.000433  0.285533  1
  Pr  Pr8  1  0.283801  0.501381  0.999600  1
  Pr  Pr9  1  0.997607  0.283139  0.498040  1
  Ga  Ga10  1  0.590036  0.589628  0.587819  1
  Ga  Ga11  1  0.499584  0.001534  0.913652  1
  Ga  Ga12  1  0.909964  0.497782  0.999592  1
  Ga  Ga13  1  0.000416  0.914067  0.501950  1
  Ru  Ru14  1  0.250000  0.120812  0.870812  1
  Ru  Ru15  1  0.750000  0.379292  0.629292  1
  Ru  Ru16  1  0.865991  0.243790  0.117222  1
  Ru  Ru17  1  0.124590  0.862618  0.254463  1
  Ru  Ru18  1  0.634008  0.751229  0.377798  1
  Ru  Ru19  1  0.375410  0.629873  0.738029  1
