# generated using pymatgen
data_Ho2HfTiF14
_symmetry_space_group_name_H-M   'P 1'
_cell_length_a   5.59112500
_cell_length_b   8.90242824
_cell_length_c   11.94361700
_cell_angle_alpha   63.37020536
_cell_angle_beta   90.00000000
_cell_angle_gamma   90.00000000
_symmetry_Int_Tables_number   1
_chemical_formula_structural   Ho2HfTiF14
_chemical_formula_sum   'Ho4 Hf2 Ti2 F28'
_cell_volume   531.42603254
_cell_formula_units_Z   2
loop_
 _symmetry_equiv_pos_site_id
 _symmetry_equiv_pos_as_xyz
  1  'x, y, z'
loop_
 _atom_site_type_symbol
 _atom_site_label
 _atom_site_symmetry_multiplicity
 _atom_site_fract_x
 _atom_site_fract_y
 _atom_site_fract_z
 _atom_site_occupancy
  Ho  Ho0  1  0.756321  0.811178  0.763661  1
  Ho  Ho1  1  0.256321  0.188822  0.736339  1
  Ho  Ho2  1  0.241597  0.189027  0.227089  1
  Ho  Ho3  1  0.741597  0.810973  0.272911  1
  Hf  Hf4  1  0.245209  0.730288  0.042634  1
  Hf  Hf5  1  0.745209  0.269712  0.457366  1
  Ti  Ti6  1  0.754266  0.276951  0.952856  1
  Ti  Ti7  1  0.254266  0.723049  0.547144  1
  F  F8  1  0.457833  0.709065  0.916512  1
  F  F9  1  0.957833  0.290935  0.583488  1
  F  F10  1  0.543333  0.293333  0.070658  1
  F  F11  1  0.043333  0.706667  0.429342  1
  F  F12  1  0.447819  0.278882  0.548867  1
  F  F13  1  0.947819  0.721118  0.951133  1
  F  F14  1  0.531537  0.715730  0.454810  1
  F  F15  1  0.031537  0.284270  0.045190  1
  F  F16  1  0.769851  0.514090  0.861789  1
  F  F17  1  0.269851  0.485910  0.638211  1
  F  F18  1  0.232199  0.479193  0.142024  1
  F  F19  1  0.732199  0.520807  0.357976  1
  F  F20  1  0.755831  0.044085  0.045641  1
  F  F21  1  0.255831  0.955915  0.454359  1
  F  F22  1  0.242708  0.980402  0.943999  1
  F  F23  1  0.742708  0.019598  0.556001  1
  F  F24  1  0.991963  0.725778  0.646473  1
  F  F25  1  0.491963  0.274222  0.853527  1
  F  F26  1  0.028085  0.261691  0.356450  1
  F  F27  1  0.528085  0.738309  0.143550  1
  F  F28  1  0.038874  0.754565  0.172802  1
  F  F29  1  0.538874  0.245435  0.327198  1
  F  F30  1  0.959580  0.259487  0.831184  1
  F  F31  1  0.459580  0.740513  0.668816  1
  F  F32  1  0.428567  0.973955  0.232972  1
  F  F33  1  0.928567  0.026045  0.267028  1
  F  F34  1  0.574429  0.026886  0.765409  1
  F  F35  1  0.074429  0.973114  0.734591  1
