# generated using pymatgen
data_Dy(NpI4)3
_symmetry_space_group_name_H-M   'P 1'
_cell_length_a   13.38837998
_cell_length_b   7.95237804
_cell_length_c   9.00822800
_cell_angle_alpha   64.59194681
_cell_angle_beta   90.28871873
_cell_angle_gamma   89.96409036
_symmetry_Int_Tables_number   1
_chemical_formula_structural   Dy(NpI4)3
_chemical_formula_sum   'Dy1 Np3 I12'
_cell_volume   866.31696877
_cell_formula_units_Z   1
loop_
 _symmetry_equiv_pos_site_id
 _symmetry_equiv_pos_as_xyz
  1  'x, y, z'
loop_
 _atom_site_type_symbol
 _atom_site_label
 _atom_site_symmetry_multiplicity
 _atom_site_fract_x
 _atom_site_fract_y
 _atom_site_fract_z
 _atom_site_occupancy
  Dy  Dy0  1  0.167683  0.929952  0.030024  1
  Np  Np1  1  0.331497  0.429570  0.026959  1
  Np  Np2  1  0.834314  0.070150  0.972360  1
  Np  Np3  1  0.667116  0.569979  0.970695  1
  I  I4  1  0.526814  0.273193  0.227316  1
  I  I5  1  0.032078  0.223171  0.778965  1
  I  I6  1  0.472495  0.726278  0.769658  1
  I  I7  1  0.979063  0.770247  0.223337  1
  I  I8  1  0.339039  0.182458  0.834720  1
  I  I9  1  0.840924  0.304553  0.174489  1
  I  I10  1  0.661320  0.810498  0.170291  1
  I  I11  1  0.158490  0.701436  0.831972  1
  I  I12  1  0.197509  0.111231  0.266387  1
  I  I13  1  0.699828  0.388528  0.728957  1
  I  I14  1  0.796513  0.895409  0.726060  1
  I  I15  1  0.295316  0.613350  0.267811  1
