# generated using pymatgen
data_LaHo5TmCoI12
_symmetry_space_group_name_H-M   'P 1'
_cell_length_a   9.74962971
_cell_length_b   9.74900849
_cell_length_c   9.75200164
_cell_angle_alpha   106.19966797
_cell_angle_beta   106.22077136
_cell_angle_gamma   106.15530679
_symmetry_Int_Tables_number   1
_chemical_formula_structural   LaHo5TmCoI12
_chemical_formula_sum   'La1 Ho5 Tm1 Co1 I12'
_cell_volume   788.34569352
_cell_formula_units_Z   1
loop_
 _symmetry_equiv_pos_site_id
 _symmetry_equiv_pos_as_xyz
  1  'x, y, z'
loop_
 _atom_site_type_symbol
 _atom_site_label
 _atom_site_symmetry_multiplicity
 _atom_site_fract_x
 _atom_site_fract_y
 _atom_site_fract_z
 _atom_site_occupancy
  La  La0  1  0.998309  0.998143  0.998313  1
  Ho  Ho1  1  0.515016  0.586367  0.781368  1
  Ho  Ho2  1  0.781386  0.514618  0.587121  1
  Ho  Ho3  1  0.586996  0.781695  0.515210  1
  Ho  Ho4  1  0.482308  0.410000  0.216235  1
  Ho  Ho5  1  0.216088  0.482159  0.410518  1
  Tm  Tm6  1  0.411851  0.219874  0.482676  1
  Co  Co7  1  0.499022  0.499222  0.498881  1
  I  I8  1  0.276409  0.824740  0.426875  1
  I  I9  1  0.426307  0.274959  0.822560  1
  I  I10  1  0.824098  0.426526  0.276021  1
  I  I11  1  0.719802  0.173357  0.570475  1
  I  I12  1  0.571035  0.721684  0.174116  1
  I  I13  1  0.173736  0.570957  0.721841  1
  I  I14  1  0.048372  0.124988  0.354074  1
  I  I15  1  0.353507  0.046710  0.126355  1
  I  I16  1  0.125174  0.353523  0.046697  1
  I  I17  1  0.950475  0.872352  0.643098  1
  I  I18  1  0.643009  0.950427  0.872272  1
  I  I19  1  0.872470  0.643066  0.950665  1
