# generated using pymatgen
data_Nd3As4P2Rh9
_symmetry_space_group_name_H-M   'P 1'
_cell_length_a   4.02035800
_cell_length_b   11.46578000
_cell_length_c   13.34524400
_cell_angle_alpha   90.00000000
_cell_angle_beta   90.00000000
_cell_angle_gamma   90.00000000
_symmetry_Int_Tables_number   1
_chemical_formula_structural   Nd3As4P2Rh9
_chemical_formula_sum   'Nd6 As8 P4 Rh18'
_cell_volume   615.16957852
_cell_formula_units_Z   2
loop_
 _symmetry_equiv_pos_site_id
 _symmetry_equiv_pos_as_xyz
  1  'x, y, z'
loop_
 _atom_site_type_symbol
 _atom_site_label
 _atom_site_symmetry_multiplicity
 _atom_site_fract_x
 _atom_site_fract_y
 _atom_site_fract_z
 _atom_site_occupancy
  Nd  Nd0  1  0.000000  0.500000  0.517399  1
  Nd  Nd1  1  0.500000  0.000000  0.482601  1
  Nd  Nd2  1  0.500000  0.814252  0.205386  1
  Nd  Nd3  1  0.500000  0.185748  0.205386  1
  Nd  Nd4  1  0.000000  0.685748  0.794614  1
  Nd  Nd5  1  0.000000  0.314252  0.794614  1
  As  As6  1  0.500000  0.315386  0.618162  1
  As  As7  1  0.500000  0.684614  0.618162  1
  As  As8  1  0.000000  0.184614  0.381838  1
  As  As9  1  0.000000  0.815386  0.381838  1
  As  As10  1  0.500000  0.851924  0.892221  1
  As  As11  1  0.500000  0.148076  0.892221  1
  As  As12  1  0.000000  0.648076  0.107779  1
  As  As13  1  0.000000  0.351924  0.107779  1
  P  P14  1  0.500000  0.500000  0.881948  1
  P  P15  1  0.000000  0.000000  0.118052  1
  P  P16  1  0.500000  0.500000  0.347891  1
  P  P17  1  0.000000  0.000000  0.652109  1
  Rh  Rh18  1  0.500000  0.500000  0.174733  1
  Rh  Rh19  1  0.000000  0.000000  0.825267  1
  Rh  Rh20  1  0.500000  0.500000  0.711249  1
  Rh  Rh21  1  0.000000  0.000000  0.288751  1
  Rh  Rh22  1  0.000000  0.500000  0.971848  1
  Rh  Rh23  1  0.500000  0.000000  0.028152  1
  Rh  Rh24  1  0.500000  0.336340  0.991852  1
  Rh  Rh25  1  0.500000  0.663660  0.991852  1
  Rh  Rh26  1  0.000000  0.163660  0.008148  1
  Rh  Rh27  1  0.000000  0.836340  0.008148  1
  Rh  Rh28  1  0.500000  0.302056  0.430490  1
  Rh  Rh29  1  0.500000  0.697944  0.430490  1
  Rh  Rh30  1  0.000000  0.197944  0.569510  1
  Rh  Rh31  1  0.000000  0.802056  0.569510  1
  Rh  Rh32  1  0.500000  0.880935  0.704956  1
  Rh  Rh33  1  0.500000  0.119065  0.704956  1
  Rh  Rh34  1  0.000000  0.619065  0.295044  1
  Rh  Rh35  1  0.000000  0.380935  0.295044  1
