# generated using pymatgen
data_Sr4Sc2SbRuO12
_symmetry_space_group_name_H-M   'P 1'
_cell_length_a   5.74246587
_cell_length_b   5.72093955
_cell_length_c   9.90787584
_cell_angle_alpha   89.95281284
_cell_angle_beta   125.30875478
_cell_angle_gamma   90.01340308
_symmetry_Int_Tables_number   1
_chemical_formula_structural   Sr4Sc2SbRuO12
_chemical_formula_sum   'Sr4 Sc2 Sb1 Ru1 O12'
_cell_volume   265.62109285
_cell_formula_units_Z   1
loop_
 _symmetry_equiv_pos_site_id
 _symmetry_equiv_pos_as_xyz
  1  'x, y, z'
loop_
 _atom_site_type_symbol
 _atom_site_label
 _atom_site_symmetry_multiplicity
 _atom_site_fract_x
 _atom_site_fract_y
 _atom_site_fract_z
 _atom_site_occupancy
  Sr  Sr0  1  0.758735  0.485930  0.254963  1
  Sr  Sr1  1  0.749816  0.012384  0.746049  1
  Sr  Sr2  1  0.241265  0.514070  0.745037  1
  Sr  Sr3  1  0.250184  0.987616  0.253951  1
  Sc  Sc4  1  0.500000  0.500000  0.500000  1
  Sc  Sc5  1  0.500000  0.000000  0.000000  1
  Sb  Sb6  1  0.000000  0.500000  0.000000  1
  Ru  Ru7  1  0.000000  0.000000  0.500000  1
  O  O8  1  0.231605  0.225269  0.471694  1
  O  O9  1  0.231467  0.274706  0.968564  1
  O  O10  1  0.768395  0.774731  0.528306  1
  O  O11  1  0.768533  0.725294  0.031436  1
  O  O12  1  0.807454  0.235355  0.031211  1
  O  O13  1  0.803816  0.261137  0.528053  1
  O  O14  1  0.192546  0.764645  0.968789  1
  O  O15  1  0.196184  0.738863  0.471947  1
  O  O16  1  0.703201  0.005601  0.258447  1
  O  O17  1  0.697350  0.494528  0.755438  1
  O  O18  1  0.296799  0.994399  0.741553  1
  O  O19  1  0.302650  0.505472  0.244562  1
