# generated using pymatgen
data_Ta3Mo7W6
_symmetry_space_group_name_H-M   'P 1'
_cell_length_a   6.40219735
_cell_length_b   6.40219735
_cell_length_c   6.40219735
_cell_angle_alpha   90.02679135
_cell_angle_beta   90.02679135
_cell_angle_gamma   90.02679135
_symmetry_Int_Tables_number   1
_chemical_formula_structural   Ta3Mo7W6
_chemical_formula_sum   'Ta3 Mo7 W6'
_cell_volume   262.41401700
_cell_formula_units_Z   1
loop_
 _symmetry_equiv_pos_site_id
 _symmetry_equiv_pos_as_xyz
  1  'x, y, z'
loop_
 _atom_site_type_symbol
 _atom_site_label
 _atom_site_symmetry_multiplicity
 _atom_site_fract_x
 _atom_site_fract_y
 _atom_site_fract_z
 _atom_site_occupancy
  Ta  Ta0  1  0.500682  0.999360  0.999360  1
  Ta  Ta1  1  0.999360  0.500682  0.999360  1
  Ta  Ta2  1  0.999360  0.999360  0.500682  1
  Mo  Mo3  1  0.748884  0.251080  0.251080  1
  Mo  Mo4  1  0.251080  0.748884  0.251080  1
  Mo  Mo5  1  0.748842  0.748842  0.251101  1
  Mo  Mo6  1  0.251080  0.251080  0.748884  1
  Mo  Mo7  1  0.748842  0.251101  0.748842  1
  Mo  Mo8  1  0.251101  0.748842  0.748842  1
  Mo  Mo9  1  0.748952  0.748952  0.748952  1
  W  W10  1  0.999836  0.999836  0.999836  1
  W  W11  1  0.500192  0.500192  0.999880  1
  W  W12  1  0.251398  0.251398  0.251398  1
  W  W13  1  0.500192  0.999880  0.500192  1
  W  W14  1  0.999880  0.500192  0.500192  1
  W  W15  1  0.500315  0.500315  0.500315  1
