# generated using pymatgen
data_Li12TaReN8
_symmetry_space_group_name_H-M   'P 1'
_cell_length_a   6.74066900
_cell_length_b   6.74066900
_cell_length_c   4.92827400
_cell_angle_alpha   90.00000000
_cell_angle_beta   90.00000000
_cell_angle_gamma   90.00000000
_symmetry_Int_Tables_number   1
_chemical_formula_structural   Li12TaReN8
_chemical_formula_sum   'Li12 Ta1 Re1 N8'
_cell_volume   223.92410593
_cell_formula_units_Z   1
loop_
 _symmetry_equiv_pos_site_id
 _symmetry_equiv_pos_as_xyz
  1  'x, y, z'
loop_
 _atom_site_type_symbol
 _atom_site_label
 _atom_site_symmetry_multiplicity
 _atom_site_fract_x
 _atom_site_fract_y
 _atom_site_fract_z
 _atom_site_occupancy
  Li  Li0  1  0.000000  0.500000  0.575149  1
  Li  Li1  1  0.500000  0.000000  0.904915  1
  Li  Li2  1  0.500000  0.000000  0.424851  1
  Li  Li3  1  0.000000  0.500000  0.095085  1
  Li  Li4  1  0.216877  0.216877  0.500000  1
  Li  Li5  1  0.783123  0.783123  0.500000  1
  Li  Li6  1  0.708982  0.708982  0.000000  1
  Li  Li7  1  0.291018  0.291018  0.000000  1
  Li  Li8  1  0.783123  0.216877  0.500000  1
  Li  Li9  1  0.216877  0.783123  0.500000  1
  Li  Li10  1  0.291018  0.708982  0.000000  1
  Li  Li11  1  0.708982  0.291018  0.000000  1
  Ta  Ta12  1  0.500000  0.500000  0.500000  1
  Re  Re13  1  0.000000  0.000000  0.000000  1
  N  N14  1  0.248250  0.500000  0.298317  1
  N  N15  1  0.751750  0.500000  0.298317  1
  N  N16  1  0.768203  0.000000  0.199912  1
  N  N17  1  0.231797  0.000000  0.199912  1
  N  N18  1  0.500000  0.248250  0.701683  1
  N  N19  1  0.500000  0.751750  0.701683  1
  N  N20  1  0.000000  0.768203  0.800088  1
  N  N21  1  0.000000  0.231797  0.800088  1
