# generated using pymatgen
data_Ac(NpH4)3
_symmetry_space_group_name_H-M   'P 1'
_cell_length_a   6.76930100
_cell_length_b   6.75569300
_cell_length_c   6.75569300
_cell_angle_alpha   90.00000000
_cell_angle_beta   90.00000000
_cell_angle_gamma   90.00000000
_symmetry_Int_Tables_number   1
_chemical_formula_structural   Ac(NpH4)3
_chemical_formula_sum   'Ac2 Np6 H24'
_cell_volume   308.94675422
_cell_formula_units_Z   2
loop_
 _symmetry_equiv_pos_site_id
 _symmetry_equiv_pos_as_xyz
  1  'x, y, z'
loop_
 _atom_site_type_symbol
 _atom_site_label
 _atom_site_symmetry_multiplicity
 _atom_site_fract_x
 _atom_site_fract_y
 _atom_site_fract_z
 _atom_site_occupancy
  Ac  Ac0  1  0.250000  0.000000  0.500000  1
  Ac  Ac1  1  0.750000  0.000000  0.500000  1
  Np  Np2  1  0.000000  0.000000  0.000000  1
  Np  Np3  1  0.500000  0.500000  0.500000  1
  Np  Np4  1  0.000000  0.500000  0.248188  1
  Np  Np5  1  0.000000  0.500000  0.751812  1
  Np  Np6  1  0.500000  0.748188  0.000000  1
  Np  Np7  1  0.500000  0.251812  0.000000  1
  H  H8  1  0.000000  0.164921  0.285355  1
  H  H9  1  0.500000  0.214645  0.664921  1
  H  H10  1  0.500000  0.785355  0.335079  1
  H  H11  1  0.810606  0.640318  0.500000  1
  H  H12  1  0.189394  0.640318  0.500000  1
  H  H13  1  0.344929  0.500000  0.803133  1
  H  H14  1  0.655071  0.500000  0.803133  1
  H  H15  1  0.310606  0.000000  0.140318  1
  H  H16  1  0.155071  0.303133  0.000000  1
  H  H17  1  0.844929  0.696867  0.000000  1
  H  H18  1  0.310606  0.000000  0.859682  1
  H  H19  1  0.844929  0.303133  0.000000  1
  H  H20  1  0.689394  0.000000  0.140318  1
  H  H21  1  0.689394  0.000000  0.859682  1
  H  H22  1  0.155071  0.696867  0.000000  1
  H  H23  1  0.000000  0.835079  0.714645  1
  H  H24  1  0.000000  0.164921  0.714645  1
  H  H25  1  0.000000  0.835079  0.285355  1
  H  H26  1  0.655071  0.500000  0.196867  1
  H  H27  1  0.344929  0.500000  0.196867  1
  H  H28  1  0.810606  0.359682  0.500000  1
  H  H29  1  0.189394  0.359682  0.500000  1
  H  H30  1  0.500000  0.785355  0.664921  1
  H  H31  1  0.500000  0.214645  0.335079  1
