# generated using pymatgen
data_La9Nd(Ir2Os)2
_symmetry_space_group_name_H-M   'P 1'
_cell_length_a   11.40204900
_cell_length_b   11.40204900
_cell_length_c   6.65865700
_cell_angle_alpha   90.00000000
_cell_angle_beta   90.00000000
_cell_angle_gamma   90.00000000
_symmetry_Int_Tables_number   1
_chemical_formula_structural   La9Nd(Ir2Os)2
_chemical_formula_sum   'La18 Nd2 Ir8 Os4'
_cell_volume   865.67016549
_cell_formula_units_Z   2
loop_
 _symmetry_equiv_pos_site_id
 _symmetry_equiv_pos_as_xyz
  1  'x, y, z'
loop_
 _atom_site_type_symbol
 _atom_site_label
 _atom_site_symmetry_multiplicity
 _atom_site_fract_x
 _atom_site_fract_y
 _atom_site_fract_z
 _atom_site_occupancy
  La  La0  1  0.294181  0.089314  0.386960  1
  La  La1  1  0.294181  0.910686  0.886960  1
  La  La2  1  0.705819  0.089314  0.886960  1
  La  La3  1  0.705819  0.910686  0.386960  1
  La  La4  1  0.589517  0.795084  0.886452  1
  La  La5  1  0.589517  0.204916  0.386452  1
  La  La6  1  0.410483  0.795084  0.386452  1
  La  La7  1  0.410483  0.204916  0.886452  1
  La  La8  1  0.204916  0.410483  0.613548  1
  La  La9  1  0.204916  0.589517  0.113548  1
  La  La10  1  0.795084  0.410483  0.113548  1
  La  La11  1  0.795084  0.589517  0.613548  1
  La  La12  1  0.910686  0.705819  0.113040  1
  La  La13  1  0.910686  0.294181  0.613040  1
  La  La14  1  0.089314  0.705819  0.613040  1
  La  La15  1  0.089314  0.294181  0.113040  1
  La  La16  1  0.500000  0.500000  0.000000  1
  La  La17  1  0.500000  0.500000  0.500000  1
  Nd  Nd18  1  0.000000  0.000000  0.500000  1
  Nd  Nd19  1  0.000000  0.000000  0.000000  1
  Ir  Ir20  1  0.848171  0.151829  0.250000  1
  Ir  Ir21  1  0.848171  0.848171  0.750000  1
  Ir  Ir22  1  0.151829  0.151829  0.750000  1
  Ir  Ir23  1  0.151829  0.848171  0.250000  1
  Ir  Ir24  1  0.651562  0.348438  0.750000  1
  Ir  Ir25  1  0.651562  0.651562  0.250000  1
  Ir  Ir26  1  0.348438  0.348438  0.250000  1
  Ir  Ir27  1  0.348438  0.651562  0.750000  1
  Os  Os28  1  0.500000  0.000000  0.123419  1
  Os  Os29  1  0.500000  0.000000  0.623419  1
  Os  Os30  1  0.000000  0.500000  0.876581  1
  Os  Os31  1  0.000000  0.500000  0.376581  1
