# generated using pymatgen
data_Tb6Al24CoNi2Os5
_symmetry_space_group_name_H-M   'P 1'
_cell_length_a   8.82250200
_cell_length_b   8.77060110
_cell_length_c   9.46446279
_cell_angle_alpha   90.40751643
_cell_angle_beta   90.00000000
_cell_angle_gamma   120.19594643
_symmetry_Int_Tables_number   1
_chemical_formula_structural   Tb6Al24CoNi2Os5
_chemical_formula_sum   'Tb6 Al24 Co1 Ni2 Os5'
_cell_volume   632.95395842
_cell_formula_units_Z   1
loop_
 _symmetry_equiv_pos_site_id
 _symmetry_equiv_pos_as_xyz
  1  'x, y, z'
loop_
 _atom_site_type_symbol
 _atom_site_label
 _atom_site_symmetry_multiplicity
 _atom_site_fract_x
 _atom_site_fract_y
 _atom_site_fract_z
 _atom_site_occupancy
  Tb  Tb0  1  0.195251  0.390501  0.248658  1
  Tb  Tb1  1  0.804749  0.609499  0.751342  1
  Tb  Tb2  1  0.612822  0.802266  0.250568  1
  Tb  Tb3  1  0.387178  0.197734  0.749432  1
  Tb  Tb4  1  0.189444  0.802266  0.250568  1
  Tb  Tb5  1  0.810556  0.197734  0.749432  1
  Al  Al6  1  0.335202  0.670406  0.016857  1
  Al  Al7  1  0.664798  0.329594  0.983143  1
  Al  Al8  1  0.666577  0.333152  0.516142  1
  Al  Al9  1  0.333423  0.666848  0.483858  1
  Al  Al10  1  0.161666  0.323331  0.575842  1
  Al  Al11  1  0.838334  0.676669  0.424158  1
  Al  Al12  1  0.676211  0.838915  0.577739  1
  Al  Al13  1  0.838524  0.677049  0.075685  1
  Al  Al14  1  0.323789  0.161085  0.422261  1
  Al  Al15  1  0.161476  0.322951  0.924315  1
  Al  Al16  1  0.162705  0.838915  0.577739  1
  Al  Al17  1  0.319933  0.160469  0.075931  1
  Al  Al18  1  0.837295  0.161085  0.422261  1
  Al  Al19  1  0.680067  0.839531  0.924069  1
  Al  Al20  1  0.840534  0.160469  0.075931  1
  Al  Al21  1  0.159466  0.839531  0.924069  1
  Al  Al22  1  0.559115  0.118231  0.245387  1
  Al  Al23  1  0.440885  0.881769  0.754613  1
  Al  Al24  1  0.876058  0.436683  0.248460  1
  Al  Al25  1  0.123942  0.563317  0.751540  1
  Al  Al26  1  0.560625  0.436683  0.248460  1
  Al  Al27  1  0.439375  0.563317  0.751540  1
  Al  Al28  1  0.999356  0.998713  0.248854  1
  Al  Al29  1  0.000644  0.001287  0.751146  1
  Co  Co30  1  0.000000  0.000000  0.000000  1
  Ni  Ni31  1  0.500000  0.000000  0.000000  1
  Ni  Ni32  1  0.000000  0.000000  0.500000  1
  Os  Os33  1  0.000000  0.500000  0.000000  1
  Os  Os34  1  0.500000  0.000000  0.500000  1
  Os  Os35  1  0.500000  0.500000  0.000000  1
  Os  Os36  1  0.000000  0.500000  0.500000  1
  Os  Os37  1  0.500000  0.500000  0.500000  1
