# generated using pymatgen
data_NdDyYTaO7
_symmetry_space_group_name_H-M   'P 1'
_cell_length_a   6.51219161
_cell_length_b   6.51219079
_cell_length_c   7.61664600
_cell_angle_alpha   90.00000000
_cell_angle_beta   90.00000000
_cell_angle_gamma   109.40726439
_symmetry_Int_Tables_number   1
_chemical_formula_structural   NdDyYTaO7
_chemical_formula_sum   'Nd2 Dy2 Y2 Ta2 O14'
_cell_volume   304.65821126
_cell_formula_units_Z   2
loop_
 _symmetry_equiv_pos_site_id
 _symmetry_equiv_pos_as_xyz
  1  'x, y, z'
loop_
 _atom_site_type_symbol
 _atom_site_label
 _atom_site_symmetry_multiplicity
 _atom_site_fract_x
 _atom_site_fract_y
 _atom_site_fract_z
 _atom_site_occupancy
  Nd  Nd0  1  0.499971  0.499971  0.500000  1
  Nd  Nd1  1  0.499971  0.499971  0.000000  1
  Dy  Dy2  1  0.533382  0.000767  0.750000  1
  Dy  Dy3  1  0.000767  0.533382  0.250000  1
  Y  Y4  1  0.466933  0.999544  0.250000  1
  Y  Y5  1  0.999544  0.466933  0.750000  1
  Ta  Ta6  1  0.999984  0.999984  0.500000  1
  Ta  Ta7  1  0.999984  0.999984  0.000000  1
  O  O8  1  0.680392  0.930784  0.468651  1
  O  O9  1  0.930784  0.680392  0.531349  1
  O  O10  1  0.680392  0.930784  0.031349  1
  O  O11  1  0.930784  0.680392  0.968651  1
  O  O12  1  0.319761  0.069127  0.532206  1
  O  O13  1  0.069127  0.319761  0.467794  1
  O  O14  1  0.319761  0.069127  0.967794  1
  O  O15  1  0.069127  0.319761  0.032206  1
  O  O16  1  0.936816  0.062798  0.750000  1
  O  O17  1  0.062798  0.936816  0.250000  1
  O  O18  1  0.364701  0.635567  0.750000  1
  O  O19  1  0.635567  0.364701  0.250000  1
  O  O20  1  0.642242  0.357211  0.750000  1
  O  O21  1  0.357211  0.642242  0.250000  1
