# generated using pymatgen
data_Er12InFe3Sn
_symmetry_space_group_name_H-M   'P 1'
_cell_length_a   8.28241272
_cell_length_b   8.28241322
_cell_length_c   8.28241346
_cell_angle_alpha   108.78278819
_cell_angle_beta   108.74979597
_cell_angle_gamma   110.89046996
_symmetry_Int_Tables_number   1
_chemical_formula_structural   Er12InFe3Sn
_chemical_formula_sum   'Er12 In1 Fe3 Sn1'
_cell_volume   437.16791170
_cell_formula_units_Z   1
loop_
 _symmetry_equiv_pos_site_id
 _symmetry_equiv_pos_as_xyz
  1  'x, y, z'
loop_
 _atom_site_type_symbol
 _atom_site_label
 _atom_site_symmetry_multiplicity
 _atom_site_fract_x
 _atom_site_fract_y
 _atom_site_fract_z
 _atom_site_occupancy
  Er  Er0  1  0.192840  0.428639  0.235799  1
  Er  Er1  1  0.807160  0.571361  0.764201  1
  Er  Er2  1  0.192840  0.957041  0.764201  1
  Er  Er3  1  0.954229  0.191409  0.762820  1
  Er  Er4  1  0.807160  0.042959  0.235799  1
  Er  Er5  1  0.045771  0.808591  0.237180  1
  Er  Er6  1  0.428589  0.191409  0.237180  1
  Er  Er7  1  0.571411  0.808591  0.762820  1
  Er  Er8  1  0.307928  0.306088  0.614015  1
  Er  Er9  1  0.692072  0.693912  0.385985  1
  Er  Er10  1  0.692072  0.306088  0.998161  1
  Er  Er11  1  0.307928  0.693912  0.001839  1
  In  In12  1  0.500000  0.000000  0.500000  1
  Fe  Fe13  1  0.385455  0.385455  0.000000  1
  Fe  Fe14  1  0.614545  0.614545  0.000000  1
  Fe  Fe15  1  0.000000  0.000000  0.000000  1
  Sn  Sn16  1  0.000000  0.500000  0.500000  1
