# generated using pymatgen
data_NpVI6
_symmetry_space_group_name_H-M   'P 1'
_cell_length_a   7.73772506
_cell_length_b   7.17784873
_cell_length_c   7.73772401
_cell_angle_alpha   90.08249353
_cell_angle_beta   120.09677755
_cell_angle_gamma   90.08249594
_symmetry_Int_Tables_number   1
_chemical_formula_structural   NpVI6
_chemical_formula_sum   'Np1 V1 I6'
_cell_volume   371.81363226
_cell_formula_units_Z   1
loop_
 _symmetry_equiv_pos_site_id
 _symmetry_equiv_pos_as_xyz
  1  'x, y, z'
loop_
 _atom_site_type_symbol
 _atom_site_label
 _atom_site_symmetry_multiplicity
 _atom_site_fract_x
 _atom_site_fract_y
 _atom_site_fract_z
 _atom_site_occupancy
  Np  Np0  1  0.999979  0.250001  0.999979  1
  V  V1  1  0.000035  0.750008  0.000035  1
  I  I2  1  0.702160  0.977621  0.001386  1
  I  I3  1  0.297845  0.522359  0.998616  1
  I  I4  1  0.998616  0.522359  0.297843  1
  I  I5  1  0.299590  0.979098  0.299591  1
  I  I6  1  0.700417  0.520934  0.700416  1
  I  I7  1  0.001386  0.977621  0.702160  1
