# generated using pymatgen
data_Ir3Pt(Pb2O7)2
_symmetry_space_group_name_H-M   'P 1'
_cell_length_a   7.38137963
_cell_length_b   7.36909322
_cell_length_c   7.38160502
_cell_angle_alpha   59.94523186
_cell_angle_beta   59.99193122
_cell_angle_gamma   59.94464903
_symmetry_Int_Tables_number   1
_chemical_formula_structural   Ir3Pt(Pb2O7)2
_chemical_formula_sum   'Ir3 Pt1 Pb4 O14'
_cell_volume   283.66060125
_cell_formula_units_Z   1
loop_
 _symmetry_equiv_pos_site_id
 _symmetry_equiv_pos_as_xyz
  1  'x, y, z'
loop_
 _atom_site_type_symbol
 _atom_site_label
 _atom_site_symmetry_multiplicity
 _atom_site_fract_x
 _atom_site_fract_y
 _atom_site_fract_z
 _atom_site_occupancy
  Ir  Ir0  1  0.125000  0.625000  0.625000  1
  Ir  Ir1  1  0.625000  0.625000  0.125000  1
  Ir  Ir2  1  0.625000  0.625000  0.625000  1
  Pt  Pt3  1  0.625000  0.125000  0.625000  1
  Pb  Pb4  1  0.625000  0.125000  0.125000  1
  Pb  Pb5  1  0.125000  0.625000  0.125000  1
  Pb  Pb6  1  0.125000  0.125000  0.625000  1
  Pb  Pb7  1  0.125000  0.125000  0.125000  1
  O  O8  1  0.704150  0.702015  0.296992  1
  O  O9  1  0.291869  0.297803  0.705173  1
  O  O10  1  0.705187  0.298030  0.705082  1
  O  O11  1  0.296967  0.702026  0.296866  1
  O  O12  1  0.296990  0.702083  0.704109  1
  O  O13  1  0.705154  0.297951  0.291729  1
  O  O14  1  0.545850  0.547985  0.953008  1
  O  O15  1  0.958131  0.952197  0.544827  1
  O  O16  1  0.544813  0.951970  0.544918  1
  O  O17  1  0.953033  0.547974  0.953134  1
  O  O18  1  0.953010  0.547917  0.545891  1
  O  O19  1  0.544846  0.952049  0.958271  1
  O  O20  1  0.250819  0.247523  0.250885  1
  O  O21  1  0.999181  0.002477  0.999115  1
