# generated using pymatgen
data_Tm6Sc4Si5P
_symmetry_space_group_name_H-M   'P 1'
_cell_length_a   8.16039900
_cell_length_b   8.16447388
_cell_length_c   5.93757900
_cell_angle_alpha   90.00000000
_cell_angle_beta   90.00000000
_cell_angle_gamma   119.98348727
_symmetry_Int_Tables_number   1
_chemical_formula_structural   Tm6Sc4Si5P
_chemical_formula_sum   'Tm6 Sc4 Si5 P1'
_cell_volume   342.65089468
_cell_formula_units_Z   1
loop_
 _symmetry_equiv_pos_site_id
 _symmetry_equiv_pos_as_xyz
  1  'x, y, z'
loop_
 _atom_site_type_symbol
 _atom_site_label
 _atom_site_symmetry_multiplicity
 _atom_site_fract_x
 _atom_site_fract_y
 _atom_site_fract_z
 _atom_site_occupancy
  Tm  Tm0  1  0.000278  0.755020  0.750000  1
  Tm  Tm1  1  0.001568  0.245556  0.250000  1
  Tm  Tm2  1  0.756012  0.754444  0.250000  1
  Tm  Tm3  1  0.751839  0.000000  0.750000  1
  Tm  Tm4  1  0.245257  0.244980  0.750000  1
  Tm  Tm5  1  0.247076  0.000000  0.250000  1
  Sc  Sc6  1  0.333650  0.667954  0.499636  1
  Sc  Sc7  1  0.665697  0.332046  0.000364  1
  Sc  Sc8  1  0.665697  0.332046  0.499636  1
  Sc  Sc9  1  0.333650  0.667954  0.000364  1
  Si  Si10  1  0.398492  0.397533  0.250000  1
  Si  Si11  1  0.000960  0.602467  0.250000  1
  Si  Si12  1  0.000109  0.397743  0.750000  1
  Si  Si13  1  0.602366  0.602257  0.750000  1
  Si  Si14  1  0.604825  0.000000  0.250000  1
  P  P15  1  0.392523  0.000000  0.750000  1
