# generated using pymatgen
data_Tb2Pr3Nd5B2Br15
_symmetry_space_group_name_H-M   'P 1'
_cell_length_a   9.38033096
_cell_length_b   10.16191872
_cell_length_c   11.04860534
_cell_angle_alpha   91.37983854
_cell_angle_beta   114.39536840
_cell_angle_gamma   110.71725345
_symmetry_Int_Tables_number   1
_chemical_formula_structural   Tb2Pr3Nd5B2Br15
_chemical_formula_sum   'Tb2 Pr3 Nd5 B2 Br15'
_cell_volume   879.03696756
_cell_formula_units_Z   1
loop_
 _symmetry_equiv_pos_site_id
 _symmetry_equiv_pos_as_xyz
  1  'x, y, z'
loop_
 _atom_site_type_symbol
 _atom_site_label
 _atom_site_symmetry_multiplicity
 _atom_site_fract_x
 _atom_site_fract_y
 _atom_site_fract_z
 _atom_site_occupancy
  Tb  Tb0  1  0.717769  0.073107  0.046980  1
  Tb  Tb1  1  0.282003  0.927188  0.953245  1
  Pr  Pr2  1  0.802432  0.410165  0.276376  1
  Pr  Pr3  1  0.197858  0.589496  0.723761  1
  Pr  Pr4  1  0.675765  0.747048  0.820821  1
  Nd  Nd5  1  0.325885  0.252858  0.179140  1
  Nd  Nd6  1  0.526096  0.704664  0.096693  1
  Nd  Nd7  1  0.473601  0.295348  0.903339  1
  Nd  Nd8  1  0.586267  0.037306  0.324256  1
  Nd  Nd9  1  0.413377  0.962793  0.675653  1
  B  B10  1  0.467724  0.824499  0.879700  1
  B  B11  1  0.531294  0.175951  0.120551  1
  Br  Br12  1  0.002032  0.001745  0.001209  1
  Br  Br13  1  0.635410  0.883397  0.581596  1
  Br  Br14  1  0.364002  0.117895  0.416520  1
  Br  Br15  1  0.882124  0.296466  0.529042  1
  Br  Br16  1  0.117773  0.703485  0.470986  1
  Br  Br17  1  0.283579  0.765534  0.171381  1
  Br  Br18  1  0.716200  0.234456  0.828644  1
  Br  Br19  1  0.046413  0.331742  0.218398  1
  Br  Br20  1  0.160847  0.051374  0.710363  1
  Br  Br21  1  0.838877  0.948622  0.289591  1
  Br  Br22  1  0.230718  0.409215  0.945406  1
  Br  Br23  1  0.769649  0.589966  0.055974  1
  Br  Br24  1  0.408162  0.460233  0.658029  1
  Br  Br25  1  0.589422  0.537502  0.340846  1
  Br  Br26  1  0.954720  0.667944  0.781497  1
