# generated using pymatgen
data_NpSbRu
_symmetry_space_group_name_H-M   'P 1'
_cell_length_a   7.40344600
_cell_length_b   7.40344623
_cell_length_c   3.97927400
_cell_angle_alpha   90.00000000
_cell_angle_beta   90.00000000
_cell_angle_gamma   120.00000791
_symmetry_Int_Tables_number   1
_chemical_formula_structural   NpSbRu
_chemical_formula_sum   'Np3 Sb3 Ru3'
_cell_volume   188.88709220
_cell_formula_units_Z   3
loop_
 _symmetry_equiv_pos_site_id
 _symmetry_equiv_pos_as_xyz
  1  'x, y, z'
loop_
 _atom_site_type_symbol
 _atom_site_label
 _atom_site_symmetry_multiplicity
 _atom_site_fract_x
 _atom_site_fract_y
 _atom_site_fract_z
 _atom_site_occupancy
  Np  Np0  1  0.413267  0.413267  0.500000  1
  Np  Np1  1  0.586733  0.000000  0.500000  1
  Np  Np2  1  0.000000  0.586733  0.500000  1
  Sb  Sb3  1  0.741619  0.741619  0.000000  1
  Sb  Sb4  1  0.258381  0.000000  0.000000  1
  Sb  Sb5  1  0.000000  0.258381  0.000000  1
  Ru  Ru6  1  0.666667  0.333333  0.000000  1
  Ru  Ru7  1  0.333333  0.666667  0.000000  1
  Ru  Ru8  1  0.000000  0.000000  0.500000  1
