# generated using pymatgen
data_Dy4YBi3
_symmetry_space_group_name_H-M   'P 1'
_cell_length_a   8.27151800
_cell_length_b   9.53211200
_cell_length_c   12.08827100
_cell_angle_alpha   90.00000000
_cell_angle_beta   90.00000000
_cell_angle_gamma   90.00000000
_symmetry_Int_Tables_number   1
_chemical_formula_structural   Dy4YBi3
_chemical_formula_sum   'Dy16 Y4 Bi12'
_cell_volume   953.10016200
_cell_formula_units_Z   4
loop_
 _symmetry_equiv_pos_site_id
 _symmetry_equiv_pos_as_xyz
  1  'x, y, z'
loop_
 _atom_site_type_symbol
 _atom_site_label
 _atom_site_symmetry_multiplicity
 _atom_site_fract_x
 _atom_site_fract_y
 _atom_site_fract_z
 _atom_site_occupancy
  Dy  Dy0  1  0.026375  0.750000  0.988758  1
  Dy  Dy1  1  0.526375  0.750000  0.511242  1
  Dy  Dy2  1  0.973625  0.250000  0.011242  1
  Dy  Dy3  1  0.473625  0.250000  0.488758  1
  Dy  Dy4  1  0.186189  0.750000  0.718995  1
  Dy  Dy5  1  0.686189  0.750000  0.781005  1
  Dy  Dy6  1  0.813811  0.250000  0.281005  1
  Dy  Dy7  1  0.313811  0.250000  0.218995  1
  Dy  Dy8  1  0.306238  0.436993  0.940056  1
  Dy  Dy9  1  0.806238  0.063007  0.559944  1
  Dy  Dy10  1  0.693762  0.936993  0.059944  1
  Dy  Dy11  1  0.193762  0.563007  0.440056  1
  Dy  Dy12  1  0.693762  0.563007  0.059944  1
  Dy  Dy13  1  0.193762  0.936993  0.440056  1
  Dy  Dy14  1  0.306238  0.063007  0.940056  1
  Dy  Dy15  1  0.806238  0.436993  0.559944  1
  Y  Y16  1  0.353926  0.750000  0.215052  1
  Y  Y17  1  0.853926  0.750000  0.284948  1
  Y  Y18  1  0.646074  0.250000  0.784948  1
  Y  Y19  1  0.146074  0.250000  0.715052  1
  Bi  Bi20  1  0.433575  0.003584  0.673885  1
  Bi  Bi21  1  0.933575  0.496416  0.826115  1
  Bi  Bi22  1  0.566425  0.503584  0.326115  1
  Bi  Bi23  1  0.066425  0.996416  0.173885  1
  Bi  Bi24  1  0.566425  0.996416  0.326115  1
  Bi  Bi25  1  0.066425  0.503584  0.173885  1
  Bi  Bi26  1  0.433575  0.496416  0.673885  1
  Bi  Bi27  1  0.933575  0.003584  0.826115  1
  Bi  Bi28  1  0.409798  0.750000  0.957989  1
  Bi  Bi29  1  0.909798  0.750000  0.542011  1
  Bi  Bi30  1  0.590202  0.250000  0.042011  1
  Bi  Bi31  1  0.090202  0.250000  0.457989  1
