# generated using pymatgen
data_LaNd15(TmSn4)4
_symmetry_space_group_name_H-M   'P 1'
_cell_length_a   8.22284525
_cell_length_b   8.37698617
_cell_length_c   15.91758949
_cell_angle_alpha   90.01635711
_cell_angle_beta   89.97692586
_cell_angle_gamma   89.98400695
_symmetry_Int_Tables_number   1
_chemical_formula_structural   LaNd15(TmSn4)4
_chemical_formula_sum   'La1 Nd15 Tm4 Sn16'
_cell_volume   1096.44574226
_cell_formula_units_Z   1
loop_
 _symmetry_equiv_pos_site_id
 _symmetry_equiv_pos_as_xyz
  1  'x, y, z'
loop_
 _atom_site_type_symbol
 _atom_site_label
 _atom_site_symmetry_multiplicity
 _atom_site_fract_x
 _atom_site_fract_y
 _atom_site_fract_z
 _atom_site_occupancy
  La  La0  1  0.017919  0.181105  0.401801  1
  Nd  Nd1  1  0.367870  0.837476  0.120887  1
  Nd  Nd2  1  0.132131  0.337550  0.621013  1
  Nd  Nd3  1  0.482057  0.680955  0.901425  1
  Nd  Nd4  1  0.867920  0.662510  0.120847  1
  Nd  Nd5  1  0.132108  0.337459  0.879074  1
  Nd  Nd6  1  0.482063  0.681015  0.598587  1
  Nd  Nd7  1  0.632038  0.162462  0.620994  1
  Nd  Nd8  1  0.867708  0.662550  0.379097  1
  Nd  Nd9  1  0.017893  0.180986  0.098617  1
  Nd  Nd10  1  0.982061  0.819042  0.901430  1
  Nd  Nd11  1  0.632074  0.162515  0.879070  1
  Nd  Nd12  1  0.517945  0.319110  0.098499  1
  Nd  Nd13  1  0.368052  0.837312  0.379048  1
  Nd  Nd14  1  0.982059  0.818922  0.598662  1
  Nd  Nd15  1  0.518096  0.319196  0.401405  1
  Tm  Tm16  1  0.199545  0.502186  0.249874  1
  Tm  Tm17  1  0.699233  0.997874  0.249842  1
  Tm  Tm18  1  0.300666  0.002018  0.749996  1
  Tm  Tm19  1  0.800631  0.497984  0.749985  1
  Sn  Sn20  1  0.791739  0.465106  0.544031  1
  Sn  Sn21  1  0.707352  0.964363  0.456282  1
  Sn  Sn22  1  0.675304  0.853282  0.750018  1
  Sn  Sn23  1  0.208445  0.535550  0.456133  1
  Sn  Sn24  1  0.291954  0.035035  0.956063  1
  Sn  Sn25  1  0.824069  0.353674  0.249566  1
  Sn  Sn26  1  0.791966  0.464950  0.956064  1
  Sn  Sn27  1  0.564057  0.616461  0.249976  1
  Sn  Sn28  1  0.208073  0.535058  0.043903  1
  Sn  Sn29  1  0.435864  0.383536  0.750022  1
  Sn  Sn30  1  0.175318  0.646730  0.750002  1
  Sn  Sn31  1  0.935868  0.116467  0.749995  1
  Sn  Sn32  1  0.292578  0.034671  0.544221  1
  Sn  Sn33  1  0.708106  0.964951  0.043925  1
  Sn  Sn34  1  0.325133  0.146758  0.249793  1
  Sn  Sn35  1  0.064107  0.883181  0.249853  1
