# generated using pymatgen
data_Nd16Ho4(Ir3Ru)3
_symmetry_space_group_name_H-M   'P 1'
_cell_length_a   11.16210000
_cell_length_b   11.16210000
_cell_length_c   6.54144300
_cell_angle_alpha   90.00000000
_cell_angle_beta   90.00000000
_cell_angle_gamma   90.00000000
_symmetry_Int_Tables_number   1
_chemical_formula_structural   Nd16Ho4(Ir3Ru)3
_chemical_formula_sum   'Nd16 Ho4 Ir9 Ru3'
_cell_volume   815.01458266
_cell_formula_units_Z   1
loop_
 _symmetry_equiv_pos_site_id
 _symmetry_equiv_pos_as_xyz
  1  'x, y, z'
loop_
 _atom_site_type_symbol
 _atom_site_label
 _atom_site_symmetry_multiplicity
 _atom_site_fract_x
 _atom_site_fract_y
 _atom_site_fract_z
 _atom_site_occupancy
  Nd  Nd0  1  0.291591  0.086477  0.380760  1
  Nd  Nd1  1  0.291640  0.913778  0.881165  1
  Nd  Nd2  1  0.708360  0.086222  0.881165  1
  Nd  Nd3  1  0.708409  0.913523  0.380760  1
  Nd  Nd4  1  0.586222  0.791640  0.881165  1
  Nd  Nd5  1  0.586477  0.208409  0.380760  1
  Nd  Nd6  1  0.413523  0.791591  0.380760  1
  Nd  Nd7  1  0.413778  0.208360  0.881165  1
  Nd  Nd8  1  0.210034  0.412860  0.620263  1
  Nd  Nd9  1  0.209871  0.587096  0.117856  1
  Nd  Nd10  1  0.790129  0.412904  0.117856  1
  Nd  Nd11  1  0.789966  0.587140  0.620263  1
  Nd  Nd12  1  0.912904  0.709871  0.117856  1
  Nd  Nd13  1  0.912860  0.289966  0.620263  1
  Nd  Nd14  1  0.087140  0.710034  0.620263  1
  Nd  Nd15  1  0.087096  0.290129  0.117856  1
  Ho  Ho16  1  0.000000  0.000000  0.499546  1
  Ho  Ho17  1  0.000000  0.000000  0.999621  1
  Ho  Ho18  1  0.500000  0.500000  0.999621  1
  Ho  Ho19  1  0.500000  0.500000  0.499546  1
  Ir  Ir20  1  0.852368  0.148274  0.250164  1
  Ir  Ir21  1  0.852066  0.851596  0.749757  1
  Ir  Ir22  1  0.147934  0.148404  0.749757  1
  Ir  Ir23  1  0.147632  0.851726  0.250164  1
  Ir  Ir24  1  0.648404  0.352066  0.749757  1
  Ir  Ir25  1  0.648274  0.647632  0.250164  1
  Ir  Ir26  1  0.351726  0.352368  0.250164  1
  Ir  Ir27  1  0.351596  0.647934  0.749757  1
  Ir  Ir28  1  0.000000  0.500000  0.381801  1
  Ru  Ru29  1  0.500000  0.000000  0.118925  1
  Ru  Ru30  1  0.500000  0.000000  0.618511  1
  Ru  Ru31  1  0.000000  0.500000  0.882571  1
