# generated using pymatgen
data_Ba6Er3CrSe12
_symmetry_space_group_name_H-M   'P 1'
_cell_length_a   8.83794709
_cell_length_b   8.83794669
_cell_length_c   8.83794700
_cell_angle_alpha   93.82812561
_cell_angle_beta   93.82812543
_cell_angle_gamma   93.82812081
_symmetry_Int_Tables_number   1
_chemical_formula_structural   Ba6Er3CrSe12
_chemical_formula_sum   'Ba6 Er3 Cr1 Se12'
_cell_volume   685.48793666
_cell_formula_units_Z   1
loop_
 _symmetry_equiv_pos_site_id
 _symmetry_equiv_pos_as_xyz
  1  'x, y, z'
loop_
 _atom_site_type_symbol
 _atom_site_label
 _atom_site_symmetry_multiplicity
 _atom_site_fract_x
 _atom_site_fract_y
 _atom_site_fract_z
 _atom_site_occupancy
  Ba  Ba0  1  0.366608  0.746815  0.134468  1
  Ba  Ba1  1  0.134468  0.366608  0.746815  1
  Ba  Ba2  1  0.746815  0.134468  0.366608  1
  Ba  Ba3  1  0.633392  0.253185  0.865532  1
  Ba  Ba4  1  0.865532  0.633392  0.253185  1
  Ba  Ba5  1  0.253185  0.865532  0.633392  1
  Er  Er6  1  0.000000  0.000000  0.000000  1
  Er  Er7  1  0.255085  0.255085  0.255085  1
  Er  Er8  1  0.744915  0.744915  0.744915  1
  Cr  Cr9  1  0.500000  0.500000  0.500000  1
  Se  Se10  1  0.534862  0.417794  0.213161  1
  Se  Se11  1  0.213161  0.534862  0.417794  1
  Se  Se12  1  0.417794  0.213161  0.534862  1
  Se  Se13  1  0.963982  0.306111  0.095248  1
  Se  Se14  1  0.095248  0.963982  0.306111  1
  Se  Se15  1  0.306111  0.095248  0.963982  1
  Se  Se16  1  0.465138  0.582206  0.786839  1
  Se  Se17  1  0.786839  0.465138  0.582206  1
  Se  Se18  1  0.582206  0.786839  0.465138  1
  Se  Se19  1  0.036018  0.693889  0.904752  1
  Se  Se20  1  0.693889  0.904752  0.036018  1
  Se  Se21  1  0.904752  0.036018  0.693889  1
