# generated using pymatgen
data_Ca3RuO6
_symmetry_space_group_name_H-M   'P 1'
_cell_length_a   5.84140900
_cell_length_b   5.57786320
_cell_length_c   9.74411413
_cell_angle_alpha   55.52507092
_cell_angle_beta   90.00000000
_cell_angle_gamma   90.00000000
_symmetry_Int_Tables_number   1
_chemical_formula_structural   Ca3RuO6
_chemical_formula_sum   'Ca6 Ru2 O12'
_cell_volume   261.72915138
_cell_formula_units_Z   2
loop_
 _symmetry_equiv_pos_site_id
 _symmetry_equiv_pos_as_xyz
  1  'x, y, z'
loop_
 _atom_site_type_symbol
 _atom_site_label
 _atom_site_symmetry_multiplicity
 _atom_site_fract_x
 _atom_site_fract_y
 _atom_site_fract_z
 _atom_site_occupancy
  Ca  Ca0  1  0.438001  0.233737  0.747483  1
  Ca  Ca1  1  0.561999  0.766263  0.252517  1
  Ca  Ca2  1  0.938001  0.766263  0.752517  1
  Ca  Ca3  1  0.061999  0.233737  0.247483  1
  Ca  Ca4  1  0.000000  0.500000  0.500000  1
  Ca  Ca5  1  0.500000  0.500000  0.000000  1
  Ru  Ru6  1  0.000000  0.000000  0.000000  1
  Ru  Ru7  1  0.500000  0.000000  0.500000  1
  O  O8  1  0.721724  0.900517  0.930890  1
  O  O9  1  0.278276  0.099483  0.069110  1
  O  O10  1  0.221724  0.099483  0.569110  1
  O  O11  1  0.778276  0.900517  0.430890  1
  O  O12  1  0.048117  0.342560  0.774331  1
  O  O13  1  0.951883  0.657440  0.225669  1
  O  O14  1  0.548117  0.657440  0.725669  1
  O  O15  1  0.451883  0.342560  0.274331  1
  O  O16  1  0.178787  0.774580  0.943322  1
  O  O17  1  0.821213  0.225420  0.056678  1
  O  O18  1  0.678787  0.225420  0.556678  1
  O  O19  1  0.321213  0.774580  0.443322  1
