# generated using pymatgen
data_Tb2Sn5Ir2Pd
_symmetry_space_group_name_H-M   'P 1'
_cell_length_a   13.51292187
_cell_length_b   13.51292162
_cell_length_c   7.37378300
_cell_angle_alpha   90.00000000
_cell_angle_beta   90.00000000
_cell_angle_gamma   161.14171365
_symmetry_Int_Tables_number   1
_chemical_formula_structural   Tb2Sn5Ir2Pd
_chemical_formula_sum   'Tb4 Sn10 Ir4 Pd2'
_cell_volume   435.20971555
_cell_formula_units_Z   2
loop_
 _symmetry_equiv_pos_site_id
 _symmetry_equiv_pos_as_xyz
  1  'x, y, z'
loop_
 _atom_site_type_symbol
 _atom_site_label
 _atom_site_symmetry_multiplicity
 _atom_site_fract_x
 _atom_site_fract_y
 _atom_site_fract_z
 _atom_site_occupancy
  Tb  Tb0  1  0.174391  0.825609  0.758951  1
  Tb  Tb1  1  0.825609  0.174391  0.258951  1
  Tb  Tb2  1  0.475654  0.524346  0.737179  1
  Tb  Tb3  1  0.524346  0.475654  0.237179  1
  Sn  Sn4  1  0.878128  0.121872  0.725290  1
  Sn  Sn5  1  0.121872  0.878128  0.225290  1
  Sn  Sn6  1  0.704346  0.295654  0.049598  1
  Sn  Sn7  1  0.295654  0.704346  0.549598  1
  Sn  Sn8  1  0.598669  0.401331  0.613985  1
  Sn  Sn9  1  0.401331  0.598669  0.113985  1
  Sn  Sn10  1  0.951673  0.048327  0.397158  1
  Sn  Sn11  1  0.048327  0.951673  0.897158  1
  Sn  Sn12  1  0.291010  0.708990  0.980125  1
  Sn  Sn13  1  0.708990  0.291010  0.480125  1
  Ir  Ir14  1  0.775385  0.224615  0.768388  1
  Ir  Ir15  1  0.224615  0.775385  0.268388  1
  Ir  Ir16  1  0.394966  0.605034  0.482881  1
  Ir  Ir17  1  0.605034  0.394966  0.982881  1
  Pd  Pd18  1  0.050123  0.949877  0.514443  1
  Pd  Pd19  1  0.949877  0.050123  0.014443  1
