# generated using pymatgen
data_ScRhBr18
_symmetry_space_group_name_H-M   'P 1'
_cell_length_a   9.14072663
_cell_length_b   9.18924901
_cell_length_c   9.12211136
_cell_angle_alpha   92.67507370
_cell_angle_beta   92.72295435
_cell_angle_gamma   92.58677261
_symmetry_Int_Tables_number   1
_chemical_formula_structural   ScRhBr18
_chemical_formula_sum   'Sc1 Rh1 Br18'
_cell_volume   763.66414916
_cell_formula_units_Z   1
loop_
 _symmetry_equiv_pos_site_id
 _symmetry_equiv_pos_as_xyz
  1  'x, y, z'
loop_
 _atom_site_type_symbol
 _atom_site_label
 _atom_site_symmetry_multiplicity
 _atom_site_fract_x
 _atom_site_fract_y
 _atom_site_fract_z
 _atom_site_occupancy
  Sc  Sc0  1  0.500000  0.500000  0.500000  1
  Rh  Rh1  1  0.000000  0.000000  0.000000  1
  Br  Br2  1  0.790696  0.475648  0.529607  1
  Br  Br3  1  0.529241  0.788925  0.475164  1
  Br  Br4  1  0.476207  0.530403  0.791120  1
  Br  Br5  1  0.209304  0.524352  0.470393  1
  Br  Br6  1  0.470759  0.211075  0.524836  1
  Br  Br7  1  0.523793  0.469597  0.208880  1
  Br  Br8  1  0.900058  0.365115  0.766026  1
  Br  Br9  1  0.765359  0.898657  0.365925  1
  Br  Br10  1  0.365957  0.765773  0.900055  1
  Br  Br11  1  0.099942  0.634885  0.233974  1
  Br  Br12  1  0.234641  0.101343  0.634075  1
  Br  Br13  1  0.634043  0.234227  0.099945  1
  Br  Br14  1  0.007697  0.969235  0.725906  1
  Br  Br15  1  0.726363  0.008046  0.968072  1
  Br  Br16  1  0.968193  0.727869  0.006608  1
  Br  Br17  1  0.992303  0.030765  0.274094  1
  Br  Br18  1  0.273637  0.991954  0.031928  1
  Br  Br19  1  0.031807  0.272131  0.993392  1
