# generated using pymatgen
data_LiTbDy15Cd3Co4
_symmetry_space_group_name_H-M   'P 1'
_cell_length_a   9.48635623
_cell_length_b   9.48907663
_cell_length_c   9.51881809
_cell_angle_alpha   60.10330653
_cell_angle_beta   60.06737191
_cell_angle_gamma   59.99051553
_symmetry_Int_Tables_number   1
_chemical_formula_structural   LiTbDy15Cd3Co4
_chemical_formula_sum   'Li1 Tb1 Dy15 Cd3 Co4'
_cell_volume   606.62332085
_cell_formula_units_Z   1
loop_
 _symmetry_equiv_pos_site_id
 _symmetry_equiv_pos_as_xyz
  1  'x, y, z'
loop_
 _atom_site_type_symbol
 _atom_site_label
 _atom_site_symmetry_multiplicity
 _atom_site_fract_x
 _atom_site_fract_y
 _atom_site_fract_z
 _atom_site_occupancy
  Li  Li0  1  0.822291  0.822515  0.532676  1
  Tb  Tb1  1  0.061857  0.438854  0.060435  1
  Dy  Dy2  1  0.438625  0.439150  0.060106  1
  Dy  Dy3  1  0.594507  0.593581  0.596289  1
  Dy  Dy4  1  0.187733  0.813007  0.812664  1
  Dy  Dy5  1  0.063027  0.063970  0.436191  1
  Dy  Dy6  1  0.438625  0.062120  0.060106  1
  Dy  Dy7  1  0.813354  0.186958  0.812730  1
  Dy  Dy8  1  0.435756  0.063814  0.436615  1
  Dy  Dy9  1  0.594507  0.215624  0.596289  1
  Dy  Dy10  1  0.811736  0.811497  0.187624  1
  Dy  Dy11  1  0.215062  0.594203  0.596533  1
  Dy  Dy12  1  0.811736  0.189143  0.187624  1
  Dy  Dy13  1  0.063027  0.436812  0.436191  1
  Dy  Dy14  1  0.189603  0.811491  0.187416  1
  Dy  Dy15  1  0.596613  0.596918  0.209551  1
  Dy  Dy16  1  0.187733  0.186596  0.812664  1
  Cd  Cd17  1  0.831187  0.831943  0.827286  1
  Cd  Cd18  1  0.508723  0.831794  0.827688  1
  Cd  Cd19  1  0.831187  0.509583  0.827286  1
  Co  Co20  1  0.391886  0.391220  0.389433  1
  Co  Co21  1  0.827676  0.391177  0.389972  1
  Co  Co22  1  0.391886  0.827462  0.389433  1
  Co  Co23  1  0.391666  0.390568  0.827197  1
