# generated using pymatgen
data_Gd4CrMoO12
_symmetry_space_group_name_H-M   'P 1'
_cell_length_a   10.03550270
_cell_length_b   10.19340899
_cell_length_c   5.46557828
_cell_angle_alpha   73.57711752
_cell_angle_beta   74.37447640
_cell_angle_gamma   68.49383024
_symmetry_Int_Tables_number   1
_chemical_formula_structural   Gd4CrMoO12
_chemical_formula_sum   'Gd8 Cr2 Mo2 O24'
_cell_volume   490.28141355
_cell_formula_units_Z   2
loop_
 _symmetry_equiv_pos_site_id
 _symmetry_equiv_pos_as_xyz
  1  'x, y, z'
loop_
 _atom_site_type_symbol
 _atom_site_label
 _atom_site_symmetry_multiplicity
 _atom_site_fract_x
 _atom_site_fract_y
 _atom_site_fract_z
 _atom_site_occupancy
  Gd  Gd0  1  0.788654  0.547888  0.626840  1
  Gd  Gd1  1  0.211346  0.452112  0.373160  1
  Gd  Gd2  1  0.607057  0.391499  0.264178  1
  Gd  Gd3  1  0.392943  0.608501  0.735822  1
  Gd  Gd4  1  0.555492  0.777932  0.111110  1
  Gd  Gd5  1  0.138359  0.861057  0.241694  1
  Gd  Gd6  1  0.444508  0.222068  0.888890  1
  Gd  Gd7  1  0.861641  0.138943  0.758306  1
  Cr  Cr8  1  0.290724  0.032673  0.557909  1
  Cr  Cr9  1  0.709276  0.967327  0.442091  1
  Mo  Mo10  1  0.986965  0.707003  0.936631  1
  Mo  Mo11  1  0.013035  0.292997  0.063369  1
  O  O12  1  0.383505  0.426808  0.583570  1
  O  O13  1  0.588886  0.982393  0.722937  1
  O  O14  1  0.818045  0.706878  0.867560  1
  O  O15  1  0.664090  0.104647  0.190975  1
  O  O16  1  0.108096  0.676829  0.625148  1
  O  O17  1  0.335910  0.895353  0.809025  1
  O  O18  1  0.286254  0.183288  0.631640  1
  O  O19  1  0.973793  0.572333  0.245596  1
  O  O20  1  0.574493  0.608457  0.916393  1
  O  O21  1  0.411114  0.017607  0.277063  1
  O  O22  1  0.126197  0.042685  0.519737  1
  O  O23  1  0.190058  0.667093  0.064921  1
  O  O24  1  0.809942  0.332907  0.935079  1
  O  O25  1  0.343866  0.772006  0.361169  1
  O  O26  1  0.891904  0.323171  0.374852  1
  O  O27  1  0.949740  0.888942  0.974841  1
  O  O28  1  0.873803  0.957315  0.480263  1
  O  O29  1  0.656134  0.227994  0.638831  1
  O  O30  1  0.713746  0.816712  0.368360  1
  O  O31  1  0.050260  0.111058  0.025159  1
  O  O32  1  0.181955  0.293122  0.132440  1
  O  O33  1  0.616495  0.573192  0.416430  1
  O  O34  1  0.425507  0.391543  0.083607  1
  O  O35  1  0.026207  0.427667  0.754404  1
