# generated using pymatgen
data_Y9HoCd3Tc
_symmetry_space_group_name_H-M   'P 1'
_cell_length_a   9.64794940
_cell_length_b   9.63596657
_cell_length_c   9.90839631
_cell_angle_alpha   90.00000001
_cell_angle_beta   89.94948747
_cell_angle_gamma   119.95892322
_symmetry_Int_Tables_number   1
_chemical_formula_structural   Y9HoCd3Tc
_chemical_formula_sum   'Y18 Ho2 Cd6 Tc2'
_cell_volume   798.07496991
_cell_formula_units_Z   2
loop_
 _symmetry_equiv_pos_site_id
 _symmetry_equiv_pos_as_xyz
  1  'x, y, z'
loop_
 _atom_site_type_symbol
 _atom_site_label
 _atom_site_symmetry_multiplicity
 _atom_site_fract_x
 _atom_site_fract_y
 _atom_site_fract_z
 _atom_site_occupancy
  Y  Y0  1  0.000921  0.000460  0.499712  1
  Y  Y1  1  0.000069  0.000035  0.999931  1
  Y  Y2  1  0.579593  0.789796  0.441352  1
  Y  Y3  1  0.790690  0.209698  0.559555  1
  Y  Y4  1  0.790690  0.580991  0.559555  1
  Y  Y5  1  0.419745  0.209873  0.558791  1
  Y  Y6  1  0.790296  0.209525  0.940276  1
  Y  Y7  1  0.790296  0.580770  0.940276  1
  Y  Y8  1  0.419881  0.209940  0.940873  1
  Y  Y9  1  0.209811  0.790531  0.059946  1
  Y  Y10  1  0.209811  0.419280  0.059946  1
  Y  Y11  1  0.579717  0.789858  0.059057  1
  Y  Y12  1  0.538780  0.460284  0.250299  1
  Y  Y13  1  0.538780  0.078497  0.250299  1
  Y  Y14  1  0.921545  0.460773  0.250606  1
  Y  Y15  1  0.460714  0.539493  0.749557  1
  Y  Y16  1  0.460714  0.921219  0.749557  1
  Y  Y17  1  0.079804  0.539902  0.749203  1
  Ho  Ho18  1  0.210033  0.789839  0.440011  1
  Ho  Ho19  1  0.210033  0.420194  0.440011  1
  Cd  Cd20  1  0.886317  0.113749  0.250030  1
  Cd  Cd21  1  0.886317  0.772569  0.250030  1
  Cd  Cd22  1  0.227946  0.113973  0.249799  1
  Cd  Cd23  1  0.113625  0.886195  0.750009  1
  Cd  Cd24  1  0.113625  0.227429  0.750009  1
  Cd  Cd25  1  0.772120  0.886060  0.749955  1
  Tc  Tc26  1  0.330484  0.665243  0.251531  1
  Tc  Tc27  1  0.667645  0.333822  0.749823  1
