# generated using pymatgen
data_Hf6Ga6IrPd3Rh2
_symmetry_space_group_name_H-M   'P 1'
_cell_length_a   7.27512800
_cell_length_b   7.27512693
_cell_length_c   6.75526200
_cell_angle_alpha   90.00000000
_cell_angle_beta   90.00000000
_cell_angle_gamma   119.99999579
_symmetry_Int_Tables_number   1
_chemical_formula_structural   Hf6Ga6IrPd3Rh2
_chemical_formula_sum   'Hf6 Ga6 Ir1 Pd3 Rh2'
_cell_volume   309.63786276
_cell_formula_units_Z   1
loop_
 _symmetry_equiv_pos_site_id
 _symmetry_equiv_pos_as_xyz
  1  'x, y, z'
loop_
 _atom_site_type_symbol
 _atom_site_label
 _atom_site_symmetry_multiplicity
 _atom_site_fract_x
 _atom_site_fract_y
 _atom_site_fract_z
 _atom_site_occupancy
  Hf  Hf0  1  0.601867  0.601028  0.253462  1
  Hf  Hf1  1  0.012264  0.404346  0.746292  1
  Hf  Hf2  1  0.398972  0.000838  0.253462  1
  Hf  Hf3  1  0.999162  0.398133  0.253462  1
  Hf  Hf4  1  0.392082  0.987736  0.746292  1
  Hf  Hf5  1  0.595654  0.607918  0.746292  1
  Ga  Ga6  1  0.274219  0.270007  0.500286  1
  Ga  Ga7  1  0.729993  0.004211  0.500286  1
  Ga  Ga8  1  0.995789  0.725781  0.500286  1
  Ga  Ga9  1  0.728986  0.000545  0.000424  1
  Ga  Ga10  1  0.271558  0.271014  0.000424  1
  Ga  Ga11  1  0.999455  0.728442  0.000424  1
  Ir  Ir12  1  0.333333  0.666667  0.491754  1
  Pd  Pd13  1  0.000000  0.000000  0.749092  1
  Pd  Pd14  1  0.000000  0.000000  0.251692  1
  Pd  Pd15  1  0.666667  0.333333  0.988498  1
  Rh  Rh16  1  0.333333  0.666667  0.009307  1
  Rh  Rh17  1  0.666667  0.333333  0.508264  1
