# generated using pymatgen
data_LaGa2Ir2Rh
_symmetry_space_group_name_H-M   'P 1'
_cell_length_a   5.66908087
_cell_length_b   5.66908174
_cell_length_c   3.88997200
_cell_angle_alpha   90.00000000
_cell_angle_beta   90.00000000
_cell_angle_gamma   119.75584513
_symmetry_Int_Tables_number   1
_chemical_formula_structural   LaGa2Ir2Rh
_chemical_formula_sum   'La1 Ga2 Ir2 Rh1'
_cell_volume   108.53397513
_cell_formula_units_Z   1
loop_
 _symmetry_equiv_pos_site_id
 _symmetry_equiv_pos_as_xyz
  1  'x, y, z'
loop_
 _atom_site_type_symbol
 _atom_site_label
 _atom_site_symmetry_multiplicity
 _atom_site_fract_x
 _atom_site_fract_y
 _atom_site_fract_z
 _atom_site_occupancy
  La  La0  1  0.000000  0.000000  0.000000  1
  Ga  Ga1  1  0.334153  0.665847  0.000000  1
  Ga  Ga2  1  0.665847  0.334153  0.000000  1
  Ir  Ir3  1  0.500000  0.000000  0.500000  1
  Ir  Ir4  1  0.000000  0.500000  0.500000  1
  Rh  Rh5  1  0.500000  0.500000  0.500000  1
