# generated using pymatgen
data_Er16Sc4PdPt11
_symmetry_space_group_name_H-M   'P 1'
_cell_length_a   10.85855600
_cell_length_b   10.85855600
_cell_length_c   6.26130700
_cell_angle_alpha   90.00000000
_cell_angle_beta   90.00000000
_cell_angle_gamma   90.00000000
_symmetry_Int_Tables_number   1
_chemical_formula_structural   Er16Sc4PdPt11
_chemical_formula_sum   'Er16 Sc4 Pd1 Pt11'
_cell_volume   738.25967848
_cell_formula_units_Z   1
loop_
 _symmetry_equiv_pos_site_id
 _symmetry_equiv_pos_as_xyz
  1  'x, y, z'
loop_
 _atom_site_type_symbol
 _atom_site_label
 _atom_site_symmetry_multiplicity
 _atom_site_fract_x
 _atom_site_fract_y
 _atom_site_fract_z
 _atom_site_occupancy
  Er  Er0  1  0.287796  0.087988  0.376770  1
  Er  Er1  1  0.287673  0.912628  0.876947  1
  Er  Er2  1  0.712327  0.087372  0.876947  1
  Er  Er3  1  0.712204  0.912012  0.376770  1
  Er  Er4  1  0.587372  0.787673  0.876947  1
  Er  Er5  1  0.587988  0.212204  0.376770  1
  Er  Er6  1  0.412012  0.787796  0.376770  1
  Er  Er7  1  0.412628  0.212327  0.876947  1
  Er  Er8  1  0.212734  0.411969  0.624413  1
  Er  Er9  1  0.212362  0.587648  0.119804  1
  Er  Er10  1  0.787638  0.412352  0.119804  1
  Er  Er11  1  0.787266  0.588031  0.624413  1
  Er  Er12  1  0.912352  0.712362  0.119804  1
  Er  Er13  1  0.911969  0.287266  0.624413  1
  Er  Er14  1  0.088031  0.712734  0.624413  1
  Er  Er15  1  0.087648  0.287638  0.119804  1
  Sc  Sc16  1  0.000000  0.000000  0.501268  1
  Sc  Sc17  1  0.000000  0.000000  0.001213  1
  Sc  Sc18  1  0.500000  0.500000  0.001213  1
  Sc  Sc19  1  0.500000  0.500000  0.501268  1
  Pd  Pd20  1  0.000000  0.500000  0.383612  1
  Pt  Pt21  1  0.851246  0.149707  0.250516  1
  Pt  Pt22  1  0.851116  0.850445  0.750002  1
  Pt  Pt23  1  0.148884  0.149555  0.750002  1
  Pt  Pt24  1  0.148754  0.850293  0.250516  1
  Pt  Pt25  1  0.649555  0.351116  0.750002  1
  Pt  Pt26  1  0.649707  0.648754  0.250516  1
  Pt  Pt27  1  0.350293  0.351246  0.250516  1
  Pt  Pt28  1  0.350445  0.648884  0.750002  1
  Pt  Pt29  1  0.500000  0.000000  0.117188  1
  Pt  Pt30  1  0.500000  0.000000  0.617610  1
  Pt  Pt31  1  0.000000  0.500000  0.882821  1
