# generated using pymatgen
data_Y4Er4B24Ir3Rh
_symmetry_space_group_name_H-M   'P 1'
_cell_length_a   3.64159300
_cell_length_b   9.16409718
_cell_length_c   11.52413022
_cell_angle_alpha   90.02233455
_cell_angle_beta   90.00000000
_cell_angle_gamma   90.00000000
_symmetry_Int_Tables_number   1
_chemical_formula_structural   Y4Er4B24Ir3Rh
_chemical_formula_sum   'Y4 Er4 B24 Ir3 Rh1'
_cell_volume   384.58223171
_cell_formula_units_Z   1
loop_
 _symmetry_equiv_pos_site_id
 _symmetry_equiv_pos_as_xyz
  1  'x, y, z'
loop_
 _atom_site_type_symbol
 _atom_site_label
 _atom_site_symmetry_multiplicity
 _atom_site_fract_x
 _atom_site_fract_y
 _atom_site_fract_z
 _atom_site_occupancy
  Y  Y0  1  0.500000  0.323030  0.413047  1
  Y  Y1  1  0.500000  0.677436  0.585950  1
  Y  Y2  1  0.500000  0.178097  0.913550  1
  Y  Y3  1  0.500000  0.821854  0.087382  1
  Er  Er4  1  0.500000  0.445112  0.126479  1
  Er  Er5  1  0.500000  0.555506  0.874471  1
  Er  Er6  1  0.500000  0.055515  0.625441  1
  Er  Er7  1  0.500000  0.943362  0.373918  1
  B  B8  1  0.000000  0.108540  0.470287  1
  B  B9  1  0.000000  0.891200  0.529465  1
  B  B10  1  0.000000  0.391423  0.970631  1
  B  B11  1  0.000000  0.608839  0.029565  1
  B  B12  1  0.000000  0.131911  0.315758  1
  B  B13  1  0.000000  0.867938  0.683861  1
  B  B14  1  0.000000  0.368080  0.816128  1
  B  B15  1  0.000000  0.632430  0.184048  1
  B  B16  1  0.000000  0.054042  0.066675  1
  B  B17  1  0.000000  0.946095  0.933392  1
  B  B18  1  0.000000  0.445882  0.566466  1
  B  B19  1  0.000000  0.553826  0.433625  1
  B  B20  1  0.000000  0.482789  0.286943  1
  B  B21  1  0.000000  0.517290  0.713548  1
  B  B22  1  0.000000  0.017554  0.786639  1
  B  B23  1  0.000000  0.982413  0.213377  1
  B  B24  1  0.000000  0.250512  0.080083  1
  B  B25  1  0.000000  0.749670  0.919978  1
  B  B26  1  0.000000  0.249932  0.579803  1
  B  B27  1  0.000000  0.749773  0.419911  1
  B  B28  1  0.000000  0.293823  0.234645  1
  B  B29  1  0.000000  0.706401  0.765274  1
  B  B30  1  0.000000  0.206374  0.734475  1
  B  B31  1  0.000000  0.793665  0.264919  1
  Ir  Ir32  1  0.500000  0.139152  0.179175  1
  Ir  Ir33  1  0.500000  0.861172  0.820572  1
  Ir  Ir34  1  0.500000  0.360420  0.680232  1
  Rh  Rh35  1  0.500000  0.638940  0.320287  1
