# generated using pymatgen
data_Ba4HoOsO8
_symmetry_space_group_name_H-M   'P 1'
_cell_length_a   7.43809714
_cell_length_b   7.43809682
_cell_length_c   5.96890100
_cell_angle_alpha   90.00000000
_cell_angle_beta   90.00000000
_cell_angle_gamma   132.83089505
_symmetry_Int_Tables_number   1
_chemical_formula_structural   Ba4HoOsO8
_chemical_formula_sum   'Ba4 Ho1 Os1 O8'
_cell_volume   242.17944202
_cell_formula_units_Z   1
loop_
 _symmetry_equiv_pos_site_id
 _symmetry_equiv_pos_as_xyz
  1  'x, y, z'
loop_
 _atom_site_type_symbol
 _atom_site_label
 _atom_site_symmetry_multiplicity
 _atom_site_fract_x
 _atom_site_fract_y
 _atom_site_fract_z
 _atom_site_occupancy
  Ba  Ba0  1  0.354265  0.645735  0.000000  1
  Ba  Ba1  1  0.853446  0.146554  0.500000  1
  Ba  Ba2  1  0.146554  0.853446  0.500000  1
  Ba  Ba3  1  0.645735  0.354265  0.000000  1
  Ho  Ho4  1  0.000000  0.000000  0.000000  1
  Os  Os5  1  0.500000  0.500000  0.500000  1
  O  O6  1  0.261850  0.261850  0.732794  1
  O  O7  1  0.738150  0.738150  0.267206  1
  O  O8  1  0.738150  0.738150  0.732794  1
  O  O9  1  0.261850  0.261850  0.267206  1
  O  O10  1  0.165117  0.834883  0.000000  1
  O  O11  1  0.649208  0.350792  0.500000  1
  O  O12  1  0.350792  0.649208  0.500000  1
  O  O13  1  0.834883  0.165117  0.000000  1
