# generated using pymatgen
data_Nd3ZnIn3Rh2
_symmetry_space_group_name_H-M   'P 1'
_cell_length_a   7.83552900
_cell_length_b   7.83552911
_cell_length_c   3.97225600
_cell_angle_alpha   90.00000000
_cell_angle_beta   90.00000000
_cell_angle_gamma   120.00000377
_symmetry_Int_Tables_number   1
_chemical_formula_structural   Nd3ZnIn3Rh2
_chemical_formula_sum   'Nd3 Zn1 In3 Rh2'
_cell_volume   211.20514593
_cell_formula_units_Z   1
loop_
 _symmetry_equiv_pos_site_id
 _symmetry_equiv_pos_as_xyz
  1  'x, y, z'
loop_
 _atom_site_type_symbol
 _atom_site_label
 _atom_site_symmetry_multiplicity
 _atom_site_fract_x
 _atom_site_fract_y
 _atom_site_fract_z
 _atom_site_occupancy
  Nd  Nd0  1  0.602345  0.019063  0.500000  1
  Nd  Nd1  1  0.416719  0.397655  0.500000  1
  Nd  Nd2  1  0.980937  0.583281  0.500000  1
  Zn  Zn3  1  0.333333  0.666667  0.000000  1
  In  In4  1  0.251358  0.998775  0.000000  1
  In  In5  1  0.747417  0.748642  0.000000  1
  In  In6  1  0.001225  0.252583  0.000000  1
  Rh  Rh7  1  0.000000  0.000000  0.500000  1
  Rh  Rh8  1  0.666667  0.333333  0.000000  1
