# generated using pymatgen
data_Tb6Ho4FeCoBi4
_symmetry_space_group_name_H-M   'P 1'
_cell_length_a   7.98952411
_cell_length_b   8.92474700
_cell_length_c   12.42934134
_cell_angle_alpha   90.00000000
_cell_angle_beta   89.94262061
_cell_angle_gamma   90.00000000
_symmetry_Int_Tables_number   1
_chemical_formula_structural   Tb6Ho4FeCoBi4
_chemical_formula_sum   'Tb12 Ho8 Fe2 Co2 Bi8'
_cell_volume   886.26729359
_cell_formula_units_Z   2
loop_
 _symmetry_equiv_pos_site_id
 _symmetry_equiv_pos_as_xyz
  1  'x, y, z'
loop_
 _atom_site_type_symbol
 _atom_site_label
 _atom_site_symmetry_multiplicity
 _atom_site_fract_x
 _atom_site_fract_y
 _atom_site_fract_z
 _atom_site_occupancy
  Tb  Tb0  1  0.347817  0.750000  0.700348  1
  Tb  Tb1  1  0.652183  0.250000  0.299652  1
  Tb  Tb2  1  0.849749  0.250000  0.800405  1
  Tb  Tb3  1  0.150251  0.750000  0.199595  1
  Tb  Tb4  1  0.885811  0.750000  0.811076  1
  Tb  Tb5  1  0.114189  0.250000  0.188924  1
  Tb  Tb6  1  0.384902  0.250000  0.687520  1
  Tb  Tb7  1  0.615098  0.750000  0.312480  1
  Tb  Tb8  1  0.051658  0.750000  0.496534  1
  Tb  Tb9  1  0.948342  0.250000  0.503466  1
  Tb  Tb10  1  0.555338  0.250000  0.004101  1
  Tb  Tb11  1  0.444662  0.750000  0.995899  1
  Ho  Ho12  1  0.675140  0.537663  0.563618  1
  Ho  Ho13  1  0.324860  0.462337  0.436382  1
  Ho  Ho14  1  0.174153  0.463546  0.937768  1
  Ho  Ho15  1  0.324860  0.037663  0.436382  1
  Ho  Ho16  1  0.825847  0.536454  0.062232  1
  Ho  Ho17  1  0.675140  0.962337  0.563618  1
  Ho  Ho18  1  0.825847  0.963546  0.062232  1
  Ho  Ho19  1  0.174153  0.036454  0.937768  1
  Fe  Fe20  1  0.069908  0.750000  0.990523  1
  Fe  Fe21  1  0.930092  0.250000  0.009477  1
  Co  Co22  1  0.564640  0.250000  0.507414  1
  Co  Co23  1  0.435360  0.750000  0.492586  1
  Bi  Bi24  1  0.572013  0.508139  0.826678  1
  Bi  Bi25  1  0.427987  0.491861  0.173322  1
  Bi  Bi26  1  0.072444  0.491728  0.673117  1
  Bi  Bi27  1  0.427987  0.008139  0.173322  1
  Bi  Bi28  1  0.927556  0.508272  0.326883  1
  Bi  Bi29  1  0.572013  0.991861  0.826678  1
  Bi  Bi30  1  0.927556  0.991728  0.326883  1
  Bi  Bi31  1  0.072444  0.008272  0.673117  1
