# generated using pymatgen
data_Nd12IrPt3
_symmetry_space_group_name_H-M   'P 1'
_cell_length_a   6.63174612
_cell_length_b   7.32500515
_cell_length_c   10.00922300
_cell_angle_alpha   90.00000000
_cell_angle_beta   90.00000000
_cell_angle_gamma   89.97748249
_symmetry_Int_Tables_number   1
_chemical_formula_structural   Nd12IrPt3
_chemical_formula_sum   'Nd12 Ir1 Pt3'
_cell_volume   486.22373828
_cell_formula_units_Z   1
loop_
 _symmetry_equiv_pos_site_id
 _symmetry_equiv_pos_as_xyz
  1  'x, y, z'
loop_
 _atom_site_type_symbol
 _atom_site_label
 _atom_site_symmetry_multiplicity
 _atom_site_fract_x
 _atom_site_fract_y
 _atom_site_fract_z
 _atom_site_occupancy
  Nd  Nd0  1  0.329492  0.677147  0.060612  1
  Nd  Nd1  1  0.170160  0.176651  0.437869  1
  Nd  Nd2  1  0.670197  0.326807  0.564911  1
  Nd  Nd3  1  0.825496  0.821258  0.935971  1
  Nd  Nd4  1  0.670197  0.326807  0.935089  1
  Nd  Nd5  1  0.825496  0.821258  0.564029  1
  Nd  Nd6  1  0.329492  0.677147  0.439388  1
  Nd  Nd7  1  0.170160  0.176651  0.062131  1
  Nd  Nd8  1  0.861804  0.531247  0.250000  1
  Nd  Nd9  1  0.638867  0.031854  0.250000  1
  Nd  Nd10  1  0.143025  0.469472  0.750000  1
  Nd  Nd11  1  0.364978  0.961879  0.750000  1
  Ir  Ir12  1  0.563142  0.617649  0.750000  1
  Pt  Pt13  1  0.064625  0.883599  0.250000  1
  Pt  Pt14  1  0.434855  0.383964  0.250000  1
  Pt  Pt15  1  0.938016  0.116610  0.750000  1
