# generated using pymatgen
data_Tb9Y(SiAs)4
_symmetry_space_group_name_H-M   'P 1'
_cell_length_a   8.25512101
_cell_length_b   8.25512146
_cell_length_c   7.67915200
_cell_angle_alpha   90.00154119
_cell_angle_beta   90.00153885
_cell_angle_gamma   124.94737950
_symmetry_Int_Tables_number   1
_chemical_formula_structural   Tb9Y(SiAs)4
_chemical_formula_sum   'Tb9 Y1 Si4 As4'
_cell_volume   428.94706827
_cell_formula_units_Z   1
loop_
 _symmetry_equiv_pos_site_id
 _symmetry_equiv_pos_as_xyz
  1  'x, y, z'
loop_
 _atom_site_type_symbol
 _atom_site_label
 _atom_site_symmetry_multiplicity
 _atom_site_fract_x
 _atom_site_fract_y
 _atom_site_fract_z
 _atom_site_occupancy
  Tb  Tb0  1  0.035656  0.307284  0.332135  1
  Tb  Tb1  1  0.964344  0.692716  0.667865  1
  Tb  Tb2  1  0.464376  0.192748  0.832071  1
  Tb  Tb3  1  0.807252  0.535624  0.167929  1
  Tb  Tb4  1  0.535624  0.807252  0.167929  1
  Tb  Tb5  1  0.192748  0.464376  0.832071  1
  Tb  Tb6  1  0.692716  0.964344  0.667865  1
  Tb  Tb7  1  0.307284  0.035656  0.332135  1
  Tb  Tb8  1  0.500000  0.500000  0.500000  1
  Y  Y9  1  0.000000  0.000000  0.000000  1
  Si  Si10  1  0.378922  0.378922  0.121771  1
  Si  Si11  1  0.621078  0.621078  0.878229  1
  Si  Si12  1  0.121082  0.121082  0.621805  1
  Si  Si13  1  0.878918  0.878918  0.378195  1
  As  As14  1  0.798023  0.201977  0.000000  1
  As  As15  1  0.201977  0.798023  0.000000  1
  As  As16  1  0.702044  0.297956  0.500000  1
  As  As17  1  0.297956  0.702044  0.500000  1
