# generated using pymatgen
data_Tm5Sc3Re(B8Ru)3
_symmetry_space_group_name_H-M   'P 1'
_cell_length_a   3.57211200
_cell_length_b   8.97215869
_cell_length_c   11.34412551
_cell_angle_alpha   90.06053843
_cell_angle_beta   90.00000000
_cell_angle_gamma   90.00000000
_symmetry_Int_Tables_number   1
_chemical_formula_structural   Tm5Sc3Re(B8Ru)3
_chemical_formula_sum   'Tm5 Sc3 Re1 B24 Ru3'
_cell_volume   363.57397964
_cell_formula_units_Z   1
loop_
 _symmetry_equiv_pos_site_id
 _symmetry_equiv_pos_as_xyz
  1  'x, y, z'
loop_
 _atom_site_type_symbol
 _atom_site_label
 _atom_site_symmetry_multiplicity
 _atom_site_fract_x
 _atom_site_fract_y
 _atom_site_fract_z
 _atom_site_occupancy
  Tm  Tm0  1  0.000000  0.321297  0.415666  1
  Tm  Tm1  1  0.000000  0.680477  0.588998  1
  Tm  Tm2  1  0.000000  0.820213  0.083106  1
  Tm  Tm3  1  0.000000  0.178892  0.912968  1
  Tm  Tm4  1  0.000000  0.944301  0.372398  1
  Sc  Sc5  1  0.000000  0.054839  0.629243  1
  Sc  Sc6  1  0.000000  0.444052  0.126664  1
  Sc  Sc7  1  0.000000  0.556116  0.872882  1
  Re  Re8  1  0.000000  0.860169  0.819633  1
  B  B9  1  0.500000  0.552658  0.433263  1
  B  B10  1  0.500000  0.445198  0.567263  1
  B  B11  1  0.500000  0.055293  0.066240  1
  B  B12  1  0.500000  0.946478  0.933580  1
  B  B13  1  0.500000  0.748849  0.419422  1
  B  B14  1  0.500000  0.247838  0.581692  1
  B  B15  1  0.500000  0.253238  0.080006  1
  B  B16  1  0.500000  0.747114  0.919297  1
  B  B17  1  0.500000  0.790908  0.263635  1
  B  B18  1  0.500000  0.206669  0.735142  1
  B  B19  1  0.500000  0.294833  0.234043  1
  B  B20  1  0.500000  0.705331  0.765310  1
  B  B21  1  0.500000  0.628050  0.181955  1
  B  B22  1  0.500000  0.371086  0.817074  1
  B  B23  1  0.500000  0.132580  0.316119  1
  B  B24  1  0.500000  0.870636  0.683818  1
  B  B25  1  0.500000  0.983275  0.211978  1
  B  B26  1  0.500000  0.019659  0.786518  1
  B  B27  1  0.500000  0.480688  0.285648  1
  B  B28  1  0.500000  0.518608  0.713954  1
  B  B29  1  0.500000  0.598679  0.027122  1
  B  B30  1  0.500000  0.400213  0.972596  1
  B  B31  1  0.500000  0.103939  0.474051  1
  B  B32  1  0.500000  0.898364  0.529524  1
  Ru  Ru33  1  0.000000  0.636467  0.318066  1
  Ru  Ru34  1  0.000000  0.360822  0.681697  1
  Ru  Ru35  1  0.000000  0.142173  0.179425  1
