# generated using pymatgen
data_SrLaPr2(BPd4)4
_symmetry_space_group_name_H-M   'P 1'
_cell_length_a   5.51647200
_cell_length_b   6.18788975
_cell_length_c   11.89627315
_cell_angle_alpha   90.08149731
_cell_angle_beta   90.00000000
_cell_angle_gamma   90.00000000
_symmetry_Int_Tables_number   1
_chemical_formula_structural   SrLaPr2(BPd4)4
_chemical_formula_sum   'Sr1 La1 Pr2 B4 Pd16'
_cell_volume   406.08268640
_cell_formula_units_Z   1
loop_
 _symmetry_equiv_pos_site_id
 _symmetry_equiv_pos_as_xyz
  1  'x, y, z'
loop_
 _atom_site_type_symbol
 _atom_site_label
 _atom_site_symmetry_multiplicity
 _atom_site_fract_x
 _atom_site_fract_y
 _atom_site_fract_z
 _atom_site_occupancy
  Sr  Sr0  1  0.250000  0.189070  0.659645  1
  La  La1  1  0.250000  0.690887  0.843244  1
  Pr  Pr2  1  0.750000  0.307209  0.156971  1
  Pr  Pr3  1  0.750000  0.806990  0.344451  1
  B  B4  1  0.750000  0.400156  0.551620  1
  B  B5  1  0.750000  0.899891  0.949041  1
  B  B6  1  0.250000  0.599169  0.447556  1
  B  B7  1  0.250000  0.098692  0.051763  1
  Pd  Pd8  1  0.750000  0.387984  0.734592  1
  Pd  Pd9  1  0.750000  0.880710  0.765977  1
  Pd  Pd10  1  0.250000  0.616864  0.264978  1
  Pd  Pd11  1  0.250000  0.120658  0.233555  1
  Pd  Pd12  1  0.750000  0.059419  0.555565  1
  Pd  Pd13  1  0.750000  0.558301  0.944362  1
  Pd  Pd14  1  0.250000  0.938695  0.439915  1
  Pd  Pd15  1  0.250000  0.442449  0.056277  1
  Pd  Pd16  1  0.998743  0.160959  0.913610  1
  Pd  Pd17  1  0.500393  0.661880  0.586952  1
  Pd  Pd18  1  0.501175  0.838815  0.090018  1
  Pd  Pd19  1  0.998617  0.339774  0.409666  1
  Pd  Pd20  1  0.998825  0.838815  0.090018  1
  Pd  Pd21  1  0.501383  0.339774  0.409666  1
  Pd  Pd22  1  0.501257  0.160959  0.913610  1
  Pd  Pd23  1  0.999607  0.661880  0.586952  1
