# generated using pymatgen
data_Ho6Ta2Fe3Co13P12
_symmetry_space_group_name_H-M   'P 1'
_cell_length_a   3.69974900
_cell_length_b   10.62057311
_cell_length_c   12.23415382
_cell_angle_alpha   90.15869750
_cell_angle_beta   90.00000000
_cell_angle_gamma   90.00000000
_symmetry_Int_Tables_number   1
_chemical_formula_structural   Ho6Ta2Fe3Co13P12
_chemical_formula_sum   'Ho6 Ta2 Fe3 Co13 P12'
_cell_volume   480.72032540
_cell_formula_units_Z   1
loop_
 _symmetry_equiv_pos_site_id
 _symmetry_equiv_pos_as_xyz
  1  'x, y, z'
loop_
 _atom_site_type_symbol
 _atom_site_label
 _atom_site_symmetry_multiplicity
 _atom_site_fract_x
 _atom_site_fract_y
 _atom_site_fract_z
 _atom_site_occupancy
  Ho  Ho0  1  0.000000  0.500913  0.527026  1
  Ho  Ho1  1  0.500000  0.999908  0.472831  1
  Ho  Ho2  1  0.500000  0.822401  0.203840  1
  Ho  Ho3  1  0.500000  0.178854  0.204156  1
  Ho  Ho4  1  0.000000  0.678022  0.796502  1
  Ho  Ho5  1  0.000000  0.321325  0.795975  1
  Ta  Ta6  1  0.500000  0.500683  0.155103  1
  Ta  Ta7  1  0.000000  0.999927  0.844425  1
  Fe  Fe8  1  0.000000  0.500017  0.988098  1
  Fe  Fe9  1  0.500000  0.000557  0.011877  1
  Fe  Fe10  1  0.500000  0.294928  0.431683  1
  Co  Co11  1  0.500000  0.704063  0.432170  1
  Co  Co12  1  0.000000  0.203186  0.569500  1
  Co  Co13  1  0.000000  0.794842  0.568042  1
  Co  Co14  1  0.500000  0.877376  0.705339  1
  Co  Co15  1  0.500000  0.120896  0.705349  1
  Co  Co16  1  0.000000  0.623156  0.294170  1
  Co  Co17  1  0.000000  0.379867  0.294518  1
  Co  Co18  1  0.500000  0.331340  0.993708  1
  Co  Co19  1  0.500000  0.668990  0.993476  1
  Co  Co20  1  0.000000  0.169272  0.006401  1
  Co  Co21  1  0.000000  0.831613  0.006640  1
  Co  Co22  1  0.500000  0.499337  0.701539  1
  Co  Co23  1  0.000000  0.000322  0.298473  1
  P  P24  1  0.500000  0.309217  0.614435  1
  P  P25  1  0.500000  0.689259  0.616260  1
  P  P26  1  0.000000  0.191623  0.384602  1
  P  P27  1  0.000000  0.810196  0.383765  1
  P  P28  1  0.500000  0.499542  0.884425  1
  P  P29  1  0.000000  0.000856  0.115647  1
  P  P30  1  0.500000  0.841226  0.894002  1
  P  P31  1  0.500000  0.158877  0.893497  1
  P  P32  1  0.000000  0.659198  0.105949  1
  P  P33  1  0.000000  0.341682  0.106635  1
  P  P34  1  0.500000  0.496395  0.357488  1
  P  P35  1  0.000000  0.000133  0.642455  1
