# generated using pymatgen
data_Er10Cd3In4HgPd4
_symmetry_space_group_name_H-M   'P 1'
_cell_length_a   3.58966200
_cell_length_b   8.03409638
_cell_length_c   18.26033387
_cell_angle_alpha   90.03521617
_cell_angle_beta   90.00000000
_cell_angle_gamma   90.00000000
_symmetry_Int_Tables_number   1
_chemical_formula_structural   Er10Cd3In4HgPd4
_chemical_formula_sum   'Er10 Cd3 In4 Hg1 Pd4'
_cell_volume   526.62227713
_cell_formula_units_Z   1
loop_
 _symmetry_equiv_pos_site_id
 _symmetry_equiv_pos_as_xyz
  1  'x, y, z'
loop_
 _atom_site_type_symbol
 _atom_site_label
 _atom_site_symmetry_multiplicity
 _atom_site_fract_x
 _atom_site_fract_y
 _atom_site_fract_z
 _atom_site_occupancy
  Er  Er0  1  0.000000  0.495253  0.502070  1
  Er  Er1  1  0.000000  0.000455  0.999549  1
  Er  Er2  1  0.000000  0.746166  0.281360  1
  Er  Er3  1  0.000000  0.255262  0.715769  1
  Er  Er4  1  0.000000  0.754220  0.782591  1
  Er  Er5  1  0.000000  0.245973  0.218540  1
  Er  Er6  1  0.000000  0.614080  0.084048  1
  Er  Er7  1  0.000000  0.386098  0.915576  1
  Er  Er8  1  0.000000  0.889743  0.583840  1
  Er  Er9  1  0.000000  0.113272  0.416185  1
  Cd  Cd10  1  0.500000  0.709541  0.932613  1
  Cd  Cd11  1  0.500000  0.290504  0.067691  1
  Cd  Cd12  1  0.500000  0.786640  0.432724  1
  In  In13  1  0.500000  0.579282  0.648479  1
  In  In14  1  0.500000  0.427012  0.352706  1
  In  In15  1  0.500000  0.926604  0.147273  1
  In  In16  1  0.500000  0.075137  0.851673  1
  Hg  Hg17  1  0.500000  0.208737  0.566459  1
  Pd  Pd18  1  0.500000  0.528925  0.197296  1
  Pd  Pd19  1  0.500000  0.469910  0.802314  1
  Pd  Pd20  1  0.500000  0.968677  0.698089  1
  Pd  Pd21  1  0.500000  0.028510  0.303154  1
