# generated using pymatgen
data_Pr3SmMg2(CoO6)2
_symmetry_space_group_name_H-M   'P 1'
_cell_length_a   5.44860919
_cell_length_b   5.51858535
_cell_length_c   7.73495928
_cell_angle_alpha   89.95883322
_cell_angle_beta   89.90850767
_cell_angle_gamma   90.15156952
_symmetry_Int_Tables_number   1
_chemical_formula_structural   Pr3SmMg2(CoO6)2
_chemical_formula_sum   'Pr3 Sm1 Mg2 Co2 O12'
_cell_volume   232.57834048
_cell_formula_units_Z   1
loop_
 _symmetry_equiv_pos_site_id
 _symmetry_equiv_pos_as_xyz
  1  'x, y, z'
loop_
 _atom_site_type_symbol
 _atom_site_label
 _atom_site_symmetry_multiplicity
 _atom_site_fract_x
 _atom_site_fract_y
 _atom_site_fract_z
 _atom_site_occupancy
  Pr  Pr0  1  0.510510  0.543433  0.249743  1
  Pr  Pr1  1  0.990320  0.041770  0.249933  1
  Pr  Pr2  1  0.490206  0.456951  0.750270  1
  Sm  Sm3  1  0.011615  0.950684  0.749262  1
  Mg  Mg4  1  0.499870  0.000378  0.998589  1
  Mg  Mg5  1  0.000301  0.498319  0.500873  1
  Co  Co6  1  0.501210  0.999874  0.501773  1
  Co  Co7  1  0.999063  0.500192  0.998549  1
  O  O8  1  0.426638  0.986619  0.260318  1
  O  O9  1  0.074094  0.484231  0.239859  1
  O  O10  1  0.584833  0.014343  0.740012  1
  O  O11  1  0.925922  0.522704  0.759625  1
  O  O12  1  0.797727  0.774807  0.038991  1
  O  O13  1  0.700649  0.275276  0.459950  1
  O  O14  1  0.221275  0.202353  0.545566  1
  O  O15  1  0.273986  0.707560  0.958518  1
  O  O16  1  0.197450  0.221897  0.955383  1
  O  O17  1  0.295824  0.728245  0.542277  1
  O  O18  1  0.776797  0.794131  0.461447  1
  O  O19  1  0.721708  0.296232  0.039061  1
