# generated using pymatgen
data_Pu2ReC2
_symmetry_space_group_name_H-M   'P 1'
_cell_length_a   5.15159500
_cell_length_b   6.46726700
_cell_length_c   9.79396400
_cell_angle_alpha   90.00000000
_cell_angle_beta   90.00000000
_cell_angle_gamma   90.00000000
_symmetry_Int_Tables_number   1
_chemical_formula_structural   Pu2ReC2
_chemical_formula_sum   'Pu8 Re4 C8'
_cell_volume   326.30295550
_cell_formula_units_Z   4
loop_
 _symmetry_equiv_pos_site_id
 _symmetry_equiv_pos_as_xyz
  1  'x, y, z'
loop_
 _atom_site_type_symbol
 _atom_site_label
 _atom_site_symmetry_multiplicity
 _atom_site_fract_x
 _atom_site_fract_y
 _atom_site_fract_z
 _atom_site_occupancy
  Pu  Pu0  1  0.750000  0.472295  0.780094  1
  Pu  Pu1  1  0.250000  0.027705  0.280094  1
  Pu  Pu2  1  0.750000  0.972295  0.719906  1
  Pu  Pu3  1  0.250000  0.527705  0.219906  1
  Pu  Pu4  1  0.750000  0.808063  0.045509  1
  Pu  Pu5  1  0.250000  0.191937  0.954491  1
  Pu  Pu6  1  0.750000  0.308063  0.454491  1
  Pu  Pu7  1  0.250000  0.691937  0.545509  1
  Re  Re8  1  0.750000  0.777825  0.367318  1
  Re  Re9  1  0.250000  0.722175  0.867318  1
  Re  Re10  1  0.250000  0.222175  0.632682  1
  Re  Re11  1  0.750000  0.277825  0.132682  1
  C  C12  1  0.250000  0.959250  0.742686  1
  C  C13  1  0.750000  0.540750  0.242686  1
  C  C14  1  0.250000  0.459250  0.757314  1
  C  C15  1  0.750000  0.040750  0.257314  1
  C  C16  1  0.250000  0.327476  0.442833  1
  C  C17  1  0.750000  0.172524  0.942833  1
  C  C18  1  0.250000  0.827476  0.057167  1
  C  C19  1  0.750000  0.672524  0.557167  1
