# generated using pymatgen
data_MgVFeBO5
_symmetry_space_group_name_H-M   'P 1'
_cell_length_a   3.08547500
_cell_length_b   9.46823100
_cell_length_c   12.48928300
_cell_angle_alpha   90.00000000
_cell_angle_beta   90.00000000
_cell_angle_gamma   90.00000000
_symmetry_Int_Tables_number   1
_chemical_formula_structural   MgVFeBO5
_chemical_formula_sum   'Mg4 V4 Fe4 B4 O20'
_cell_volume   364.86178923
_cell_formula_units_Z   4
loop_
 _symmetry_equiv_pos_site_id
 _symmetry_equiv_pos_as_xyz
  1  'x, y, z'
loop_
 _atom_site_type_symbol
 _atom_site_label
 _atom_site_symmetry_multiplicity
 _atom_site_fract_x
 _atom_site_fract_y
 _atom_site_fract_z
 _atom_site_occupancy
  Mg  Mg0  1  0.000000  0.499600  0.222728  1
  Mg  Mg1  1  0.000000  0.000400  0.722728  1
  Mg  Mg2  1  0.000000  0.500400  0.777272  1
  Mg  Mg3  1  0.000000  0.999600  0.277272  1
  V  V4  1  0.500000  0.755894  0.886362  1
  V  V5  1  0.500000  0.744106  0.386362  1
  V  V6  1  0.500000  0.244106  0.113638  1
  V  V7  1  0.500000  0.255894  0.613638  1
  Fe  Fe8  1  0.000000  0.000000  0.000000  1
  Fe  Fe9  1  0.000000  0.500000  0.500000  1
  Fe  Fe10  1  0.500000  0.500000  0.000000  1
  Fe  Fe11  1  0.500000  0.000000  0.500000  1
  B  B12  1  0.500000  0.769075  0.140892  1
  B  B13  1  0.500000  0.730925  0.640892  1
  B  B14  1  0.500000  0.230925  0.859108  1
  B  B15  1  0.500000  0.269075  0.359108  1
  O  O16  1  0.500000  0.839514  0.043654  1
  O  O17  1  0.500000  0.660486  0.543654  1
  O  O18  1  0.500000  0.160486  0.956346  1
  O  O19  1  0.500000  0.339514  0.456346  1
  O  O20  1  0.000000  0.383786  0.082214  1
  O  O21  1  0.000000  0.116214  0.582214  1
  O  O22  1  0.000000  0.616214  0.917786  1
  O  O23  1  0.000000  0.883786  0.417786  1
  O  O24  1  0.500000  0.621849  0.146182  1
  O  O25  1  0.500000  0.878151  0.646182  1
  O  O26  1  0.500000  0.378151  0.853818  1
  O  O27  1  0.500000  0.121849  0.353818  1
  O  O28  1  0.000000  0.889708  0.858718  1
  O  O29  1  0.000000  0.610292  0.358718  1
  O  O30  1  0.000000  0.110292  0.141282  1
  O  O31  1  0.000000  0.389708  0.641282  1
  O  O32  1  0.500000  0.348343  0.264693  1
  O  O33  1  0.500000  0.151657  0.764693  1
  O  O34  1  0.500000  0.651657  0.735307  1
  O  O35  1  0.500000  0.848343  0.235307  1
