# generated using pymatgen
data_Sm3Th(Ni7P4)2
_symmetry_space_group_name_H-M   'P 1'
_cell_length_a   3.75737400
_cell_length_b   9.21973410
_cell_length_c   10.34957611
_cell_angle_alpha   90.01658808
_cell_angle_beta   90.00000000
_cell_angle_gamma   90.00000000
_symmetry_Int_Tables_number   1
_chemical_formula_structural   Sm3Th(Ni7P4)2
_chemical_formula_sum   'Sm3 Th1 Ni14 P8'
_cell_volume   358.52988856
_cell_formula_units_Z   1
loop_
 _symmetry_equiv_pos_site_id
 _symmetry_equiv_pos_as_xyz
  1  'x, y, z'
loop_
 _atom_site_type_symbol
 _atom_site_label
 _atom_site_symmetry_multiplicity
 _atom_site_fract_x
 _atom_site_fract_y
 _atom_site_fract_z
 _atom_site_occupancy
  Sm  Sm0  1  0.500000  0.936048  0.498951  1
  Sm  Sm1  1  0.000000  0.441964  0.779193  1
  Sm  Sm2  1  0.500000  0.558119  0.279223  1
  Th  Th3  1  0.000000  0.061707  0.999150  1
  Ni  Ni4  1  0.000000  0.081705  0.305153  1
  Ni  Ni5  1  0.500000  0.918419  0.805653  1
  Ni  Ni6  1  0.000000  0.195271  0.571313  1
  Ni  Ni7  1  0.500000  0.806220  0.070295  1
  Ni  Ni8  1  0.000000  0.402017  0.081774  1
  Ni  Ni9  1  0.500000  0.598432  0.581167  1
  Ni  Ni10  1  0.000000  0.441681  0.476603  1
  Ni  Ni11  1  0.500000  0.559860  0.975926  1
  Ni  Ni12  1  0.000000  0.754493  0.900350  1
  Ni  Ni13  1  0.500000  0.245436  0.399994  1
  Ni  Ni14  1  0.000000  0.775414  0.667130  1
  Ni  Ni15  1  0.500000  0.223651  0.166999  1
  Ni  Ni16  1  0.000000  0.814755  0.261705  1
  Ni  Ni17  1  0.500000  0.185107  0.761744  1
  P  P18  1  0.000000  0.022899  0.713264  1
  P  P19  1  0.500000  0.974962  0.218841  1
  P  P20  1  0.000000  0.317254  0.286180  1
  P  P21  1  0.500000  0.682876  0.784898  1
  P  P22  1  0.000000  0.654384  0.088434  1
  P  P23  1  0.500000  0.345236  0.587734  1
  P  P24  1  0.000000  0.687958  0.464594  1
  P  P25  1  0.500000  0.314132  0.964345  1
