# generated using pymatgen
data_TmPuB6Ru
_symmetry_space_group_name_H-M   'P 1'
_cell_length_a   3.63571300
_cell_length_b   9.13491700
_cell_length_c   11.53106000
_cell_angle_alpha   90.00000000
_cell_angle_beta   90.00000000
_cell_angle_gamma   90.00000000
_symmetry_Int_Tables_number   1
_chemical_formula_structural   TmPuB6Ru
_chemical_formula_sum   'Tm4 Pu4 B24 Ru4'
_cell_volume   382.96883239
_cell_formula_units_Z   4
loop_
 _symmetry_equiv_pos_site_id
 _symmetry_equiv_pos_as_xyz
  1  'x, y, z'
loop_
 _atom_site_type_symbol
 _atom_site_label
 _atom_site_symmetry_multiplicity
 _atom_site_fract_x
 _atom_site_fract_y
 _atom_site_fract_z
 _atom_site_occupancy
  Tm  Tm0  1  0.000000  0.944008  0.372664  1
  Tm  Tm1  1  0.000000  0.055992  0.627336  1
  Tm  Tm2  1  0.000000  0.444008  0.127336  1
  Tm  Tm3  1  0.000000  0.555992  0.872664  1
  Pu  Pu4  1  0.000000  0.323825  0.413996  1
  Pu  Pu5  1  0.000000  0.676175  0.586004  1
  Pu  Pu6  1  0.000000  0.823825  0.086004  1
  Pu  Pu7  1  0.000000  0.176175  0.913996  1
  B  B8  1  0.500000  0.554107  0.432498  1
  B  B9  1  0.500000  0.445893  0.567502  1
  B  B10  1  0.500000  0.054107  0.067502  1
  B  B11  1  0.500000  0.945893  0.932498  1
  B  B12  1  0.500000  0.749325  0.419544  1
  B  B13  1  0.500000  0.250675  0.580456  1
  B  B14  1  0.500000  0.249325  0.080456  1
  B  B15  1  0.500000  0.750675  0.919544  1
  B  B16  1  0.500000  0.792529  0.265499  1
  B  B17  1  0.500000  0.207471  0.734501  1
  B  B18  1  0.500000  0.292529  0.234501  1
  B  B19  1  0.500000  0.707471  0.765499  1
  B  B20  1  0.500000  0.632233  0.183736  1
  B  B21  1  0.500000  0.367767  0.816264  1
  B  B22  1  0.500000  0.132233  0.316264  1
  B  B23  1  0.500000  0.867767  0.683736  1
  B  B24  1  0.500000  0.983322  0.213225  1
  B  B25  1  0.500000  0.016678  0.786775  1
  B  B26  1  0.500000  0.483322  0.286775  1
  B  B27  1  0.500000  0.516678  0.713225  1
  B  B28  1  0.500000  0.605706  0.028785  1
  B  B29  1  0.500000  0.394294  0.971215  1
  B  B30  1  0.500000  0.105706  0.471215  1
  B  B31  1  0.500000  0.894294  0.528785  1
  Ru  Ru32  1  0.000000  0.639583  0.319364  1
  Ru  Ru33  1  0.000000  0.360417  0.680636  1
  Ru  Ru34  1  0.000000  0.139583  0.180636  1
  Ru  Ru35  1  0.000000  0.860417  0.819364  1
