# generated using pymatgen
data_Mn9V3Se16
_symmetry_space_group_name_H-M   'P 1'
_cell_length_a   6.46173267
_cell_length_b   6.52827548
_cell_length_c   13.07345966
_cell_angle_alpha   92.60299883
_cell_angle_beta   93.64094567
_cell_angle_gamma   93.13303042
_symmetry_Int_Tables_number   1
_chemical_formula_structural   Mn9V3Se16
_chemical_formula_sum   'Mn9 V3 Se16'
_cell_volume   548.89297437
_cell_formula_units_Z   1
loop_
 _symmetry_equiv_pos_site_id
 _symmetry_equiv_pos_as_xyz
  1  'x, y, z'
loop_
 _atom_site_type_symbol
 _atom_site_label
 _atom_site_symmetry_multiplicity
 _atom_site_fract_x
 _atom_site_fract_y
 _atom_site_fract_z
 _atom_site_occupancy
  Mn  Mn0  1  0.409796  0.228972  0.276650  1
  Mn  Mn1  1  0.547435  0.404503  0.616835  1
  Mn  Mn2  1  0.551839  0.409650  0.115844  1
  Mn  Mn3  1  0.769129  0.457150  0.794335  1
  Mn  Mn4  1  0.758250  0.453753  0.293506  1
  Mn  Mn5  1  0.590599  0.772227  0.724404  1
  Mn  Mn6  1  0.590303  0.775205  0.224263  1
  Mn  Mn7  1  0.453287  0.594862  0.889323  1
  Mn  Mn8  1  0.454058  0.590206  0.386301  1
  V  V9  1  0.223422  0.546856  0.705640  1
  V  V10  1  0.230585  0.545318  0.206724  1
  V  V11  1  0.421542  0.227596  0.771646  1
  Se  Se12  1  0.216422  0.215217  0.606832  1
  Se  Se13  1  0.222514  0.215346  0.111397  1
  Se  Se14  1  0.781307  0.779559  0.886397  1
  Se  Se15  1  0.779929  0.776368  0.386933  1
  Se  Se16  1  0.125753  0.377207  0.863356  1
  Se  Se17  1  0.127263  0.379179  0.365279  1
  Se  Se18  1  0.740318  0.132283  0.689063  1
  Se  Se19  1  0.725137  0.133430  0.192300  1
  Se  Se20  1  0.378807  0.718695  0.562326  1
  Se  Se21  1  0.378883  0.721026  0.063988  1
  Se  Se22  1  0.863659  0.618248  0.637295  1
  Se  Se23  1  0.868413  0.620221  0.139688  1
  Se  Se24  1  0.274091  0.872096  0.807454  1
  Se  Se25  1  0.277315  0.872080  0.309467  1
  Se  Se26  1  0.620407  0.284038  0.937208  1
  Se  Se27  1  0.619536  0.278711  0.435542  1
