# generated using pymatgen
data_KSrB12
_symmetry_space_group_name_H-M   'P 1'
_cell_length_a   5.95411848
_cell_length_b   5.95411888
_cell_length_c   5.95411900
_cell_angle_alpha   60.00000488
_cell_angle_beta   60.00000267
_cell_angle_gamma   60.00000399
_symmetry_Int_Tables_number   1
_chemical_formula_structural   KSrB12
_chemical_formula_sum   'K1 Sr1 B12'
_cell_volume   149.25796776
_cell_formula_units_Z   1
loop_
 _symmetry_equiv_pos_site_id
 _symmetry_equiv_pos_as_xyz
  1  'x, y, z'
loop_
 _atom_site_type_symbol
 _atom_site_label
 _atom_site_symmetry_multiplicity
 _atom_site_fract_x
 _atom_site_fract_y
 _atom_site_fract_z
 _atom_site_occupancy
  K  K0  1  0.500000  0.500000  0.500000  1
  Sr  Sr1  1  0.000000  0.000000  0.000000  1
  B  B2  1  0.399569  0.100431  0.100431  1
  B  B3  1  0.899569  0.600431  0.600431  1
  B  B4  1  0.399569  0.399569  0.100431  1
  B  B5  1  0.899569  0.899569  0.600431  1
  B  B6  1  0.100431  0.399569  0.100431  1
  B  B7  1  0.600431  0.899569  0.600431  1
  B  B8  1  0.100431  0.100431  0.399569  1
  B  B9  1  0.600431  0.600431  0.899569  1
  B  B10  1  0.399569  0.100431  0.399569  1
  B  B11  1  0.899569  0.600431  0.899569  1
  B  B12  1  0.100431  0.399569  0.399569  1
  B  B13  1  0.600431  0.899569  0.899569  1
