# generated using pymatgen
data_Hf3TiRh2N
_symmetry_space_group_name_H-M   'P 1'
_cell_length_a   8.56815038
_cell_length_b   8.56814990
_cell_length_c   8.56815200
_cell_angle_alpha   59.99999960
_cell_angle_beta   60.00000146
_cell_angle_gamma   59.99999911
_symmetry_Int_Tables_number   1
_chemical_formula_structural   Hf3TiRh2N
_chemical_formula_sum   'Hf12 Ti4 Rh8 N4'
_cell_volume   444.78107564
_cell_formula_units_Z   4
loop_
 _symmetry_equiv_pos_site_id
 _symmetry_equiv_pos_as_xyz
  1  'x, y, z'
loop_
 _atom_site_type_symbol
 _atom_site_label
 _atom_site_symmetry_multiplicity
 _atom_site_fract_x
 _atom_site_fract_y
 _atom_site_fract_z
 _atom_site_occupancy
  Hf  Hf0  1  0.813255  0.813255  0.186745  1
  Hf  Hf1  1  0.186745  0.186745  0.813255  1
  Hf  Hf2  1  0.813255  0.186745  0.813255  1
  Hf  Hf3  1  0.186745  0.813255  0.186745  1
  Hf  Hf4  1  0.186745  0.813255  0.813255  1
  Hf  Hf5  1  0.813255  0.186745  0.186745  1
  Hf  Hf6  1  0.436745  0.436745  0.063255  1
  Hf  Hf7  1  0.063255  0.063255  0.436745  1
  Hf  Hf8  1  0.436745  0.063255  0.436745  1
  Hf  Hf9  1  0.063255  0.436745  0.063255  1
  Hf  Hf10  1  0.063255  0.436745  0.436745  1
  Hf  Hf11  1  0.436745  0.063255  0.063255  1
  Ti  Ti12  1  0.125000  0.625000  0.625000  1
  Ti  Ti13  1  0.625000  0.125000  0.625000  1
  Ti  Ti14  1  0.625000  0.625000  0.125000  1
  Ti  Ti15  1  0.625000  0.625000  0.625000  1
  Rh  Rh16  1  0.755747  0.414751  0.414751  1
  Rh  Rh17  1  0.414751  0.755747  0.414751  1
  Rh  Rh18  1  0.414751  0.414751  0.755747  1
  Rh  Rh19  1  0.414751  0.414751  0.414751  1
  Rh  Rh20  1  0.494253  0.835249  0.835249  1
  Rh  Rh21  1  0.835249  0.494253  0.835249  1
  Rh  Rh22  1  0.835249  0.835249  0.494253  1
  Rh  Rh23  1  0.835249  0.835249  0.835249  1
  N  N24  1  0.625000  0.125000  0.125000  1
  N  N25  1  0.125000  0.625000  0.125000  1
  N  N26  1  0.125000  0.125000  0.625000  1
  N  N27  1  0.125000  0.125000  0.125000  1
