# generated using pymatgen
data_Na8Ca4HfZrAs8
_symmetry_space_group_name_H-M   'P 1'
_cell_length_a   9.65324797
_cell_length_b   9.65301883
_cell_length_c   7.42338335
_cell_angle_alpha   88.94102589
_cell_angle_beta   88.95047188
_cell_angle_gamma   120.24970763
_symmetry_Int_Tables_number   1
_chemical_formula_structural   Na8Ca4HfZrAs8
_chemical_formula_sum   'Na8 Ca4 Hf1 Zr1 As8'
_cell_volume   597.13753112
_cell_formula_units_Z   1
loop_
 _symmetry_equiv_pos_site_id
 _symmetry_equiv_pos_as_xyz
  1  'x, y, z'
loop_
 _atom_site_type_symbol
 _atom_site_label
 _atom_site_symmetry_multiplicity
 _atom_site_fract_x
 _atom_site_fract_y
 _atom_site_fract_z
 _atom_site_occupancy
  Na  Na0  1  0.469854  0.931899  0.376018  1
  Na  Na1  1  0.931610  0.469696  0.875973  1
  Na  Na2  1  0.865550  0.723241  0.189884  1
  Na  Na3  1  0.279237  0.132577  0.232336  1
  Na  Na4  1  0.855183  0.136441  0.210848  1
  Na  Na5  1  0.132513  0.279131  0.732126  1
  Na  Na6  1  0.723297  0.865599  0.689693  1
  Na  Na7  1  0.136425  0.855241  0.710655  1
  Ca  Ca8  1  0.063031  0.531682  0.386352  1
  Ca  Ca9  1  0.476592  0.533371  0.376320  1
  Ca  Ca10  1  0.531979  0.063594  0.886002  1
  Ca  Ca11  1  0.533610  0.476358  0.876193  1
  Hf  Hf12  1  0.663601  0.330200  0.491023  1
  Zr  Zr13  1  0.330061  0.663688  0.990785  1
  As  As14  1  0.195186  0.374247  0.128040  1
  As  As15  1  0.628841  0.810010  0.085132  1
  As  As16  1  0.193367  0.817698  0.104420  1
  As  As17  1  0.809137  0.626964  0.584648  1
  As  As18  1  0.376024  0.195978  0.627230  1
  As  As19  1  0.816705  0.194264  0.603726  1
  As  As20  1  0.654754  0.333303  0.142604  1
  As  As21  1  0.333291  0.654664  0.639950  1
