# generated using pymatgen
data_La6Tb2MgPt6
_symmetry_space_group_name_H-M   'P 1'
_cell_length_a   7.78378556
_cell_length_b   7.78378555
_cell_length_c   7.78378656
_cell_angle_alpha   70.00027725
_cell_angle_beta   70.00027288
_cell_angle_gamma   70.00027035
_symmetry_Int_Tables_number   1
_chemical_formula_structural   La6Tb2MgPt6
_chemical_formula_sum   'La6 Tb2 Mg1 Pt6'
_cell_volume   402.68298954
_cell_formula_units_Z   1
loop_
 _symmetry_equiv_pos_site_id
 _symmetry_equiv_pos_as_xyz
  1  'x, y, z'
loop_
 _atom_site_type_symbol
 _atom_site_label
 _atom_site_symmetry_multiplicity
 _atom_site_fract_x
 _atom_site_fract_y
 _atom_site_fract_z
 _atom_site_occupancy
  La  La0  1  0.320193  0.614080  0.849460  1
  La  La1  1  0.849460  0.320193  0.614080  1
  La  La2  1  0.614080  0.849460  0.320193  1
  La  La3  1  0.679807  0.385920  0.150540  1
  La  La4  1  0.150540  0.679807  0.385920  1
  La  La5  1  0.385920  0.150540  0.679807  1
  Tb  Tb6  1  0.812827  0.812827  0.812827  1
  Tb  Tb7  1  0.187173  0.187173  0.187173  1
  Mg  Mg8  1  0.000000  0.000000  0.000000  1
  Pt  Pt9  1  0.170006  0.960270  0.580105  1
  Pt  Pt10  1  0.580105  0.170006  0.960270  1
  Pt  Pt11  1  0.960270  0.580105  0.170006  1
  Pt  Pt12  1  0.829994  0.039730  0.419895  1
  Pt  Pt13  1  0.419895  0.829994  0.039730  1
  Pt  Pt14  1  0.039730  0.419895  0.829994  1
