# generated using pymatgen
data_Na5ScCl8
_symmetry_space_group_name_H-M   'P 1'
_cell_length_a   6.93954504
_cell_length_b   6.93954516
_cell_length_c   8.06755700
_cell_angle_alpha   90.00000000
_cell_angle_beta   90.00000000
_cell_angle_gamma   109.21823673
_symmetry_Int_Tables_number   1
_chemical_formula_structural   Na5ScCl8
_chemical_formula_sum   'Na5 Sc1 Cl8'
_cell_volume   366.86053683
_cell_formula_units_Z   1
loop_
 _symmetry_equiv_pos_site_id
 _symmetry_equiv_pos_as_xyz
  1  'x, y, z'
loop_
 _atom_site_type_symbol
 _atom_site_label
 _atom_site_symmetry_multiplicity
 _atom_site_fract_x
 _atom_site_fract_y
 _atom_site_fract_z
 _atom_site_occupancy
  Na  Na0  1  0.500000  0.000000  0.237776  1
  Na  Na1  1  0.000000  0.500000  0.762224  1
  Na  Na2  1  0.500000  0.000000  0.762224  1
  Na  Na3  1  0.000000  0.500000  0.237776  1
  Na  Na4  1  0.500000  0.500000  0.000000  1
  Sc  Sc5  1  0.500000  0.500000  0.500000  1
  Cl  Cl6  1  0.279593  0.279593  0.279295  1
  Cl  Cl7  1  0.720407  0.720407  0.279295  1
  Cl  Cl8  1  0.276091  0.723909  0.500000  1
  Cl  Cl9  1  0.279593  0.279593  0.720705  1
  Cl  Cl10  1  0.720407  0.720407  0.720705  1
  Cl  Cl11  1  0.253737  0.746263  0.000000  1
  Cl  Cl12  1  0.723909  0.276091  0.500000  1
  Cl  Cl13  1  0.746263  0.253737  0.000000  1
