# generated using pymatgen
data_Nd5Bi2Ir
_symmetry_space_group_name_H-M   'P 1'
_cell_length_a   8.34376100
_cell_length_b   9.20794300
_cell_length_c   12.95766800
_cell_angle_alpha   90.00000000
_cell_angle_beta   90.00000000
_cell_angle_gamma   90.00000000
_symmetry_Int_Tables_number   1
_chemical_formula_structural   Nd5Bi2Ir
_chemical_formula_sum   'Nd20 Bi8 Ir4'
_cell_volume   995.52306405
_cell_formula_units_Z   4
loop_
 _symmetry_equiv_pos_site_id
 _symmetry_equiv_pos_as_xyz
  1  'x, y, z'
loop_
 _atom_site_type_symbol
 _atom_site_label
 _atom_site_symmetry_multiplicity
 _atom_site_fract_x
 _atom_site_fract_y
 _atom_site_fract_z
 _atom_site_occupancy
  Nd  Nd0  1  0.842549  0.750000  0.793119  1
  Nd  Nd1  1  0.157451  0.250000  0.206881  1
  Nd  Nd2  1  0.342549  0.250000  0.706881  1
  Nd  Nd3  1  0.657451  0.750000  0.293119  1
  Nd  Nd4  1  0.374444  0.750000  0.695134  1
  Nd  Nd5  1  0.625556  0.250000  0.304866  1
  Nd  Nd6  1  0.874444  0.250000  0.804866  1
  Nd  Nd7  1  0.125556  0.750000  0.195134  1
  Nd  Nd8  1  0.947101  0.750000  0.501648  1
  Nd  Nd9  1  0.052899  0.250000  0.498352  1
  Nd  Nd10  1  0.447101  0.250000  0.998352  1
  Nd  Nd11  1  0.552899  0.750000  0.001648  1
  Nd  Nd12  1  0.679960  0.039180  0.566204  1
  Nd  Nd13  1  0.320040  0.960820  0.433796  1
  Nd  Nd14  1  0.179960  0.960820  0.933796  1
  Nd  Nd15  1  0.320040  0.539180  0.433796  1
  Nd  Nd16  1  0.820040  0.039180  0.066204  1
  Nd  Nd17  1  0.679960  0.460820  0.566204  1
  Nd  Nd18  1  0.820040  0.460820  0.066204  1
  Nd  Nd19  1  0.179960  0.539180  0.933796  1
  Bi  Bi20  1  0.569661  0.491477  0.826684  1
  Bi  Bi21  1  0.430339  0.508523  0.173316  1
  Bi  Bi22  1  0.069661  0.508523  0.673316  1
  Bi  Bi23  1  0.430339  0.991477  0.173316  1
  Bi  Bi24  1  0.930339  0.491477  0.326684  1
  Bi  Bi25  1  0.569661  0.008523  0.826684  1
  Bi  Bi26  1  0.930339  0.008523  0.326684  1
  Bi  Bi27  1  0.069661  0.991477  0.673316  1
  Ir  Ir28  1  0.570118  0.750000  0.509388  1
  Ir  Ir29  1  0.429882  0.250000  0.490612  1
  Ir  Ir30  1  0.070118  0.250000  0.990612  1
  Ir  Ir31  1  0.929882  0.750000  0.009388  1
