# generated using pymatgen
data_Nb3Ni2(B2Mo)3
_symmetry_space_group_name_H-M   'P 1'
_cell_length_a   3.23195200
_cell_length_b   4.58635933
_cell_length_c   10.96235290
_cell_angle_alpha   90.06321474
_cell_angle_beta   90.00000000
_cell_angle_gamma   110.63074927
_symmetry_Int_Tables_number   1
_chemical_formula_structural   Nb3Ni2(B2Mo)3
_chemical_formula_sum   'Nb3 Ni2 B6 Mo3'
_cell_volume   152.07304774
_cell_formula_units_Z   1
loop_
 _symmetry_equiv_pos_site_id
 _symmetry_equiv_pos_as_xyz
  1  'x, y, z'
loop_
 _atom_site_type_symbol
 _atom_site_label
 _atom_site_symmetry_multiplicity
 _atom_site_fract_x
 _atom_site_fract_y
 _atom_site_fract_z
 _atom_site_occupancy
  Nb  Nb0  1  0.209214  0.418427  0.393259  1
  Nb  Nb1  1  0.791687  0.583374  0.608452  1
  Nb  Nb2  1  0.210149  0.420297  0.104013  1
  Ni  Ni3  1  0.500255  0.000510  0.500766  1
  Ni  Ni4  1  0.498330  0.996660  0.997678  1
  B  B5  1  0.913684  0.827368  0.392301  1
  B  B6  1  0.087467  0.174933  0.608247  1
  B  B7  1  0.914242  0.828484  0.105617  1
  B  B8  1  0.086544  0.173088  0.894490  1
  B  B9  1  0.795483  0.590967  0.248734  1
  B  B10  1  0.206236  0.412471  0.752269  1
  Mo  Mo11  1  0.786819  0.573639  0.892540  1
  Mo  Mo12  1  0.499157  0.998313  0.249922  1
  Mo  Mo13  1  0.500734  0.001468  0.751714  1
