# generated using pymatgen
data_SrYb19Ag16
_symmetry_space_group_name_H-M   'P 1'
_cell_length_a   7.99969375
_cell_length_b   8.12292444
_cell_length_c   15.36394474
_cell_angle_alpha   89.91550134
_cell_angle_beta   90.16766579
_cell_angle_gamma   89.88262483
_symmetry_Int_Tables_number   1
_chemical_formula_structural   SrYb19Ag16
_chemical_formula_sum   'Sr1 Yb19 Ag16'
_cell_volume   998.35561420
_cell_formula_units_Z   1
loop_
 _symmetry_equiv_pos_site_id
 _symmetry_equiv_pos_as_xyz
  1  'x, y, z'
loop_
 _atom_site_type_symbol
 _atom_site_label
 _atom_site_symmetry_multiplicity
 _atom_site_fract_x
 _atom_site_fract_y
 _atom_site_fract_z
 _atom_site_occupancy
  Sr  Sr0  1  0.989418  0.173462  0.907229  1
  Yb  Yb1  1  0.327062  0.833004  0.876694  1
  Yb  Yb2  1  0.823134  0.665872  0.619750  1
  Yb  Yb3  1  0.676689  0.165354  0.378294  1
  Yb  Yb4  1  0.177700  0.337213  0.124040  1
  Yb  Yb5  1  0.672853  0.167118  0.122100  1
  Yb  Yb6  1  0.175727  0.333971  0.378843  1
  Yb  Yb7  1  0.325793  0.832631  0.619501  1
  Yb  Yb8  1  0.824659  0.665301  0.878329  1
  Yb  Yb9  1  0.485693  0.322404  0.902706  1
  Yb  Yb10  1  0.985153  0.179022  0.596173  1
  Yb  Yb11  1  0.515318  0.679275  0.402747  1
  Yb  Yb12  1  0.013996  0.818502  0.100208  1
  Yb  Yb13  1  0.512871  0.679391  0.097550  1
  Yb  Yb14  1  0.015157  0.820664  0.402834  1
  Yb  Yb15  1  0.485189  0.321099  0.595142  1
  Yb  Yb16  1  0.159640  0.491713  0.749034  1
  Yb  Yb17  1  0.659766  0.007648  0.748708  1
  Yb  Yb18  1  0.840498  0.508189  0.251080  1
  Yb  Yb19  1  0.340598  0.991639  0.250674  1
  Ag  Ag20  1  0.334945  0.028720  0.045839  1
  Ag  Ag21  1  0.839044  0.469221  0.455277  1
  Ag  Ag22  1  0.661199  0.971093  0.543915  1
  Ag  Ag23  1  0.165285  0.540864  0.959776  1
  Ag  Ag24  1  0.650872  0.962650  0.958164  1
  Ag  Ag25  1  0.160514  0.529746  0.543954  1
  Ag  Ag26  1  0.339295  0.030189  0.454902  1
  Ag  Ag27  1  0.837820  0.475850  0.047393  1
  Ag  Ag28  1  0.525585  0.614883  0.748832  1
  Ag  Ag29  1  0.028868  0.880566  0.745687  1
  Ag  Ag30  1  0.474704  0.387146  0.251629  1
  Ag  Ag31  1  0.973721  0.114173  0.249791  1
  Ag  Ag32  1  0.286418  0.133263  0.745513  1
  Ag  Ag33  1  0.777635  0.367242  0.745678  1
  Ag  Ag34  1  0.718630  0.865610  0.250339  1
  Ag  Ag35  1  0.218551  0.635314  0.251675  1
