# generated using pymatgen
data_Th4Ga7(SiPt2)3
_symmetry_space_group_name_H-M   'P 1'
_cell_length_a   8.48306887
_cell_length_b   8.52575573
_cell_length_c   8.52575607
_cell_angle_alpha   138.15332109
_cell_angle_beta   104.99837567
_cell_angle_gamma   89.86015497
_symmetry_Int_Tables_number   1
_chemical_formula_structural   Th4Ga7(SiPt2)3
_chemical_formula_sum   'Th4 Ga7 Si3 Pt6'
_cell_volume   379.62928700
_cell_formula_units_Z   1
loop_
 _symmetry_equiv_pos_site_id
 _symmetry_equiv_pos_as_xyz
  1  'x, y, z'
loop_
 _atom_site_type_symbol
 _atom_site_label
 _atom_site_symmetry_multiplicity
 _atom_site_fract_x
 _atom_site_fract_y
 _atom_site_fract_z
 _atom_site_occupancy
  Th  Th0  1  0.866933  0.628452  0.238482  1
  Th  Th1  1  0.136426  0.369572  0.766852  1
  Th  Th2  1  0.395268  0.130603  0.264665  1
  Th  Th3  1  0.606020  0.869982  0.736038  1
  Ga  Ga4  1  0.501864  0.750787  0.249411  1
  Ga  Ga5  1  0.501864  0.252453  0.751076  1
  Ga  Ga6  1  0.232700  0.982209  0.752544  1
  Ga  Ga7  1  0.765846  0.512677  0.745146  1
  Ga  Ga8  1  0.765846  0.020701  0.253169  1
  Ga  Ga9  1  0.232700  0.480155  0.250491  1
  Ga  Ga10  1  0.034379  0.890444  0.143935  1
  Si  Si11  1  0.964250  0.108867  0.855382  1
  Si  Si12  1  0.742721  0.388820  0.353902  1
  Si  Si13  1  0.252605  0.607725  0.644880  1
  Pt  Pt14  1  0.996595  0.746362  0.735803  1
  Pt  Pt15  1  0.996595  0.260793  0.250233  1
  Pt  Pt16  1  0.244343  0.863469  0.380875  1
  Pt  Pt17  1  0.763656  0.134997  0.628658  1
  Pt  Pt18  1  0.492049  0.365356  0.126693  1
  Pt  Pt19  1  0.507343  0.635576  0.871767  1
