# generated using pymatgen
data_Na3Pb(NO3)8
_symmetry_space_group_name_H-M   'P 1'
_cell_length_a   8.04024979
_cell_length_b   8.04024979
_cell_length_c   8.04024979
_cell_angle_alpha   89.82469198
_cell_angle_beta   89.82469198
_cell_angle_gamma   89.82469198
_symmetry_Int_Tables_number   1
_chemical_formula_structural   Na3Pb(NO3)8
_chemical_formula_sum   'Na3 Pb1 N8 O24'
_cell_volume   519.75962175
_cell_formula_units_Z   1
loop_
 _symmetry_equiv_pos_site_id
 _symmetry_equiv_pos_as_xyz
  1  'x, y, z'
loop_
 _atom_site_type_symbol
 _atom_site_label
 _atom_site_symmetry_multiplicity
 _atom_site_fract_x
 _atom_site_fract_y
 _atom_site_fract_z
 _atom_site_occupancy
  Na  Na0  1  0.000000  0.500000  0.500000  1
  Na  Na1  1  0.500000  0.500000  0.000000  1
  Na  Na2  1  0.500000  0.000000  0.500000  1
  Pb  Pb3  1  0.000000  0.000000  0.000000  1
  N  N4  1  0.336066  0.336066  0.336066  1
  N  N5  1  0.328513  0.159301  0.833190  1
  N  N6  1  0.159301  0.833190  0.328513  1
  N  N7  1  0.833190  0.328513  0.159301  1
  N  N8  1  0.663934  0.663934  0.663934  1
  N  N9  1  0.166810  0.671487  0.840699  1
  N  N10  1  0.840699  0.166810  0.671487  1
  N  N11  1  0.671487  0.840699  0.166810  1
  O  O12  1  0.739043  0.312385  0.038541  1
  O  O13  1  0.183665  0.953795  0.218907  1
  O  O14  1  0.262705  0.824044  0.442497  1
  O  O15  1  0.218907  0.183665  0.953795  1
  O  O16  1  0.244038  0.304820  0.458979  1
  O  O17  1  0.458979  0.244038  0.304820  1
  O  O18  1  0.304820  0.458979  0.244038  1
  O  O19  1  0.175956  0.557503  0.737295  1
  O  O20  1  0.961459  0.260957  0.687615  1
  O  O21  1  0.687615  0.961459  0.260957  1
  O  O22  1  0.046205  0.781093  0.816335  1
  O  O23  1  0.557503  0.737295  0.175956  1
  O  O24  1  0.816335  0.046205  0.781093  1
  O  O25  1  0.737295  0.175956  0.557503  1
  O  O26  1  0.781093  0.816335  0.046205  1
  O  O27  1  0.260957  0.687615  0.961459  1
  O  O28  1  0.755962  0.695180  0.541021  1
  O  O29  1  0.541021  0.755962  0.695180  1
  O  O30  1  0.695180  0.541021  0.755962  1
  O  O31  1  0.824044  0.442497  0.262705  1
  O  O32  1  0.038541  0.739043  0.312385  1
  O  O33  1  0.312385  0.038541  0.739043  1
  O  O34  1  0.953795  0.218907  0.183665  1
  O  O35  1  0.442497  0.262705  0.824044  1
