# generated using pymatgen
data_Tb8Sc12Si15Ru
_symmetry_space_group_name_H-M   'P 1'
_cell_length_a   7.09083242
_cell_length_b   7.45424750
_cell_length_c   13.96156200
_cell_angle_alpha   90.00000000
_cell_angle_beta   90.00000000
_cell_angle_gamma   90.24383347
_symmetry_Int_Tables_number   1
_chemical_formula_structural   Tb8Sc12Si15Ru
_chemical_formula_sum   'Tb8 Sc12 Si15 Ru1'
_cell_volume   737.95708408
_cell_formula_units_Z   1
loop_
 _symmetry_equiv_pos_site_id
 _symmetry_equiv_pos_as_xyz
  1  'x, y, z'
loop_
 _atom_site_type_symbol
 _atom_site_label
 _atom_site_symmetry_multiplicity
 _atom_site_fract_x
 _atom_site_fract_y
 _atom_site_fract_z
 _atom_site_occupancy
  Tb  Tb0  1  0.011268  0.178206  0.096076  1
  Tb  Tb1  1  0.991107  0.826918  0.904002  1
  Tb  Tb2  1  0.489066  0.676249  0.904084  1
  Tb  Tb3  1  0.991107  0.826918  0.595998  1
  Tb  Tb4  1  0.511032  0.323230  0.096046  1
  Tb  Tb5  1  0.011268  0.178206  0.403924  1
  Tb  Tb6  1  0.511032  0.323230  0.403954  1
  Tb  Tb7  1  0.489066  0.676249  0.595916  1
  Sc  Sc8  1  0.156783  0.500704  0.750000  1
  Sc  Sc9  1  0.838494  0.495289  0.250000  1
  Sc  Sc10  1  0.339003  0.004926  0.250000  1
  Sc  Sc11  1  0.669387  0.999567  0.750000  1
  Sc  Sc12  1  0.317028  0.171841  0.627964  1
  Sc  Sc13  1  0.671740  0.825698  0.373973  1
  Sc  Sc14  1  0.171297  0.677777  0.374117  1
  Sc  Sc15  1  0.671740  0.825698  0.126027  1
  Sc  Sc16  1  0.836946  0.319939  0.627593  1
  Sc  Sc17  1  0.317028  0.171841  0.872036  1
  Sc  Sc18  1  0.836946  0.319939  0.872407  1
  Sc  Sc19  1  0.171297  0.677777  0.125883  1
  Si  Si20  1  0.968231  0.883753  0.250000  1
  Si  Si21  1  0.469082  0.614965  0.250000  1
  Si  Si22  1  0.529539  0.387530  0.750000  1
  Si  Si23  1  0.286988  0.868532  0.750000  1
  Si  Si24  1  0.713059  0.128144  0.250000  1
  Si  Si25  1  0.213631  0.371792  0.250000  1
  Si  Si26  1  0.779880  0.626307  0.750000  1
  Si  Si27  1  0.159234  0.468249  0.537356  1
  Si  Si28  1  0.844774  0.536053  0.461531  1
  Si  Si29  1  0.345181  0.965354  0.460228  1
  Si  Si30  1  0.844774  0.536053  0.038469  1
  Si  Si31  1  0.655371  0.034761  0.538714  1
  Si  Si32  1  0.159234  0.468249  0.962644  1
  Si  Si33  1  0.655371  0.034761  0.961286  1
  Si  Si34  1  0.345181  0.965354  0.039772  1
  Ru  Ru35  1  0.027835  0.109939  0.750000  1
