# generated using pymatgen
data_Ho4ErHf3(Co4P3)4
_symmetry_space_group_name_H-M   'P 1'
_cell_length_a   12.26763900
_cell_length_b   12.26763700
_cell_length_c   3.70033100
_cell_angle_alpha   90.00000000
_cell_angle_beta   90.00000000
_cell_angle_gamma   120.00000269
_symmetry_Int_Tables_number   1
_chemical_formula_structural   Ho4ErHf3(Co4P3)4
_chemical_formula_sum   'Ho4 Er1 Hf3 Co16 P12'
_cell_volume   482.27316613
_cell_formula_units_Z   1
loop_
 _symmetry_equiv_pos_site_id
 _symmetry_equiv_pos_as_xyz
  1  'x, y, z'
loop_
 _atom_site_type_symbol
 _atom_site_label
 _atom_site_symmetry_multiplicity
 _atom_site_fract_x
 _atom_site_fract_y
 _atom_site_fract_z
 _atom_site_occupancy
  Ho  Ho0  1  0.333333  0.666667  0.000000  1
  Ho  Ho1  1  0.817711  0.817606  0.500000  1
  Ho  Ho2  1  0.182394  0.000105  0.500000  1
  Ho  Ho3  1  0.999895  0.182289  0.500000  1
  Er  Er4  1  0.666667  0.333333  0.000000  1
  Hf  Hf5  1  0.441419  0.441369  0.000000  1
  Hf  Hf6  1  0.558631  0.000049  0.000000  1
  Hf  Hf7  1  0.999951  0.558581  0.000000  1
  Co  Co8  1  0.875363  0.355700  0.500000  1
  Co  Co9  1  0.644300  0.519664  0.500000  1
  Co  Co10  1  0.480336  0.124637  0.500000  1
  Co  Co11  1  0.355953  0.875439  0.500000  1
  Co  Co12  1  0.519486  0.644047  0.500000  1
  Co  Co13  1  0.124561  0.480514  0.500000  1
  Co  Co14  1  0.804457  0.177993  0.000000  1
  Co  Co15  1  0.822007  0.626463  0.000000  1
  Co  Co16  1  0.373537  0.195543  0.000000  1
  Co  Co17  1  0.178077  0.804580  0.000000  1
  Co  Co18  1  0.626502  0.821923  0.000000  1
  Co  Co19  1  0.195420  0.373498  0.000000  1
  Co  Co20  1  0.278554  0.278617  0.500000  1
  Co  Co21  1  0.721383  0.999937  0.500000  1
  Co  Co22  1  0.000063  0.721446  0.500000  1
  Co  Co23  1  0.000000  0.000000  0.000000  1
  P  P24  1  0.692447  0.171692  0.500000  1
  P  P25  1  0.828308  0.520756  0.500000  1
  P  P26  1  0.479244  0.307553  0.500000  1
  P  P27  1  0.171515  0.692397  0.500000  1
  P  P28  1  0.520883  0.828485  0.500000  1
  P  P29  1  0.307603  0.479117  0.500000  1
  P  P30  1  0.177836  0.177967  0.000000  1
  P  P31  1  0.822033  0.999869  0.000000  1
  P  P32  1  0.000131  0.822164  0.000000  1
  P  P33  1  0.648628  0.648622  0.000000  1
  P  P34  1  0.351378  0.000005  0.000000  1
  P  P35  1  0.999995  0.351372  0.000000  1
