# generated using pymatgen
data_Nb8CoCu2NiN2
_symmetry_space_group_name_H-M   'P 1'
_cell_length_a   8.27409211
_cell_length_b   8.27409139
_cell_length_c   8.27930100
_cell_angle_alpha   59.97916583
_cell_angle_beta   59.97916872
_cell_angle_gamma   59.95315149
_symmetry_Int_Tables_number   1
_chemical_formula_structural   Nb8CoCu2NiN2
_chemical_formula_sum   'Nb16 Co2 Cu4 Ni2 N4'
_cell_volume   400.52405924
_cell_formula_units_Z   2
loop_
 _symmetry_equiv_pos_site_id
 _symmetry_equiv_pos_as_xyz
  1  'x, y, z'
loop_
 _atom_site_type_symbol
 _atom_site_label
 _atom_site_symmetry_multiplicity
 _atom_site_fract_x
 _atom_site_fract_y
 _atom_site_fract_z
 _atom_site_occupancy
  Nb  Nb0  1  0.117656  0.637558  0.622393  1
  Nb  Nb1  1  0.637558  0.117656  0.622393  1
  Nb  Nb2  1  0.629533  0.629533  0.127666  1
  Nb  Nb3  1  0.629533  0.629533  0.613267  1
  Nb  Nb4  1  0.820706  0.820706  0.179294  1
  Nb  Nb5  1  0.183768  0.183768  0.816232  1
  Nb  Nb6  1  0.817868  0.180465  0.816613  1
  Nb  Nb7  1  0.180465  0.817868  0.185054  1
  Nb  Nb8  1  0.180465  0.817868  0.816613  1
  Nb  Nb9  1  0.817868  0.180465  0.185054  1
  Nb  Nb10  1  0.434512  0.434512  0.065488  1
  Nb  Nb11  1  0.070096  0.070096  0.429904  1
  Nb  Nb12  1  0.433840  0.065617  0.433656  1
  Nb  Nb13  1  0.065617  0.433840  0.066887  1
  Nb  Nb14  1  0.065617  0.433840  0.433656  1
  Nb  Nb15  1  0.433840  0.065617  0.066887  1
  Co  Co16  1  0.826168  0.826168  0.517251  1
  Co  Co17  1  0.826168  0.826168  0.830412  1
  Cu  Cu18  1  0.417597  0.417597  0.746032  1
  Cu  Cu19  1  0.417597  0.417597  0.418774  1
  Cu  Cu20  1  0.501207  0.830497  0.834147  1
  Cu  Cu21  1  0.830497  0.501207  0.834147  1
  Ni  Ni22  1  0.740790  0.419122  0.420045  1
  Ni  Ni23  1  0.419122  0.740790  0.420045  1
  N  N24  1  0.624113  0.126205  0.124841  1
  N  N25  1  0.126205  0.624113  0.124841  1
  N  N26  1  0.125796  0.125796  0.624301  1
  N  N27  1  0.125796  0.125796  0.124107  1
