# generated using pymatgen
data_Dy9HoCd7InNi4
_symmetry_space_group_name_H-M   'P 1'
_cell_length_a   3.56496200
_cell_length_b   7.87817018
_cell_length_c   18.16748041
_cell_angle_alpha   89.77984640
_cell_angle_beta   90.00000000
_cell_angle_gamma   90.00000000
_symmetry_Int_Tables_number   1
_chemical_formula_structural   Dy9HoCd7InNi4
_chemical_formula_sum   'Dy9 Ho1 Cd7 In1 Ni4'
_cell_volume   510.23677554
_cell_formula_units_Z   1
loop_
 _symmetry_equiv_pos_site_id
 _symmetry_equiv_pos_as_xyz
  1  'x, y, z'
loop_
 _atom_site_type_symbol
 _atom_site_label
 _atom_site_symmetry_multiplicity
 _atom_site_fract_x
 _atom_site_fract_y
 _atom_site_fract_z
 _atom_site_occupancy
  Dy  Dy0  1  0.500000  0.884970  0.911220  1
  Dy  Dy1  1  0.500000  0.113341  0.088509  1
  Dy  Dy2  1  0.500000  0.750737  0.721082  1
  Dy  Dy3  1  0.500000  0.250540  0.778662  1
  Dy  Dy4  1  0.500000  0.498294  0.001209  1
  Dy  Dy5  1  0.500000  0.750628  0.221209  1
  Dy  Dy6  1  0.500000  0.248008  0.279420  1
  Dy  Dy7  1  0.500000  0.001787  0.499953  1
  Dy  Dy8  1  0.500000  0.614258  0.411426  1
  Ho  Ho9  1  0.500000  0.387014  0.588472  1
  Cd  Cd10  1  0.000000  0.788277  0.069522  1
  Cd  Cd11  1  0.000000  0.930675  0.349322  1
  Cd  Cd12  1  0.000000  0.068870  0.650907  1
  Cd  Cd13  1  0.000000  0.567519  0.849054  1
  Cd  Cd14  1  0.000000  0.712463  0.569566  1
  Cd  Cd15  1  0.000000  0.210107  0.930429  1
  Cd  Cd16  1  0.000000  0.289904  0.430164  1
  In  In17  1  0.000000  0.432352  0.151695  1
  Ni  Ni18  1  0.000000  0.971106  0.803268  1
  Ni  Ni19  1  0.000000  0.527912  0.302832  1
  Ni  Ni20  1  0.000000  0.471772  0.695656  1
  Ni  Ni21  1  0.000000  0.029463  0.196422  1
