# generated using pymatgen
data_Sm2Co9P7Ru3
_symmetry_space_group_name_H-M   'P 1'
_cell_length_a   9.08728900
_cell_length_b   9.08728914
_cell_length_c   3.70549200
_cell_angle_alpha   90.00000000
_cell_angle_beta   90.00000000
_cell_angle_gamma   120.00000313
_symmetry_Int_Tables_number   1
_chemical_formula_structural   Sm2Co9P7Ru3
_chemical_formula_sum   'Sm2 Co9 P7 Ru3'
_cell_volume   264.99957946
_cell_formula_units_Z   1
loop_
 _symmetry_equiv_pos_site_id
 _symmetry_equiv_pos_as_xyz
  1  'x, y, z'
loop_
 _atom_site_type_symbol
 _atom_site_label
 _atom_site_symmetry_multiplicity
 _atom_site_fract_x
 _atom_site_fract_y
 _atom_site_fract_z
 _atom_site_occupancy
  Sm  Sm0  1  0.666667  0.333333  0.000000  1
  Sm  Sm1  1  0.333333  0.666667  0.500000  1
  Co  Co2  1  0.432295  0.060414  0.500000  1
  Co  Co3  1  0.939586  0.371882  0.500000  1
  Co  Co4  1  0.628118  0.567705  0.500000  1
  Co  Co5  1  0.157708  0.280027  0.500000  1
  Co  Co6  1  0.719973  0.877680  0.500000  1
  Co  Co7  1  0.122320  0.842292  0.500000  1
  Co  Co8  1  0.383545  0.437945  0.000000  1
  Co  Co9  1  0.562055  0.945600  0.000000  1
  Co  Co10  1  0.054400  0.616455  0.000000  1
  P  P11  1  0.112673  0.404161  0.000000  1
  P  P12  1  0.595839  0.708510  0.000000  1
  P  P13  1  0.291490  0.887327  0.000000  1
  P  P14  1  0.000000  0.000000  0.500000  1
  P  P15  1  0.408386  0.300641  0.500000  1
  P  P16  1  0.699359  0.107743  0.500000  1
  P  P17  1  0.892257  0.591614  0.500000  1
  Ru  Ru18  1  0.223726  0.100501  0.000000  1
  Ru  Ru19  1  0.899499  0.123227  0.000000  1
  Ru  Ru20  1  0.876773  0.776274  0.000000  1
