# generated using pymatgen
data_Ta3Be2CoRu4
_symmetry_space_group_name_H-M   'P 1'
_cell_length_a   9.23664800
_cell_length_b   9.23664800
_cell_length_c   3.14849200
_cell_angle_alpha   90.00000000
_cell_angle_beta   90.00000000
_cell_angle_gamma   90.00000000
_symmetry_Int_Tables_number   1
_chemical_formula_structural   Ta3Be2CoRu4
_chemical_formula_sum   'Ta6 Be4 Co2 Ru8'
_cell_volume   268.61569274
_cell_formula_units_Z   2
loop_
 _symmetry_equiv_pos_site_id
 _symmetry_equiv_pos_as_xyz
  1  'x, y, z'
loop_
 _atom_site_type_symbol
 _atom_site_label
 _atom_site_symmetry_multiplicity
 _atom_site_fract_x
 _atom_site_fract_y
 _atom_site_fract_z
 _atom_site_occupancy
  Ta  Ta0  1  0.823403  0.676597  0.000000  1
  Ta  Ta1  1  0.176597  0.323403  0.000000  1
  Ta  Ta2  1  0.323403  0.823403  0.000000  1
  Ta  Ta3  1  0.676597  0.176597  0.000000  1
  Ta  Ta4  1  0.500000  0.500000  0.000000  1
  Ta  Ta5  1  0.000000  0.000000  0.000000  1
  Be  Be6  1  0.610586  0.889414  0.000000  1
  Be  Be7  1  0.389414  0.110586  0.000000  1
  Be  Be8  1  0.110586  0.610586  0.000000  1
  Be  Be9  1  0.889414  0.389414  0.000000  1
  Co  Co10  1  0.500000  0.000000  0.500000  1
  Co  Co11  1  0.000000  0.500000  0.500000  1
  Ru  Ru12  1  0.564059  0.719169  0.500000  1
  Ru  Ru13  1  0.435941  0.280831  0.500000  1
  Ru  Ru14  1  0.064059  0.780831  0.500000  1
  Ru  Ru15  1  0.935941  0.219169  0.500000  1
  Ru  Ru16  1  0.280831  0.564059  0.500000  1
  Ru  Ru17  1  0.719169  0.435941  0.500000  1
  Ru  Ru18  1  0.219169  0.064059  0.500000  1
  Ru  Ru19  1  0.780831  0.935941  0.500000  1
