# generated using pymatgen
data_NdGe(AsRh2)3
_symmetry_space_group_name_H-M   'P 1'
_cell_length_a   7.25544800
_cell_length_b   7.25544689
_cell_length_c   3.89843600
_cell_angle_alpha   90.00000000
_cell_angle_beta   90.00000000
_cell_angle_gamma   120.00000507
_symmetry_Int_Tables_number   1
_chemical_formula_structural   NdGe(AsRh2)3
_chemical_formula_sum   'Nd1 Ge1 As3 Rh6'
_cell_volume   177.72536693
_cell_formula_units_Z   1
loop_
 _symmetry_equiv_pos_site_id
 _symmetry_equiv_pos_as_xyz
  1  'x, y, z'
loop_
 _atom_site_type_symbol
 _atom_site_label
 _atom_site_symmetry_multiplicity
 _atom_site_fract_x
 _atom_site_fract_y
 _atom_site_fract_z
 _atom_site_occupancy
  Nd  Nd0  1  0.000000  0.000000  0.000000  1
  Ge  Ge1  1  0.333333  0.666667  0.000000  1
  As  As2  1  0.807940  0.615882  0.500000  1
  As  As3  1  0.384118  0.192060  0.500000  1
  As  As4  1  0.807940  0.192060  0.500000  1
  Rh  Rh5  1  0.534506  0.069009  0.000000  1
  Rh  Rh6  1  0.930991  0.465494  0.000000  1
  Rh  Rh7  1  0.534506  0.465494  0.000000  1
  Rh  Rh8  1  0.199237  0.398475  0.500000  1
  Rh  Rh9  1  0.601525  0.800763  0.500000  1
  Rh  Rh10  1  0.199237  0.800763  0.500000  1
