# generated using pymatgen
data_YbPd2F12
_symmetry_space_group_name_H-M   'P 1'
_cell_length_a   9.77470403
_cell_length_b   9.77470453
_cell_length_c   9.77470411
_cell_angle_alpha   131.28650672
_cell_angle_beta   131.28649852
_cell_angle_gamma   71.35828189
_symmetry_Int_Tables_number   1
_chemical_formula_structural   YbPd2F12
_chemical_formula_sum   'Yb2 Pd4 F24'
_cell_volume   516.12863345
_cell_formula_units_Z   2
loop_
 _symmetry_equiv_pos_site_id
 _symmetry_equiv_pos_as_xyz
  1  'x, y, z'
loop_
 _atom_site_type_symbol
 _atom_site_label
 _atom_site_symmetry_multiplicity
 _atom_site_fract_x
 _atom_site_fract_y
 _atom_site_fract_z
 _atom_site_occupancy
  Yb  Yb0  1  0.750000  0.250000  0.500000  1
  Yb  Yb1  1  0.000000  0.000000  0.000000  1
  Pd  Pd2  1  0.781757  0.781757  0.000000  1
  Pd  Pd3  1  0.218243  0.218243  0.000000  1
  Pd  Pd4  1  0.968243  0.468243  0.500000  1
  Pd  Pd5  1  0.531757  0.031757  0.500000  1
  F  F6  1  0.866659  0.740063  0.205542  1
  F  F7  1  0.534520  0.661117  0.794458  1
  F  F8  1  0.411117  0.784520  0.294458  1
  F  F9  1  0.338883  0.133341  0.873405  1
  F  F10  1  0.259937  0.465480  0.126595  1
  F  F11  1  0.215480  0.509937  0.626595  1
  F  F12  1  0.659148  0.277108  0.689735  1
  F  F13  1  0.722892  0.412627  0.382039  1
  F  F14  1  0.030589  0.340852  0.617961  1
  F  F15  1  0.090852  0.280589  0.117961  1
  F  F16  1  0.162627  0.972892  0.882039  1
  F  F17  1  0.587373  0.969411  0.310265  1
  F  F18  1  0.719411  0.837373  0.810265  1
  F  F19  1  0.027108  0.909148  0.189735  1
  F  F20  1  0.298794  0.087542  0.321636  1
  F  F21  1  0.912458  0.234094  0.211251  1
  F  F22  1  0.022843  0.701206  0.788749  1
  F  F23  1  0.451206  0.272843  0.288749  1
  F  F24  1  0.984094  0.162458  0.711251  1
  F  F25  1  0.765906  0.977157  0.678364  1
  F  F26  1  0.727157  0.015906  0.178364  1
  F  F27  1  0.837542  0.548794  0.821636  1
  F  F28  1  0.490063  0.116659  0.705542  1
  F  F29  1  0.883341  0.588883  0.373405  1
