# generated using pymatgen
data_Th4Cu3As8
_symmetry_space_group_name_H-M   'P 1'
_cell_length_a   10.52442922
_cell_length_b   10.52442875
_cell_length_c   10.52442906
_cell_angle_alpha   148.26115694
_cell_angle_beta   148.26115567
_cell_angle_gamma   45.49999707
_symmetry_Int_Tables_number   1
_chemical_formula_structural   Th4Cu3As8
_chemical_formula_sum   'Th4 Cu3 As8'
_cell_volume   321.53189452
_cell_formula_units_Z   1
loop_
 _symmetry_equiv_pos_site_id
 _symmetry_equiv_pos_as_xyz
  1  'x, y, z'
loop_
 _atom_site_type_symbol
 _atom_site_label
 _atom_site_symmetry_multiplicity
 _atom_site_fract_x
 _atom_site_fract_y
 _atom_site_fract_z
 _atom_site_occupancy
  Th  Th0  1  0.619985  0.619985  0.501768  1
  Th  Th1  1  0.118215  0.118215  0.498232  1
  Th  Th2  1  0.380015  0.881785  0.000000  1
  Th  Th3  1  0.881785  0.380015  0.000000  1
  Cu  Cu4  1  0.000000  0.000000  0.000000  1
  Cu  Cu5  1  0.000000  0.500000  0.500000  1
  Cu  Cu6  1  0.500000  0.000000  0.500000  1
  As  As7  1  0.328387  0.328387  0.503762  1
  As  As8  1  0.824625  0.824625  0.496238  1
  As  As9  1  0.671613  0.175375  0.000000  1
  As  As10  1  0.175375  0.671613  0.000000  1
  As  As11  1  0.249952  0.249952  0.000000  1
  As  As12  1  0.750048  0.750048  0.000000  1
  As  As13  1  0.750000  0.250000  0.500000  1
  As  As14  1  0.250000  0.750000  0.500000  1
