# generated using pymatgen
data_Er12Al3Tc2
_symmetry_space_group_name_H-M   'P 1'
_cell_length_a   8.33714855
_cell_length_b   8.33714840
_cell_length_c   8.33714718
_cell_angle_alpha   110.09393754
_cell_angle_beta   110.09393280
_cell_angle_gamma   108.23282655
_symmetry_Int_Tables_number   1
_chemical_formula_structural   Er12Al3Tc2
_chemical_formula_sum   'Er12 Al3 Tc2'
_cell_volume   445.94258991
_cell_formula_units_Z   1
loop_
 _symmetry_equiv_pos_site_id
 _symmetry_equiv_pos_as_xyz
  1  'x, y, z'
loop_
 _atom_site_type_symbol
 _atom_site_label
 _atom_site_symmetry_multiplicity
 _atom_site_fract_x
 _atom_site_fract_y
 _atom_site_fract_z
 _atom_site_occupancy
  Er  Er0  1  0.447235  0.192683  0.254551  1
  Er  Er1  1  0.552765  0.807317  0.745449  1
  Er  Er2  1  0.938132  0.192683  0.745449  1
  Er  Er3  1  0.192683  0.938132  0.745449  1
  Er  Er4  1  0.061868  0.807317  0.254551  1
  Er  Er5  1  0.807317  0.061868  0.254551  1
  Er  Er6  1  0.192683  0.447235  0.254551  1
  Er  Er7  1  0.807317  0.552765  0.745449  1
  Er  Er8  1  0.317323  0.317323  0.634644  1
  Er  Er9  1  0.682677  0.682677  0.365356  1
  Er  Er10  1  0.317323  0.682677  0.000000  1
  Er  Er11  1  0.682677  0.317323  0.000000  1
  Al  Al12  1  0.500000  0.000000  0.500000  1
  Al  Al13  1  0.000000  0.500000  0.500000  1
  Al  Al14  1  0.000000  0.000000  0.000000  1
  Tc  Tc15  1  0.334135  0.334135  0.000000  1
  Tc  Tc16  1  0.665865  0.665865  0.000000  1
