# generated using pymatgen
data_TbNd15CdCo4Hg3
_symmetry_space_group_name_H-M   'P 1'
_cell_length_a   9.75919953
_cell_length_b   9.76370169
_cell_length_c   9.75919911
_cell_angle_alpha   59.99112968
_cell_angle_beta   60.16043912
_cell_angle_gamma   59.99113126
_symmetry_Int_Tables_number   1
_chemical_formula_structural   TbNd15CdCo4Hg3
_chemical_formula_sum   'Tb1 Nd15 Cd1 Co4 Hg3'
_cell_volume   658.25372710
_cell_formula_units_Z   1
loop_
 _symmetry_equiv_pos_site_id
 _symmetry_equiv_pos_as_xyz
  1  'x, y, z'
loop_
 _atom_site_type_symbol
 _atom_site_label
 _atom_site_symmetry_multiplicity
 _atom_site_fract_x
 _atom_site_fract_y
 _atom_site_fract_z
 _atom_site_occupancy
  Tb  Tb0  1  0.059298  0.438998  0.059298  1
  Nd  Nd1  1  0.437121  0.439515  0.060161  1
  Nd  Nd2  1  0.596520  0.597050  0.596520  1
  Nd  Nd3  1  0.189652  0.809971  0.811637  1
  Nd  Nd4  1  0.059083  0.061479  0.437076  1
  Nd  Nd5  1  0.437076  0.061479  0.059083  1
  Nd  Nd6  1  0.811214  0.190583  0.811214  1
  Nd  Nd7  1  0.440073  0.059032  0.440073  1
  Nd  Nd8  1  0.598982  0.203242  0.598982  1
  Nd  Nd9  1  0.811637  0.809971  0.189652  1
  Nd  Nd10  1  0.205656  0.596038  0.601353  1
  Nd  Nd11  1  0.810085  0.190720  0.189206  1
  Nd  Nd12  1  0.060161  0.439515  0.437121  1
  Nd  Nd13  1  0.191234  0.808519  0.191234  1
  Nd  Nd14  1  0.601353  0.596038  0.205656  1
  Nd  Nd15  1  0.189206  0.190720  0.810085  1
  Cd  Cd16  1  0.829049  0.514180  0.829049  1
  Co  Co17  1  0.391315  0.389900  0.391315  1
  Co  Co18  1  0.829523  0.391162  0.390703  1
  Co  Co19  1  0.392201  0.826615  0.392201  1
  Co  Co20  1  0.390703  0.391162  0.829523  1
  Hg  Hg21  1  0.834350  0.831853  0.500453  1
  Hg  Hg22  1  0.834056  0.830404  0.834056  1
  Hg  Hg23  1  0.500453  0.831853  0.834350  1
