# generated using pymatgen
data_Tb16Ho4Ir11Au
_symmetry_space_group_name_H-M   'P 1'
_cell_length_a   10.99208271
_cell_length_b   10.99208324
_cell_length_c   6.36541117
_cell_angle_alpha   89.96985302
_cell_angle_beta   89.96985325
_cell_angle_gamma   89.65919070
_symmetry_Int_Tables_number   1
_chemical_formula_structural   Tb16Ho4Ir11Au
_chemical_formula_sum   'Tb16 Ho4 Ir11 Au1'
_cell_volume   769.09264012
_cell_formula_units_Z   1
loop_
 _symmetry_equiv_pos_site_id
 _symmetry_equiv_pos_as_xyz
  1  'x, y, z'
loop_
 _atom_site_type_symbol
 _atom_site_label
 _atom_site_symmetry_multiplicity
 _atom_site_fract_x
 _atom_site_fract_y
 _atom_site_fract_z
 _atom_site_occupancy
  Tb  Tb0  1  0.290027  0.088135  0.376956  1
  Tb  Tb1  1  0.292204  0.911205  0.876309  1
  Tb  Tb2  1  0.704598  0.084839  0.866528  1
  Tb  Tb3  1  0.706044  0.905141  0.380143  1
  Tb  Tb4  1  0.587918  0.790636  0.878922  1
  Tb  Tb5  1  0.580067  0.210394  0.378930  1
  Tb  Tb6  1  0.411060  0.790850  0.377754  1
  Tb  Tb7  1  0.410398  0.208874  0.877865  1
  Tb  Tb8  1  0.209364  0.412082  0.621078  1
  Tb  Tb9  1  0.209150  0.588940  0.122246  1
  Tb  Tb10  1  0.789606  0.419933  0.121070  1
  Tb  Tb11  1  0.791126  0.589602  0.622135  1
  Tb  Tb12  1  0.911865  0.709973  0.123044  1
  Tb  Tb13  1  0.915161  0.295402  0.633472  1
  Tb  Tb14  1  0.088795  0.707796  0.623691  1
  Tb  Tb15  1  0.094859  0.293956  0.119857  1
  Ho  Ho16  1  0.003717  0.995918  0.501717  1
  Ho  Ho17  1  0.004082  0.996283  0.998283  1
  Ho  Ho18  1  0.499264  0.499675  0.999052  1
  Ho  Ho19  1  0.500325  0.500736  0.500948  1
  Ir  Ir20  1  0.847300  0.848660  0.749517  1
  Ir  Ir21  1  0.151340  0.152700  0.750483  1
  Ir  Ir22  1  0.154192  0.845808  0.250000  1
  Ir  Ir23  1  0.654409  0.345591  0.750000  1
  Ir  Ir24  1  0.653047  0.651888  0.248889  1
  Ir  Ir25  1  0.348112  0.346953  0.251111  1
  Ir  Ir26  1  0.347058  0.652942  0.750000  1
  Ir  Ir27  1  0.500737  0.000197  0.124439  1
  Ir  Ir28  1  0.499896  0.000510  0.621067  1
  Ir  Ir29  1  0.999490  0.500104  0.878933  1
  Ir  Ir30  1  0.999803  0.499263  0.375561  1
  Au  Au31  1  0.844988  0.155012  0.250000  1
