# generated using pymatgen
data_YHo19CoBi8Os3
_symmetry_space_group_name_H-M   'P 1'
_cell_length_a   7.96832183
_cell_length_b   9.00635900
_cell_length_c   12.45744474
_cell_angle_alpha   90.00000000
_cell_angle_beta   89.73634710
_cell_angle_gamma   90.00000000
_symmetry_Int_Tables_number   1
_chemical_formula_structural   YHo19CoBi8Os3
_chemical_formula_sum   'Y1 Ho19 Co1 Bi8 Os3'
_cell_volume   894.00612007
_cell_formula_units_Z   1
loop_
 _symmetry_equiv_pos_site_id
 _symmetry_equiv_pos_as_xyz
  1  'x, y, z'
loop_
 _atom_site_type_symbol
 _atom_site_label
 _atom_site_symmetry_multiplicity
 _atom_site_fract_x
 _atom_site_fract_y
 _atom_site_fract_z
 _atom_site_occupancy
  Y  Y0  1  0.343655  0.750000  0.702590  1
  Ho  Ho1  1  0.658478  0.250000  0.292544  1
  Ho  Ho2  1  0.842154  0.250000  0.791464  1
  Ho  Ho3  1  0.156597  0.750000  0.206494  1
  Ho  Ho4  1  0.879227  0.750000  0.806118  1
  Ho  Ho5  1  0.119714  0.250000  0.193433  1
  Ho  Ho6  1  0.378816  0.250000  0.692720  1
  Ho  Ho7  1  0.616570  0.750000  0.312695  1
  Ho  Ho8  1  0.675128  0.542064  0.563447  1
  Ho  Ho9  1  0.326058  0.460417  0.437009  1
  Ho  Ho10  1  0.173841  0.457758  0.936250  1
  Ho  Ho11  1  0.326058  0.039583  0.437009  1
  Ho  Ho12  1  0.825153  0.543165  0.064150  1
  Ho  Ho13  1  0.675128  0.957936  0.563447  1
  Ho  Ho14  1  0.825153  0.956835  0.064150  1
  Ho  Ho15  1  0.173841  0.042242  0.936250  1
  Ho  Ho16  1  0.055837  0.750000  0.496691  1
  Ho  Ho17  1  0.944325  0.250000  0.502846  1
  Ho  Ho18  1  0.558789  0.250000  0.003663  1
  Ho  Ho19  1  0.441569  0.750000  0.995950  1
  Co  Co20  1  0.429680  0.750000  0.490253  1
  Bi  Bi21  1  0.570160  0.508350  0.827511  1
  Bi  Bi22  1  0.429871  0.492235  0.173021  1
  Bi  Bi23  1  0.070892  0.491744  0.671505  1
  Bi  Bi24  1  0.429871  0.007765  0.173021  1
  Bi  Bi25  1  0.929649  0.508962  0.328665  1
  Bi  Bi26  1  0.570160  0.991650  0.827511  1
  Bi  Bi27  1  0.929649  0.991038  0.328665  1
  Bi  Bi28  1  0.070892  0.008256  0.671505  1
  Os  Os29  1  0.075475  0.750000  0.989128  1
  Os  Os30  1  0.923790  0.250000  0.010203  1
  Os  Os31  1  0.573822  0.250000  0.510094  1
