# generated using pymatgen
data_Sc2BPtRh5
_symmetry_space_group_name_H-M   'P 1'
_cell_length_a   5.72296828
_cell_length_b   5.70251616
_cell_length_c   5.70251581
_cell_angle_alpha   60.23742576
_cell_angle_beta   59.88129270
_cell_angle_gamma   59.88128923
_symmetry_Int_Tables_number   1
_chemical_formula_structural   Sc2BPtRh5
_chemical_formula_sum   'Sc2 B1 Pt1 Rh5'
_cell_volume   131.59160261
_cell_formula_units_Z   1
loop_
 _symmetry_equiv_pos_site_id
 _symmetry_equiv_pos_as_xyz
  1  'x, y, z'
loop_
 _atom_site_type_symbol
 _atom_site_label
 _atom_site_symmetry_multiplicity
 _atom_site_fract_x
 _atom_site_fract_y
 _atom_site_fract_z
 _atom_site_occupancy
  Sc  Sc0  1  0.249316  0.250684  0.250684  1
  Sc  Sc1  1  0.749316  0.750684  0.750684  1
  B  B2  1  0.503476  0.496522  0.496522  1
  Pt  Pt3  1  0.240523  0.759475  0.759475  1
  Rh  Rh4  1  0.759401  0.240597  0.240597  1
  Rh  Rh5  1  0.242060  0.757938  0.243077  1
  Rh  Rh6  1  0.756921  0.757938  0.243077  1
  Rh  Rh7  1  0.242060  0.243077  0.757938  1
  Rh  Rh8  1  0.756921  0.243077  0.757938  1
