# generated using pymatgen
data_Dy2TaIr3
_symmetry_space_group_name_H-M   'P 1'
_cell_length_a   5.65125937
_cell_length_b   5.25550662
_cell_length_c   5.65126100
_cell_angle_alpha   57.47610426
_cell_angle_beta   59.99999633
_cell_angle_gamma   57.47610561
_symmetry_Int_Tables_number   1
_chemical_formula_structural   Dy2TaIr3
_chemical_formula_sum   'Dy2 Ta1 Ir3'
_cell_volume   113.95232246
_cell_formula_units_Z   1
loop_
 _symmetry_equiv_pos_site_id
 _symmetry_equiv_pos_as_xyz
  1  'x, y, z'
loop_
 _atom_site_type_symbol
 _atom_site_label
 _atom_site_symmetry_multiplicity
 _atom_site_fract_x
 _atom_site_fract_y
 _atom_site_fract_z
 _atom_site_occupancy
  Dy  Dy0  1  0.751007  0.746978  0.751007  1
  Dy  Dy1  1  0.498993  0.503022  0.498993  1
  Ta  Ta2  1  0.125000  0.625000  0.125000  1
  Ir  Ir3  1  0.125000  0.125000  0.625000  1
  Ir  Ir4  1  0.625000  0.125000  0.125000  1
  Ir  Ir5  1  0.125000  0.125000  0.125000  1
