# generated using pymatgen
data_YbPrB4(IrRu)2
_symmetry_space_group_name_H-M   'P 1'
_cell_length_a   6.88454591
_cell_length_b   6.03842086
_cell_length_c   5.57488097
_cell_angle_alpha   72.58989442
_cell_angle_beta   56.81584165
_cell_angle_gamma   50.59425920
_symmetry_Int_Tables_number   1
_chemical_formula_structural   YbPrB4(IrRu)2
_chemical_formula_sum   'Yb1 Pr1 B4 Ir2 Ru2'
_cell_volume   149.45076635
_cell_formula_units_Z   1
loop_
 _symmetry_equiv_pos_site_id
 _symmetry_equiv_pos_as_xyz
  1  'x, y, z'
loop_
 _atom_site_type_symbol
 _atom_site_label
 _atom_site_symmetry_multiplicity
 _atom_site_fract_x
 _atom_site_fract_y
 _atom_site_fract_z
 _atom_site_occupancy
  Yb  Yb0  1  0.500000  0.500000  0.500000  1
  Pr  Pr1  1  0.750000  0.750000  0.750000  1
  B  B2  1  0.179642  0.820358  0.179642  1
  B  B3  1  0.068276  0.431724  0.068276  1
  B  B4  1  0.820358  0.179642  0.820358  1
  B  B5  1  0.431724  0.068276  0.431724  1
  Ir  Ir6  1  0.385213  0.385213  0.114787  1
  Ir  Ir7  1  0.114787  0.114787  0.385213  1
  Ru  Ru8  1  0.866404  0.866404  0.133596  1
  Ru  Ru9  1  0.133596  0.133596  0.866404  1
