# generated using pymatgen
data_Mo3BrCl5
_symmetry_space_group_name_H-M   'P 1'
_cell_length_a   9.62866957
_cell_length_b   9.62440505
_cell_length_c   11.66953707
_cell_angle_alpha   89.92315071
_cell_angle_beta   89.30290528
_cell_angle_gamma   105.75823173
_symmetry_Int_Tables_number   1
_chemical_formula_structural   Mo3BrCl5
_chemical_formula_sum   'Mo12 Br4 Cl20'
_cell_volume   1040.68558027
_cell_formula_units_Z   4
loop_
 _symmetry_equiv_pos_site_id
 _symmetry_equiv_pos_as_xyz
  1  'x, y, z'
loop_
 _atom_site_type_symbol
 _atom_site_label
 _atom_site_symmetry_multiplicity
 _atom_site_fract_x
 _atom_site_fract_y
 _atom_site_fract_z
 _atom_site_occupancy
  Mo  Mo0  1  0.380528  0.623301  0.503194  1
  Mo  Mo1  1  0.356790  0.357332  0.572024  1
  Mo  Mo2  1  0.646462  0.646064  0.432919  1
  Mo  Mo3  1  0.141531  0.142001  0.066043  1
  Mo  Mo4  1  0.927011  0.927915  0.142226  1
  Mo  Mo5  1  0.118180  0.874793  0.997910  1
  Mo  Mo6  1  0.569856  0.570683  0.645369  1
  Mo  Mo7  1  0.067827  0.067131  0.854029  1
  Mo  Mo8  1  0.854101  0.853929  0.929961  1
  Mo  Mo9  1  0.875701  0.119089  0.998185  1
  Mo  Mo10  1  0.434333  0.433842  0.358988  1
  Mo  Mo11  1  0.624056  0.380532  0.502062  1
  Br  Br12  1  0.949975  0.193023  0.210603  1
  Br  Br13  1  0.409860  0.168475  0.427378  1
  Br  Br14  1  0.331580  0.087758  0.921131  1
  Br  Br15  1  0.355234  0.359515  0.144529  1
  Cl  Cl16  1  0.181326  0.954214  0.198616  1
  Cl  Cl17  1  0.085280  0.313951  0.926008  1
  Cl  Cl18  1  0.813331  0.040119  0.796695  1
  Cl  Cl19  1  0.268758  0.714098  0.999990  1
  Cl  Cl20  1  0.653219  0.654264  0.845232  1
  Cl  Cl21  1  0.783800  0.228636  0.503515  1
  Cl  Cl22  1  0.847556  0.844012  0.345185  1
  Cl  Cl23  1  0.461281  0.689977  0.301766  1
  Cl  Cl24  1  0.589670  0.818684  0.572934  1
  Cl  Cl25  1  0.186338  0.414630  0.432561  1
  Cl  Cl26  1  0.906096  0.679956  0.069851  1
  Cl  Cl27  1  0.818273  0.591343  0.572148  1
  Cl  Cl28  1  0.314820  0.544331  0.705158  1
  Cl  Cl29  1  0.041733  0.812296  0.796399  1
  Cl  Cl30  1  0.718206  0.273185  0.994602  1
  Cl  Cl31  1  0.680102  0.908447  0.070932  1
  Cl  Cl32  1  0.224267  0.778677  0.503577  1
  Cl  Cl33  1  0.150008  0.157657  0.654108  1
  Cl  Cl34  1  0.542974  0.316042  0.703815  1
  Cl  Cl35  1  0.689940  0.460099  0.300359  1
