# generated using pymatgen
data_TmLu2(Ni3P2)3
_symmetry_space_group_name_H-M   'P 1'
_cell_length_a   3.73119400
_cell_length_b   10.41646700
_cell_length_c   12.21674300
_cell_angle_alpha   90.00000000
_cell_angle_beta   90.00000000
_cell_angle_gamma   90.00000000
_symmetry_Int_Tables_number   1
_chemical_formula_structural   TmLu2(Ni3P2)3
_chemical_formula_sum   'Tm2 Lu4 Ni18 P12'
_cell_volume   474.81421297
_cell_formula_units_Z   2
loop_
 _symmetry_equiv_pos_site_id
 _symmetry_equiv_pos_as_xyz
  1  'x, y, z'
loop_
 _atom_site_type_symbol
 _atom_site_label
 _atom_site_symmetry_multiplicity
 _atom_site_fract_x
 _atom_site_fract_y
 _atom_site_fract_z
 _atom_site_occupancy
  Tm  Tm0  1  0.000000  0.500000  0.522311  1
  Tm  Tm1  1  0.500000  0.000000  0.477689  1
  Lu  Lu2  1  0.500000  0.818096  0.206005  1
  Lu  Lu3  1  0.500000  0.181904  0.206005  1
  Lu  Lu4  1  0.000000  0.681904  0.793995  1
  Lu  Lu5  1  0.000000  0.318096  0.793995  1
  Ni  Ni6  1  0.500000  0.500000  0.159150  1
  Ni  Ni7  1  0.000000  0.000000  0.840850  1
  Ni  Ni8  1  0.500000  0.500000  0.699509  1
  Ni  Ni9  1  0.000000  0.000000  0.300491  1
  Ni  Ni10  1  0.000000  0.500000  0.983343  1
  Ni  Ni11  1  0.500000  0.000000  0.016657  1
  Ni  Ni12  1  0.500000  0.332295  0.996047  1
  Ni  Ni13  1  0.500000  0.667705  0.996047  1
  Ni  Ni14  1  0.000000  0.167705  0.003953  1
  Ni  Ni15  1  0.000000  0.832295  0.003953  1
  Ni  Ni16  1  0.500000  0.300986  0.429197  1
  Ni  Ni17  1  0.500000  0.699014  0.429197  1
  Ni  Ni18  1  0.000000  0.199014  0.570803  1
  Ni  Ni19  1  0.000000  0.800986  0.570803  1
  Ni  Ni20  1  0.500000  0.878143  0.710984  1
  Ni  Ni21  1  0.500000  0.121857  0.710984  1
  Ni  Ni22  1  0.000000  0.621857  0.289016  1
  Ni  Ni23  1  0.000000  0.378143  0.289016  1
  P  P24  1  0.500000  0.500000  0.875827  1
  P  P25  1  0.000000  0.000000  0.124173  1
  P  P26  1  0.500000  0.500000  0.345930  1
  P  P27  1  0.000000  0.000000  0.654070  1
  P  P28  1  0.500000  0.314315  0.615105  1
  P  P29  1  0.500000  0.685685  0.615105  1
  P  P30  1  0.000000  0.185685  0.384895  1
  P  P31  1  0.000000  0.814315  0.384895  1
  P  P32  1  0.500000  0.846806  0.891177  1
  P  P33  1  0.500000  0.153194  0.891177  1
  P  P34  1  0.000000  0.653194  0.108823  1
  P  P35  1  0.000000  0.346806  0.108823  1
