# generated using pymatgen
data_Y12Ho3Tm(CdPt)4
_symmetry_space_group_name_H-M   'P 1'
_cell_length_a   9.70490416
_cell_length_b   9.70495878
_cell_length_c   9.70495900
_cell_angle_alpha   60.00000266
_cell_angle_beta   59.99981648
_cell_angle_gamma   59.99981936
_symmetry_Int_Tables_number   1
_chemical_formula_structural   Y12Ho3Tm(CdPt)4
_chemical_formula_sum   'Y12 Ho3 Tm1 Cd4 Pt4'
_cell_volume   646.34213224
_cell_formula_units_Z   1
loop_
 _symmetry_equiv_pos_site_id
 _symmetry_equiv_pos_as_xyz
  1  'x, y, z'
loop_
 _atom_site_type_symbol
 _atom_site_label
 _atom_site_symmetry_multiplicity
 _atom_site_fract_x
 _atom_site_fract_y
 _atom_site_fract_z
 _atom_site_occupancy
  Y  Y0  1  0.809510  0.190537  0.190537  1
  Y  Y1  1  0.190502  0.809530  0.809530  1
  Y  Y2  1  0.190502  0.809530  0.190439  1
  Y  Y3  1  0.809510  0.190537  0.809416  1
  Y  Y4  1  0.190502  0.190439  0.809530  1
  Y  Y5  1  0.809510  0.809416  0.190537  1
  Y  Y6  1  0.936237  0.563735  0.563735  1
  Y  Y7  1  0.563739  0.936233  0.936233  1
  Y  Y8  1  0.563739  0.936233  0.563794  1
  Y  Y9  1  0.936237  0.563735  0.936292  1
  Y  Y10  1  0.563739  0.563794  0.936233  1
  Y  Y11  1  0.936237  0.936292  0.563735  1
  Ho  Ho12  1  0.351947  0.351923  0.351923  1
  Ho  Ho13  1  0.351947  0.351923  0.944208  1
  Ho  Ho14  1  0.351947  0.944208  0.351923  1
  Tm  Tm15  1  0.944580  0.351807  0.351807  1
  Cd  Cd16  1  0.581722  0.581564  0.581564  1
  Cd  Cd17  1  0.581722  0.581564  0.255151  1
  Cd  Cd18  1  0.581722  0.255151  0.581564  1
  Cd  Cd19  1  0.255119  0.581627  0.581627  1
  Pt  Pt20  1  0.144329  0.144832  0.144832  1
  Pt  Pt21  1  0.144329  0.144832  0.566007  1
  Pt  Pt22  1  0.144329  0.566007  0.144832  1
  Pt  Pt23  1  0.566343  0.144552  0.144552  1
