# generated using pymatgen
data_Yb6Dy3ErSn8
_symmetry_space_group_name_H-M   'P 1'
_cell_length_a   7.83904000
_cell_length_b   8.42492537
_cell_length_c   16.05028871
_cell_angle_alpha   89.96595386
_cell_angle_beta   90.00000000
_cell_angle_gamma   90.00000000
_symmetry_Int_Tables_number   1
_chemical_formula_structural   Yb6Dy3ErSn8
_chemical_formula_sum   'Yb12 Dy6 Er2 Sn16'
_cell_volume   1060.01427826
_cell_formula_units_Z   2
loop_
 _symmetry_equiv_pos_site_id
 _symmetry_equiv_pos_as_xyz
  1  'x, y, z'
loop_
 _atom_site_type_symbol
 _atom_site_label
 _atom_site_symmetry_multiplicity
 _atom_site_fract_x
 _atom_site_fract_y
 _atom_site_fract_z
 _atom_site_occupancy
  Yb  Yb0  1  0.501879  0.687433  0.593361  1
  Yb  Yb1  1  0.001879  0.812567  0.906639  1
  Yb  Yb2  1  0.498125  0.312409  0.092898  1
  Yb  Yb3  1  0.998125  0.187591  0.407102  1
  Yb  Yb4  1  0.497883  0.312372  0.406854  1
  Yb  Yb5  1  0.997883  0.187628  0.093146  1
  Yb  Yb6  1  0.501962  0.687586  0.906681  1
  Yb  Yb7  1  0.001962  0.812414  0.593319  1
  Yb  Yb8  1  0.831712  0.511013  0.750087  1
  Yb  Yb9  1  0.331712  0.988987  0.749913  1
  Yb  Yb10  1  0.168189  0.488765  0.250109  1
  Yb  Yb11  1  0.668189  0.011235  0.249891  1
  Dy  Dy12  1  0.669887  0.166931  0.622175  1
  Dy  Dy13  1  0.169887  0.333069  0.877825  1
  Dy  Dy14  1  0.330189  0.833276  0.121844  1
  Dy  Dy15  1  0.830189  0.666724  0.378156  1
  Dy  Dy16  1  0.329945  0.833224  0.378230  1
  Dy  Dy17  1  0.829945  0.666776  0.121770  1
  Er  Er18  1  0.670124  0.166534  0.877649  1
  Er  Er19  1  0.170124  0.333466  0.622351  1
  Sn  Sn20  1  0.672073  0.964537  0.459772  1
  Sn  Sn21  1  0.172073  0.535463  0.040228  1
  Sn  Sn22  1  0.328639  0.035859  0.959274  1
  Sn  Sn23  1  0.828639  0.464141  0.540726  1
  Sn  Sn24  1  0.326717  0.036227  0.540613  1
  Sn  Sn25  1  0.826717  0.463773  0.959387  1
  Sn  Sn26  1  0.672630  0.964961  0.039804  1
  Sn  Sn27  1  0.172630  0.535039  0.460196  1
  Sn  Sn28  1  0.467251  0.374270  0.749838  1
  Sn  Sn29  1  0.967251  0.125730  0.750162  1
  Sn  Sn30  1  0.532828  0.625231  0.250039  1
  Sn  Sn31  1  0.032828  0.874769  0.249961  1
  Sn  Sn32  1  0.712990  0.873397  0.750301  1
  Sn  Sn33  1  0.212990  0.626603  0.749699  1
  Sn  Sn34  1  0.286978  0.127013  0.249977  1
  Sn  Sn35  1  0.786978  0.372987  0.250023  1
