# generated using pymatgen
data_Sc8Mn7Si14Ni
_symmetry_space_group_name_H-M   'P 1'
_cell_length_a   5.12298459
_cell_length_b   9.61393606
_cell_length_c   9.58869027
_cell_angle_alpha   85.94864426
_cell_angle_beta   74.50604081
_cell_angle_gamma   74.66434044
_symmetry_Int_Tables_number   1
_chemical_formula_structural   Sc8Mn7Si14Ni
_chemical_formula_sum   'Sc8 Mn7 Si14 Ni1'
_cell_volume   438.89520133
_cell_formula_units_Z   1
loop_
 _symmetry_equiv_pos_site_id
 _symmetry_equiv_pos_as_xyz
  1  'x, y, z'
loop_
 _atom_site_type_symbol
 _atom_site_label
 _atom_site_symmetry_multiplicity
 _atom_site_fract_x
 _atom_site_fract_y
 _atom_site_fract_z
 _atom_site_occupancy
  Sc  Sc0  1  0.199333  0.802227  0.803813  1
  Sc  Sc1  1  0.804538  0.196328  0.196794  1
  Sc  Sc2  1  0.996853  0.197773  0.803813  1
  Sc  Sc3  1  0.998667  0.803672  0.196794  1
  Sc  Sc4  1  0.361499  0.000000  0.277004  1
  Sc  Sc5  1  0.638458  0.000000  0.723083  1
  Sc  Sc6  1  0.640092  0.723340  0.999816  1
  Sc  Sc7  1  0.360092  0.276660  0.999816  1
  Mn  Mn8  1  0.602031  0.500000  0.795937  1
  Mn  Mn9  1  0.101472  0.500000  0.797056  1
  Mn  Mn10  1  0.600266  0.796053  0.501170  1
  Mn  Mn11  1  0.897422  0.500000  0.205158  1
  Mn  Mn12  1  0.399425  0.204346  0.498023  1
  Mn  Mn13  1  0.898564  0.203947  0.501170  1
  Mn  Mn14  1  0.102552  0.795654  0.498023  1
  Si  Si15  1  0.403004  0.589858  0.589255  1
  Si  Si16  1  0.597103  0.408784  0.409424  1
  Si  Si17  1  0.007741  0.410142  0.589255  1
  Si  Si18  1  0.993473  0.591216  0.409424  1
  Si  Si19  1  0.248816  0.000574  0.000272  1
  Si  Si20  1  0.750912  0.999426  0.000272  1
  Si  Si21  1  0.199010  0.299571  0.299024  1
  Si  Si22  1  0.801352  0.702090  0.701223  1
  Si  Si23  1  0.501966  0.700429  0.299024  1
  Si  Si24  1  0.497425  0.297910  0.701223  1
  Si  Si25  1  0.209138  0.000000  0.581725  1
  Si  Si26  1  0.790533  0.000000  0.418933  1
  Si  Si27  1  0.791207  0.419362  0.000066  1
  Si  Si28  1  0.208728  0.580638  0.000066  1
  Ni  Ni29  1  0.398328  0.500000  0.203344  1
