# generated using pymatgen
data_Ti12Nb8Si15P
_symmetry_space_group_name_H-M   'P 1'
_cell_length_a   6.69009156
_cell_length_b   6.69312850
_cell_length_c   12.25781793
_cell_angle_alpha   89.91603374
_cell_angle_beta   89.91148125
_cell_angle_gamma   89.96961296
_symmetry_Int_Tables_number   1
_chemical_formula_structural   Ti12Nb8Si15P
_chemical_formula_sum   'Ti12 Nb8 Si15 P1'
_cell_volume   548.87486794
_cell_formula_units_Z   1
loop_
 _symmetry_equiv_pos_site_id
 _symmetry_equiv_pos_as_xyz
  1  'x, y, z'
loop_
 _atom_site_type_symbol
 _atom_site_label
 _atom_site_symmetry_multiplicity
 _atom_site_fract_x
 _atom_site_fract_y
 _atom_site_fract_z
 _atom_site_occupancy
  Ti  Ti0  1  0.343985  0.506081  0.378990  1
  Ti  Ti1  1  0.851247  0.992434  0.373684  1
  Ti  Ti2  1  0.003095  0.151579  0.128015  1
  Ti  Ti3  1  0.997767  0.847464  0.624701  1
  Ti  Ti4  1  0.503449  0.347506  0.621549  1
  Ti  Ti5  1  0.151716  0.003312  0.872389  1
  Ti  Ti6  1  0.672529  0.669294  0.499136  1
  Ti  Ti7  1  0.830544  0.169943  0.749690  1
  Ti  Ti8  1  0.168174  0.828370  0.252021  1
  Ti  Ti9  1  0.330494  0.330155  0.000131  1
  Ti  Ti10  1  0.496960  0.651477  0.122458  1
  Ti  Ti11  1  0.651865  0.497300  0.877678  1
  Nb  Nb12  1  0.003645  0.658298  0.028188  1
  Nb  Nb13  1  0.995806  0.344450  0.526993  1
  Nb  Nb14  1  0.658368  0.003882  0.971654  1
  Nb  Nb15  1  0.158274  0.496349  0.777686  1
  Nb  Nb16  1  0.841508  0.504814  0.278870  1
  Nb  Nb17  1  0.495720  0.158673  0.221715  1
  Nb  Nb18  1  0.504947  0.842406  0.722196  1
  Nb  Nb19  1  0.340908  0.996322  0.472202  1
  Si  Si20  1  0.956050  0.298595  0.936014  1
  Si  Si21  1  0.701119  0.044315  0.564015  1
  Si  Si22  1  0.201546  0.455615  0.185880  1
  Si  Si23  1  0.798137  0.543951  0.686118  1
  Si  Si24  1  0.455696  0.201900  0.813878  1
  Si  Si25  1  0.543592  0.799152  0.313851  1
  Si  Si26  1  0.298290  0.955462  0.064662  1
  Si  Si27  1  0.792239  0.862735  0.173181  1
  Si  Si28  1  0.296403  0.638684  0.578943  1
  Si  Si29  1  0.707241  0.362284  0.076743  1
  Si  Si30  1  0.635966  0.291386  0.422240  1
  Si  Si31  1  0.362130  0.707203  0.923336  1
  Si  Si32  1  0.137706  0.206920  0.326236  1
  Si  Si33  1  0.206137  0.137855  0.673110  1
  Si  Si34  1  0.863154  0.793079  0.826181  1
  P  P35  1  0.043590  0.700755  0.435661  1
