# generated using pymatgen
data_Tb6GdTh(ReB6)4
_symmetry_space_group_name_H-M   'P 1'
_cell_length_a   3.71978100
_cell_length_b   9.20640403
_cell_length_c   11.60447094
_cell_angle_alpha   90.09387814
_cell_angle_beta   90.00000000
_cell_angle_gamma   90.00000000
_symmetry_Int_Tables_number   1
_chemical_formula_structural   Tb6GdTh(ReB6)4
_chemical_formula_sum   'Tb6 Gd1 Th1 Re4 B24'
_cell_volume   397.40393632
_cell_formula_units_Z   1
loop_
 _symmetry_equiv_pos_site_id
 _symmetry_equiv_pos_as_xyz
  1  'x, y, z'
loop_
 _atom_site_type_symbol
 _atom_site_label
 _atom_site_symmetry_multiplicity
 _atom_site_fract_x
 _atom_site_fract_y
 _atom_site_fract_z
 _atom_site_occupancy
  Tb  Tb0  1  0.000000  0.823878  0.085239  1
  Tb  Tb1  1  0.000000  0.175471  0.913884  1
  Tb  Tb2  1  0.000000  0.942083  0.369444  1
  Tb  Tb3  1  0.000000  0.055997  0.631268  1
  Tb  Tb4  1  0.000000  0.443623  0.128554  1
  Tb  Tb5  1  0.000000  0.557241  0.870242  1
  Gd  Gd6  1  0.000000  0.677046  0.587178  1
  Th  Th7  1  0.000000  0.323159  0.413995  1
  Re  Re8  1  0.000000  0.638689  0.321228  1
  Re  Re9  1  0.000000  0.361930  0.679514  1
  Re  Re10  1  0.000000  0.138360  0.178333  1
  Re  Re11  1  0.000000  0.861632  0.821023  1
  B  B12  1  0.500000  0.555837  0.432284  1
  B  B13  1  0.500000  0.446940  0.569505  1
  B  B14  1  0.500000  0.053099  0.066653  1
  B  B15  1  0.500000  0.946538  0.932802  1
  B  B16  1  0.500000  0.749535  0.418276  1
  B  B17  1  0.500000  0.251368  0.584796  1
  B  B18  1  0.500000  0.248140  0.080485  1
  B  B19  1  0.500000  0.751590  0.918182  1
  B  B20  1  0.500000  0.791719  0.265514  1
  B  B21  1  0.500000  0.208403  0.735590  1
  B  B22  1  0.500000  0.290181  0.232079  1
  B  B23  1  0.500000  0.708321  0.765894  1
  B  B24  1  0.500000  0.632537  0.185000  1
  B  B25  1  0.500000  0.369026  0.814624  1
  B  B26  1  0.500000  0.129940  0.312083  1
  B  B27  1  0.500000  0.868246  0.686436  1
  B  B28  1  0.500000  0.983031  0.210984  1
  B  B29  1  0.500000  0.016015  0.788628  1
  B  B30  1  0.500000  0.486583  0.286558  1
  B  B31  1  0.500000  0.517082  0.713282  1
  B  B32  1  0.500000  0.602165  0.027940  1
  B  B33  1  0.500000  0.398541  0.971116  1
  B  B34  1  0.500000  0.098026  0.472617  1
  B  B35  1  0.500000  0.898025  0.528765  1
