# generated using pymatgen
data_Y8Tm12Si15Pt
_symmetry_space_group_name_H-M   'P 1'
_cell_length_a   7.32314604
_cell_length_b   7.67312953
_cell_length_c   14.46595900
_cell_angle_alpha   90.00000000
_cell_angle_beta   90.00000000
_cell_angle_gamma   90.10918694
_symmetry_Int_Tables_number   1
_chemical_formula_structural   Y8Tm12Si15Pt
_chemical_formula_sum   'Y8 Tm12 Si15 Pt1'
_cell_volume   812.86170837
_cell_formula_units_Z   1
loop_
 _symmetry_equiv_pos_site_id
 _symmetry_equiv_pos_as_xyz
  1  'x, y, z'
loop_
 _atom_site_type_symbol
 _atom_site_label
 _atom_site_symmetry_multiplicity
 _atom_site_fract_x
 _atom_site_fract_y
 _atom_site_fract_z
 _atom_site_occupancy
  Y  Y0  1  0.522897  0.680979  0.594079  1
  Y  Y1  1  0.024600  0.819210  0.904788  1
  Y  Y2  1  0.475397  0.317722  0.097310  1
  Y  Y3  1  0.975201  0.181105  0.402629  1
  Y  Y4  1  0.475397  0.317722  0.402690  1
  Y  Y5  1  0.975201  0.181105  0.097371  1
  Y  Y6  1  0.522897  0.680979  0.905921  1
  Y  Y7  1  0.024600  0.819210  0.595212  1
  Tm  Tm8  1  0.678102  0.179270  0.623788  1
  Tm  Tm9  1  0.187448  0.324827  0.876063  1
  Tm  Tm10  1  0.318497  0.820702  0.124118  1
  Tm  Tm11  1  0.817659  0.676398  0.375504  1
  Tm  Tm12  1  0.318497  0.820702  0.375882  1
  Tm  Tm13  1  0.817659  0.676398  0.124496  1
  Tm  Tm14  1  0.678102  0.179270  0.876212  1
  Tm  Tm15  1  0.187448  0.324827  0.623937  1
  Tm  Tm16  1  0.843841  0.508981  0.750000  1
  Tm  Tm17  1  0.354464  0.986490  0.750000  1
  Tm  Tm18  1  0.149111  0.487315  0.250000  1
  Tm  Tm19  1  0.649231  0.011277  0.250000  1
  Si  Si20  1  0.648754  0.969878  0.459384  1
  Si  Si21  1  0.147749  0.529377  0.040453  1
  Si  Si22  1  0.349768  0.027532  0.960900  1
  Si  Si23  1  0.851469  0.470574  0.539548  1
  Si  Si24  1  0.349768  0.027532  0.539100  1
  Si  Si25  1  0.851469  0.470574  0.960452  1
  Si  Si26  1  0.648754  0.969878  0.040616  1
  Si  Si27  1  0.147749  0.529377  0.459547  1
  Si  Si28  1  0.980195  0.104763  0.750000  1
  Si  Si29  1  0.519946  0.607342  0.250000  1
  Si  Si30  1  0.020261  0.891763  0.250000  1
  Si  Si31  1  0.738793  0.875804  0.750000  1
  Si  Si32  1  0.227792  0.631701  0.750000  1
  Si  Si33  1  0.269744  0.128027  0.250000  1
  Si  Si34  1  0.770189  0.370865  0.250000  1
  Pt  Pt35  1  0.481347  0.400525  0.750000  1
