# generated using pymatgen
data_ErLuFe12P7
_symmetry_space_group_name_H-M   'P 1'
_cell_length_a   8.93625407
_cell_length_b   8.93646332
_cell_length_c   3.62909200
_cell_angle_alpha   90.00000000
_cell_angle_beta   90.00000000
_cell_angle_gamma   119.99682281
_symmetry_Int_Tables_number   1
_chemical_formula_structural   ErLuFe12P7
_chemical_formula_sum   'Er1 Lu1 Fe12 P7'
_cell_volume   250.99420705
_cell_formula_units_Z   1
loop_
 _symmetry_equiv_pos_site_id
 _symmetry_equiv_pos_as_xyz
  1  'x, y, z'
loop_
 _atom_site_type_symbol
 _atom_site_label
 _atom_site_symmetry_multiplicity
 _atom_site_fract_x
 _atom_site_fract_y
 _atom_site_fract_z
 _atom_site_occupancy
  Er  Er0  1  0.333280  0.666613  0.000000  1
  Lu  Lu1  1  0.666703  0.333388  0.499999  1
  Fe  Fe2  1  0.213674  0.095387  0.499999  1
  Fe  Fe3  1  0.904643  0.118334  0.499999  1
  Fe  Fe4  1  0.881704  0.786314  0.499999  1
  Fe  Fe5  1  0.155994  0.275543  0.000000  1
  Fe  Fe6  1  0.724470  0.880445  0.000000  1
  Fe  Fe7  1  0.119552  0.844053  0.000000  1
  Fe  Fe8  1  0.384475  0.432447  0.499999  1
  Fe  Fe9  1  0.567516  0.951978  0.499999  1
  Fe  Fe10  1  0.047998  0.615504  0.499999  1
  Fe  Fe11  1  0.427030  0.057073  0.000000  1
  Fe  Fe12  1  0.942939  0.369964  0.000000  1
  Fe  Fe13  1  0.630056  0.572976  0.000000  1
  P  P14  1  0.112410  0.401756  0.499999  1
  P  P15  1  0.598211  0.710590  0.499999  1
  P  P16  1  0.289283  0.887545  0.499999  1
  P  P17  1  0.999992  0.000015  0.000000  1
  P  P18  1  0.412884  0.297826  0.000000  1
  P  P19  1  0.702243  0.115135  0.000000  1
  P  P20  1  0.884943  0.587110  0.000000  1
