# generated using pymatgen
data_Pa4Co3PdPb2
_symmetry_space_group_name_H-M   'P 1'
_cell_length_a   7.65311236
_cell_length_b   7.65311093
_cell_length_c   3.50474600
_cell_angle_alpha   90.00000000
_cell_angle_beta   90.00000000
_cell_angle_gamma   89.11550882
_symmetry_Int_Tables_number   1
_chemical_formula_structural   Pa4Co3PdPb2
_chemical_formula_sum   'Pa4 Co3 Pd1 Pb2'
_cell_volume   205.24892737
_cell_formula_units_Z   1
loop_
 _symmetry_equiv_pos_site_id
 _symmetry_equiv_pos_as_xyz
  1  'x, y, z'
loop_
 _atom_site_type_symbol
 _atom_site_label
 _atom_site_symmetry_multiplicity
 _atom_site_fract_x
 _atom_site_fract_y
 _atom_site_fract_z
 _atom_site_occupancy
  Pa  Pa0  1  0.647426  0.147426  0.500000  1
  Pa  Pa1  1  0.186342  0.332508  0.500000  1
  Pa  Pa2  1  0.832508  0.686342  0.500000  1
  Pa  Pa3  1  0.324708  0.824708  0.500000  1
  Co  Co4  1  0.368853  0.126338  0.000000  1
  Co  Co5  1  0.130884  0.630884  0.000000  1
  Co  Co6  1  0.626338  0.868853  0.000000  1
  Pd  Pd7  1  0.874237  0.374237  0.000000  1
  Pb  Pb8  1  0.002041  0.006664  0.000000  1
  Pb  Pb9  1  0.506664  0.502041  0.000000  1
