# generated using pymatgen
data_Hf5ScSn6IrRh5
_symmetry_space_group_name_H-M   'P 1'
_cell_length_a   7.46525393
_cell_length_b   7.44458355
_cell_length_c   7.12188933
_cell_angle_alpha   90.00933471
_cell_angle_beta   90.02483656
_cell_angle_gamma   119.89692808
_symmetry_Int_Tables_number   1
_chemical_formula_structural   Hf5ScSn6IrRh5
_chemical_formula_sum   'Hf5 Sc1 Sn6 Ir1 Rh5'
_cell_volume   343.13174158
_cell_formula_units_Z   1
loop_
 _symmetry_equiv_pos_site_id
 _symmetry_equiv_pos_as_xyz
  1  'x, y, z'
loop_
 _atom_site_type_symbol
 _atom_site_label
 _atom_site_symmetry_multiplicity
 _atom_site_fract_x
 _atom_site_fract_y
 _atom_site_fract_z
 _atom_site_occupancy
  Hf  Hf0  1  0.597533  0.610879  0.748733  1
  Hf  Hf1  1  0.388842  0.985578  0.748691  1
  Hf  Hf2  1  0.991599  0.388960  0.250444  1
  Hf  Hf3  1  0.610482  0.601421  0.250292  1
  Hf  Hf4  1  0.400412  0.013063  0.250358  1
  Sc  Sc5  1  0.012159  0.401963  0.749513  1
  Sn  Sn6  1  0.268961  0.270482  0.502793  1
  Sn  Sn7  1  0.998318  0.724874  0.497564  1
  Sn  Sn8  1  0.000716  0.725252  0.002078  1
  Sn  Sn9  1  0.732705  0.004754  0.501860  1
  Sn  Sn10  1  0.730180  0.001971  0.997844  1
  Sn  Sn11  1  0.268830  0.272459  0.996877  1
  Ir  Ir12  1  0.338352  0.670968  0.471102  1
  Rh  Rh13  1  0.661518  0.332393  0.517201  1
  Rh  Rh14  1  0.337951  0.670506  0.032396  1
  Rh  Rh15  1  0.999338  0.991589  0.749738  1
  Rh  Rh16  1  0.000640  0.000624  0.249958  1
  Rh  Rh17  1  0.661465  0.332261  0.982560  1
