# generated using pymatgen
data_Th8TcNi3Ru4
_symmetry_space_group_name_H-M   'P 1'
_cell_length_a   4.05331300
_cell_length_b   6.01752065
_cell_length_c   14.69361900
_cell_angle_alpha   90.21951026
_cell_angle_beta   90.00000000
_cell_angle_gamma   90.00000000
_symmetry_Int_Tables_number   1
_chemical_formula_structural   Th8TcNi3Ru4
_chemical_formula_sum   'Th8 Tc1 Ni3 Ru4'
_cell_volume   358.38788351
_cell_formula_units_Z   1
loop_
 _symmetry_equiv_pos_site_id
 _symmetry_equiv_pos_as_xyz
  1  'x, y, z'
loop_
 _atom_site_type_symbol
 _atom_site_label
 _atom_site_symmetry_multiplicity
 _atom_site_fract_x
 _atom_site_fract_y
 _atom_site_fract_z
 _atom_site_occupancy
  Th  Th0  1  0.250000  0.548354  0.285010  1
  Th  Th1  1  0.750000  0.452603  0.715992  1
  Th  Th2  1  0.250000  0.953256  0.784332  1
  Th  Th3  1  0.250000  0.760211  0.534783  1
  Th  Th4  1  0.250000  0.741952  0.034783  1
  Th  Th5  1  0.750000  0.258782  0.964578  1
  Th  Th6  1  0.750000  0.047851  0.215720  1
  Th  Th7  1  0.750000  0.248134  0.463027  1
  Tc  Tc8  1  0.250000  0.059667  0.349770  1
  Ni  Ni9  1  0.750000  0.768153  0.900982  1
  Ni  Ni10  1  0.250000  0.229552  0.098781  1
  Ni  Ni11  1  0.250000  0.263961  0.601693  1
  Ru  Ru12  1  0.750000  0.554368  0.140582  1
  Ru  Ru13  1  0.750000  0.722063  0.404427  1
  Ru  Ru14  1  0.250000  0.443414  0.852731  1
  Ru  Ru15  1  0.750000  0.947683  0.652807  1
