# generated using pymatgen
data_Tm2Fe9Ni3P7
_symmetry_space_group_name_H-M   'P 1'
_cell_length_a   8.97907048
_cell_length_b   8.97201363
_cell_length_c   3.61703700
_cell_angle_alpha   90.00000000
_cell_angle_beta   90.00000000
_cell_angle_gamma   119.64244720
_symmetry_Int_Tables_number   1
_chemical_formula_structural   Tm2Fe9Ni3P7
_chemical_formula_sum   'Tm2 Fe9 Ni3 P7'
_cell_volume   253.25520311
_cell_formula_units_Z   1
loop_
 _symmetry_equiv_pos_site_id
 _symmetry_equiv_pos_as_xyz
  1  'x, y, z'
loop_
 _atom_site_type_symbol
 _atom_site_label
 _atom_site_symmetry_multiplicity
 _atom_site_fract_x
 _atom_site_fract_y
 _atom_site_fract_z
 _atom_site_occupancy
  Tm  Tm0  1  0.334637  0.669565  0.000000  1
  Tm  Tm1  1  0.998138  0.995163  0.500000  1
  Fe  Fe2  1  0.034702  0.762717  0.000000  1
  Fe  Fe3  1  0.943061  0.453090  0.000000  1
  Fe  Fe4  1  0.511712  0.062016  0.000000  1
  Fe  Fe5  1  0.546417  0.487391  0.000000  1
  Fe  Fe6  1  0.281057  0.899542  0.500000  1
  Fe  Fe7  1  0.617764  0.721006  0.500000  1
  Fe  Fe8  1  0.765930  0.206132  0.500000  1
  Fe  Fe9  1  0.448339  0.236143  0.500000  1
  Fe  Fe10  1  0.789703  0.553879  0.500000  1
  Ni  Ni11  1  0.727625  0.961732  0.000000  1
  Ni  Ni12  1  0.231812  0.270397  0.000000  1
  Ni  Ni13  1  0.105696  0.386189  0.500000  1
  P  P14  1  0.959860  0.219403  0.000000  1
  P  P15  1  0.254770  0.030368  0.000000  1
  P  P16  1  0.777410  0.737254  0.000000  1
  P  P17  1  0.067613  0.627730  0.500000  1
  P  P18  1  0.546232  0.929685  0.500000  1
  P  P19  1  0.388145  0.455386  0.500000  1
  P  P20  1  0.669380  0.335208  0.000000  1
