# generated using pymatgen
data_Tm4TcOsRu6
_symmetry_space_group_name_H-M   'P 1'
_cell_length_a   5.14356815
_cell_length_b   5.32267216
_cell_length_c   8.90783300
_cell_angle_alpha   90.00000000
_cell_angle_beta   90.00000000
_cell_angle_gamma   119.46298570
_symmetry_Int_Tables_number   1
_chemical_formula_structural   Tm4TcOsRu6
_chemical_formula_sum   'Tm4 Tc1 Os1 Ru6'
_cell_volume   212.33504265
_cell_formula_units_Z   1
loop_
 _symmetry_equiv_pos_site_id
 _symmetry_equiv_pos_as_xyz
  1  'x, y, z'
loop_
 _atom_site_type_symbol
 _atom_site_label
 _atom_site_symmetry_multiplicity
 _atom_site_fract_x
 _atom_site_fract_y
 _atom_site_fract_z
 _atom_site_occupancy
  Tm  Tm0  1  0.330316  0.668743  0.432689  1
  Tm  Tm1  1  0.659460  0.328970  0.565640  1
  Tm  Tm2  1  0.659460  0.328970  0.934360  1
  Tm  Tm3  1  0.330316  0.668743  0.067311  1
  Tc  Tc4  1  0.675677  0.836580  0.750000  1
  Os  Os5  1  0.837558  0.164073  0.250000  1
  Ru  Ru6  1  0.984559  0.000528  0.499342  1
  Ru  Ru7  1  0.984559  0.000528  0.000658  1
  Ru  Ru8  1  0.830132  0.652930  0.250000  1
  Ru  Ru9  1  0.350554  0.171632  0.250000  1
  Ru  Ru10  1  0.179091  0.829255  0.750000  1
  Ru  Ru11  1  0.178319  0.349048  0.750000  1
