# generated using pymatgen
data_Ce3SmY4(B6Os)4
_symmetry_space_group_name_H-M   'P 1'
_cell_length_a   3.69591200
_cell_length_b   9.22538615
_cell_length_c   11.60232445
_cell_angle_alpha   90.05725581
_cell_angle_beta   90.00000000
_cell_angle_gamma   90.00000000
_symmetry_Int_Tables_number   1
_chemical_formula_structural   Ce3SmY4(B6Os)4
_chemical_formula_sum   'Ce3 Sm1 Y4 B24 Os4'
_cell_volume   395.59515580
_cell_formula_units_Z   1
loop_
 _symmetry_equiv_pos_site_id
 _symmetry_equiv_pos_as_xyz
  1  'x, y, z'
loop_
 _atom_site_type_symbol
 _atom_site_label
 _atom_site_symmetry_multiplicity
 _atom_site_fract_x
 _atom_site_fract_y
 _atom_site_fract_z
 _atom_site_occupancy
  Ce  Ce0  1  0.000000  0.323023  0.413629  1
  Ce  Ce1  1  0.000000  0.676642  0.586642  1
  Ce  Ce2  1  0.000000  0.823231  0.086175  1
  Sm  Sm3  1  0.000000  0.177818  0.913383  1
  Y  Y4  1  0.000000  0.944875  0.374196  1
  Y  Y5  1  0.000000  0.055535  0.626050  1
  Y  Y6  1  0.000000  0.444018  0.125705  1
  Y  Y7  1  0.000000  0.555119  0.873899  1
  B  B8  1  0.500000  0.554331  0.431915  1
  B  B9  1  0.500000  0.445841  0.567815  1
  B  B10  1  0.500000  0.054558  0.068593  1
  B  B11  1  0.500000  0.944981  0.931911  1
  B  B12  1  0.500000  0.748331  0.419300  1
  B  B13  1  0.500000  0.251805  0.580998  1
  B  B14  1  0.500000  0.248599  0.081019  1
  B  B15  1  0.500000  0.751979  0.919254  1
  B  B16  1  0.500000  0.791040  0.266586  1
  B  B17  1  0.500000  0.209017  0.733165  1
  B  B18  1  0.500000  0.291246  0.233102  1
  B  B19  1  0.500000  0.708627  0.766556  1
  B  B20  1  0.500000  0.632436  0.185214  1
  B  B21  1  0.500000  0.367839  0.814557  1
  B  B22  1  0.500000  0.132638  0.314794  1
  B  B23  1  0.500000  0.867332  0.685543  1
  B  B24  1  0.500000  0.984758  0.213381  1
  B  B25  1  0.500000  0.015181  0.786238  1
  B  B26  1  0.500000  0.484689  0.286352  1
  B  B27  1  0.500000  0.515136  0.713773  1
  B  B28  1  0.500000  0.608452  0.029949  1
  B  B29  1  0.500000  0.391227  0.970117  1
  B  B30  1  0.500000  0.109268  0.470132  1
  B  B31  1  0.500000  0.890598  0.530054  1
  Os  Os32  1  0.000000  0.638760  0.321148  1
  Os  Os33  1  0.000000  0.361959  0.677822  1
  Os  Os34  1  0.000000  0.138412  0.180423  1
  Os  Os35  1  0.000000  0.860699  0.820612  1
