# generated using pymatgen
data_Tm4MnAl4Tc3
_symmetry_space_group_name_H-M   'P 1'
_cell_length_a   5.43372386
_cell_length_b   5.45080828
_cell_length_c   8.70478700
_cell_angle_alpha   90.00000000
_cell_angle_beta   90.00000000
_cell_angle_gamma   119.89257133
_symmetry_Int_Tables_number   1
_chemical_formula_structural   Tm4MnAl4Tc3
_chemical_formula_sum   'Tm4 Mn1 Al4 Tc3'
_cell_volume   223.51998895
_cell_formula_units_Z   1
loop_
 _symmetry_equiv_pos_site_id
 _symmetry_equiv_pos_as_xyz
  1  'x, y, z'
loop_
 _atom_site_type_symbol
 _atom_site_label
 _atom_site_symmetry_multiplicity
 _atom_site_fract_x
 _atom_site_fract_y
 _atom_site_fract_z
 _atom_site_occupancy
  Tm  Tm0  1  0.334252  0.666843  0.438763  1
  Tm  Tm1  1  0.665871  0.331196  0.557381  1
  Tm  Tm2  1  0.665871  0.331196  0.942619  1
  Tm  Tm3  1  0.334252  0.666843  0.061237  1
  Mn  Mn4  1  0.838746  0.158005  0.250000  1
  Al  Al5  1  0.834843  0.663822  0.250000  1
  Al  Al6  1  0.329531  0.160684  0.250000  1
  Al  Al7  1  0.181406  0.842598  0.750000  1
  Al  Al8  1  0.186569  0.343754  0.750000  1
  Tc  Tc9  1  0.975034  0.998004  0.502594  1
  Tc  Tc10  1  0.975034  0.998004  0.997406  1
  Tc  Tc11  1  0.678591  0.839052  0.750000  1
