# generated using pymatgen
data_Tb4TmGa2Pb
_symmetry_space_group_name_H-M   'P 1'
_cell_length_a   7.86374500
_cell_length_b   7.86374500
_cell_length_c   13.96056600
_cell_angle_alpha   90.00000000
_cell_angle_beta   90.00000000
_cell_angle_gamma   90.00000000
_symmetry_Int_Tables_number   1
_chemical_formula_structural   Tb4TmGa2Pb
_chemical_formula_sum   'Tb16 Tm4 Ga8 Pb4'
_cell_volume   863.30025712
_cell_formula_units_Z   4
loop_
 _symmetry_equiv_pos_site_id
 _symmetry_equiv_pos_as_xyz
  1  'x, y, z'
loop_
 _atom_site_type_symbol
 _atom_site_label
 _atom_site_symmetry_multiplicity
 _atom_site_fract_x
 _atom_site_fract_y
 _atom_site_fract_z
 _atom_site_occupancy
  Tb  Tb0  1  0.837866  0.836252  0.892161  1
  Tb  Tb1  1  0.163748  0.162134  0.607839  1
  Tb  Tb2  1  0.837866  0.163748  0.392161  1
  Tb  Tb3  1  0.162134  0.836252  0.392161  1
  Tb  Tb4  1  0.336252  0.337866  0.392161  1
  Tb  Tb5  1  0.836252  0.162134  0.107839  1
  Tb  Tb6  1  0.336252  0.662134  0.892161  1
  Tb  Tb7  1  0.163748  0.837866  0.107839  1
  Tb  Tb8  1  0.337866  0.663748  0.607839  1
  Tb  Tb9  1  0.662134  0.663748  0.107839  1
  Tb  Tb10  1  0.662134  0.336252  0.607839  1
  Tb  Tb11  1  0.836252  0.837866  0.607839  1
  Tb  Tb12  1  0.663748  0.337866  0.892161  1
  Tb  Tb13  1  0.162134  0.163748  0.892161  1
  Tb  Tb14  1  0.663748  0.662134  0.392161  1
  Tb  Tb15  1  0.337866  0.336252  0.107839  1
  Tm  Tm16  1  0.500000  0.000000  0.751862  1
  Tm  Tm17  1  0.000000  0.500000  0.248138  1
  Tm  Tm18  1  0.000000  0.500000  0.748138  1
  Tm  Tm19  1  0.500000  0.000000  0.251862  1
  Ga  Ga20  1  0.631519  0.368481  0.250000  1
  Ga  Ga21  1  0.368481  0.631519  0.250000  1
  Ga  Ga22  1  0.131519  0.131519  0.250000  1
  Ga  Ga23  1  0.368481  0.368481  0.750000  1
  Ga  Ga24  1  0.131519  0.868481  0.750000  1
  Ga  Ga25  1  0.868481  0.868481  0.250000  1
  Ga  Ga26  1  0.631519  0.631519  0.750000  1
  Ga  Ga27  1  0.868481  0.131519  0.750000  1
  Pb  Pb28  1  0.000000  0.500000  0.999862  1
  Pb  Pb29  1  0.500000  0.000000  0.000138  1
  Pb  Pb30  1  0.500000  0.000000  0.500138  1
  Pb  Pb31  1  0.000000  0.500000  0.499862  1
