# generated using pymatgen
data_Tm(Ta3N4)3
_symmetry_space_group_name_H-M   'P 1'
_cell_length_a   5.27307700
_cell_length_b   5.27307670
_cell_length_c   10.49678100
_cell_angle_alpha   90.00000000
_cell_angle_beta   90.00000000
_cell_angle_gamma   120.00000817
_symmetry_Int_Tables_number   1
_chemical_formula_structural   Tm(Ta3N4)3
_chemical_formula_sum   'Tm1 Ta9 N12'
_cell_volume   252.76383367
_cell_formula_units_Z   1
loop_
 _symmetry_equiv_pos_site_id
 _symmetry_equiv_pos_as_xyz
  1  'x, y, z'
loop_
 _atom_site_type_symbol
 _atom_site_label
 _atom_site_symmetry_multiplicity
 _atom_site_fract_x
 _atom_site_fract_y
 _atom_site_fract_z
 _atom_site_occupancy
  Tm  Tm0  1  0.666667  0.333333  0.000000  1
  Ta  Ta1  1  0.677479  0.675558  0.745934  1
  Ta  Ta2  1  0.324442  0.001921  0.745934  1
  Ta  Ta3  1  0.998079  0.322521  0.745934  1
  Ta  Ta4  1  0.324442  0.322521  0.254066  1
  Ta  Ta5  1  0.677479  0.001921  0.254066  1
  Ta  Ta6  1  0.998079  0.675558  0.254066  1
  Ta  Ta7  1  0.333333  0.666667  0.000000  1
  Ta  Ta8  1  0.333333  0.666667  0.500000  1
  Ta  Ta9  1  0.666667  0.333333  0.500000  1
  N  N10  1  0.658889  0.659086  0.381556  1
  N  N11  1  0.340914  0.999803  0.381556  1
  N  N12  1  0.000197  0.341111  0.381556  1
  N  N13  1  0.340914  0.341111  0.618444  1
  N  N14  1  0.658889  0.999803  0.618444  1
  N  N15  1  0.000197  0.659086  0.618444  1
  N  N16  1  0.334954  0.350540  0.870853  1
  N  N17  1  0.649460  0.984414  0.870853  1
  N  N18  1  0.015586  0.665046  0.870853  1
  N  N19  1  0.649460  0.665046  0.129147  1
  N  N20  1  0.334954  0.984414  0.129147  1
  N  N21  1  0.015586  0.350540  0.129147  1
