# generated using pymatgen
data_ErTmAsRh6
_symmetry_space_group_name_H-M   'P 1'
_cell_length_a   6.02772923
_cell_length_b   6.02772933
_cell_length_c   6.02773000
_cell_angle_alpha   60.00000730
_cell_angle_beta   60.00000677
_cell_angle_gamma   60.00001138
_symmetry_Int_Tables_number   1
_chemical_formula_structural   ErTmAsRh6
_chemical_formula_sum   'Er1 Tm1 As1 Rh6'
_cell_volume   154.86253157
_cell_formula_units_Z   1
loop_
 _symmetry_equiv_pos_site_id
 _symmetry_equiv_pos_as_xyz
  1  'x, y, z'
loop_
 _atom_site_type_symbol
 _atom_site_label
 _atom_site_symmetry_multiplicity
 _atom_site_fract_x
 _atom_site_fract_y
 _atom_site_fract_z
 _atom_site_occupancy
  Er  Er0  1  0.750000  0.750000  0.750000  1
  Tm  Tm1  1  0.250000  0.250000  0.250000  1
  As  As2  1  0.499999  0.499999  0.499999  1
  Rh  Rh3  1  0.774123  0.225876  0.225876  1
  Rh  Rh4  1  0.225876  0.774123  0.225876  1
  Rh  Rh5  1  0.774123  0.774123  0.225876  1
  Rh  Rh6  1  0.225876  0.225876  0.774123  1
  Rh  Rh7  1  0.774123  0.225876  0.774123  1
  Rh  Rh8  1  0.225876  0.774123  0.774123  1
