# generated using pymatgen
data_Pr3Nd3Rh2
_symmetry_space_group_name_H-M   'P 1'
_cell_length_a   7.41117021
_cell_length_b   10.00019700
_cell_length_c   6.52312885
_cell_angle_alpha   90.00000000
_cell_angle_beta   89.89310213
_cell_angle_gamma   90.00000000
_symmetry_Int_Tables_number   1
_chemical_formula_structural   Pr3Nd3Rh2
_chemical_formula_sum   'Pr6 Nd6 Rh4'
_cell_volume   483.44886453
_cell_formula_units_Z   2
loop_
 _symmetry_equiv_pos_site_id
 _symmetry_equiv_pos_as_xyz
  1  'x, y, z'
loop_
 _atom_site_type_symbol
 _atom_site_label
 _atom_site_symmetry_multiplicity
 _atom_site_fract_x
 _atom_site_fract_y
 _atom_site_fract_z
 _atom_site_occupancy
  Pr  Pr0  1  0.465635  0.750000  0.144844  1
  Pr  Pr1  1  0.966537  0.750000  0.355377  1
  Pr  Pr2  1  0.034313  0.250000  0.644048  1
  Pr  Pr3  1  0.824647  0.565772  0.833137  1
  Pr  Pr4  1  0.824647  0.934228  0.833137  1
  Pr  Pr5  1  0.533657  0.250000  0.855823  1
  Nd  Nd6  1  0.175416  0.067309  0.167266  1
  Nd  Nd7  1  0.175416  0.432691  0.167266  1
  Nd  Nd8  1  0.675031  0.067474  0.332784  1
  Nd  Nd9  1  0.675031  0.432526  0.332784  1
  Nd  Nd10  1  0.324729  0.567070  0.667150  1
  Nd  Nd11  1  0.324729  0.932930  0.667150  1
  Rh  Rh12  1  0.880452  0.250000  0.073038  1
  Rh  Rh13  1  0.380489  0.250000  0.427696  1
  Rh  Rh14  1  0.618147  0.750000  0.570572  1
  Rh  Rh15  1  0.121127  0.750000  0.927930  1
