# generated using pymatgen
data_Hf3NbCr8
_symmetry_space_group_name_H-M   'P 1'
_cell_length_a   8.67891562
_cell_length_b   8.67891575
_cell_length_c   8.67891547
_cell_angle_alpha   33.35770337
_cell_angle_beta   33.35770251
_cell_angle_gamma   33.35770314
_symmetry_Int_Tables_number   1
_chemical_formula_structural   Hf3NbCr8
_chemical_formula_sum   'Hf3 Nb1 Cr8'
_cell_volume   175.99818386
_cell_formula_units_Z   1
loop_
 _symmetry_equiv_pos_site_id
 _symmetry_equiv_pos_as_xyz
  1  'x, y, z'
loop_
 _atom_site_type_symbol
 _atom_site_label
 _atom_site_symmetry_multiplicity
 _atom_site_fract_x
 _atom_site_fract_y
 _atom_site_fract_z
 _atom_site_occupancy
  Hf  Hf0  1  0.624973  0.624973  0.624973  1
  Hf  Hf1  1  0.000622  0.000622  0.000622  1
  Hf  Hf2  1  0.499485  0.499485  0.499485  1
  Nb  Nb3  1  0.124926  0.124926  0.124926  1
  Cr  Cr4  1  0.563026  0.063196  0.563026  1
  Cr  Cr5  1  0.062009  0.561732  0.062009  1
  Cr  Cr6  1  0.063196  0.563026  0.563026  1
  Cr  Cr7  1  0.561732  0.062009  0.062009  1
  Cr  Cr8  1  0.812409  0.812409  0.812409  1
  Cr  Cr9  1  0.312585  0.312585  0.312585  1
  Cr  Cr10  1  0.563026  0.563026  0.063196  1
  Cr  Cr11  1  0.062009  0.062009  0.561732  1
