# generated using pymatgen
data_Dy3(Al3Co)4
_symmetry_space_group_name_H-M   'P 1'
_cell_length_a   8.66008900
_cell_length_b   8.66008819
_cell_length_c   9.29811900
_cell_angle_alpha   90.00000000
_cell_angle_beta   90.00000000
_cell_angle_gamma   119.99999165
_symmetry_Int_Tables_number   1
_chemical_formula_structural   Dy3(Al3Co)4
_chemical_formula_sum   'Dy6 Al24 Co8'
_cell_volume   603.90752082
_cell_formula_units_Z   2
loop_
 _symmetry_equiv_pos_site_id
 _symmetry_equiv_pos_as_xyz
  1  'x, y, z'
loop_
 _atom_site_type_symbol
 _atom_site_label
 _atom_site_symmetry_multiplicity
 _atom_site_fract_x
 _atom_site_fract_y
 _atom_site_fract_z
 _atom_site_occupancy
  Dy  Dy0  1  0.194364  0.388728  0.250000  1
  Dy  Dy1  1  0.805636  0.611272  0.750000  1
  Dy  Dy2  1  0.611272  0.805636  0.250000  1
  Dy  Dy3  1  0.388728  0.194364  0.750000  1
  Dy  Dy4  1  0.194364  0.805636  0.250000  1
  Dy  Dy5  1  0.805636  0.194364  0.750000  1
  Al  Al6  1  0.333333  0.666667  0.018336  1
  Al  Al7  1  0.666667  0.333333  0.981664  1
  Al  Al8  1  0.666667  0.333333  0.518336  1
  Al  Al9  1  0.333333  0.666667  0.481664  1
  Al  Al10  1  0.162742  0.325485  0.575451  1
  Al  Al11  1  0.837258  0.674515  0.424549  1
  Al  Al12  1  0.674515  0.837258  0.575451  1
  Al  Al13  1  0.837258  0.674515  0.075451  1
  Al  Al14  1  0.325485  0.162742  0.424549  1
  Al  Al15  1  0.162742  0.325485  0.924549  1
  Al  Al16  1  0.162742  0.837258  0.575451  1
  Al  Al17  1  0.325485  0.162742  0.075451  1
  Al  Al18  1  0.837258  0.162742  0.424549  1
  Al  Al19  1  0.674515  0.837258  0.924549  1
  Al  Al20  1  0.837258  0.162742  0.075451  1
  Al  Al21  1  0.162742  0.837258  0.924549  1
  Al  Al22  1  0.559595  0.119190  0.250000  1
  Al  Al23  1  0.440405  0.880810  0.750000  1
  Al  Al24  1  0.880810  0.440405  0.250000  1
  Al  Al25  1  0.119190  0.559595  0.750000  1
  Al  Al26  1  0.559595  0.440405  0.250000  1
  Al  Al27  1  0.440405  0.559595  0.750000  1
  Al  Al28  1  0.000000  0.000000  0.250000  1
  Al  Al29  1  0.000000  0.000000  0.750000  1
  Co  Co30  1  0.500000  0.000000  0.000000  1
  Co  Co31  1  0.000000  0.500000  0.000000  1
  Co  Co32  1  0.500000  0.000000  0.500000  1
  Co  Co33  1  0.500000  0.500000  0.000000  1
  Co  Co34  1  0.000000  0.500000  0.500000  1
  Co  Co35  1  0.500000  0.500000  0.500000  1
  Co  Co36  1  0.000000  0.000000  0.000000  1
  Co  Co37  1  0.000000  0.000000  0.500000  1
