# generated using pymatgen
data_CeHo(TcB4)2
_symmetry_space_group_name_H-M   'P 1'
_cell_length_a   3.63465400
_cell_length_b   5.98585389
_cell_length_c   11.58947961
_cell_angle_alpha   89.85329984
_cell_angle_beta   90.00000000
_cell_angle_gamma   90.00000000
_symmetry_Int_Tables_number   1
_chemical_formula_structural   CeHo(TcB4)2
_chemical_formula_sum   'Ce2 Ho2 Tc4 B16'
_cell_volume   252.14577692
_cell_formula_units_Z   2
loop_
 _symmetry_equiv_pos_site_id
 _symmetry_equiv_pos_as_xyz
  1  'x, y, z'
loop_
 _atom_site_type_symbol
 _atom_site_label
 _atom_site_symmetry_multiplicity
 _atom_site_fract_x
 _atom_site_fract_y
 _atom_site_fract_z
 _atom_site_occupancy
  Ce  Ce0  1  0.000000  0.627178  0.348684  1
  Ce  Ce1  1  0.000000  0.372822  0.651316  1
  Ho  Ho2  1  0.000000  0.126412  0.149198  1
  Ho  Ho3  1  0.000000  0.873588  0.850802  1
  Tc  Tc4  1  0.000000  0.634292  0.087928  1
  Tc  Tc5  1  0.000000  0.365708  0.912072  1
  Tc  Tc6  1  0.000000  0.136072  0.409515  1
  Tc  Tc7  1  0.000000  0.863928  0.590485  1
  B  B8  1  0.500000  0.787582  0.183921  1
  B  B9  1  0.500000  0.212418  0.816079  1
  B  B10  1  0.500000  0.286278  0.313840  1
  B  B11  1  0.500000  0.713722  0.686160  1
  B  B12  1  0.500000  0.864182  0.031410  1
  B  B13  1  0.500000  0.135818  0.968590  1
  B  B14  1  0.500000  0.362595  0.468332  1
  B  B15  1  0.500000  0.637405  0.531668  1
  B  B16  1  0.500000  0.888779  0.453290  1
  B  B17  1  0.500000  0.111221  0.546710  1
  B  B18  1  0.500000  0.386436  0.046505  1
  B  B19  1  0.500000  0.613564  0.953495  1
  B  B20  1  0.500000  0.976439  0.307609  1
  B  B21  1  0.500000  0.023561  0.692391  1
  B  B22  1  0.500000  0.477090  0.190754  1
  B  B23  1  0.500000  0.522910  0.809246  1
