# generated using pymatgen
data_BaNa(AuO2)4
_symmetry_space_group_name_H-M   'P 1'
_cell_length_a   6.89772389
_cell_length_b   6.89772422
_cell_length_c   6.89772372
_cell_angle_alpha   124.23256725
_cell_angle_beta   124.23256273
_cell_angle_gamma   82.81308914
_symmetry_Int_Tables_number   1
_chemical_formula_structural   BaNa(AuO2)4
_chemical_formula_sum   'Ba1 Na1 Au4 O8'
_cell_volume   215.35468876
_cell_formula_units_Z   1
loop_
 _symmetry_equiv_pos_site_id
 _symmetry_equiv_pos_as_xyz
  1  'x, y, z'
loop_
 _atom_site_type_symbol
 _atom_site_label
 _atom_site_symmetry_multiplicity
 _atom_site_fract_x
 _atom_site_fract_y
 _atom_site_fract_z
 _atom_site_occupancy
  Ba  Ba0  1  0.000000  0.000000  0.000000  1
  Na  Na1  1  0.750000  0.250000  0.500000  1
  Au  Au2  1  0.377506  0.623642  0.750323  1
  Au  Au3  1  0.376358  0.126681  0.753864  1
  Au  Au4  1  0.873319  0.627183  0.249677  1
  Au  Au5  1  0.372817  0.622494  0.246136  1
  O  O6  1  0.048241  0.436527  0.074626  1
  O  O7  1  0.722074  0.308779  0.125199  1
  O  O8  1  0.183580  0.596875  0.874801  1
  O  O9  1  0.361901  0.973615  0.925374  1
  O  O10  1  0.691221  0.816420  0.413294  1
  O  O11  1  0.026385  0.951759  0.388286  1
  O  O12  1  0.403125  0.277926  0.586706  1
  O  O13  1  0.563473  0.638099  0.611714  1
