# generated using pymatgen
data_Y2Ga9Ni2Ru
_symmetry_space_group_name_H-M   'P 1'
_cell_length_a   7.47531574
_cell_length_b   7.47531546
_cell_length_c   9.48464779
_cell_angle_alpha   90.13615463
_cell_angle_beta   90.13615198
_cell_angle_gamma   119.64786842
_symmetry_Int_Tables_number   1
_chemical_formula_structural   Y2Ga9Ni2Ru
_chemical_formula_sum   'Y4 Ga18 Ni4 Ru2'
_cell_volume   460.61296077
_cell_formula_units_Z   2
loop_
 _symmetry_equiv_pos_site_id
 _symmetry_equiv_pos_as_xyz
  1  'x, y, z'
loop_
 _atom_site_type_symbol
 _atom_site_label
 _atom_site_symmetry_multiplicity
 _atom_site_fract_x
 _atom_site_fract_y
 _atom_site_fract_z
 _atom_site_occupancy
  Y  Y0  1  0.994330  0.669873  0.248594  1
  Y  Y1  1  0.000090  0.326631  0.750393  1
  Y  Y2  1  0.673369  0.999910  0.249607  1
  Y  Y3  1  0.330127  0.005670  0.751406  1
  Ga  Ga4  1  0.127569  0.127899  0.246841  1
  Ga  Ga5  1  0.872101  0.872431  0.753159  1
  Ga  Ga6  1  0.000268  0.336398  0.074741  1
  Ga  Ga7  1  0.001699  0.665658  0.924036  1
  Ga  Ga8  1  0.003954  0.665130  0.574598  1
  Ga  Ga9  1  0.334870  0.996046  0.425402  1
  Ga  Ga10  1  0.006070  0.338449  0.424920  1
  Ga  Ga11  1  0.661551  0.993930  0.575080  1
  Ga  Ga12  1  0.663602  0.999732  0.925259  1
  Ga  Ga13  1  0.334342  0.998301  0.075964  1
  Ga  Ga14  1  0.334666  0.334696  0.559884  1
  Ga  Ga15  1  0.665304  0.665334  0.440116  1
  Ga  Ga16  1  0.665745  0.667378  0.061114  1
  Ga  Ga17  1  0.332622  0.334255  0.938886  1
  Ga  Ga18  1  0.338887  0.554408  0.249120  1
  Ga  Ga19  1  0.661782  0.452146  0.752347  1
  Ga  Ga20  1  0.547854  0.338218  0.247653  1
  Ga  Ga21  1  0.445592  0.661113  0.750880  1
  Ni  Ni22  1  0.670074  0.329926  0.000000  1
  Ni  Ni23  1  0.329798  0.670202  0.000000  1
  Ni  Ni24  1  0.330126  0.669874  0.500000  1
  Ni  Ni25  1  0.000016  0.999984  0.000000  1
  Ru  Ru26  1  0.672968  0.327032  0.500000  1
  Ru  Ru27  1  0.000624  0.999376  0.500000  1
