# generated using pymatgen
data_Hf4SnPt15
_symmetry_space_group_name_H-M   'P 1'
_cell_length_a   4.03920300
_cell_length_b   4.03920300
_cell_length_c   20.21307500
_cell_angle_alpha   90.00000000
_cell_angle_beta   90.00000000
_cell_angle_gamma   90.00000000
_symmetry_Int_Tables_number   1
_chemical_formula_structural   Hf4SnPt15
_chemical_formula_sum   'Hf4 Sn1 Pt15'
_cell_volume   329.77957041
_cell_formula_units_Z   1
loop_
 _symmetry_equiv_pos_site_id
 _symmetry_equiv_pos_as_xyz
  1  'x, y, z'
loop_
 _atom_site_type_symbol
 _atom_site_label
 _atom_site_symmetry_multiplicity
 _atom_site_fract_x
 _atom_site_fract_y
 _atom_site_fract_z
 _atom_site_occupancy
  Hf  Hf0  1  0.000000  0.000000  0.200481  1
  Hf  Hf1  1  0.000000  0.000000  0.399855  1
  Hf  Hf2  1  0.000000  0.000000  0.600145  1
  Hf  Hf3  1  0.000000  0.000000  0.799519  1
  Sn  Sn4  1  0.000000  0.000000  0.000000  1
  Pt  Pt5  1  0.500000  0.500000  0.000000  1
  Pt  Pt6  1  0.500000  0.500000  0.200590  1
  Pt  Pt7  1  0.500000  0.500000  0.399966  1
  Pt  Pt8  1  0.500000  0.500000  0.600034  1
  Pt  Pt9  1  0.500000  0.500000  0.799410  1
  Pt  Pt10  1  0.500000  0.000000  0.103070  1
  Pt  Pt11  1  0.500000  0.000000  0.300351  1
  Pt  Pt12  1  0.500000  0.000000  0.500000  1
  Pt  Pt13  1  0.500000  0.000000  0.699649  1
  Pt  Pt14  1  0.500000  0.000000  0.896930  1
  Pt  Pt15  1  0.000000  0.500000  0.103070  1
  Pt  Pt16  1  0.000000  0.500000  0.300351  1
  Pt  Pt17  1  0.000000  0.500000  0.500000  1
  Pt  Pt18  1  0.000000  0.500000  0.699649  1
  Pt  Pt19  1  0.000000  0.500000  0.896930  1
