# generated using pymatgen
data_LaPr(Co5P3)2
_symmetry_space_group_name_H-M   'P 1'
_cell_length_a   6.01371602
_cell_length_b   6.01371534
_cell_length_c   11.43580400
_cell_angle_alpha   90.00000000
_cell_angle_beta   90.00000000
_cell_angle_gamma   144.86748634
_symmetry_Int_Tables_number   1
_chemical_formula_structural   LaPr(Co5P3)2
_chemical_formula_sum   'La1 Pr1 Co10 P6'
_cell_volume   237.99878958
_cell_formula_units_Z   1
loop_
 _symmetry_equiv_pos_site_id
 _symmetry_equiv_pos_as_xyz
  1  'x, y, z'
loop_
 _atom_site_type_symbol
 _atom_site_label
 _atom_site_symmetry_multiplicity
 _atom_site_fract_x
 _atom_site_fract_y
 _atom_site_fract_z
 _atom_site_occupancy
  La  La0  1  0.662102  0.337898  0.750000  1
  Pr  Pr1  1  0.338403  0.661597  0.250000  1
  Co  Co2  1  0.053907  0.946093  0.142696  1
  Co  Co3  1  0.053907  0.946093  0.357304  1
  Co  Co4  1  0.698182  0.301818  0.431245  1
  Co  Co5  1  0.301849  0.698151  0.567795  1
  Co  Co6  1  0.301849  0.698151  0.932205  1
  Co  Co7  1  0.698182  0.301818  0.068755  1
  Co  Co8  1  0.500011  0.499989  0.499574  1
  Co  Co9  1  0.500011  0.499989  0.000426  1
  Co  Co10  1  0.945756  0.054244  0.642082  1
  Co  Co11  1  0.945756  0.054244  0.857918  1
  P  P12  1  0.609201  0.390799  0.250000  1
  P  P13  1  0.391103  0.608897  0.750000  1
  P  P14  1  0.117151  0.882849  0.537533  1
  P  P15  1  0.882739  0.117261  0.461847  1
  P  P16  1  0.882739  0.117261  0.038153  1
  P  P17  1  0.117151  0.882849  0.962467  1
