# generated using pymatgen
data_SrNd2Tm(Ir2O7)2
_symmetry_space_group_name_H-M   'P 1'
_cell_length_a   7.36222287
_cell_length_b   7.34328684
_cell_length_c   7.36222405
_cell_angle_alpha   59.95563620
_cell_angle_beta   60.25650998
_cell_angle_gamma   59.95563217
_symmetry_Int_Tables_number   1
_chemical_formula_structural   SrNd2Tm(Ir2O7)2
_chemical_formula_sum   'Sr1 Nd2 Tm1 Ir4 O14'
_cell_volume   281.79652576
_cell_formula_units_Z   1
loop_
 _symmetry_equiv_pos_site_id
 _symmetry_equiv_pos_as_xyz
  1  'x, y, z'
loop_
 _atom_site_type_symbol
 _atom_site_label
 _atom_site_symmetry_multiplicity
 _atom_site_fract_x
 _atom_site_fract_y
 _atom_site_fract_z
 _atom_site_occupancy
  Sr  Sr0  1  0.125000  0.625000  0.125000  1
  Nd  Nd1  1  0.625000  0.125000  0.125000  1
  Nd  Nd2  1  0.125000  0.125000  0.625000  1
  Tm  Tm3  1  0.125000  0.125000  0.125000  1
  Ir  Ir4  1  0.125000  0.625000  0.625000  1
  Ir  Ir5  1  0.625000  0.125000  0.625000  1
  Ir  Ir6  1  0.625000  0.625000  0.125000  1
  Ir  Ir7  1  0.625000  0.625000  0.625000  1
  O  O8  1  0.696425  0.709266  0.296480  1
  O  O9  1  0.294200  0.292179  0.716063  1
  O  O10  1  0.706421  0.291868  0.706421  1
  O  O11  1  0.295423  0.721496  0.295423  1
  O  O12  1  0.296480  0.709266  0.696425  1
  O  O13  1  0.716063  0.292179  0.294200  1
  O  O14  1  0.553575  0.540734  0.953520  1
  O  O15  1  0.955800  0.957821  0.533937  1
  O  O16  1  0.543579  0.958132  0.543579  1
  O  O17  1  0.954577  0.528504  0.954577  1
  O  O18  1  0.953520  0.540734  0.553575  1
  O  O19  1  0.533937  0.957821  0.955800  1
  O  O20  1  0.249067  0.231987  0.249067  1
  O  O21  1  0.000933  0.018013  0.000933  1
