# generated using pymatgen
data_Sc8TaNb9(Si8W)2
_symmetry_space_group_name_H-M   'P 1'
_cell_length_a   6.67650200
_cell_length_b   6.88713208
_cell_length_c   13.10439500
_cell_angle_alpha   90.00000000
_cell_angle_beta   90.00000000
_cell_angle_gamma   90.00790287
_symmetry_Int_Tables_number   1
_chemical_formula_structural   Sc8TaNb9(Si8W)2
_chemical_formula_sum   'Sc8 Ta1 Nb9 Si16 W2'
_cell_volume   602.56564404
_cell_formula_units_Z   1
loop_
 _symmetry_equiv_pos_site_id
 _symmetry_equiv_pos_as_xyz
  1  'x, y, z'
loop_
 _atom_site_type_symbol
 _atom_site_label
 _atom_site_symmetry_multiplicity
 _atom_site_fract_x
 _atom_site_fract_y
 _atom_site_fract_z
 _atom_site_occupancy
  Sc  Sc0  1  0.499754  0.674282  0.595304  1
  Sc  Sc1  1  0.999847  0.825483  0.904716  1
  Sc  Sc2  1  0.500178  0.325671  0.094948  1
  Sc  Sc3  1  0.000156  0.174538  0.405017  1
  Sc  Sc4  1  0.500178  0.325671  0.405052  1
  Sc  Sc5  1  0.000156  0.174538  0.094983  1
  Sc  Sc6  1  0.499754  0.674282  0.904696  1
  Sc  Sc7  1  0.999847  0.825483  0.595284  1
  Ta  Ta8  1  0.337405  0.005835  0.750000  1
  Nb  Nb9  1  0.663218  0.173117  0.625479  1
  Nb  Nb10  1  0.162856  0.327940  0.874854  1
  Nb  Nb11  1  0.336813  0.826905  0.125365  1
  Nb  Nb12  1  0.837272  0.671956  0.375005  1
  Nb  Nb13  1  0.336813  0.826905  0.374635  1
  Nb  Nb14  1  0.837272  0.671956  0.124995  1
  Nb  Nb15  1  0.663218  0.173117  0.874521  1
  Nb  Nb16  1  0.162856  0.327940  0.625146  1
  Nb  Nb17  1  0.662626  0.995071  0.250000  1
  Si  Si18  1  0.669653  0.967163  0.460177  1
  Si  Si19  1  0.169812  0.532933  0.041124  1
  Si  Si20  1  0.330311  0.032296  0.959626  1
  Si  Si21  1  0.830204  0.466979  0.541176  1
  Si  Si22  1  0.330311  0.032296  0.540374  1
  Si  Si23  1  0.830204  0.466979  0.958824  1
  Si  Si24  1  0.669653  0.967163  0.039823  1
  Si  Si25  1  0.169812  0.532933  0.458876  1
  Si  Si26  1  0.463285  0.389209  0.750000  1
  Si  Si27  1  0.959711  0.112798  0.750000  1
  Si  Si28  1  0.536885  0.610687  0.250000  1
  Si  Si29  1  0.040188  0.886989  0.250000  1
  Si  Si30  1  0.704184  0.857461  0.750000  1
  Si  Si31  1  0.200712  0.638250  0.750000  1
  Si  Si32  1  0.295049  0.142608  0.250000  1
  Si  Si33  1  0.799622  0.362381  0.250000  1
  W  W34  1  0.837897  0.494533  0.750000  1
  W  W35  1  0.162283  0.505655  0.250000  1
