# generated using pymatgen
data_Dy5Co2Ni14(MoP4)3
_symmetry_space_group_name_H-M   'P 1'
_cell_length_a   12.18610423
_cell_length_b   12.18610396
_cell_length_c   3.73329200
_cell_angle_alpha   90.00000000
_cell_angle_beta   90.00000000
_cell_angle_gamma   120.05141852
_symmetry_Int_Tables_number   1
_chemical_formula_structural   Dy5Co2Ni14(MoP4)3
_chemical_formula_sum   'Dy5 Co2 Ni14 Mo3 P12'
_cell_volume   479.87387336
_cell_formula_units_Z   1
loop_
 _symmetry_equiv_pos_site_id
 _symmetry_equiv_pos_as_xyz
  1  'x, y, z'
loop_
 _atom_site_type_symbol
 _atom_site_label
 _atom_site_symmetry_multiplicity
 _atom_site_fract_x
 _atom_site_fract_y
 _atom_site_fract_z
 _atom_site_occupancy
  Dy  Dy0  1  0.667026  0.332989  0.000000  1
  Dy  Dy1  1  0.332989  0.667026  0.000000  1
  Dy  Dy2  1  0.184483  0.184483  0.500000  1
  Dy  Dy3  1  0.815488  0.000348  0.500000  1
  Dy  Dy4  1  0.000348  0.815488  0.500000  1
  Co  Co5  1  0.279616  0.000145  0.500000  1
  Co  Co6  1  0.000145  0.279616  0.500000  1
  Ni  Ni7  1  0.818432  0.193202  0.000000  1
  Ni  Ni8  1  0.806785  0.623049  0.000000  1
  Ni  Ni9  1  0.375048  0.181486  0.000000  1
  Ni  Ni10  1  0.193202  0.818432  0.000000  1
  Ni  Ni11  1  0.623049  0.806785  0.000000  1
  Ni  Ni12  1  0.181486  0.375048  0.000000  1
  Ni  Ni13  1  0.642248  0.126294  0.500000  1
  Ni  Ni14  1  0.874878  0.516437  0.500000  1
  Ni  Ni15  1  0.483606  0.357718  0.500000  1
  Ni  Ni16  1  0.126294  0.642248  0.500000  1
  Ni  Ni17  1  0.516437  0.874878  0.500000  1
  Ni  Ni18  1  0.357718  0.483606  0.500000  1
  Ni  Ni19  1  0.720038  0.720038  0.500000  1
  Ni  Ni20  1  0.000912  0.000912  0.000000  1
  Mo  Mo21  1  0.558718  0.558718  0.000000  1
  Mo  Mo22  1  0.441326  0.999986  0.000000  1
  Mo  Mo23  1  0.999986  0.441326  0.000000  1
  P  P24  1  0.364054  0.364054  0.000000  1
  P  P25  1  0.635680  0.999842  0.000000  1
  P  P26  1  0.999842  0.635680  0.000000  1
  P  P27  1  0.836587  0.314108  0.500000  1
  P  P28  1  0.686465  0.520863  0.500000  1
  P  P29  1  0.477712  0.163991  0.500000  1
  P  P30  1  0.314108  0.836587  0.500000  1
  P  P31  1  0.520863  0.686465  0.500000  1
  P  P32  1  0.163991  0.477712  0.500000  1
  P  P33  1  0.821650  0.821650  0.000000  1
  P  P34  1  0.179024  0.999769  0.000000  1
  P  P35  1  0.999769  0.179024  0.000000  1
