# generated using pymatgen
data_Zr3Pa(Ni2Pd)2
_symmetry_space_group_name_H-M   'P 1'
_cell_length_a   7.03414833
_cell_length_b   7.03414833
_cell_length_c   3.37608500
_cell_angle_alpha   90.00000000
_cell_angle_beta   90.00000000
_cell_angle_gamma   89.59315393
_symmetry_Int_Tables_number   1
_chemical_formula_structural   Zr3Pa(Ni2Pd)2
_chemical_formula_sum   'Zr3 Pa1 Ni4 Pd2'
_cell_volume   167.04191804
_cell_formula_units_Z   1
loop_
 _symmetry_equiv_pos_site_id
 _symmetry_equiv_pos_as_xyz
  1  'x, y, z'
loop_
 _atom_site_type_symbol
 _atom_site_label
 _atom_site_symmetry_multiplicity
 _atom_site_fract_x
 _atom_site_fract_y
 _atom_site_fract_z
 _atom_site_occupancy
  Zr  Zr0  1  0.322945  0.829646  0.500000  1
  Zr  Zr1  1  0.670354  0.177055  0.500000  1
  Zr  Zr2  1  0.179159  0.320841  0.500000  1
  Pa  Pa3  1  0.825057  0.674943  0.500000  1
  Ni  Ni4  1  0.123026  0.625164  0.000000  1
  Ni  Ni5  1  0.630218  0.869782  0.000000  1
  Ni  Ni6  1  0.874836  0.376974  0.000000  1
  Ni  Ni7  1  0.378811  0.121189  0.000000  1
  Pd  Pd8  1  0.493521  0.497926  0.000000  1
  Pd  Pd9  1  0.002074  0.006479  0.000000  1
