# generated using pymatgen
data_Ba3LuInTeO5
_symmetry_space_group_name_H-M   'P 1'
_cell_length_a   4.34658900
_cell_length_b   4.34658900
_cell_length_c   12.03684700
_cell_angle_alpha   90.00000000
_cell_angle_beta   90.00000000
_cell_angle_gamma   90.00000000
_symmetry_Int_Tables_number   1
_chemical_formula_structural   Ba3LuInTeO5
_chemical_formula_sum   'Ba3 Lu1 In1 Te1 O5'
_cell_volume   227.41017554
_cell_formula_units_Z   1
loop_
 _symmetry_equiv_pos_site_id
 _symmetry_equiv_pos_as_xyz
  1  'x, y, z'
loop_
 _atom_site_type_symbol
 _atom_site_label
 _atom_site_symmetry_multiplicity
 _atom_site_fract_x
 _atom_site_fract_y
 _atom_site_fract_z
 _atom_site_occupancy
  Ba  Ba0  1  0.000000  0.000000  0.994585  1
  Ba  Ba1  1  0.000000  0.000000  0.663440  1
  Ba  Ba2  1  0.000000  0.000000  0.333606  1
  Lu  Lu3  1  0.500000  0.500000  0.170907  1
  In  In4  1  0.500000  0.500000  0.825488  1
  Te  Te5  1  0.500000  0.500000  0.503235  1
  O  O6  1  0.500000  0.000000  0.807003  1
  O  O7  1  0.000000  0.500000  0.807003  1
  O  O8  1  0.500000  0.000000  0.197417  1
  O  O9  1  0.000000  0.500000  0.197417  1
  O  O10  1  0.500000  0.500000  0.999900  1
