# generated using pymatgen
data_Ho11Lu5MgHg3Rh4
_symmetry_space_group_name_H-M   'P 1'
_cell_length_a   9.53691142
_cell_length_b   9.50728770
_cell_length_c   9.53472200
_cell_angle_alpha   59.90449886
_cell_angle_beta   60.00759392
_cell_angle_gamma   59.98522074
_symmetry_Int_Tables_number   1
_chemical_formula_structural   Ho11Lu5MgHg3Rh4
_chemical_formula_sum   'Ho11 Lu5 Mg1 Hg3 Rh4'
_cell_volume   610.82865816
_cell_formula_units_Z   1
loop_
 _symmetry_equiv_pos_site_id
 _symmetry_equiv_pos_as_xyz
  1  'x, y, z'
loop_
 _atom_site_type_symbol
 _atom_site_label
 _atom_site_symmetry_multiplicity
 _atom_site_fract_x
 _atom_site_fract_y
 _atom_site_fract_z
 _atom_site_occupancy
  Ho  Ho0  1  0.811492  0.811833  0.188338  1
  Ho  Ho1  1  0.936085  0.562684  0.563726  1
  Ho  Ho2  1  0.561829  0.937710  0.936024  1
  Ho  Ho3  1  0.561829  0.937710  0.564437  1
  Ho  Ho4  1  0.936085  0.562684  0.937505  1
  Ho  Ho5  1  0.562502  0.563829  0.936835  1
  Ho  Ho6  1  0.935016  0.938439  0.563273  1
  Ho  Ho7  1  0.351650  0.349117  0.348024  1
  Ho  Ho8  1  0.351650  0.349117  0.951209  1
  Ho  Ho9  1  0.351338  0.951045  0.348808  1
  Ho  Ho10  1  0.940539  0.352823  0.353318  1
  Lu  Lu11  1  0.811417  0.188320  0.188170  1
  Lu  Lu12  1  0.184926  0.813987  0.814432  1
  Lu  Lu13  1  0.184926  0.813987  0.186654  1
  Lu  Lu14  1  0.811417  0.188320  0.812094  1
  Lu  Lu15  1  0.184544  0.186255  0.814600  1
  Mg  Mg16  1  0.281671  0.572723  0.572804  1
  Hg  Hg17  1  0.581481  0.585937  0.586507  1
  Hg  Hg18  1  0.581481  0.585937  0.246076  1
  Hg  Hg19  1  0.581759  0.245474  0.586384  1
  Rh  Rh20  1  0.140332  0.143270  0.142835  1
  Rh  Rh21  1  0.140332  0.143270  0.573564  1
  Rh  Rh22  1  0.141927  0.572275  0.142899  1
  Rh  Rh23  1  0.573777  0.143254  0.141485  1
