# generated using pymatgen
data_Mo2Os4PtRh
_symmetry_space_group_name_H-M   'P 1'
_cell_length_a   5.55961100
_cell_length_b   5.54199616
_cell_length_c   4.42930900
_cell_angle_alpha   90.00000000
_cell_angle_beta   90.00000000
_cell_angle_gamma   120.10519142
_symmetry_Int_Tables_number   1
_chemical_formula_structural   Mo2Os4PtRh
_chemical_formula_sum   'Mo2 Os4 Pt1 Rh1'
_cell_volume   118.06357162
_cell_formula_units_Z   1
loop_
 _symmetry_equiv_pos_site_id
 _symmetry_equiv_pos_as_xyz
  1  'x, y, z'
loop_
 _atom_site_type_symbol
 _atom_site_label
 _atom_site_symmetry_multiplicity
 _atom_site_fract_x
 _atom_site_fract_y
 _atom_site_fract_z
 _atom_site_occupancy
  Mo  Mo0  1  0.336887  0.673775  0.250000  1
  Mo  Mo1  1  0.660044  0.320087  0.750000  1
  Os  Os2  1  0.172800  0.842665  0.750000  1
  Os  Os3  1  0.669865  0.842665  0.750000  1
  Os  Os4  1  0.330807  0.160774  0.250000  1
  Os  Os5  1  0.829966  0.160774  0.250000  1
  Pt  Pt6  1  0.832772  0.665544  0.250000  1
  Rh  Rh7  1  0.166859  0.333717  0.750000  1
