# generated using pymatgen
data_Lu4HgRh
_symmetry_space_group_name_H-M   'P 1'
_cell_length_a   9.40305568
_cell_length_b   9.40305610
_cell_length_c   9.40305600
_cell_angle_alpha   60.00000034
_cell_angle_beta   59.99999888
_cell_angle_gamma   59.99999665
_symmetry_Int_Tables_number   1
_chemical_formula_structural   Lu4HgRh
_chemical_formula_sum   'Lu16 Hg4 Rh4'
_cell_volume   587.88454888
_cell_formula_units_Z   4
loop_
 _symmetry_equiv_pos_site_id
 _symmetry_equiv_pos_as_xyz
  1  'x, y, z'
loop_
 _atom_site_type_symbol
 _atom_site_label
 _atom_site_symmetry_multiplicity
 _atom_site_fract_x
 _atom_site_fract_y
 _atom_site_fract_z
 _atom_site_occupancy
  Lu  Lu0  1  0.601351  0.601351  0.601351  1
  Lu  Lu1  1  0.601351  0.601351  0.195947  1
  Lu  Lu2  1  0.601351  0.195947  0.601351  1
  Lu  Lu3  1  0.195947  0.601351  0.601351  1
  Lu  Lu4  1  0.061388  0.438612  0.438612  1
  Lu  Lu5  1  0.438612  0.061388  0.061388  1
  Lu  Lu6  1  0.438612  0.061388  0.438612  1
  Lu  Lu7  1  0.061388  0.438612  0.061388  1
  Lu  Lu8  1  0.438612  0.438612  0.061388  1
  Lu  Lu9  1  0.061388  0.061388  0.438612  1
  Lu  Lu10  1  0.186937  0.813063  0.813063  1
  Lu  Lu11  1  0.813063  0.186937  0.186937  1
  Lu  Lu12  1  0.813063  0.186937  0.813063  1
  Lu  Lu13  1  0.186937  0.813063  0.186937  1
  Lu  Lu14  1  0.813063  0.813063  0.186937  1
  Lu  Lu15  1  0.186937  0.186937  0.813063  1
  Hg  Hg16  1  0.834826  0.834826  0.834826  1
  Hg  Hg17  1  0.834826  0.834826  0.495523  1
  Hg  Hg18  1  0.834826  0.495523  0.834826  1
  Hg  Hg19  1  0.495523  0.834826  0.834826  1
  Rh  Rh20  1  0.392992  0.392992  0.392992  1
  Rh  Rh21  1  0.392992  0.392992  0.821024  1
  Rh  Rh22  1  0.392992  0.821024  0.392992  1
  Rh  Rh23  1  0.821024  0.392992  0.392992  1
