# generated using pymatgen
data_CeLu9(Al2Ru3)2
_symmetry_space_group_name_H-M   'P 1'
_cell_length_a   8.27626123
_cell_length_b   8.27626096
_cell_length_c   8.17614675
_cell_angle_alpha   110.01333168
_cell_angle_beta   109.32065828
_cell_angle_gamma   109.57551036
_symmetry_Int_Tables_number   1
_chemical_formula_structural   CeLu9(Al2Ru3)2
_chemical_formula_sum   'Ce1 Lu9 Al4 Ru6'
_cell_volume   428.44656540
_cell_formula_units_Z   1
loop_
 _symmetry_equiv_pos_site_id
 _symmetry_equiv_pos_as_xyz
  1  'x, y, z'
loop_
 _atom_site_type_symbol
 _atom_site_label
 _atom_site_symmetry_multiplicity
 _atom_site_fract_x
 _atom_site_fract_y
 _atom_site_fract_z
 _atom_site_occupancy
  Ce  Ce0  1  0.192832  0.942832  0.250000  1
  Lu  Lu1  1  0.781602  0.787601  0.785014  1
  Lu  Lu2  1  0.320043  0.570043  0.750000  1
  Lu  Lu3  1  0.753753  0.322763  0.572144  1
  Lu  Lu4  1  0.571988  0.747818  0.320072  1
  Lu  Lu5  1  0.712967  0.499151  0.997260  1
  Lu  Lu6  1  0.001891  0.715707  0.502740  1
  Lu  Lu7  1  0.502586  0.996587  0.714986  1
  Lu  Lu8  1  0.250620  0.181609  0.927856  1
  Lu  Lu9  1  0.927746  0.251916  0.179928  1
  Al  Al10  1  0.413988  0.415787  0.409309  1
  Al  Al11  1  0.091411  0.495649  0.003221  1
  Al  Al12  1  0.992428  0.088191  0.496779  1
  Al  Al13  1  0.506479  0.004679  0.090691  1
  Ru  Ru14  1  0.873348  0.123348  0.750000  1
  Ru  Ru15  1  0.740697  0.869197  0.117470  1
  Ru  Ru16  1  0.127087  0.760355  0.900015  1
  Ru  Ru17  1  0.251727  0.623226  0.382530  1
  Ru  Ru18  1  0.360339  0.227071  0.599985  1
  Ru  Ru19  1  0.626469  0.376469  0.250000  1
