# generated using pymatgen
data_TbHo2Mg3RuAu2
_symmetry_space_group_name_H-M   'P 1'
_cell_length_a   7.56825565
_cell_length_b   7.57069740
_cell_length_c   4.02600000
_cell_angle_alpha   90.00000000
_cell_angle_beta   90.00000000
_cell_angle_gamma   120.03686584
_symmetry_Int_Tables_number   1
_chemical_formula_structural   TbHo2Mg3RuAu2
_chemical_formula_sum   'Tb1 Ho2 Mg3 Ru1 Au2'
_cell_volume   199.69842070
_cell_formula_units_Z   1
loop_
 _symmetry_equiv_pos_site_id
 _symmetry_equiv_pos_as_xyz
  1  'x, y, z'
loop_
 _atom_site_type_symbol
 _atom_site_label
 _atom_site_symmetry_multiplicity
 _atom_site_fract_x
 _atom_site_fract_y
 _atom_site_fract_z
 _atom_site_occupancy
  Tb  Tb0  1  0.399045  0.427121  0.000000  1
  Ho  Ho1  1  0.574098  0.971653  0.000000  1
  Ho  Ho2  1  0.028126  0.602408  0.000000  1
  Mg  Mg3  1  0.253570  0.999756  0.500000  1
  Mg  Mg4  1  0.999524  0.253479  0.500000  1
  Mg  Mg5  1  0.746881  0.746795  0.500000  1
  Ru  Ru6  1  0.332263  0.667966  0.500000  1
  Au  Au7  1  0.667958  0.332269  0.500000  1
  Au  Au8  1  0.998536  0.998551  0.000000  1
