# generated using pymatgen
data_Ac6HgRuI6
_symmetry_space_group_name_H-M   'P 1'
_cell_length_a   11.76024142
_cell_length_b   11.76024153
_cell_length_c   11.44995300
_cell_angle_alpha   109.41377045
_cell_angle_beta   109.41377064
_cell_angle_gamma   110.65646508
_symmetry_Int_Tables_number   1
_chemical_formula_structural   Ac6HgRuI6
_chemical_formula_sum   'Ac12 Hg2 Ru2 I12'
_cell_volume   1202.51627131
_cell_formula_units_Z   2
loop_
 _symmetry_equiv_pos_site_id
 _symmetry_equiv_pos_as_xyz
  1  'x, y, z'
loop_
 _atom_site_type_symbol
 _atom_site_label
 _atom_site_symmetry_multiplicity
 _atom_site_fract_x
 _atom_site_fract_y
 _atom_site_fract_z
 _atom_site_occupancy
  Ac  Ac0  1  0.461627  0.491781  0.222565  1
  Ac  Ac1  1  0.769216  0.239063  0.277435  1
  Ac  Ac2  1  0.774938  0.034375  0.493318  1
  Ac  Ac3  1  0.218380  0.458942  0.493318  1
  Ac  Ac4  1  0.260937  0.730784  0.222565  1
  Ac  Ac5  1  0.041058  0.281620  0.006682  1
  Ac  Ac6  1  0.008219  0.038373  0.277435  1
  Ac  Ac7  1  0.465625  0.725062  0.006682  1
  Ac  Ac8  1  0.487746  0.237746  0.475491  1
  Ac  Ac9  1  0.021242  0.478758  0.750000  1
  Ac  Ac10  1  0.262254  0.012254  0.024509  1
  Ac  Ac11  1  0.228758  0.271242  0.750000  1
  Hg  Hg12  1  0.249043  0.250957  0.250000  1
  Hg  Hg13  1  0.500957  0.999043  0.250000  1
  Ru  Ru14  1  0.001696  0.251696  0.503392  1
  Ru  Ru15  1  0.248304  0.498304  0.996608  1
  I  I16  1  0.252131  0.761908  0.742872  1
  I  I17  1  0.519036  0.509259  0.757128  1
  I  I18  1  0.989413  0.745707  0.996548  1
  I  I19  1  0.738092  0.247869  0.757128  1
  I  I20  1  0.990741  0.980964  0.742872  1
  I  I21  1  0.249160  0.992866  0.503452  1
  I  I22  1  0.754293  0.510587  0.503452  1
  I  I23  1  0.507134  0.250840  0.996548  1
  I  I24  1  0.758480  0.741520  0.250000  1
  I  I25  1  0.743826  0.993826  0.987654  1
  I  I26  1  0.991520  0.508480  0.250000  1
  I  I27  1  0.506174  0.756174  0.512346  1
