# generated using pymatgen
data_Tb3Pr3Dy2(CdPt)2
_symmetry_space_group_name_H-M   'P 1'
_cell_length_a   9.83572910
_cell_length_b   9.83415876
_cell_length_c   9.83415813
_cell_angle_alpha   60.01056324
_cell_angle_beta   59.99471287
_cell_angle_gamma   59.99471765
_symmetry_Int_Tables_number   1
_chemical_formula_structural   Tb3Pr3Dy2(CdPt)2
_chemical_formula_sum   'Tb6 Pr6 Dy4 Cd4 Pt4'
_cell_volume   672.61402740
_cell_formula_units_Z   2
loop_
 _symmetry_equiv_pos_site_id
 _symmetry_equiv_pos_as_xyz
  1  'x, y, z'
loop_
 _atom_site_type_symbol
 _atom_site_label
 _atom_site_symmetry_multiplicity
 _atom_site_fract_x
 _atom_site_fract_y
 _atom_site_fract_z
 _atom_site_occupancy
  Tb  Tb0  1  0.349871  0.350157  0.350157  1
  Tb  Tb1  1  0.350157  0.349871  0.949815  1
  Tb  Tb2  1  0.350157  0.949815  0.349871  1
  Tb  Tb3  1  0.949815  0.350157  0.350157  1
  Tb  Tb4  1  0.811725  0.188275  0.188275  1
  Tb  Tb5  1  0.188275  0.811725  0.811725  1
  Pr  Pr6  1  0.938105  0.561895  0.561895  1
  Pr  Pr7  1  0.561895  0.938105  0.938105  1
  Pr  Pr8  1  0.561895  0.938105  0.561895  1
  Pr  Pr9  1  0.938105  0.561895  0.938105  1
  Pr  Pr10  1  0.561895  0.561895  0.938105  1
  Pr  Pr11  1  0.938105  0.938105  0.561895  1
  Dy  Dy12  1  0.188373  0.811627  0.188373  1
  Dy  Dy13  1  0.811627  0.188373  0.811627  1
  Dy  Dy14  1  0.188373  0.188373  0.811627  1
  Dy  Dy15  1  0.811627  0.811627  0.188373  1
  Cd  Cd16  1  0.579583  0.579501  0.579501  1
  Cd  Cd17  1  0.579501  0.579583  0.261412  1
  Cd  Cd18  1  0.579501  0.261412  0.579583  1
  Cd  Cd19  1  0.261412  0.579501  0.579501  1
  Pt  Pt20  1  0.142829  0.142259  0.142259  1
  Pt  Pt21  1  0.142259  0.142829  0.572652  1
  Pt  Pt22  1  0.142259  0.572652  0.142829  1
  Pt  Pt23  1  0.572652  0.142259  0.142259  1
