# generated using pymatgen
data_ZrHg3(TeCl3)2
_symmetry_space_group_name_H-M   'P 1'
_cell_length_a   7.99429700
_cell_length_b   6.89604333
_cell_length_c   13.93754273
_cell_angle_alpha   87.98405920
_cell_angle_beta   90.00000000
_cell_angle_gamma   90.00000000
_symmetry_Int_Tables_number   1
_chemical_formula_structural   ZrHg3(TeCl3)2
_chemical_formula_sum   'Zr2 Hg6 Te4 Cl12'
_cell_volume   767.88749489
_cell_formula_units_Z   2
loop_
 _symmetry_equiv_pos_site_id
 _symmetry_equiv_pos_as_xyz
  1  'x, y, z'
loop_
 _atom_site_type_symbol
 _atom_site_label
 _atom_site_symmetry_multiplicity
 _atom_site_fract_x
 _atom_site_fract_y
 _atom_site_fract_z
 _atom_site_occupancy
  Zr  Zr0  1  0.500000  0.500000  0.500000  1
  Zr  Zr1  1  0.000000  0.500000  0.000000  1
  Hg  Hg2  1  0.293678  0.007382  0.739250  1
  Hg  Hg3  1  0.793678  0.992618  0.760750  1
  Hg  Hg4  1  0.206322  0.007382  0.239250  1
  Hg  Hg5  1  0.500000  0.000000  0.000000  1
  Hg  Hg6  1  0.706322  0.992618  0.260750  1
  Hg  Hg7  1  0.000000  0.000000  0.500000  1
  Te  Te8  1  0.463511  0.793820  0.169574  1
  Te  Te9  1  0.963511  0.206180  0.330426  1
  Te  Te10  1  0.036489  0.793820  0.669574  1
  Te  Te11  1  0.536489  0.206180  0.830426  1
  Cl  Cl12  1  0.351945  0.800553  0.442535  1
  Cl  Cl13  1  0.230973  0.362839  0.563980  1
  Cl  Cl14  1  0.049092  0.352541  0.841269  1
  Cl  Cl15  1  0.269027  0.362839  0.063980  1
  Cl  Cl16  1  0.769027  0.637161  0.436020  1
  Cl  Cl17  1  0.148055  0.800553  0.942535  1
  Cl  Cl18  1  0.450908  0.352541  0.341269  1
  Cl  Cl19  1  0.851945  0.199447  0.057465  1
  Cl  Cl20  1  0.950908  0.647459  0.158731  1
  Cl  Cl21  1  0.549092  0.647459  0.658731  1
  Cl  Cl22  1  0.648055  0.199447  0.557465  1
  Cl  Cl23  1  0.730973  0.637161  0.936020  1
