# generated using pymatgen
data_NdGd5TaO12
_symmetry_space_group_name_H-M   'P 1'
_cell_length_a   6.60950870
_cell_length_b   6.57866419
_cell_length_c   6.59011470
_cell_angle_alpha   98.76515695
_cell_angle_beta   98.82384693
_cell_angle_gamma   98.56575197
_symmetry_Int_Tables_number   1
_chemical_formula_structural   NdGd5TaO12
_chemical_formula_sum   'Nd1 Gd5 Ta1 O12'
_cell_volume   275.46059181
_cell_formula_units_Z   1
loop_
 _symmetry_equiv_pos_site_id
 _symmetry_equiv_pos_as_xyz
  1  'x, y, z'
loop_
 _atom_site_type_symbol
 _atom_site_label
 _atom_site_symmetry_multiplicity
 _atom_site_fract_x
 _atom_site_fract_y
 _atom_site_fract_z
 _atom_site_occupancy
  Nd  Nd0  1  0.861512  0.389183  0.700374  1
  Gd  Gd1  1  0.607496  0.301600  0.139184  1
  Gd  Gd2  1  0.301205  0.139327  0.609147  1
  Gd  Gd3  1  0.698049  0.860270  0.388587  1
  Gd  Gd4  1  0.391619  0.699217  0.861560  1
  Gd  Gd5  1  0.139016  0.609573  0.301112  1
  Ta  Ta6  1  0.001511  0.000349  0.001920  1
  O  O7  1  0.928270  0.035192  0.699878  1
  O  O8  1  0.959874  0.299469  0.073049  1
  O  O9  1  0.583611  0.173903  0.432428  1
  O  O10  1  0.822626  0.564573  0.403932  1
  O  O11  1  0.299127  0.072819  0.960167  1
  O  O12  1  0.556646  0.410361  0.827021  1
  O  O13  1  0.435304  0.590985  0.178032  1
  O  O14  1  0.700788  0.927584  0.039337  1
  O  O15  1  0.184420  0.438441  0.585250  1
  O  O16  1  0.412309  0.824165  0.564755  1
  O  O17  1  0.045212  0.702221  0.932899  1
  O  O18  1  0.071406  0.960769  0.301367  1
