# generated using pymatgen
data_BaTeRhO6
_symmetry_space_group_name_H-M   'P 1'
_cell_length_a   5.31289534
_cell_length_b   5.31257506
_cell_length_c   11.70339574
_cell_angle_alpha   89.97759130
_cell_angle_beta   90.04082471
_cell_angle_gamma   120.00219927
_symmetry_Int_Tables_number   1
_chemical_formula_structural   BaTeRhO6
_chemical_formula_sum   'Ba2 Te2 Rh2 O12'
_cell_volume   286.06789931
_cell_formula_units_Z   2
loop_
 _symmetry_equiv_pos_site_id
 _symmetry_equiv_pos_as_xyz
  1  'x, y, z'
loop_
 _atom_site_type_symbol
 _atom_site_label
 _atom_site_symmetry_multiplicity
 _atom_site_fract_x
 _atom_site_fract_y
 _atom_site_fract_z
 _atom_site_occupancy
  Ba  Ba0  1  0.999874  0.999925  0.250022  1
  Ba  Ba1  1  0.000105  0.000095  0.749971  1
  Te  Te2  1  0.666674  0.333358  0.999990  1
  Te  Te3  1  0.666622  0.333202  0.499944  1
  Rh  Rh4  1  0.333317  0.666725  0.999997  1
  Rh  Rh5  1  0.333220  0.666526  0.500133  1
  O  O6  1  0.384372  0.006850  0.095283  1
  O  O7  1  0.622373  0.615803  0.095274  1
  O  O8  1  0.993448  0.377613  0.095240  1
  O  O9  1  0.993224  0.377554  0.404726  1
  O  O10  1  0.622502  0.615598  0.404738  1
  O  O11  1  0.384338  0.006716  0.404696  1
  O  O12  1  0.622589  0.006849  0.595314  1
  O  O13  1  0.993170  0.615489  0.595324  1
  O  O14  1  0.384401  0.377687  0.595277  1
  O  O15  1  0.384183  0.377510  0.904691  1
  O  O16  1  0.993229  0.615752  0.904692  1
  O  O17  1  0.622362  0.006751  0.904687  1
