# generated using pymatgen
data_LiDy8Si4TcB16
_symmetry_space_group_name_H-M   'P 1'
_cell_length_a   7.13335400
_cell_length_b   7.13335400
_cell_length_c   7.71189200
_cell_angle_alpha   90.00000000
_cell_angle_beta   90.00000000
_cell_angle_gamma   90.00000000
_symmetry_Int_Tables_number   1
_chemical_formula_structural   LiDy8Si4TcB16
_chemical_formula_sum   'Li1 Dy8 Si4 Tc1 B16'
_cell_volume   392.41761385
_cell_formula_units_Z   1
loop_
 _symmetry_equiv_pos_site_id
 _symmetry_equiv_pos_as_xyz
  1  'x, y, z'
loop_
 _atom_site_type_symbol
 _atom_site_label
 _atom_site_symmetry_multiplicity
 _atom_site_fract_x
 _atom_site_fract_y
 _atom_site_fract_z
 _atom_site_occupancy
  Li  Li0  1  0.500000  0.500000  0.500000  1
  Dy  Dy1  1  0.681075  0.181862  0.236711  1
  Dy  Dy2  1  0.318925  0.818138  0.763289  1
  Dy  Dy3  1  0.318925  0.818138  0.236711  1
  Dy  Dy4  1  0.818138  0.681075  0.236711  1
  Dy  Dy5  1  0.818138  0.681075  0.763289  1
  Dy  Dy6  1  0.681075  0.181862  0.763289  1
  Dy  Dy7  1  0.181862  0.318925  0.763289  1
  Dy  Dy8  1  0.181862  0.318925  0.236711  1
  Si  Si9  1  0.106169  0.630009  0.500000  1
  Si  Si10  1  0.893831  0.369991  0.500000  1
  Si  Si11  1  0.369991  0.106169  0.500000  1
  Si  Si12  1  0.630009  0.893831  0.500000  1
  Tc  Tc13  1  0.000000  0.000000  0.500000  1
  B  B14  1  0.172033  0.040242  0.000000  1
  B  B15  1  0.827967  0.959758  0.000000  1
  B  B16  1  0.959758  0.172033  0.000000  1
  B  B17  1  0.325474  0.540440  0.000000  1
  B  B18  1  0.040242  0.827967  0.000000  1
  B  B19  1  0.674526  0.459560  0.000000  1
  B  B20  1  0.540440  0.674526  0.000000  1
  B  B21  1  0.459560  0.325474  0.000000  1
  B  B22  1  0.089265  0.589433  0.000000  1
  B  B23  1  0.910735  0.410567  0.000000  1
  B  B24  1  0.410567  0.089265  0.000000  1
  B  B25  1  0.589433  0.910735  0.000000  1
  B  B26  1  0.000000  0.000000  0.172621  1
  B  B27  1  0.000000  0.000000  0.827379  1
  B  B28  1  0.500000  0.500000  0.838312  1
  B  B29  1  0.500000  0.500000  0.161688  1
