# generated using pymatgen
data_K2TcTe6Mo5
_symmetry_space_group_name_H-M   'P 1'
_cell_length_a   9.86032873
_cell_length_b   9.87302148
_cell_length_c   4.59763000
_cell_angle_alpha   90.00000000
_cell_angle_beta   90.00000000
_cell_angle_gamma   119.33160391
_symmetry_Int_Tables_number   1
_chemical_formula_structural   K2TcTe6Mo5
_chemical_formula_sum   'K2 Tc1 Te6 Mo5'
_cell_volume   390.20421857
_cell_formula_units_Z   1
loop_
 _symmetry_equiv_pos_site_id
 _symmetry_equiv_pos_as_xyz
  1  'x, y, z'
loop_
 _atom_site_type_symbol
 _atom_site_label
 _atom_site_symmetry_multiplicity
 _atom_site_fract_x
 _atom_site_fract_y
 _atom_site_fract_z
 _atom_site_occupancy
  K  K0  1  0.334751  0.664818  0.250000  1
  K  K1  1  0.666865  0.335154  0.750000  1
  Tc  Tc2  1  0.142735  0.171815  0.250000  1
  Te  Te3  1  0.352340  0.061033  0.250000  1
  Te  Te4  1  0.945891  0.296978  0.250000  1
  Te  Te5  1  0.699326  0.639954  0.250000  1
  Te  Te6  1  0.298698  0.356086  0.750000  1
  Te  Te7  1  0.059457  0.701774  0.750000  1
  Te  Te8  1  0.644260  0.944954  0.750000  1
  Mo  Mo9  1  0.025622  0.858851  0.250000  1
  Mo  Mo10  1  0.831901  0.970373  0.250000  1
  Mo  Mo11  1  0.165231  0.028022  0.750000  1
  Mo  Mo12  1  0.973667  0.138890  0.750000  1
  Mo  Mo13  1  0.859257  0.831296  0.750000  1
