# generated using pymatgen
data_Tb5SmFe3(Co5P4)3
_symmetry_space_group_name_H-M   'P 1'
_cell_length_a   3.71127200
_cell_length_b   10.56256300
_cell_length_c   12.17841800
_cell_angle_alpha   90.00000000
_cell_angle_beta   90.00000000
_cell_angle_gamma   90.00000000
_symmetry_Int_Tables_number   1
_chemical_formula_structural   Tb5SmFe3(Co5P4)3
_chemical_formula_sum   'Tb5 Sm1 Fe3 Co15 P12'
_cell_volume   477.40061444
_cell_formula_units_Z   1
loop_
 _symmetry_equiv_pos_site_id
 _symmetry_equiv_pos_as_xyz
  1  'x, y, z'
loop_
 _atom_site_type_symbol
 _atom_site_label
 _atom_site_symmetry_multiplicity
 _atom_site_fract_x
 _atom_site_fract_y
 _atom_site_fract_z
 _atom_site_occupancy
  Tb  Tb0  1  0.500000  0.000000  0.478097  1
  Tb  Tb1  1  0.500000  0.817827  0.204869  1
  Tb  Tb2  1  0.500000  0.182173  0.204869  1
  Tb  Tb3  1  0.000000  0.681002  0.795867  1
  Tb  Tb4  1  0.000000  0.318998  0.795867  1
  Sm  Sm5  1  0.000000  0.500000  0.522393  1
  Fe  Fe6  1  0.500000  0.500000  0.154811  1
  Fe  Fe7  1  0.000000  0.000000  0.843187  1
  Fe  Fe8  1  0.000000  0.500000  0.988791  1
  Co  Co9  1  0.500000  0.500000  0.702816  1
  Co  Co10  1  0.000000  0.000000  0.298304  1
  Co  Co11  1  0.500000  0.000000  0.013428  1
  Co  Co12  1  0.500000  0.331114  0.994444  1
  Co  Co13  1  0.500000  0.668886  0.994444  1
  Co  Co14  1  0.000000  0.166155  0.005381  1
  Co  Co15  1  0.000000  0.833845  0.005381  1
  Co  Co16  1  0.500000  0.295757  0.430107  1
  Co  Co17  1  0.500000  0.704243  0.430107  1
  Co  Co18  1  0.000000  0.202826  0.569901  1
  Co  Co19  1  0.000000  0.797174  0.569901  1
  Co  Co20  1  0.500000  0.879580  0.709386  1
  Co  Co21  1  0.500000  0.120420  0.709386  1
  Co  Co22  1  0.000000  0.620971  0.289742  1
  Co  Co23  1  0.000000  0.379029  0.289742  1
  P  P24  1  0.500000  0.500000  0.885341  1
  P  P25  1  0.000000  0.000000  0.117108  1
  P  P26  1  0.500000  0.500000  0.339247  1
  P  P27  1  0.000000  0.000000  0.658041  1
  P  P28  1  0.500000  0.308224  0.616573  1
  P  P29  1  0.500000  0.691776  0.616573  1
  P  P30  1  0.000000  0.190523  0.384017  1
  P  P31  1  0.000000  0.809477  0.384017  1
  P  P32  1  0.500000  0.847769  0.893061  1
  P  P33  1  0.500000  0.152231  0.893061  1
  P  P34  1  0.000000  0.652747  0.105868  1
  P  P35  1  0.000000  0.347253  0.105868  1
