# generated using pymatgen
data_HoEr7Cd2OsPt
_symmetry_space_group_name_H-M   'P 1'
_cell_length_a   9.57731742
_cell_length_b   9.57731770
_cell_length_c   9.64193800
_cell_angle_alpha   59.77655845
_cell_angle_beta   59.77655747
_cell_angle_gamma   59.53949773
_symmetry_Int_Tables_number   1
_chemical_formula_structural   HoEr7Cd2OsPt
_chemical_formula_sum   'Ho2 Er14 Cd4 Os2 Pt2'
_cell_volume   621.06635201
_cell_formula_units_Z   2
loop_
 _symmetry_equiv_pos_site_id
 _symmetry_equiv_pos_as_xyz
  1  'x, y, z'
loop_
 _atom_site_type_symbol
 _atom_site_label
 _atom_site_symmetry_multiplicity
 _atom_site_fract_x
 _atom_site_fract_y
 _atom_site_fract_z
 _atom_site_occupancy
  Ho  Ho0  1  0.814525  0.814525  0.185475  1
  Ho  Ho1  1  0.189948  0.189948  0.810052  1
  Er  Er2  1  0.600075  0.600075  0.601616  1
  Er  Er3  1  0.600075  0.600075  0.198233  1
  Er  Er4  1  0.596662  0.204199  0.599570  1
  Er  Er5  1  0.204199  0.596662  0.599570  1
  Er  Er6  1  0.064420  0.437888  0.440714  1
  Er  Er7  1  0.437888  0.064420  0.056977  1
  Er  Er8  1  0.437888  0.064420  0.440714  1
  Er  Er9  1  0.064420  0.437888  0.056977  1
  Er  Er10  1  0.438237  0.438237  0.061763  1
  Er  Er11  1  0.058357  0.058357  0.441643  1
  Er  Er12  1  0.188448  0.806384  0.816774  1
  Er  Er13  1  0.806384  0.188448  0.188394  1
  Er  Er14  1  0.806384  0.188448  0.816774  1
  Er  Er15  1  0.188448  0.806384  0.188394  1
  Cd  Cd16  1  0.829957  0.829957  0.831679  1
  Cd  Cd17  1  0.829957  0.829957  0.508407  1
  Cd  Cd18  1  0.830919  0.504924  0.832078  1
  Cd  Cd19  1  0.504924  0.830919  0.832078  1
  Os  Os20  1  0.394464  0.394464  0.387415  1
  Os  Os21  1  0.394464  0.394464  0.823656  1
  Pt  Pt22  1  0.394063  0.824888  0.390524  1
  Pt  Pt23  1  0.824888  0.394063  0.390524  1
