# generated using pymatgen
data_Nd2V2Ni10As7
_symmetry_space_group_name_H-M   'P 1'
_cell_length_a   9.51954922
_cell_length_b   9.44451913
_cell_length_c   3.86568400
_cell_angle_alpha   90.00000000
_cell_angle_beta   90.00000000
_cell_angle_gamma   120.01236746
_symmetry_Int_Tables_number   1
_chemical_formula_structural   Nd2V2Ni10As7
_chemical_formula_sum   'Nd2 V2 Ni10 As7'
_cell_volume   300.95327883
_cell_formula_units_Z   1
loop_
 _symmetry_equiv_pos_site_id
 _symmetry_equiv_pos_as_xyz
  1  'x, y, z'
loop_
 _atom_site_type_symbol
 _atom_site_label
 _atom_site_symmetry_multiplicity
 _atom_site_fract_x
 _atom_site_fract_y
 _atom_site_fract_z
 _atom_site_occupancy
  Nd  Nd0  1  0.337033  0.666732  0.000000  1
  Nd  Nd1  1  0.665793  0.334737  0.500001  1
  V  V2  1  0.209666  0.098909  0.500001  1
  V  V3  1  0.899629  0.109373  0.500001  1
  Ni  Ni4  1  0.431521  0.059707  0.000000  1
  Ni  Ni5  1  0.149510  0.280046  0.000000  1
  Ni  Ni6  1  0.940635  0.373327  0.000000  1
  Ni  Ni7  1  0.624578  0.564673  0.000000  1
  Ni  Ni8  1  0.129504  0.846978  0.000000  1
  Ni  Ni9  1  0.721038  0.871301  0.000000  1
  Ni  Ni10  1  0.376882  0.429385  0.500001  1
  Ni  Ni11  1  0.049083  0.623952  0.500001  1
  Ni  Ni12  1  0.890744  0.792170  0.500001  1
  Ni  Ni13  1  0.570887  0.947125  0.500001  1
  As  As14  1  0.999611  0.997117  0.000000  1
  As  As15  1  0.705578  0.110938  0.000000  1
  As  As16  1  0.402442  0.293562  0.000000  1
  As  As17  1  0.888350  0.597295  0.000000  1
  As  As18  1  0.107404  0.403307  0.500001  1
  As  As19  1  0.602262  0.706375  0.500001  1
  As  As20  1  0.297854  0.892993  0.500001  1
