# generated using pymatgen
data_TaV7Si2(B2W)2
_symmetry_space_group_name_H-M   'P 1'
_cell_length_a   6.84266637
_cell_length_b   6.90257823
_cell_length_c   6.86572500
_cell_angle_alpha   129.43503998
_cell_angle_beta   129.19783912
_cell_angle_gamma   74.57769730
_symmetry_Int_Tables_number   1
_chemical_formula_structural   TaV7Si2(B2W)2
_chemical_formula_sum   'Ta1 V7 Si2 B4 W2'
_cell_volume   189.05652278
_cell_formula_units_Z   1
loop_
 _symmetry_equiv_pos_site_id
 _symmetry_equiv_pos_as_xyz
  1  'x, y, z'
loop_
 _atom_site_type_symbol
 _atom_site_label
 _atom_site_symmetry_multiplicity
 _atom_site_fract_x
 _atom_site_fract_y
 _atom_site_fract_z
 _atom_site_occupancy
  Ta  Ta0  1  0.522710  0.691552  0.500000  1
  V  V1  1  0.972455  0.467746  0.164230  1
  V  V2  1  0.190874  0.039114  0.500000  1
  V  V3  1  0.470493  0.304011  0.500000  1
  V  V4  1  0.804099  0.969803  0.500000  1
  V  V5  1  0.308225  0.803516  0.835770  1
  V  V6  1  0.005054  0.003378  0.003022  1
  V  V7  1  0.502033  0.500356  0.996978  1
  Si  Si8  1  0.239752  0.234264  0.987274  1
  Si  Si9  1  0.752479  0.746991  0.012726  1
  B  B10  1  0.616362  0.121693  0.732863  1
  B  B11  1  0.122109  0.385094  0.500000  1
  B  B12  1  0.887022  0.621701  0.500000  1
  B  B13  1  0.383499  0.888829  0.267137  1
  W  W14  1  0.031097  0.530656  0.839360  1
  W  W15  1  0.691738  0.191297  0.160640  1
