# generated using pymatgen
data_YTm5(B7W)2
_symmetry_space_group_name_H-M   'P 1'
_cell_length_a   8.06988370
_cell_length_b   8.06988190
_cell_length_c   9.44141600
_cell_angle_alpha   90.00000000
_cell_angle_beta   90.00000000
_cell_angle_gamma   155.48361187
_symmetry_Int_Tables_number   1
_chemical_formula_structural   YTm5(B7W)2
_chemical_formula_sum   'Y1 Tm5 B14 W2'
_cell_volume   255.13557539
_cell_formula_units_Z   1
loop_
 _symmetry_equiv_pos_site_id
 _symmetry_equiv_pos_as_xyz
  1  'x, y, z'
loop_
 _atom_site_type_symbol
 _atom_site_label
 _atom_site_symmetry_multiplicity
 _atom_site_fract_x
 _atom_site_fract_y
 _atom_site_fract_z
 _atom_site_occupancy
  Y  Y0  1  0.247100  0.752900  0.750000  1
  Tm  Tm1  1  0.892879  0.107121  0.941434  1
  Tm  Tm2  1  0.107392  0.892608  0.060095  1
  Tm  Tm3  1  0.754510  0.245490  0.250000  1
  Tm  Tm4  1  0.892879  0.107121  0.558566  1
  Tm  Tm5  1  0.107392  0.892608  0.439905  1
  B  B6  1  0.547487  0.452513  0.250000  1
  B  B7  1  0.452315  0.547685  0.750000  1
  B  B8  1  0.518764  0.481236  0.908927  1
  B  B9  1  0.481142  0.518858  0.091168  1
  B  B10  1  0.481142  0.518858  0.408832  1
  B  B11  1  0.518764  0.481236  0.591073  1
  B  B12  1  0.635162  0.364838  0.854140  1
  B  B13  1  0.364562  0.635438  0.147511  1
  B  B14  1  0.727483  0.272517  0.969226  1
  B  B15  1  0.271882  0.728118  0.035075  1
  B  B16  1  0.271882  0.728118  0.464925  1
  B  B17  1  0.727483  0.272517  0.530774  1
  B  B18  1  0.635162  0.364838  0.645860  1
  B  B19  1  0.364562  0.635438  0.352489  1
  W  W20  1  0.052674  0.947326  0.750000  1
  W  W21  1  0.947381  0.052619  0.250000  1
