# generated using pymatgen
data_Sc11FeOs3
_symmetry_space_group_name_H-M   'P 1'
_cell_length_a   9.42002889
_cell_length_b   9.42002964
_cell_length_c   9.42002900
_cell_angle_alpha   59.99999874
_cell_angle_beta   59.99999609
_cell_angle_gamma   60.00000004
_symmetry_Int_Tables_number   1
_chemical_formula_structural   Sc11FeOs3
_chemical_formula_sum   'Sc22 Fe2 Os6'
_cell_volume   591.07382717
_cell_formula_units_Z   2
loop_
 _symmetry_equiv_pos_site_id
 _symmetry_equiv_pos_as_xyz
  1  'x, y, z'
loop_
 _atom_site_type_symbol
 _atom_site_label
 _atom_site_symmetry_multiplicity
 _atom_site_fract_x
 _atom_site_fract_y
 _atom_site_fract_z
 _atom_site_occupancy
  Sc  Sc0  1  0.806071  0.806071  0.193929  1
  Sc  Sc1  1  0.193929  0.806071  0.193929  1
  Sc  Sc2  1  0.806071  0.193929  0.193929  1
  Sc  Sc3  1  0.193929  0.193929  0.806071  1
  Sc  Sc4  1  0.806071  0.193929  0.806071  1
  Sc  Sc5  1  0.193929  0.806071  0.806071  1
  Sc  Sc6  1  0.615176  0.615176  0.154473  1
  Sc  Sc7  1  0.615176  0.154473  0.615176  1
  Sc  Sc8  1  0.154473  0.615176  0.615176  1
  Sc  Sc9  1  0.615176  0.615176  0.615176  1
  Sc  Sc10  1  0.384824  0.384824  0.845527  1
  Sc  Sc11  1  0.384824  0.845527  0.384824  1
  Sc  Sc12  1  0.845527  0.384824  0.384824  1
  Sc  Sc13  1  0.384824  0.384824  0.384824  1
  Sc  Sc14  1  0.842997  0.842997  0.471008  1
  Sc  Sc15  1  0.842997  0.471008  0.842997  1
  Sc  Sc16  1  0.471008  0.842997  0.842997  1
  Sc  Sc17  1  0.842997  0.842997  0.842997  1
  Sc  Sc18  1  0.157003  0.157003  0.528992  1
  Sc  Sc19  1  0.157003  0.528992  0.157003  1
  Sc  Sc20  1  0.528992  0.157003  0.157003  1
  Sc  Sc21  1  0.157003  0.157003  0.157003  1
  Fe  Fe22  1  0.000000  0.000000  0.000000  1
  Fe  Fe23  1  0.500000  0.500000  0.500000  1
  Os  Os24  1  0.000000  0.000000  0.500000  1
  Os  Os25  1  0.500000  0.000000  0.500000  1
  Os  Os26  1  0.000000  0.500000  0.500000  1
  Os  Os27  1  0.500000  0.500000  0.000000  1
  Os  Os28  1  0.000000  0.500000  0.000000  1
  Os  Os29  1  0.500000  0.000000  0.000000  1
