# generated using pymatgen
data_Ti12CrTc5Ir6
_symmetry_space_group_name_H-M   'P 1'
_cell_length_a   4.37507800
_cell_length_b   6.19185700
_cell_length_c   13.15280800
_cell_angle_alpha   90.00010344
_cell_angle_beta   89.99991740
_cell_angle_gamma   89.99947899
_symmetry_Int_Tables_number   1
_chemical_formula_structural   Ti12CrTc5Ir6
_chemical_formula_sum   'Ti12 Cr1 Tc5 Ir6'
_cell_volume   356.30769233
_cell_formula_units_Z   1
loop_
 _symmetry_equiv_pos_site_id
 _symmetry_equiv_pos_as_xyz
  1  'x, y, z'
loop_
 _atom_site_type_symbol
 _atom_site_label
 _atom_site_symmetry_multiplicity
 _atom_site_fract_x
 _atom_site_fract_y
 _atom_site_fract_z
 _atom_site_occupancy
  Ti  Ti0  1  0.499996  0.251803  0.997377  1
  Ti  Ti1  1  0.499996  0.748186  0.997376  1
  Ti  Ti2  1  0.999988  0.249177  0.165963  1
  Ti  Ti3  1  0.999988  0.750812  0.165962  1
  Ti  Ti4  1  0.499987  0.250199  0.333338  1
  Ti  Ti5  1  0.499988  0.749791  0.333338  1
  Ti  Ti6  1  0.999996  0.249173  0.500707  1
  Ti  Ti7  1  0.999994  0.750818  0.500708  1
  Ti  Ti8  1  0.500005  0.251820  0.669277  1
  Ti  Ti9  1  0.500007  0.748172  0.669278  1
  Ti  Ti10  1  0.000007  0.253432  0.833331  1
  Ti  Ti11  1  0.000006  0.746555  0.833331  1
  Cr  Cr12  1  0.500094  0.500116  0.833378  1
  Tc  Tc13  1  0.999996  0.999991  0.000041  1
  Tc  Tc14  1  0.499986  0.499996  0.166606  1
  Tc  Tc15  1  0.999986  0.999995  0.333332  1
  Tc  Tc16  1  0.499996  0.499995  0.500042  1
  Tc  Tc17  1  0.000008  0.999998  0.666620  1
  Ir  Ir18  1  0.000003  0.499992  0.999614  1
  Ir  Ir19  1  0.499986  0.999995  0.166436  1
  Ir  Ir20  1  0.999989  0.499993  0.333341  1
  Ir  Ir21  1  0.499995  0.999998  0.500229  1
  Ir  Ir22  1  0.000009  0.499992  0.667044  1
  Ir  Ir23  1  0.500009  0.000001  0.833334  1
