# generated using pymatgen
data_Cs2MgTi(ZnAs2)2
_symmetry_space_group_name_H-M   'P 1'
_cell_length_a   8.27561100
_cell_length_b   8.27561128
_cell_length_c   6.01719500
_cell_angle_alpha   90.00000000
_cell_angle_beta   90.00000000
_cell_angle_gamma   137.32299867
_symmetry_Int_Tables_number   1
_chemical_formula_structural   Cs2MgTi(ZnAs2)2
_chemical_formula_sum   'Cs2 Mg1 Ti1 Zn2 As4'
_cell_volume   279.34262069
_cell_formula_units_Z   1
loop_
 _symmetry_equiv_pos_site_id
 _symmetry_equiv_pos_as_xyz
  1  'x, y, z'
loop_
 _atom_site_type_symbol
 _atom_site_label
 _atom_site_symmetry_multiplicity
 _atom_site_fract_x
 _atom_site_fract_y
 _atom_site_fract_z
 _atom_site_occupancy
  Cs  Cs0  1  0.500000  0.000000  0.255901  1
  Cs  Cs1  1  0.000000  0.500000  0.744099  1
  Mg  Mg2  1  0.500000  0.500000  0.500000  1
  Ti  Ti3  1  0.000000  0.000000  0.000000  1
  Zn  Zn4  1  0.500000  0.500000  0.000000  1
  Zn  Zn5  1  0.000000  0.000000  0.500000  1
  As  As6  1  0.667583  0.858709  0.763675  1
  As  As7  1  0.141291  0.332417  0.236325  1
  As  As8  1  0.858709  0.667583  0.236325  1
  As  As9  1  0.332417  0.141291  0.763675  1
