# generated using pymatgen
data_Er4Al4IrPd2Rh
_symmetry_space_group_name_H-M   'P 1'
_cell_length_a   4.31040700
_cell_length_b   6.82954924
_cell_length_c   7.85772327
_cell_angle_alpha   89.96969451
_cell_angle_beta   90.00000000
_cell_angle_gamma   90.00000000
_symmetry_Int_Tables_number   1
_chemical_formula_structural   Er4Al4IrPd2Rh
_chemical_formula_sum   'Er4 Al4 Ir1 Pd2 Rh1'
_cell_volume   231.31670070
_cell_formula_units_Z   1
loop_
 _symmetry_equiv_pos_site_id
 _symmetry_equiv_pos_as_xyz
  1  'x, y, z'
loop_
 _atom_site_type_symbol
 _atom_site_label
 _atom_site_symmetry_multiplicity
 _atom_site_fract_x
 _atom_site_fract_y
 _atom_site_fract_z
 _atom_site_occupancy
  Er  Er0  1  0.250000  0.035338  0.322696  1
  Er  Er1  1  0.250000  0.535323  0.177352  1
  Er  Er2  1  0.750000  0.972565  0.681323  1
  Er  Er3  1  0.750000  0.470441  0.817958  1
  Al  Al4  1  0.250000  0.138098  0.935217  1
  Al  Al5  1  0.250000  0.638055  0.563829  1
  Al  Al6  1  0.750000  0.858012  0.058545  1
  Al  Al7  1  0.750000  0.357376  0.441649  1
  Ir  Ir8  1  0.250000  0.266198  0.620111  1
  Pd  Pd9  1  0.750000  0.731433  0.377723  1
  Pd  Pd10  1  0.750000  0.231642  0.122174  1
  Rh  Rh11  1  0.250000  0.765519  0.881423  1
