# generated using pymatgen
data_Hf13Ge3(Ir2N)4
_symmetry_space_group_name_H-M   'P 1'
_cell_length_a   8.54483068
_cell_length_b   8.56578703
_cell_length_c   8.56398613
_cell_angle_alpha   59.99916774
_cell_angle_beta   59.90602922
_cell_angle_gamma   59.91418818
_symmetry_Int_Tables_number   1
_chemical_formula_structural   Hf13Ge3(Ir2N)4
_chemical_formula_sum   'Hf13 Ge3 Ir8 N4'
_cell_volume   442.62663656
_cell_formula_units_Z   1
loop_
 _symmetry_equiv_pos_site_id
 _symmetry_equiv_pos_as_xyz
  1  'x, y, z'
loop_
 _atom_site_type_symbol
 _atom_site_label
 _atom_site_symmetry_multiplicity
 _atom_site_fract_x
 _atom_site_fract_y
 _atom_site_fract_z
 _atom_site_occupancy
  Hf  Hf0  1  0.125005  0.625001  0.624995  1
  Hf  Hf1  1  0.811598  0.811108  0.188636  1
  Hf  Hf2  1  0.189959  0.184517  0.812739  1
  Hf  Hf3  1  0.811608  0.188657  0.811082  1
  Hf  Hf4  1  0.189978  0.812742  0.184515  1
  Hf  Hf5  1  0.189983  0.812750  0.812765  1
  Hf  Hf6  1  0.811636  0.188645  0.188678  1
  Hf  Hf7  1  0.438391  0.438892  0.061365  1
  Hf  Hf8  1  0.060038  0.065490  0.437258  1
  Hf  Hf9  1  0.438388  0.061347  0.438912  1
  Hf  Hf10  1  0.060013  0.437261  0.065487  1
  Hf  Hf11  1  0.060015  0.437252  0.437231  1
  Hf  Hf12  1  0.438354  0.061362  0.061324  1
  Ge  Ge13  1  0.625012  0.124941  0.625036  1
  Ge  Ge14  1  0.625013  0.625016  0.124948  1
  Ge  Ge15  1  0.625028  0.625003  0.625044  1
  Ir  Ir16  1  0.760467  0.413171  0.413128  1
  Ir  Ir17  1  0.415152  0.763075  0.410892  1
  Ir  Ir18  1  0.415098  0.410910  0.763108  1
  Ir  Ir19  1  0.415170  0.410885  0.410928  1
  Ir  Ir20  1  0.489517  0.836836  0.836874  1
  Ir  Ir21  1  0.834857  0.486922  0.839105  1
  Ir  Ir22  1  0.834901  0.839093  0.486888  1
  Ir  Ir23  1  0.834836  0.839115  0.839068  1
  N  N24  1  0.624997  0.125003  0.124998  1
  N  N25  1  0.124996  0.625003  0.124999  1
  N  N26  1  0.124997  0.125003  0.624997  1
  N  N27  1  0.124997  0.125001  0.124999  1
