# generated using pymatgen
data_CsSm(NbCl3)6
_symmetry_space_group_name_H-M   'P 1'
_cell_length_a   10.36277365
_cell_length_b   10.36277378
_cell_length_c   10.36277307
_cell_angle_alpha   55.28329441
_cell_angle_beta   55.28329415
_cell_angle_gamma   55.28330102
_symmetry_Int_Tables_number   1
_chemical_formula_structural   CsSm(NbCl3)6
_chemical_formula_sum   'Cs1 Sm1 Nb6 Cl18'
_cell_volume   700.63384181
_cell_formula_units_Z   1
loop_
 _symmetry_equiv_pos_site_id
 _symmetry_equiv_pos_as_xyz
  1  'x, y, z'
loop_
 _atom_site_type_symbol
 _atom_site_label
 _atom_site_symmetry_multiplicity
 _atom_site_fract_x
 _atom_site_fract_y
 _atom_site_fract_z
 _atom_site_occupancy
  Cs  Cs0  1  0.222594  0.222594  0.222594  1
  Sm  Sm1  1  0.498138  0.498138  0.498138  1
  Nb  Nb2  1  0.802525  0.147636  0.913234  1
  Nb  Nb3  1  0.913234  0.802525  0.147636  1
  Nb  Nb4  1  0.147636  0.913234  0.802525  1
  Nb  Nb5  1  0.198982  0.852763  0.085375  1
  Nb  Nb6  1  0.085375  0.198982  0.852763  1
  Nb  Nb7  1  0.852763  0.085375  0.198982  1
  Cl  Cl8  1  0.865224  0.408363  0.728576  1
  Cl  Cl9  1  0.728576  0.865224  0.408363  1
  Cl  Cl10  1  0.408363  0.728576  0.865224  1
  Cl  Cl11  1  0.133640  0.592202  0.273793  1
  Cl  Cl12  1  0.273793  0.133640  0.592202  1
  Cl  Cl13  1  0.592202  0.273793  0.133640  1
  Cl  Cl14  1  0.539719  0.339195  0.802817  1
  Cl  Cl15  1  0.802817  0.539719  0.339195  1
  Cl  Cl16  1  0.339195  0.802817  0.539719  1
  Cl  Cl17  1  0.458735  0.663458  0.197055  1
  Cl  Cl18  1  0.197055  0.458735  0.663458  1
  Cl  Cl19  1  0.663458  0.197055  0.458735  1
  Cl  Cl20  1  0.666471  0.939422  0.070275  1
  Cl  Cl21  1  0.070275  0.666471  0.939422  1
  Cl  Cl22  1  0.939422  0.070275  0.666471  1
  Cl  Cl23  1  0.337209  0.059415  0.924324  1
  Cl  Cl24  1  0.924324  0.337209  0.059415  1
  Cl  Cl25  1  0.059415  0.924324  0.337209  1
