# generated using pymatgen
data_Er2TcB8Mo
_symmetry_space_group_name_H-M   'P 1'
_cell_length_a   3.59276700
_cell_length_b   5.97726677
_cell_length_c   11.56218336
_cell_angle_alpha   89.88970445
_cell_angle_beta   90.00000000
_cell_angle_gamma   90.00000000
_symmetry_Int_Tables_number   1
_chemical_formula_structural   Er2TcB8Mo
_chemical_formula_sum   'Er4 Tc2 B16 Mo2'
_cell_volume   248.29658112
_cell_formula_units_Z   2
loop_
 _symmetry_equiv_pos_site_id
 _symmetry_equiv_pos_as_xyz
  1  'x, y, z'
loop_
 _atom_site_type_symbol
 _atom_site_label
 _atom_site_symmetry_multiplicity
 _atom_site_fract_x
 _atom_site_fract_y
 _atom_site_fract_z
 _atom_site_occupancy
  Er  Er0  1  0.000000  0.627132  0.348589  1
  Er  Er1  1  0.000000  0.372868  0.651411  1
  Er  Er2  1  0.000000  0.127780  0.148722  1
  Er  Er3  1  0.000000  0.872220  0.851278  1
  Tc  Tc4  1  0.000000  0.634858  0.086733  1
  Tc  Tc5  1  0.000000  0.365142  0.913267  1
  B  B6  1  0.500000  0.785720  0.184701  1
  B  B7  1  0.500000  0.214280  0.815299  1
  B  B8  1  0.500000  0.289790  0.312684  1
  B  B9  1  0.500000  0.710210  0.687316  1
  B  B10  1  0.500000  0.864367  0.030934  1
  B  B11  1  0.500000  0.135633  0.969066  1
  B  B12  1  0.500000  0.367950  0.467599  1
  B  B13  1  0.500000  0.632050  0.532401  1
  B  B14  1  0.500000  0.884525  0.452198  1
  B  B15  1  0.500000  0.115475  0.547802  1
  B  B16  1  0.500000  0.386620  0.047344  1
  B  B17  1  0.500000  0.613380  0.952656  1
  B  B18  1  0.500000  0.975616  0.305056  1
  B  B19  1  0.500000  0.024384  0.694944  1
  B  B20  1  0.500000  0.476939  0.191866  1
  B  B21  1  0.500000  0.523061  0.808134  1
  Mo  Mo22  1  0.000000  0.129691  0.415016  1
  Mo  Mo23  1  0.000000  0.870309  0.584984  1
