# generated using pymatgen
data_TbNd3Er4(CdPt)2
_symmetry_space_group_name_H-M   'P 1'
_cell_length_a   9.76847363
_cell_length_b   9.76847449
_cell_length_c   9.75227800
_cell_angle_alpha   60.05482551
_cell_angle_beta   60.05482259
_cell_angle_gamma   60.12581337
_symmetry_Int_Tables_number   1
_chemical_formula_structural   TbNd3Er4(CdPt)2
_chemical_formula_sum   'Tb2 Nd6 Er8 Cd4 Pt4'
_cell_volume   659.19794371
_cell_formula_units_Z   2
loop_
 _symmetry_equiv_pos_site_id
 _symmetry_equiv_pos_as_xyz
  1  'x, y, z'
loop_
 _atom_site_type_symbol
 _atom_site_label
 _atom_site_symmetry_multiplicity
 _atom_site_fract_x
 _atom_site_fract_y
 _atom_site_fract_z
 _atom_site_occupancy
  Tb  Tb0  1  0.350293  0.350293  0.350496  1
  Tb  Tb1  1  0.350293  0.350293  0.948918  1
  Nd  Nd2  1  0.938398  0.561593  0.562256  1
  Nd  Nd3  1  0.561593  0.938398  0.937753  1
  Nd  Nd4  1  0.561593  0.938398  0.562256  1
  Nd  Nd5  1  0.938398  0.561593  0.937753  1
  Nd  Nd6  1  0.561958  0.561958  0.938042  1
  Nd  Nd7  1  0.938153  0.938153  0.561847  1
  Er  Er8  1  0.350094  0.949583  0.350162  1
  Er  Er9  1  0.949583  0.350094  0.350162  1
  Er  Er10  1  0.812884  0.187322  0.187547  1
  Er  Er11  1  0.187322  0.812884  0.812248  1
  Er  Er12  1  0.187322  0.812884  0.187547  1
  Er  Er13  1  0.812884  0.187322  0.812248  1
  Er  Er14  1  0.187285  0.187285  0.812715  1
  Er  Er15  1  0.812394  0.812394  0.187606  1
  Cd  Cd16  1  0.579973  0.579973  0.579097  1
  Cd  Cd17  1  0.579973  0.579973  0.260957  1
  Cd  Cd18  1  0.580313  0.260474  0.579607  1
  Cd  Cd19  1  0.260474  0.580313  0.579607  1
  Pt  Pt20  1  0.141932  0.141932  0.143383  1
  Pt  Pt21  1  0.141932  0.141932  0.572752  1
  Pt  Pt22  1  0.141127  0.573831  0.142521  1
  Pt  Pt23  1  0.573831  0.141127  0.142521  1
