# generated using pymatgen
data_Ce4Al18(OsPt)3
_symmetry_space_group_name_H-M   'P 1'
_cell_length_a   7.67558558
_cell_length_b   7.67558527
_cell_length_c   9.48832000
_cell_angle_alpha   90.06257642
_cell_angle_beta   90.06257641
_cell_angle_gamma   119.37726250
_symmetry_Int_Tables_number   1
_chemical_formula_structural   Ce4Al18(OsPt)3
_chemical_formula_sum   'Ce4 Al18 Os3 Pt3'
_cell_volume   487.11684102
_cell_formula_units_Z   1
loop_
 _symmetry_equiv_pos_site_id
 _symmetry_equiv_pos_as_xyz
  1  'x, y, z'
loop_
 _atom_site_type_symbol
 _atom_site_label
 _atom_site_symmetry_multiplicity
 _atom_site_fract_x
 _atom_site_fract_y
 _atom_site_fract_z
 _atom_site_occupancy
  Ce  Ce0  1  0.993637  0.674459  0.247131  1
  Ce  Ce1  1  0.003165  0.324585  0.751928  1
  Ce  Ce2  1  0.675415  0.996835  0.248072  1
  Ce  Ce3  1  0.325541  0.006363  0.752869  1
  Al  Al4  1  0.128920  0.130526  0.249914  1
  Al  Al5  1  0.869474  0.871080  0.750086  1
  Al  Al6  1  0.998575  0.330983  0.074957  1
  Al  Al7  1  0.993805  0.662350  0.923379  1
  Al  Al8  1  0.997636  0.668508  0.577347  1
  Al  Al9  1  0.331492  0.002364  0.422653  1
  Al  Al10  1  0.002401  0.332918  0.423889  1
  Al  Al11  1  0.667082  0.997599  0.576111  1
  Al  Al12  1  0.669017  0.001425  0.925043  1
  Al  Al13  1  0.337650  0.006195  0.076621  1
  Al  Al14  1  0.330240  0.330924  0.553189  1
  Al  Al15  1  0.669076  0.669760  0.446811  1
  Al  Al16  1  0.670789  0.665002  0.046724  1
  Al  Al17  1  0.334998  0.329211  0.953276  1
  Al  Al18  1  0.342854  0.547924  0.249600  1
  Al  Al19  1  0.656185  0.450725  0.753199  1
  Al  Al20  1  0.549275  0.343815  0.246801  1
  Al  Al21  1  0.452076  0.657146  0.750400  1
  Os  Os22  1  0.672681  0.327319  0.000000  1
  Os  Os23  1  0.000879  0.999121  0.000000  1
  Os  Os24  1  0.999694  0.000306  0.500000  1
  Pt  Pt25  1  0.328356  0.671644  0.000000  1
  Pt  Pt26  1  0.327571  0.672429  0.500000  1
  Pt  Pt27  1  0.671518  0.328482  0.500000  1
