# generated using pymatgen
data_Er4Al18(CuOs)3
_symmetry_space_group_name_H-M   'P 1'
_cell_length_a   7.53050937
_cell_length_b   7.53050980
_cell_length_c   9.39955927
_cell_angle_alpha   90.14157992
_cell_angle_beta   90.14156837
_cell_angle_gamma   119.21413942
_symmetry_Int_Tables_number   1
_chemical_formula_structural   Er4Al18(CuOs)3
_chemical_formula_sum   'Er4 Al18 Cu3 Os3'
_cell_volume   465.22881305
_cell_formula_units_Z   1
loop_
 _symmetry_equiv_pos_site_id
 _symmetry_equiv_pos_as_xyz
  1  'x, y, z'
loop_
 _atom_site_type_symbol
 _atom_site_label
 _atom_site_symmetry_multiplicity
 _atom_site_fract_x
 _atom_site_fract_y
 _atom_site_fract_z
 _atom_site_occupancy
  Er  Er0  1  0.994599  0.673010  0.248364  1
  Er  Er1  1  0.005287  0.326207  0.750898  1
  Er  Er2  1  0.673793  0.994713  0.249102  1
  Er  Er3  1  0.326990  0.005401  0.751636  1
  Al  Al4  1  0.128105  0.129265  0.249991  1
  Al  Al5  1  0.870735  0.871895  0.750009  1
  Al  Al6  1  0.996208  0.330662  0.073578  1
  Al  Al7  1  0.996156  0.661621  0.925602  1
  Al  Al8  1  0.000190  0.667349  0.577171  1
  Al  Al9  1  0.332651  0.999810  0.422829  1
  Al  Al10  1  0.999996  0.334920  0.424757  1
  Al  Al11  1  0.665080  0.000004  0.575243  1
  Al  Al12  1  0.669338  0.003792  0.926422  1
  Al  Al13  1  0.338379  0.003844  0.074398  1
  Al  Al14  1  0.330840  0.332052  0.555441  1
  Al  Al15  1  0.667948  0.669160  0.444559  1
  Al  Al16  1  0.672065  0.667042  0.047336  1
  Al  Al17  1  0.332958  0.327935  0.952664  1
  Al  Al18  1  0.342040  0.552375  0.248632  1
  Al  Al19  1  0.656803  0.448711  0.752238  1
  Al  Al20  1  0.551289  0.343197  0.247762  1
  Al  Al21  1  0.447625  0.657960  0.751368  1
  Cu  Cu22  1  0.328199  0.671801  0.000000  1
  Cu  Cu23  1  0.327596  0.672404  0.500000  1
  Cu  Cu24  1  0.671455  0.328545  0.500000  1
  Os  Os25  1  0.672227  0.327773  0.000000  1
  Os  Os26  1  0.002011  0.997989  0.000000  1
  Os  Os27  1  0.999435  0.000565  0.500000  1
