# generated using pymatgen
data_Tb5Yb12Dy3Ge16
_symmetry_space_group_name_H-M   'P 1'
_cell_length_a   7.45584101
_cell_length_b   7.88932601
_cell_length_c   15.21768501
_cell_angle_alpha   90.00056570
_cell_angle_beta   89.99582014
_cell_angle_gamma   90.00448803
_symmetry_Int_Tables_number   1
_chemical_formula_structural   Tb5Yb12Dy3Ge16
_chemical_formula_sum   'Tb5 Yb12 Dy3 Ge16'
_cell_volume   895.12797256
_cell_formula_units_Z   1
loop_
 _symmetry_equiv_pos_site_id
 _symmetry_equiv_pos_as_xyz
  1  'x, y, z'
loop_
 _atom_site_type_symbol
 _atom_site_label
 _atom_site_symmetry_multiplicity
 _atom_site_fract_x
 _atom_site_fract_y
 _atom_site_fract_z
 _atom_site_occupancy
  Tb  Tb0  1  0.682710  0.827608  0.621302  1
  Tb  Tb1  1  0.317307  0.172429  0.378673  1
  Tb  Tb2  1  0.817316  0.327573  0.121318  1
  Tb  Tb3  1  0.182685  0.672397  0.621309  1
  Tb  Tb4  1  0.682692  0.827584  0.878700  1
  Yb  Yb5  1  0.977664  0.812744  0.404561  1
  Yb  Yb6  1  0.477653  0.687248  0.095433  1
  Yb  Yb7  1  0.522332  0.312761  0.595433  1
  Yb  Yb8  1  0.022353  0.187254  0.904571  1
  Yb  Yb9  1  0.022306  0.187256  0.595429  1
  Yb  Yb10  1  0.522287  0.312757  0.904570  1
  Yb  Yb11  1  0.477701  0.687237  0.404558  1
  Yb  Yb12  1  0.977711  0.812757  0.095433  1
  Yb  Yb13  1  0.346522  0.020028  0.750014  1
  Yb  Yb14  1  0.846555  0.479961  0.750005  1
  Yb  Yb15  1  0.153455  0.520016  0.249996  1
  Yb  Yb16  1  0.653453  0.979988  0.250005  1
  Dy  Dy17  1  0.317294  0.172353  0.121310  1
  Dy  Dy18  1  0.817292  0.327643  0.378689  1
  Dy  Dy19  1  0.182701  0.672347  0.878696  1
  Ge  Ge20  1  0.846900  0.533140  0.540209  1
  Ge  Ge21  1  0.346812  0.966796  0.959757  1
  Ge  Ge22  1  0.653170  0.033271  0.459706  1
  Ge  Ge23  1  0.153193  0.466793  0.040241  1
  Ge  Ge24  1  0.152974  0.466764  0.459715  1
  Ge  Ge25  1  0.652971  0.033225  0.040286  1
  Ge  Ge26  1  0.346935  0.966814  0.540262  1
  Ge  Ge27  1  0.847027  0.533229  0.959715  1
  Ge  Ge28  1  0.978962  0.882371  0.750020  1
  Ge  Ge29  1  0.478831  0.617587  0.750042  1
  Ge  Ge30  1  0.521103  0.382346  0.250021  1
  Ge  Ge31  1  0.021101  0.117658  0.249980  1
  Ge  Ge32  1  0.237302  0.384697  0.750037  1
  Ge  Ge33  1  0.737335  0.115365  0.750006  1
  Ge  Ge34  1  0.262697  0.884695  0.249970  1
  Ge  Ge35  1  0.762697  0.615308  0.250029  1
