# generated using pymatgen
data_YHo3(ZrPb)6
_symmetry_space_group_name_H-M   'P 1'
_cell_length_a   8.83135196
_cell_length_b   8.78594890
_cell_length_c   6.09972200
_cell_angle_alpha   90.00000000
_cell_angle_beta   90.00000000
_cell_angle_gamma   119.65234505
_symmetry_Int_Tables_number   1
_chemical_formula_structural   YHo3(ZrPb)6
_chemical_formula_sum   'Y1 Ho3 Zr6 Pb6'
_cell_volume   411.30816042
_cell_formula_units_Z   1
loop_
 _symmetry_equiv_pos_site_id
 _symmetry_equiv_pos_as_xyz
  1  'x, y, z'
loop_
 _atom_site_type_symbol
 _atom_site_label
 _atom_site_symmetry_multiplicity
 _atom_site_fract_x
 _atom_site_fract_y
 _atom_site_fract_z
 _atom_site_occupancy
  Y  Y0  1  0.001735  0.763835  0.750000  1
  Ho  Ho1  1  0.756456  0.755060  0.250000  1
  Ho  Ho2  1  0.002717  0.237337  0.250000  1
  Ho  Ho3  1  0.758224  0.001996  0.750000  1
  Zr  Zr4  1  0.331054  0.665777  0.499828  1
  Zr  Zr5  1  0.248649  0.002737  0.250000  1
  Zr  Zr6  1  0.662574  0.331368  0.500203  1
  Zr  Zr7  1  0.331054  0.665777  0.000172  1
  Zr  Zr8  1  0.250123  0.247732  0.750000  1
  Zr  Zr9  1  0.662574  0.331368  0.999797  1
  Pb  Pb10  1  0.600611  0.601894  0.750000  1
  Pb  Pb11  1  0.394842  0.001955  0.750000  1
  Pb  Pb12  1  0.600235  0.999569  0.250000  1
  Pb  Pb13  1  0.003092  0.395673  0.750000  1
  Pb  Pb14  1  0.393085  0.391544  0.250000  1
  Pb  Pb15  1  0.002974  0.606378  0.250000  1
