# generated using pymatgen
data_Sm8SiPtBr12
_symmetry_space_group_name_H-M   'P 1'
_cell_length_a   4.13934100
_cell_length_b   13.61412105
_cell_length_c   14.42043405
_cell_angle_alpha   90.00971150
_cell_angle_beta   90.00000000
_cell_angle_gamma   90.00000000
_symmetry_Int_Tables_number   1
_chemical_formula_structural   Sm8SiPtBr12
_chemical_formula_sum   'Sm8 Si1 Pt1 Br12'
_cell_volume   812.64176634
_cell_formula_units_Z   1
loop_
 _symmetry_equiv_pos_site_id
 _symmetry_equiv_pos_as_xyz
  1  'x, y, z'
loop_
 _atom_site_type_symbol
 _atom_site_label
 _atom_site_symmetry_multiplicity
 _atom_site_fract_x
 _atom_site_fract_y
 _atom_site_fract_z
 _atom_site_occupancy
  Sm  Sm0  1  0.500000  0.119432  0.340049  1
  Sm  Sm1  1  0.500000  0.880568  0.659951  1
  Sm  Sm2  1  0.500000  0.618159  0.158775  1
  Sm  Sm3  1  0.500000  0.381841  0.841225  1
  Sm  Sm4  1  0.000000  0.117759  0.579095  1
  Sm  Sm5  1  0.000000  0.882241  0.420905  1
  Sm  Sm6  1  0.000000  0.618286  0.921228  1
  Sm  Sm7  1  0.000000  0.381714  0.078772  1
  Si  Si8  1  0.500000  0.500000  0.000000  1
  Pt  Pt9  1  0.500000  0.000000  0.500000  1
  Br  Br10  1  0.500000  0.244552  0.161800  1
  Br  Br11  1  0.500000  0.755448  0.838200  1
  Br  Br12  1  0.500000  0.740643  0.335337  1
  Br  Br13  1  0.500000  0.259357  0.664663  1
  Br  Br14  1  0.000000  0.256435  0.410317  1
  Br  Br15  1  0.000000  0.743565  0.589683  1
  Br  Br16  1  0.000000  0.753651  0.088288  1
  Br  Br17  1  0.000000  0.246349  0.911712  1
  Br  Br18  1  0.000000  0.002367  0.241895  1
  Br  Br19  1  0.000000  0.997633  0.758105  1
  Br  Br20  1  0.000000  0.501543  0.254879  1
  Br  Br21  1  0.000000  0.498457  0.745121  1
