# generated using pymatgen
data_Zr2Nb4FeB4Ru9
_symmetry_space_group_name_H-M   'P 1'
_cell_length_a   9.41470274
_cell_length_b   9.41470268
_cell_length_c   3.07799800
_cell_angle_alpha   90.00000000
_cell_angle_beta   90.00000000
_cell_angle_gamma   89.80145130
_symmetry_Int_Tables_number   1
_chemical_formula_structural   Zr2Nb4FeB4Ru9
_chemical_formula_sum   'Zr2 Nb4 Fe1 B4 Ru9'
_cell_volume   272.82172281
_cell_formula_units_Z   1
loop_
 _symmetry_equiv_pos_site_id
 _symmetry_equiv_pos_as_xyz
  1  'x, y, z'
loop_
 _atom_site_type_symbol
 _atom_site_label
 _atom_site_symmetry_multiplicity
 _atom_site_fract_x
 _atom_site_fract_y
 _atom_site_fract_z
 _atom_site_occupancy
  Zr  Zr0  1  0.821920  0.678080  0.000000  1
  Zr  Zr1  1  0.178080  0.321920  0.000000  1
  Nb  Nb2  1  0.329388  0.829388  0.000000  1
  Nb  Nb3  1  0.670612  0.170612  0.000000  1
  Nb  Nb4  1  0.500000  0.500000  0.000000  1
  Nb  Nb5  1  0.000000  0.000000  0.000000  1
  Fe  Fe6  1  0.500000  0.000000  0.500000  1
  B  B7  1  0.611838  0.888162  0.000000  1
  B  B8  1  0.388162  0.111838  0.000000  1
  B  B9  1  0.122168  0.622168  0.000000  1
  B  B10  1  0.877832  0.377832  0.000000  1
  Ru  Ru11  1  0.564198  0.725665  0.500000  1
  Ru  Ru12  1  0.435802  0.274335  0.500000  1
  Ru  Ru13  1  0.074310  0.783749  0.500000  1
  Ru  Ru14  1  0.925690  0.216251  0.500000  1
  Ru  Ru15  1  0.283749  0.574310  0.500000  1
  Ru  Ru16  1  0.716251  0.425690  0.500000  1
  Ru  Ru17  1  0.225665  0.064198  0.500000  1
  Ru  Ru18  1  0.774335  0.935802  0.500000  1
  Ru  Ru19  1  0.000000  0.500000  0.500000  1
