# generated using pymatgen
data_YHf2PtF15
_symmetry_space_group_name_H-M   'P 1'
_cell_length_a   8.11260177
_cell_length_b   8.11260192
_cell_length_c   8.08378611
_cell_angle_alpha   79.66521379
_cell_angle_beta   79.66521878
_cell_angle_gamma   99.74154822
_symmetry_Int_Tables_number   1
_chemical_formula_structural   YHf2PtF15
_chemical_formula_sum   'Y2 Hf4 Pt2 F30'
_cell_volume   503.63494122
_cell_formula_units_Z   2
loop_
 _symmetry_equiv_pos_site_id
 _symmetry_equiv_pos_as_xyz
  1  'x, y, z'
loop_
 _atom_site_type_symbol
 _atom_site_label
 _atom_site_symmetry_multiplicity
 _atom_site_fract_x
 _atom_site_fract_y
 _atom_site_fract_z
 _atom_site_occupancy
  Y  Y0  1  0.177039  0.822961  0.250000  1
  Y  Y1  1  0.822961  0.177039  0.750000  1
  Hf  Hf2  1  0.742741  0.677331  0.670727  1
  Hf  Hf3  1  0.322669  0.257259  0.829273  1
  Hf  Hf4  1  0.257259  0.322669  0.329273  1
  Hf  Hf5  1  0.677331  0.742741  0.170727  1
  Pt  Pt6  1  0.749590  0.250410  0.250000  1
  Pt  Pt7  1  0.250410  0.749590  0.750000  1
  F  F8  1  0.313788  0.349388  0.057536  1
  F  F9  1  0.930723  0.809708  0.154777  1
  F  F10  1  0.837947  0.462570  0.685747  1
  F  F11  1  0.462570  0.837947  0.185747  1
  F  F12  1  0.809708  0.930723  0.654777  1
  F  F13  1  0.349388  0.313788  0.557535  1
  F  F14  1  0.686212  0.650612  0.942464  1
  F  F15  1  0.069277  0.190292  0.845223  1
  F  F16  1  0.162053  0.537430  0.314253  1
  F  F17  1  0.537430  0.162053  0.814253  1
  F  F18  1  0.190292  0.069277  0.345223  1
  F  F19  1  0.650612  0.686212  0.442464  1
  F  F20  1  0.774380  0.288285  0.999053  1
  F  F21  1  0.000162  0.274504  0.209044  1
  F  F22  1  0.786580  0.504373  0.221780  1
  F  F23  1  0.504373  0.786580  0.721780  1
  F  F24  1  0.274504  0.000162  0.709044  1
  F  F25  1  0.288285  0.774380  0.499053  1
  F  F26  1  0.225620  0.711715  0.000947  1
  F  F27  1  0.999838  0.725496  0.790956  1
  F  F28  1  0.213420  0.495627  0.778220  1
  F  F29  1  0.495627  0.213420  0.278220  1
  F  F30  1  0.725496  0.999838  0.290956  1
  F  F31  1  0.711715  0.225620  0.500947  1
  F  F32  1  0.473871  0.526129  0.250000  1
  F  F33  1  0.745460  0.953937  0.976491  1
  F  F34  1  0.046063  0.254540  0.523509  1
  F  F35  1  0.254540  0.046063  0.023509  1
  F  F36  1  0.953937  0.745460  0.476491  1
  F  F37  1  0.526129  0.473871  0.750000  1
