# generated using pymatgen
data_K3Bi(SeO4)3
_symmetry_space_group_name_H-M   'P 1'
_cell_length_a   9.99028654
_cell_length_b   9.99028681
_cell_length_c   9.99028700
_cell_angle_alpha   109.16846545
_cell_angle_beta   109.16847206
_cell_angle_gamma   109.16847991
_symmetry_Int_Tables_number   1
_chemical_formula_structural   K3Bi(SeO4)3
_chemical_formula_sum   'K6 Bi2 Se6 O24'
_cell_volume   776.04365769
_cell_formula_units_Z   2
loop_
 _symmetry_equiv_pos_site_id
 _symmetry_equiv_pos_as_xyz
  1  'x, y, z'
loop_
 _atom_site_type_symbol
 _atom_site_label
 _atom_site_symmetry_multiplicity
 _atom_site_fract_x
 _atom_site_fract_y
 _atom_site_fract_z
 _atom_site_occupancy
  K  K0  1  0.627180  0.146828  0.780546  1
  K  K1  1  0.780546  0.627180  0.146828  1
  K  K2  1  0.146828  0.780546  0.627180  1
  K  K3  1  0.372820  0.853172  0.219454  1
  K  K4  1  0.219454  0.372820  0.853172  1
  K  K5  1  0.853172  0.219454  0.372820  1
  Bi  Bi6  1  0.000000  0.000000  0.000000  1
  Bi  Bi7  1  0.500000  0.500000  0.500000  1
  Se  Se8  1  0.900981  0.555595  0.766992  1
  Se  Se9  1  0.766992  0.900981  0.555595  1
  Se  Se10  1  0.555595  0.766992  0.900981  1
  Se  Se11  1  0.099019  0.444405  0.233008  1
  Se  Se12  1  0.233008  0.099019  0.444405  1
  Se  Se13  1  0.444405  0.233008  0.099019  1
  O  O14  1  0.759828  0.521740  0.589975  1
  O  O15  1  0.589975  0.759828  0.521740  1
  O  O16  1  0.521740  0.589975  0.759828  1
  O  O17  1  0.240172  0.478260  0.410025  1
  O  O18  1  0.410025  0.240172  0.478260  1
  O  O19  1  0.478260  0.410025  0.240172  1
  O  O20  1  0.817404  0.477554  0.860350  1
  O  O21  1  0.860350  0.817404  0.477554  1
  O  O22  1  0.477554  0.860350  0.817404  1
  O  O23  1  0.182596  0.522446  0.139650  1
  O  O24  1  0.139650  0.182596  0.522446  1
  O  O25  1  0.522446  0.139650  0.182596  1
  O  O26  1  0.018254  0.485389  0.719973  1
  O  O27  1  0.719973  0.018254  0.485389  1
  O  O28  1  0.485389  0.719973  0.018254  1
  O  O29  1  0.981746  0.514611  0.280027  1
  O  O30  1  0.280027  0.981746  0.514611  1
  O  O31  1  0.514611  0.280027  0.981746  1
  O  O32  1  0.019801  0.762326  0.883673  1
  O  O33  1  0.883673  0.019801  0.762326  1
  O  O34  1  0.762326  0.883673  0.019801  1
  O  O35  1  0.980199  0.237674  0.116327  1
  O  O36  1  0.116327  0.980199  0.237674  1
  O  O37  1  0.237674  0.116327  0.980199  1
