# generated using pymatgen
data_LaIn3IrAu2
_symmetry_space_group_name_H-M   'P 1'
_cell_length_a   4.58319400
_cell_length_b   7.59962400
_cell_length_c   9.14648200
_cell_angle_alpha   90.00000000
_cell_angle_beta   90.00000000
_cell_angle_gamma   90.00000000
_symmetry_Int_Tables_number   1
_chemical_formula_structural   LaIn3IrAu2
_chemical_formula_sum   'La2 In6 Ir2 Au4'
_cell_volume   318.57700886
_cell_formula_units_Z   2
loop_
 _symmetry_equiv_pos_site_id
 _symmetry_equiv_pos_as_xyz
  1  'x, y, z'
loop_
 _atom_site_type_symbol
 _atom_site_label
 _atom_site_symmetry_multiplicity
 _atom_site_fract_x
 _atom_site_fract_y
 _atom_site_fract_z
 _atom_site_occupancy
  La  La0  1  0.000000  0.500000  0.247844  1
  La  La1  1  0.500000  0.000000  0.752156  1
  In  In2  1  0.500000  0.500000  0.654572  1
  In  In3  1  0.000000  0.303110  0.889675  1
  In  In4  1  0.000000  0.696890  0.889675  1
  In  In5  1  0.500000  0.803110  0.110325  1
  In  In6  1  0.000000  0.000000  0.345428  1
  In  In7  1  0.500000  0.196890  0.110325  1
  Ir  Ir8  1  0.500000  0.500000  0.955180  1
  Ir  Ir9  1  0.000000  0.000000  0.044820  1
  Au  Au10  1  0.000000  0.749287  0.590797  1
  Au  Au11  1  0.000000  0.250713  0.590797  1
  Au  Au12  1  0.500000  0.750713  0.409203  1
  Au  Au13  1  0.500000  0.249287  0.409203  1
