# generated using pymatgen
data_Ce4HoTm5(Al2Ru3)2
_symmetry_space_group_name_H-M   'P 1'
_cell_length_a   8.37984072
_cell_length_b   8.38323209
_cell_length_c   8.38434766
_cell_angle_alpha   110.10411606
_cell_angle_beta   110.31928964
_cell_angle_gamma   109.79164444
_symmetry_Int_Tables_number   1
_chemical_formula_structural   Ce4HoTm5(Al2Ru3)2
_chemical_formula_sum   'Ce4 Ho1 Tm5 Al4 Ru6'
_cell_volume   443.04011472
_cell_formula_units_Z   1
loop_
 _symmetry_equiv_pos_site_id
 _symmetry_equiv_pos_as_xyz
  1  'x, y, z'
loop_
 _atom_site_type_symbol
 _atom_site_label
 _atom_site_symmetry_multiplicity
 _atom_site_fract_x
 _atom_site_fract_y
 _atom_site_fract_z
 _atom_site_occupancy
  Ce  Ce0  1  0.503822  0.993182  0.704622  1
  Ce  Ce1  1  0.255844  0.201950  0.947553  1
  Ce  Ce2  1  0.941214  0.249390  0.193020  1
  Ce  Ce3  1  0.196473  0.942936  0.248843  1
  Ho  Ho4  1  0.994310  0.722670  0.508310  1
  Tm  Tm5  1  0.775842  0.777316  0.777585  1
  Tm  Tm6  1  0.314521  0.565956  0.751511  1
  Tm  Tm7  1  0.756133  0.319333  0.567270  1
  Tm  Tm8  1  0.567036  0.746779  0.308044  1
  Tm  Tm9  1  0.723333  0.509924  0.997282  1
  Al  Al10  1  0.411300  0.408504  0.411615  1
  Al  Al11  1  0.096155  0.498947  0.004837  1
  Al  Al12  1  0.998517  0.094251  0.500995  1
  Al  Al13  1  0.498639  0.000073  0.092701  1
  Ru  Ru14  1  0.886470  0.117371  0.751879  1
  Ru  Ru15  1  0.752610  0.895392  0.118545  1
  Ru  Ru16  1  0.118537  0.754110  0.902082  1
  Ru  Ru17  1  0.236989  0.610096  0.380294  1
  Ru  Ru18  1  0.370348  0.223929  0.606860  1
  Ru  Ru19  1  0.601907  0.367892  0.226153  1
