# generated using pymatgen
data_HoEr4(SiBi)2
_symmetry_space_group_name_H-M   'P 1'
_cell_length_a   8.59191004
_cell_length_b   8.58822978
_cell_length_c   7.86550843
_cell_angle_alpha   89.97327726
_cell_angle_beta   89.99377671
_cell_angle_gamma   125.62196164
_symmetry_Int_Tables_number   1
_chemical_formula_structural   HoEr4(SiBi)2
_chemical_formula_sum   'Ho2 Er8 Si4 Bi4'
_cell_volume   471.78618970
_cell_formula_units_Z   2
loop_
 _symmetry_equiv_pos_site_id
 _symmetry_equiv_pos_as_xyz
  1  'x, y, z'
loop_
 _atom_site_type_symbol
 _atom_site_label
 _atom_site_symmetry_multiplicity
 _atom_site_fract_x
 _atom_site_fract_y
 _atom_site_fract_z
 _atom_site_occupancy
  Ho  Ho0  1  0.042501  0.286268  0.336014  1
  Ho  Ho1  1  0.957499  0.713732  0.663986  1
  Er  Er2  1  0.457324  0.214219  0.836096  1
  Er  Er3  1  0.785751  0.542687  0.163888  1
  Er  Er4  1  0.542676  0.785781  0.163904  1
  Er  Er5  1  0.214249  0.457313  0.836112  1
  Er  Er6  1  0.714141  0.957316  0.663878  1
  Er  Er7  1  0.285859  0.042684  0.336122  1
  Er  Er8  1  0.000000  0.000000  0.000000  1
  Er  Er9  1  0.500000  0.500000  0.500000  1
  Si  Si10  1  0.365069  0.364800  0.133837  1
  Si  Si11  1  0.634931  0.635200  0.866163  1
  Si  Si12  1  0.135402  0.135430  0.634228  1
  Si  Si13  1  0.864598  0.864570  0.365772  1
  Bi  Bi14  1  0.792387  0.207398  0.999711  1
  Bi  Bi15  1  0.207614  0.792602  0.000289  1
  Bi  Bi16  1  0.706948  0.292227  0.499919  1
  Bi  Bi17  1  0.293052  0.707773  0.500081  1
