# generated using pymatgen
data_Nd8Be3CoSi12
_symmetry_space_group_name_H-M   'P 1'
_cell_length_a   7.98949800
_cell_length_b   7.98949780
_cell_length_c   8.59149100
_cell_angle_alpha   90.00000000
_cell_angle_beta   90.00000000
_cell_angle_gamma   120.00000083
_symmetry_Int_Tables_number   1
_chemical_formula_structural   Nd8Be3CoSi12
_chemical_formula_sum   'Nd8 Be3 Co1 Si12'
_cell_volume   474.93933672
_cell_formula_units_Z   1
loop_
 _symmetry_equiv_pos_site_id
 _symmetry_equiv_pos_as_xyz
  1  'x, y, z'
loop_
 _atom_site_type_symbol
 _atom_site_label
 _atom_site_symmetry_multiplicity
 _atom_site_fract_x
 _atom_site_fract_y
 _atom_site_fract_z
 _atom_site_occupancy
  Nd  Nd0  1  0.000000  0.000000  0.750027  1
  Nd  Nd1  1  0.000000  0.000000  0.250017  1
  Nd  Nd2  1  0.499198  0.500802  0.750460  1
  Nd  Nd3  1  0.499198  0.998399  0.750460  1
  Nd  Nd4  1  0.001601  0.500802  0.750460  1
  Nd  Nd5  1  0.499531  0.500469  0.249436  1
  Nd  Nd6  1  0.000939  0.500469  0.249436  1
  Nd  Nd7  1  0.499531  0.999061  0.249436  1
  Be  Be8  1  0.666667  0.333333  0.999224  1
  Be  Be9  1  0.666667  0.333333  0.501395  1
  Be  Be10  1  0.333333  0.666667  0.498374  1
  Co  Co11  1  0.333333  0.666667  0.001509  1
  Si  Si12  1  0.831254  0.168746  0.999767  1
  Si  Si13  1  0.831254  0.662507  0.999767  1
  Si  Si14  1  0.337493  0.168746  0.999767  1
  Si  Si15  1  0.827921  0.172079  0.500095  1
  Si  Si16  1  0.827921  0.655843  0.500095  1
  Si  Si17  1  0.344157  0.172079  0.500095  1
  Si  Si18  1  0.172514  0.827486  0.499964  1
  Si  Si19  1  0.654973  0.827486  0.499964  1
  Si  Si20  1  0.172514  0.345027  0.499964  1
  Si  Si21  1  0.174789  0.825211  0.000095  1
  Si  Si22  1  0.650423  0.825211  0.000095  1
  Si  Si23  1  0.174789  0.349577  0.000095  1
