# generated using pymatgen
data_SrGaSn2Pt
_symmetry_space_group_name_H-M   'P 1'
_cell_length_a   6.46866192
_cell_length_b   6.46866157
_cell_length_c   6.46866028
_cell_angle_alpha   136.89430129
_cell_angle_beta   136.89429828
_cell_angle_gamma   62.60072694
_symmetry_Int_Tables_number   1
_chemical_formula_structural   SrGaSn2Pt
_chemical_formula_sum   'Sr1 Ga1 Sn2 Pt1'
_cell_volume   124.84603485
_cell_formula_units_Z   1
loop_
 _symmetry_equiv_pos_site_id
 _symmetry_equiv_pos_as_xyz
  1  'x, y, z'
loop_
 _atom_site_type_symbol
 _atom_site_label
 _atom_site_symmetry_multiplicity
 _atom_site_fract_x
 _atom_site_fract_y
 _atom_site_fract_z
 _atom_site_occupancy
  Sr  Sr0  1  0.000991  0.000991  0.000000  1
  Ga  Ga1  1  0.590943  0.590943  0.000000  1
  Sn  Sn2  1  0.248965  0.748965  0.500000  1
  Sn  Sn3  1  0.748965  0.248965  0.500000  1
  Pt  Pt4  1  0.369138  0.369138  0.000000  1
