# generated using pymatgen
data_La11Pr9(IrPt2)4
_symmetry_space_group_name_H-M   'P 1'
_cell_length_a   11.54514041
_cell_length_b   11.60990074
_cell_length_c   6.63430272
_cell_angle_alpha   89.97895256
_cell_angle_beta   89.91978272
_cell_angle_gamma   90.07610207
_symmetry_Int_Tables_number   1
_chemical_formula_structural   La11Pr9(IrPt2)4
_chemical_formula_sum   'La11 Pr9 Ir4 Pt8'
_cell_volume   889.24651593
_cell_formula_units_Z   1
loop_
 _symmetry_equiv_pos_site_id
 _symmetry_equiv_pos_as_xyz
  1  'x, y, z'
loop_
 _atom_site_type_symbol
 _atom_site_label
 _atom_site_symmetry_multiplicity
 _atom_site_fract_x
 _atom_site_fract_y
 _atom_site_fract_z
 _atom_site_occupancy
  La  La0  1  0.295146  0.090046  0.375570  1
  La  La1  1  0.295242  0.909656  0.875455  1
  La  La2  1  0.704780  0.090355  0.875692  1
  La  La3  1  0.704967  0.909291  0.376040  1
  La  La4  1  0.590744  0.794840  0.876871  1
  La  La5  1  0.590441  0.204853  0.377483  1
  La  La6  1  0.409772  0.794959  0.376825  1
  La  La7  1  0.409872  0.205110  0.877043  1
  La  La8  1  0.202540  0.410430  0.623208  1
  La  La9  1  0.202670  0.589424  0.123589  1
  La  La10  1  0.797665  0.411330  0.123499  1
  Pr  Pr11  1  0.796077  0.589595  0.624567  1
  Pr  Pr12  1  0.910641  0.706181  0.124382  1
  Pr  Pr13  1  0.911184  0.294701  0.624116  1
  Pr  Pr14  1  0.087546  0.705886  0.624187  1
  Pr  Pr15  1  0.089005  0.293236  0.124107  1
  Pr  Pr16  1  0.999777  0.999921  0.499526  1
  Pr  Pr17  1  0.999948  0.000092  0.999639  1
  Pr  Pr18  1  0.500199  0.500039  0.000535  1
  Pr  Pr19  1  0.500555  0.500118  0.501198  1
  Ir  Ir20  1  0.499952  0.000052  0.114786  1
  Ir  Ir21  1  0.500034  0.999938  0.614674  1
  Ir  Ir22  1  0.000684  0.499805  0.887123  1
  Ir  Ir23  1  0.000461  0.499805  0.384881  1
  Pt  Pt24  1  0.846307  0.153805  0.249290  1
  Pt  Pt25  1  0.846101  0.846212  0.749149  1
  Pt  Pt26  1  0.153808  0.153567  0.748868  1
  Pt  Pt27  1  0.153538  0.846299  0.249125  1
  Pt  Pt28  1  0.654498  0.346083  0.749570  1
  Pt  Pt29  1  0.653989  0.654375  0.249267  1
  Pt  Pt30  1  0.346057  0.345418  0.249969  1
  Pt  Pt31  1  0.345802  0.654578  0.749767  1
