# generated using pymatgen
data_Sr2PrDy(Ir2O7)2
_symmetry_space_group_name_H-M   'P 1'
_cell_length_a   7.40015307
_cell_length_b   7.41085715
_cell_length_c   7.40015282
_cell_angle_alpha   59.97774344
_cell_angle_beta   59.69354291
_cell_angle_gamma   59.97773386
_symmetry_Int_Tables_number   1
_chemical_formula_structural   Sr2PrDy(Ir2O7)2
_chemical_formula_sum   'Sr2 Pr1 Dy1 Ir4 O14'
_cell_volume   286.20244788
_cell_formula_units_Z   1
loop_
 _symmetry_equiv_pos_site_id
 _symmetry_equiv_pos_as_xyz
  1  'x, y, z'
loop_
 _atom_site_type_symbol
 _atom_site_label
 _atom_site_symmetry_multiplicity
 _atom_site_fract_x
 _atom_site_fract_y
 _atom_site_fract_z
 _atom_site_occupancy
  Sr  Sr0  1  0.125000  0.125000  0.625000  1
  Sr  Sr1  1  0.625000  0.125000  0.125000  1
  Pr  Pr2  1  0.125000  0.625000  0.125000  1
  Dy  Dy3  1  0.125000  0.125000  0.125000  1
  Ir  Ir4  1  0.625000  0.625000  0.625000  1
  Ir  Ir5  1  0.125000  0.625000  0.625000  1
  Ir  Ir6  1  0.625000  0.125000  0.625000  1
  Ir  Ir7  1  0.625000  0.625000  0.125000  1
  O  O8  1  0.951599  0.554965  0.544568  1
  O  O9  1  0.297813  0.299491  0.713080  1
  O  O10  1  0.953443  0.540704  0.953443  1
  O  O11  1  0.713080  0.299491  0.297813  1
  O  O12  1  0.544568  0.554965  0.951599  1
  O  O13  1  0.553608  0.946946  0.553608  1
  O  O14  1  0.536920  0.950509  0.952187  1
  O  O15  1  0.238130  0.252205  0.238130  1
  O  O16  1  0.298401  0.695035  0.705432  1
  O  O17  1  0.696392  0.303054  0.696392  1
  O  O18  1  0.011870  0.997795  0.011870  1
  O  O19  1  0.952187  0.950509  0.536920  1
  O  O20  1  0.296557  0.709296  0.296557  1
  O  O21  1  0.705432  0.695035  0.298401  1
