# generated using pymatgen
data_Tb12GaSi4Sn
_symmetry_space_group_name_H-M   'P 1'
_cell_length_a   8.51255782
_cell_length_b   8.51216502
_cell_length_c   8.51255819
_cell_angle_alpha   105.12699328
_cell_angle_beta   111.13967129
_cell_angle_gamma   112.23630575
_symmetry_Int_Tables_number   1
_chemical_formula_structural   Tb12GaSi4Sn
_chemical_formula_sum   'Tb12 Ga1 Si4 Sn1'
_cell_volume   472.74518886
_cell_formula_units_Z   1
loop_
 _symmetry_equiv_pos_site_id
 _symmetry_equiv_pos_as_xyz
  1  'x, y, z'
loop_
 _atom_site_type_symbol
 _atom_site_label
 _atom_site_symmetry_multiplicity
 _atom_site_fract_x
 _atom_site_fract_y
 _atom_site_fract_z
 _atom_site_occupancy
  Tb  Tb0  1  0.699240  0.265836  0.965083  1
  Tb  Tb1  1  0.300760  0.734164  0.034917  1
  Tb  Tb2  1  0.699247  0.734164  0.433405  1
  Tb  Tb3  1  0.300753  0.265836  0.566595  1
  Tb  Tb4  1  0.797372  0.117617  0.320246  1
  Tb  Tb5  1  0.797374  0.477119  0.679744  1
  Tb  Tb6  1  0.202628  0.882383  0.679754  1
  Tb  Tb7  1  0.202626  0.522881  0.320256  1
  Tb  Tb8  1  0.590563  0.773013  0.817543  1
  Tb  Tb9  1  0.955469  0.773013  0.182449  1
  Tb  Tb10  1  0.044531  0.226987  0.817551  1
  Tb  Tb11  1  0.409437  0.226987  0.182457  1
  Ga  Ga12  1  0.500000  0.500000  0.000000  1
  Si  Si13  1  0.870145  0.500000  0.370145  1
  Si  Si14  1  0.129855  0.500000  0.629855  1
  Si  Si15  1  0.999996  0.114960  0.114963  1
  Si  Si16  1  0.000004  0.885040  0.885037  1
  Sn  Sn17  1  0.500000  0.000000  0.500000  1
