# generated using pymatgen
data_Tm8Ga(Si5W4)3
_symmetry_space_group_name_H-M   'P 1'
_cell_length_a   6.73060509
_cell_length_b   6.90599056
_cell_length_c   12.90051153
_cell_angle_alpha   90.12497867
_cell_angle_beta   89.97894461
_cell_angle_gamma   90.04424906
_symmetry_Int_Tables_number   1
_chemical_formula_structural   Tm8Ga(Si5W4)3
_chemical_formula_sum   'Tm8 Ga1 Si15 W12'
_cell_volume   599.63341943
_cell_formula_units_Z   1
loop_
 _symmetry_equiv_pos_site_id
 _symmetry_equiv_pos_as_xyz
  1  'x, y, z'
loop_
 _atom_site_type_symbol
 _atom_site_label
 _atom_site_symmetry_multiplicity
 _atom_site_fract_x
 _atom_site_fract_y
 _atom_site_fract_z
 _atom_site_occupancy
  Tm  Tm0  1  0.996818  0.169514  0.093155  1
  Tm  Tm1  1  0.003256  0.831160  0.907311  1
  Tm  Tm2  1  0.502776  0.668594  0.907209  1
  Tm  Tm3  1  0.004366  0.831601  0.592627  1
  Tm  Tm4  1  0.495754  0.331407  0.093009  1
  Tm  Tm5  1  0.995977  0.167601  0.406445  1
  Tm  Tm6  1  0.497675  0.331835  0.405946  1
  Tm  Tm7  1  0.507608  0.669146  0.593659  1
  Ga  Ga8  1  0.168722  0.458847  0.544645  1
  Si  Si9  1  0.032418  0.128540  0.749262  1
  Si  Si10  1  0.966438  0.874380  0.248082  1
  Si  Si11  1  0.467393  0.629603  0.249645  1
  Si  Si12  1  0.530172  0.371157  0.750629  1
  Si  Si13  1  0.300592  0.860466  0.750322  1
  Si  Si14  1  0.698733  0.137246  0.249788  1
  Si  Si15  1  0.198357  0.365102  0.250199  1
  Si  Si16  1  0.802738  0.636209  0.750279  1
  Si  Si17  1  0.838106  0.542000  0.453887  1
  Si  Si18  1  0.338235  0.958079  0.453851  1
  Si  Si19  1  0.836850  0.541677  0.046021  1
  Si  Si20  1  0.662981  0.041623  0.546414  1
  Si  Si21  1  0.162520  0.457217  0.954706  1
  Si  Si22  1  0.661922  0.041160  0.953749  1
  Si  Si23  1  0.336879  0.958182  0.046454  1
  W  W24  1  0.163140  0.497735  0.753053  1
  W  W25  1  0.835329  0.501032  0.249596  1
  W  W26  1  0.334584  0.002248  0.249428  1
  W  W27  1  0.665857  0.998833  0.750722  1
  W  W28  1  0.332294  0.154983  0.627643  1
  W  W29  1  0.672780  0.838617  0.374569  1
  W  W30  1  0.168026  0.668315  0.369864  1
  W  W31  1  0.670113  0.838495  0.125422  1
  W  W32  1  0.823877  0.338432  0.627129  1
  W  W33  1  0.328040  0.159850  0.875709  1
  W  W34  1  0.827622  0.337851  0.875426  1
  W  W35  1  0.171051  0.661261  0.124146  1
