# generated using pymatgen
data_Sr2Pr2Ga9SiPt6
_symmetry_space_group_name_H-M   'P 1'
_cell_length_a   8.62930609
_cell_length_b   8.71941970
_cell_length_c   8.71941859
_cell_angle_alpha   138.78168585
_cell_angle_beta   106.88607178
_cell_angle_gamma   87.70260354
_symmetry_Int_Tables_number   1
_chemical_formula_structural   Sr2Pr2Ga9SiPt6
_chemical_formula_sum   'Sr2 Pr2 Ga9 Si1 Pt6'
_cell_volume   396.76109506
_cell_formula_units_Z   1
loop_
 _symmetry_equiv_pos_site_id
 _symmetry_equiv_pos_as_xyz
  1  'x, y, z'
loop_
 _atom_site_type_symbol
 _atom_site_label
 _atom_site_symmetry_multiplicity
 _atom_site_fract_x
 _atom_site_fract_y
 _atom_site_fract_z
 _atom_site_occupancy
  Sr  Sr0  1  0.865808  0.629736  0.236072  1
  Sr  Sr1  1  0.134660  0.369754  0.764906  1
  Pr  Pr2  1  0.395174  0.130129  0.265046  1
  Pr  Pr3  1  0.597759  0.867798  0.729961  1
  Ga  Ga4  1  0.501796  0.748225  0.245923  1
  Ga  Ga5  1  0.501796  0.255872  0.753571  1
  Ga  Ga6  1  0.231973  0.968666  0.746448  1
  Ga  Ga7  1  0.766225  0.521140  0.745966  1
  Ga  Ga8  1  0.766225  0.020259  0.245085  1
  Ga  Ga9  1  0.231973  0.485525  0.263308  1
  Ga  Ga10  1  0.041440  0.892987  0.148453  1
  Ga  Ga11  1  0.956126  0.103288  0.852838  1
  Ga  Ga12  1  0.742581  0.391680  0.350900  1
  Si  Si13  1  0.254999  0.606654  0.648346  1
  Pt  Pt14  1  0.011020  0.749088  0.751814  1
  Pt  Pt15  1  0.011020  0.259206  0.261932  1
  Pt  Pt16  1  0.256380  0.866308  0.390072  1
  Pt  Pt17  1  0.749100  0.136049  0.613050  1
  Pt  Pt18  1  0.472702  0.362033  0.110669  1
  Pt  Pt19  1  0.511246  0.635605  0.875640  1
