# generated using pymatgen
data_RbIn8GaRh2
_symmetry_space_group_name_H-M   'P 1'
_cell_length_a   8.91626379
_cell_length_b   9.01776264
_cell_length_c   4.30892400
_cell_angle_alpha   90.00000000
_cell_angle_beta   90.00000000
_cell_angle_gamma   120.37728907
_symmetry_Int_Tables_number   1
_chemical_formula_structural   RbIn8GaRh2
_chemical_formula_sum   'Rb1 In8 Ga1 Rh2'
_cell_volume   298.89419503
_cell_formula_units_Z   1
loop_
 _symmetry_equiv_pos_site_id
 _symmetry_equiv_pos_as_xyz
  1  'x, y, z'
loop_
 _atom_site_type_symbol
 _atom_site_label
 _atom_site_symmetry_multiplicity
 _atom_site_fract_x
 _atom_site_fract_y
 _atom_site_fract_z
 _atom_site_occupancy
  Rb  Rb0  1  0.000000  0.000000  0.000000  1
  In  In1  1  0.585192  0.792595  0.500000  1
  In  In2  1  0.200524  0.787452  0.500000  1
  In  In3  1  0.200524  0.413071  0.500000  1
  In  In4  1  0.799476  0.586929  0.500000  1
  In  In5  1  0.799476  0.212548  0.500000  1
  In  In6  1  0.414808  0.207405  0.500000  1
  In  In7  1  0.500000  0.500000  0.000000  1
  In  In8  1  0.500000  0.000000  0.000000  1
  Ga  Ga9  1  0.000000  0.500000  0.000000  1
  Rh  Rh10  1  0.319524  0.659762  0.000000  1
  Rh  Rh11  1  0.680476  0.340238  0.000000  1
