# generated using pymatgen
data_Np2BeB2Ru5
_symmetry_space_group_name_H-M   'P 1'
_cell_length_a   9.32742700
_cell_length_b   9.32742700
_cell_length_c   3.05977900
_cell_angle_alpha   90.00000000
_cell_angle_beta   90.00000000
_cell_angle_gamma   90.00000000
_symmetry_Int_Tables_number   1
_chemical_formula_structural   Np2BeB2Ru5
_chemical_formula_sum   'Np4 Be2 B4 Ru10'
_cell_volume   266.20350979
_cell_formula_units_Z   2
loop_
 _symmetry_equiv_pos_site_id
 _symmetry_equiv_pos_as_xyz
  1  'x, y, z'
loop_
 _atom_site_type_symbol
 _atom_site_label
 _atom_site_symmetry_multiplicity
 _atom_site_fract_x
 _atom_site_fract_y
 _atom_site_fract_z
 _atom_site_occupancy
  Np  Np0  1  0.675225  0.175225  0.000000  1
  Np  Np1  1  0.324775  0.824775  0.000000  1
  Np  Np2  1  0.175225  0.324775  0.000000  1
  Np  Np3  1  0.824775  0.675225  0.000000  1
  Be  Be4  1  0.000000  0.000000  0.000000  1
  Be  Be5  1  0.500000  0.500000  0.000000  1
  B  B6  1  0.125956  0.625956  0.000000  1
  B  B7  1  0.874044  0.374044  0.000000  1
  B  B8  1  0.625956  0.874044  0.000000  1
  B  B9  1  0.374044  0.125956  0.000000  1
  Ru  Ru10  1  0.210052  0.071944  0.500000  1
  Ru  Ru11  1  0.789948  0.928056  0.500000  1
  Ru  Ru12  1  0.071944  0.789948  0.500000  1
  Ru  Ru13  1  0.710052  0.428056  0.500000  1
  Ru  Ru14  1  0.928056  0.210052  0.500000  1
  Ru  Ru15  1  0.289948  0.571944  0.500000  1
  Ru  Ru16  1  0.571944  0.710052  0.500000  1
  Ru  Ru17  1  0.428056  0.289948  0.500000  1
  Ru  Ru18  1  0.500000  0.000000  0.500000  1
  Ru  Ru19  1  0.000000  0.500000  0.500000  1
