# generated using pymatgen
data_ErLu5(Si3Ru)8
_symmetry_space_group_name_H-M   'P 1'
_cell_length_a   10.09134187
_cell_length_b   10.09134190
_cell_length_c   8.08972304
_cell_angle_alpha   90.00467814
_cell_angle_beta   90.00467645
_cell_angle_gamma   132.78749210
_symmetry_Int_Tables_number   1
_chemical_formula_structural   ErLu5(Si3Ru)8
_chemical_formula_sum   'Er1 Lu5 Si24 Ru8'
_cell_volume   604.58233611
_cell_formula_units_Z   1
loop_
 _symmetry_equiv_pos_site_id
 _symmetry_equiv_pos_as_xyz
  1  'x, y, z'
loop_
 _atom_site_type_symbol
 _atom_site_label
 _atom_site_symmetry_multiplicity
 _atom_site_fract_x
 _atom_site_fract_y
 _atom_site_fract_z
 _atom_site_occupancy
  Er  Er0  1  0.000000  0.000000  0.000000  1
  Lu  Lu1  1  0.497392  0.997404  0.250025  1
  Lu  Lu2  1  0.002596  0.502608  0.749975  1
  Lu  Lu3  1  0.502608  0.002596  0.749975  1
  Lu  Lu4  1  0.997404  0.497392  0.250025  1
  Lu  Lu5  1  0.500000  0.500000  0.500000  1
  Si  Si6  1  0.388318  0.154590  0.005073  1
  Si  Si7  1  0.654580  0.888305  0.494695  1
  Si  Si8  1  0.111695  0.345420  0.505305  1
  Si  Si9  1  0.845410  0.611682  0.994927  1
  Si  Si10  1  0.611682  0.845410  0.994927  1
  Si  Si11  1  0.345420  0.111695  0.505305  1
  Si  Si12  1  0.888305  0.654580  0.494695  1
  Si  Si13  1  0.154590  0.388318  0.005073  1
  Si  Si14  1  0.612667  0.378160  0.228794  1
  Si  Si15  1  0.878378  0.112865  0.271463  1
  Si  Si16  1  0.887135  0.121622  0.728537  1
  Si  Si17  1  0.621840  0.387333  0.771206  1
  Si  Si18  1  0.387333  0.621840  0.771206  1
  Si  Si19  1  0.121622  0.887135  0.728537  1
  Si  Si20  1  0.704735  0.295265  0.000000  1
  Si  Si21  1  0.795064  0.204936  0.500000  1
  Si  Si22  1  0.295265  0.704735  0.000000  1
  Si  Si23  1  0.204936  0.795064  0.500000  1
  Si  Si24  1  0.167459  0.167459  0.333017  1
  Si  Si25  1  0.667718  0.667718  0.166785  1
  Si  Si26  1  0.332282  0.332282  0.833215  1
  Si  Si27  1  0.832541  0.832541  0.666983  1
  Si  Si28  1  0.378160  0.612667  0.228794  1
  Si  Si29  1  0.112865  0.878378  0.271463  1
  Ru  Ru30  1  0.626116  0.626116  0.871439  1
  Ru  Ru31  1  0.127901  0.127901  0.627258  1
  Ru  Ru32  1  0.872099  0.872099  0.372742  1
  Ru  Ru33  1  0.373884  0.373884  0.128561  1
  Ru  Ru34  1  0.329894  0.670106  0.500000  1
  Ru  Ru35  1  0.170517  0.829483  0.000000  1
  Ru  Ru36  1  0.670106  0.329894  0.500000  1
  Ru  Ru37  1  0.829483  0.170517  0.000000  1
