# generated using pymatgen
data_Pr2Nd2MnOs7
_symmetry_space_group_name_H-M   'P 1'
_cell_length_a   5.41793037
_cell_length_b   5.41792975
_cell_length_c   8.96932700
_cell_angle_alpha   90.01890230
_cell_angle_beta   89.98111191
_cell_angle_gamma   119.87333021
_symmetry_Int_Tables_number   1
_chemical_formula_structural   Pr2Nd2MnOs7
_chemical_formula_sum   'Pr2 Nd2 Mn1 Os7'
_cell_volume   228.30223827
_cell_formula_units_Z   1
loop_
 _symmetry_equiv_pos_site_id
 _symmetry_equiv_pos_as_xyz
  1  'x, y, z'
loop_
 _atom_site_type_symbol
 _atom_site_label
 _atom_site_symmetry_multiplicity
 _atom_site_fract_x
 _atom_site_fract_y
 _atom_site_fract_z
 _atom_site_occupancy
  Pr  Pr0  1  0.333372  0.666628  0.070624  1
  Pr  Pr1  1  0.666628  0.333372  0.929376  1
  Nd  Nd2  1  0.666634  0.333366  0.564796  1
  Nd  Nd3  1  0.333366  0.666634  0.435204  1
  Mn  Mn4  1  0.000000  0.000000  0.000000  1
  Os  Os5  1  0.000000  0.000000  0.500000  1
  Os  Os6  1  0.169731  0.339464  0.750466  1
  Os  Os7  1  0.170010  0.829990  0.750495  1
  Os  Os8  1  0.660536  0.830269  0.750466  1
  Os  Os9  1  0.830269  0.660536  0.249534  1
  Os  Os10  1  0.829990  0.170010  0.249505  1
  Os  Os11  1  0.339464  0.169731  0.249534  1
