# generated using pymatgen
data_HoErRh6
_symmetry_space_group_name_H-M   'P 1'
_cell_length_a   5.25316800
_cell_length_b   5.25316755
_cell_length_c   17.52045500
_cell_angle_alpha   90.00000000
_cell_angle_beta   90.00000000
_cell_angle_gamma   119.99999022
_symmetry_Int_Tables_number   1
_chemical_formula_structural   HoErRh6
_chemical_formula_sum   'Ho3 Er3 Rh18'
_cell_volume   418.71507605
_cell_formula_units_Z   3
loop_
 _symmetry_equiv_pos_site_id
 _symmetry_equiv_pos_as_xyz
  1  'x, y, z'
loop_
 _atom_site_type_symbol
 _atom_site_label
 _atom_site_symmetry_multiplicity
 _atom_site_fract_x
 _atom_site_fract_y
 _atom_site_fract_z
 _atom_site_occupancy
  Ho  Ho0  1  0.333333  0.666666  0.041819  1
  Ho  Ho1  1  0.333333  0.666666  0.250010  1
  Ho  Ho2  1  0.666667  0.333334  0.749999  1
  Er  Er3  1  0.333333  0.666666  0.458168  1
  Er  Er4  1  0.666667  0.333334  0.541857  1
  Er  Er5  1  0.666667  0.333334  0.958153  1
  Rh  Rh6  1  0.000000  0.000000  0.999982  1
  Rh  Rh7  1  0.335075  0.167538  0.125284  1
  Rh  Rh8  1  0.832461  0.167538  0.125284  1
  Rh  Rh9  1  0.832462  0.664925  0.125284  1
  Rh  Rh10  1  0.000000  0.000000  0.249998  1
  Rh  Rh11  1  0.666667  0.333334  0.249999  1
  Rh  Rh12  1  0.335082  0.167541  0.374744  1
  Rh  Rh13  1  0.832458  0.167541  0.374744  1
  Rh  Rh14  1  0.832459  0.664918  0.374744  1
  Rh  Rh15  1  0.000000  0.000000  0.499994  1
  Rh  Rh16  1  0.167550  0.335100  0.625255  1
  Rh  Rh17  1  0.167551  0.832450  0.625255  1
  Rh  Rh18  1  0.664900  0.832450  0.625255  1
  Rh  Rh19  1  0.000000  0.000000  0.749994  1
  Rh  Rh20  1  0.333333  0.666666  0.749999  1
  Rh  Rh21  1  0.167533  0.335067  0.874727  1
  Rh  Rh22  1  0.167534  0.832467  0.874727  1
  Rh  Rh23  1  0.664933  0.832467  0.874727  1
