# generated using pymatgen
data_Ce4In2HgIr3
_symmetry_space_group_name_H-M   'P 1'
_cell_length_a   7.88342500
_cell_length_b   7.88342408
_cell_length_c   3.77432400
_cell_angle_alpha   90.00000000
_cell_angle_beta   90.00000000
_cell_angle_gamma   89.13130244
_symmetry_Int_Tables_number   1
_chemical_formula_structural   Ce4In2HgIr3
_chemical_formula_sum   'Ce4 In2 Hg1 Ir3'
_cell_volume   234.54117150
_cell_formula_units_Z   1
loop_
 _symmetry_equiv_pos_site_id
 _symmetry_equiv_pos_as_xyz
  1  'x, y, z'
loop_
 _atom_site_type_symbol
 _atom_site_label
 _atom_site_symmetry_multiplicity
 _atom_site_fract_x
 _atom_site_fract_y
 _atom_site_fract_z
 _atom_site_occupancy
  Ce  Ce0  1  0.675527  0.175527  0.500000  1
  Ce  Ce1  1  0.355281  0.855281  0.500000  1
  Ce  Ce2  1  0.162708  0.302581  0.500000  1
  Ce  Ce3  1  0.802581  0.662708  0.500000  1
  In  In4  1  0.993093  0.998420  0.000000  1
  In  In5  1  0.498420  0.493093  0.000000  1
  Hg  Hg6  1  0.131674  0.631674  0.000000  1
  Ir  Ir7  1  0.871811  0.371811  0.000000  1
  Ir  Ir8  1  0.639689  0.869218  0.000000  1
  Ir  Ir9  1  0.369218  0.139689  0.000000  1
