# generated using pymatgen
data_Ba4GaP3Pt4
_symmetry_space_group_name_H-M   'P 1'
_cell_length_a   6.68704084
_cell_length_b   6.68704084
_cell_length_c   6.68704084
_cell_angle_alpha   90.58743669
_cell_angle_beta   89.41256331
_cell_angle_gamma   90.58743669
_symmetry_Int_Tables_number   1
_chemical_formula_structural   Ba4GaP3Pt4
_chemical_formula_sum   'Ba4 Ga1 P3 Pt4'
_cell_volume   298.97433512
_cell_formula_units_Z   1
loop_
 _symmetry_equiv_pos_site_id
 _symmetry_equiv_pos_as_xyz
  1  'x, y, z'
loop_
 _atom_site_type_symbol
 _atom_site_label
 _atom_site_symmetry_multiplicity
 _atom_site_fract_x
 _atom_site_fract_y
 _atom_site_fract_z
 _atom_site_occupancy
  Ba  Ba0  1  0.637354  0.372997  0.862951  1
  Ba  Ba1  1  0.362951  0.862646  0.627003  1
  Ba  Ba2  1  0.127003  0.137049  0.137354  1
  Ba  Ba3  1  0.869077  0.630923  0.369077  1
  Ga  Ga4  1  0.589326  0.910674  0.089326  1
  P  P5  1  0.084839  0.585470  0.913093  1
  P  P6  1  0.914530  0.086907  0.584839  1
  P  P7  1  0.413093  0.415161  0.414530  1
  Pt  Pt8  1  0.151704  0.348296  0.651704  1
  Pt  Pt9  1  0.658206  0.169034  0.360950  1
  Pt  Pt10  1  0.860950  0.841794  0.830966  1
  Pt  Pt11  1  0.330966  0.639050  0.158206  1
