# generated using pymatgen
data_Nd4Ga10(IrRh)3
_symmetry_space_group_name_H-M   'P 1'
_cell_length_a   8.66937535
_cell_length_b   8.66828816
_cell_length_c   8.66828982
_cell_angle_alpha   141.04355763
_cell_angle_beta   107.95698963
_cell_angle_gamma   85.06905643
_symmetry_Int_Tables_number   1
_chemical_formula_structural   Nd4Ga10(IrRh)3
_chemical_formula_sum   'Nd4 Ga10 Ir3 Rh3'
_cell_volume   376.51062510
_cell_formula_units_Z   1
loop_
 _symmetry_equiv_pos_site_id
 _symmetry_equiv_pos_as_xyz
  1  'x, y, z'
loop_
 _atom_site_type_symbol
 _atom_site_label
 _atom_site_symmetry_multiplicity
 _atom_site_fract_x
 _atom_site_fract_y
 _atom_site_fract_z
 _atom_site_occupancy
  Nd  Nd0  1  0.864505  0.636875  0.227631  1
  Nd  Nd1  1  0.134462  0.363594  0.770868  1
  Nd  Nd2  1  0.407713  0.136785  0.270929  1
  Nd  Nd3  1  0.590755  0.862127  0.728627  1
  Ga  Ga4  1  0.500873  0.750308  0.250269  1
  Ga  Ga5  1  0.500873  0.250604  0.750565  1
  Ga  Ga6  1  0.206573  0.956577  0.748824  1
  Ga  Ga7  1  0.792869  0.543016  0.750122  1
  Ga  Ga8  1  0.792869  0.042748  0.249853  1
  Ga  Ga9  1  0.206573  0.457750  0.249995  1
  Ga  Ga10  1  0.079735  0.908561  0.171176  1
  Ga  Ga11  1  0.920230  0.090058  0.830172  1
  Ga  Ga12  1  0.738777  0.409341  0.329436  1
  Ga  Ga13  1  0.260949  0.591198  0.669751  1
  Ir  Ir14  1  0.744924  0.147798  0.597124  1
  Ir  Ir15  1  0.447500  0.352337  0.095163  1
  Ir  Ir16  1  0.550878  0.647848  0.903029  1
  Rh  Rh17  1  0.999909  0.749295  0.750040  1
  Rh  Rh18  1  0.999909  0.249867  0.250614  1
  Rh  Rh19  1  0.259126  0.853308  0.405818  1
