# generated using pymatgen
data_AlCd2Rh3S8
_symmetry_space_group_name_H-M   'P 1'
_cell_length_a   7.22218917
_cell_length_b   7.22218893
_cell_length_c   7.22218900
_cell_angle_alpha   61.17121668
_cell_angle_beta   61.17121773
_cell_angle_gamma   61.17121937
_symmetry_Int_Tables_number   1
_chemical_formula_structural   AlCd2Rh3S8
_chemical_formula_sum   'Al1 Cd2 Rh3 S8'
_cell_volume   273.39299410
_cell_formula_units_Z   1
loop_
 _symmetry_equiv_pos_site_id
 _symmetry_equiv_pos_as_xyz
  1  'x, y, z'
loop_
 _atom_site_type_symbol
 _atom_site_label
 _atom_site_symmetry_multiplicity
 _atom_site_fract_x
 _atom_site_fract_y
 _atom_site_fract_z
 _atom_site_occupancy
  Al  Al0  1  0.125000  0.125000  0.125000  1
  Cd  Cd1  1  0.502385  0.502385  0.502385  1
  Cd  Cd2  1  0.747615  0.747615  0.747615  1
  Rh  Rh3  1  0.125000  0.125000  0.625000  1
  Rh  Rh4  1  0.125000  0.625000  0.125000  1
  Rh  Rh5  1  0.625000  0.125000  0.125000  1
  S  S6  1  0.323671  0.890644  0.890644  1
  S  S7  1  0.356126  0.356126  0.356126  1
  S  S8  1  0.893874  0.893874  0.893874  1
  S  S9  1  0.926329  0.359356  0.359356  1
  S  S10  1  0.359356  0.926329  0.359356  1
  S  S11  1  0.359356  0.359356  0.926329  1
  S  S12  1  0.890644  0.323671  0.890644  1
  S  S13  1  0.890644  0.890644  0.323671  1
