# generated using pymatgen
data_Tb2Tm4ReSb2
_symmetry_space_group_name_H-M   'P 1'
_cell_length_a   8.08199500
_cell_length_b   8.08153751
_cell_length_c   4.29477300
_cell_angle_alpha   90.00000000
_cell_angle_beta   90.00000000
_cell_angle_gamma   120.00186855
_symmetry_Int_Tables_number   1
_chemical_formula_structural   Tb2Tm4ReSb2
_chemical_formula_sum   'Tb2 Tm4 Re1 Sb2'
_cell_volume   242.92669330
_cell_formula_units_Z   1
loop_
 _symmetry_equiv_pos_site_id
 _symmetry_equiv_pos_as_xyz
  1  'x, y, z'
loop_
 _atom_site_type_symbol
 _atom_site_label
 _atom_site_symmetry_multiplicity
 _atom_site_fract_x
 _atom_site_fract_y
 _atom_site_fract_z
 _atom_site_occupancy
  Tb  Tb0  1  0.000622  0.605703  0.500000  1
  Tb  Tb1  1  0.394920  0.394297  0.500000  1
  Tm  Tm2  1  0.233263  0.000000  0.000000  1
  Tm  Tm3  1  0.765086  0.765881  0.000000  1
  Tm  Tm4  1  0.999206  0.234119  0.000000  1
  Tm  Tm5  1  0.608342  0.000000  0.500000  1
  Re  Re6  1  0.996981  0.000000  0.500000  1
  Sb  Sb7  1  0.335126  0.668673  0.000000  1
  Sb  Sb8  1  0.666454  0.331327  0.000000  1
