# generated using pymatgen
data_Nd4Al17NiPd6
_symmetry_space_group_name_H-M   'P 1'
_cell_length_a   7.66849918
_cell_length_b   7.66849867
_cell_length_c   9.51664500
_cell_angle_alpha   90.00000000
_cell_angle_beta   90.00000000
_cell_angle_gamma   118.70213483
_symmetry_Int_Tables_number   1
_chemical_formula_structural   Nd4Al17NiPd6
_chemical_formula_sum   'Nd4 Al17 Ni1 Pd6'
_cell_volume   490.87136676
_cell_formula_units_Z   1
loop_
 _symmetry_equiv_pos_site_id
 _symmetry_equiv_pos_as_xyz
  1  'x, y, z'
loop_
 _atom_site_type_symbol
 _atom_site_label
 _atom_site_symmetry_multiplicity
 _atom_site_fract_x
 _atom_site_fract_y
 _atom_site_fract_z
 _atom_site_occupancy
  Nd  Nd0  1  0.989496  0.673687  0.250000  1
  Nd  Nd1  1  0.007294  0.326645  0.750000  1
  Nd  Nd2  1  0.673687  0.989496  0.250000  1
  Nd  Nd3  1  0.326645  0.007294  0.750000  1
  Al  Al4  1  0.862057  0.862057  0.750000  1
  Al  Al5  1  0.008036  0.326063  0.087948  1
  Al  Al6  1  0.997832  0.661837  0.923215  1
  Al  Al7  1  0.997832  0.661837  0.576785  1
  Al  Al8  1  0.326063  0.008036  0.412052  1
  Al  Al9  1  0.008036  0.326063  0.412052  1
  Al  Al10  1  0.661837  0.997832  0.576785  1
  Al  Al11  1  0.661837  0.997832  0.923215  1
  Al  Al12  1  0.326063  0.008036  0.087948  1
  Al  Al13  1  0.330813  0.330813  0.532658  1
  Al  Al14  1  0.664789  0.664789  0.451450  1
  Al  Al15  1  0.664789  0.664789  0.048550  1
  Al  Al16  1  0.330813  0.330813  0.967342  1
  Al  Al17  1  0.340553  0.542916  0.250000  1
  Al  Al18  1  0.654986  0.449915  0.750000  1
  Al  Al19  1  0.542916  0.340553  0.250000  1
  Al  Al20  1  0.449915  0.654986  0.750000  1
  Ni  Ni21  1  0.176481  0.176481  0.250000  1
  Pd  Pd22  1  0.676582  0.328087  0.000263  1
  Pd  Pd23  1  0.328087  0.676582  0.000263  1
  Pd  Pd24  1  0.328087  0.676582  0.499737  1
  Pd  Pd25  1  0.676582  0.328087  0.499737  1
  Pd  Pd26  1  0.993946  0.993946  0.994443  1
  Pd  Pd27  1  0.993946  0.993946  0.505557  1
