# generated using pymatgen
data_Pr6YErO12
_symmetry_space_group_name_H-M   'P 1'
_cell_length_a   7.01050953
_cell_length_b   7.01050911
_cell_length_c   7.01050903
_cell_angle_alpha   92.03516758
_cell_angle_beta   92.03517311
_cell_angle_gamma   92.03516115
_symmetry_Int_Tables_number   1
_chemical_formula_structural   Pr6YErO12
_chemical_formula_sum   'Pr6 Y1 Er1 O12'
_cell_volume   343.87930063
_cell_formula_units_Z   1
loop_
 _symmetry_equiv_pos_site_id
 _symmetry_equiv_pos_as_xyz
  1  'x, y, z'
loop_
 _atom_site_type_symbol
 _atom_site_label
 _atom_site_symmetry_multiplicity
 _atom_site_fract_x
 _atom_site_fract_y
 _atom_site_fract_z
 _atom_site_occupancy
  Pr  Pr0  1  0.746602  0.935268  0.442304  1
  Pr  Pr1  1  0.442304  0.746602  0.935268  1
  Pr  Pr2  1  0.064732  0.557696  0.253398  1
  Pr  Pr3  1  0.935268  0.442304  0.746602  1
  Pr  Pr4  1  0.557696  0.253398  0.064732  1
  Pr  Pr5  1  0.253398  0.064732  0.557696  1
  Y  Y6  1  0.000000  0.000000  0.000000  1
  Er  Er7  1  0.500000  0.500000  0.500000  1
  O  O8  1  0.065659  0.910927  0.309568  1
  O  O9  1  0.690432  0.934341  0.089073  1
  O  O10  1  0.465458  0.806944  0.595123  1
  O  O11  1  0.089073  0.690432  0.934341  1
  O  O12  1  0.806944  0.595123  0.465458  1
  O  O13  1  0.404877  0.534542  0.193056  1
  O  O14  1  0.595123  0.465458  0.806944  1
  O  O15  1  0.193056  0.404877  0.534542  1
  O  O16  1  0.910927  0.309568  0.065659  1
  O  O17  1  0.534542  0.193056  0.404877  1
  O  O18  1  0.309568  0.065659  0.910927  1
  O  O19  1  0.934341  0.089073  0.690432  1
