# generated using pymatgen
data_Y16Cd4Ni3Ru
_symmetry_space_group_name_H-M   'P 1'
_cell_length_a   9.61629835
_cell_length_b   9.57891964
_cell_length_c   9.57892000
_cell_angle_alpha   59.99999877
_cell_angle_beta   60.12849714
_cell_angle_gamma   60.12849690
_symmetry_Int_Tables_number   1
_chemical_formula_structural   Y16Cd4Ni3Ru
_chemical_formula_sum   'Y16 Cd4 Ni3 Ru1'
_cell_volume   625.12487263
_cell_formula_units_Z   1
loop_
 _symmetry_equiv_pos_site_id
 _symmetry_equiv_pos_as_xyz
  1  'x, y, z'
loop_
 _atom_site_type_symbol
 _atom_site_label
 _atom_site_symmetry_multiplicity
 _atom_site_fract_x
 _atom_site_fract_y
 _atom_site_fract_z
 _atom_site_occupancy
  Y  Y0  1  0.434562  0.435493  0.064973  1
  Y  Y1  1  0.066355  0.060146  0.436750  1
  Y  Y2  1  0.434562  0.064973  0.064973  1
  Y  Y3  1  0.845539  0.849418  0.849418  1
  Y  Y4  1  0.690053  0.311157  0.311157  1
  Y  Y5  1  0.066355  0.436750  0.436750  1
  Y  Y6  1  0.311809  0.688091  0.688091  1
  Y  Y7  1  0.311809  0.312010  0.688091  1
  Y  Y8  1  0.845539  0.849418  0.455626  1
  Y  Y9  1  0.690053  0.687632  0.311157  1
  Y  Y10  1  0.453439  0.848854  0.848854  1
  Y  Y11  1  0.066355  0.436750  0.060146  1
  Y  Y12  1  0.845539  0.455626  0.849418  1
  Y  Y13  1  0.434562  0.064973  0.435493  1
  Y  Y14  1  0.311809  0.688091  0.312010  1
  Y  Y15  1  0.690053  0.311157  0.687632  1
  Cd  Cd16  1  0.081641  0.756930  0.080715  1
  Cd  Cd17  1  0.081641  0.080715  0.756930  1
  Cd  Cd18  1  0.757751  0.080750  0.080750  1
  Cd  Cd19  1  0.081641  0.080715  0.080715  1
  Ni  Ni20  1  0.641411  0.074710  0.641939  1
  Ni  Ni21  1  0.641411  0.641939  0.641939  1
  Ni  Ni22  1  0.641411  0.641939  0.074710  1
  Ru  Ru23  1  0.074701  0.641766  0.641766  1
