# generated using pymatgen
data_La4TcI5
_symmetry_space_group_name_H-M   'P 1'
_cell_length_a   4.43202187
_cell_length_b   9.39915913
_cell_length_c   10.25420473
_cell_angle_alpha   102.86053153
_cell_angle_beta   102.48050420
_cell_angle_gamma   90.00000277
_symmetry_Int_Tables_number   1
_chemical_formula_structural   La4TcI5
_chemical_formula_sum   'La4 Tc1 I5'
_cell_volume   406.08651097
_cell_formula_units_Z   1
loop_
 _symmetry_equiv_pos_site_id
 _symmetry_equiv_pos_as_xyz
  1  'x, y, z'
loop_
 _atom_site_type_symbol
 _atom_site_label
 _atom_site_symmetry_multiplicity
 _atom_site_fract_x
 _atom_site_fract_y
 _atom_site_fract_z
 _atom_site_occupancy
  La  La0  1  0.137547  0.071168  0.275095  1
  La  La1  1  0.862453  0.928832  0.724905  1
  La  La2  1  0.499464  0.210257  0.998929  1
  La  La3  1  0.500536  0.789743  0.001071  1
  Tc  Tc4  1  0.000000  0.000000  0.000000  1
  I  I5  1  0.327806  0.167538  0.655612  1
  I  I6  1  0.672194  0.832462  0.344388  1
  I  I7  1  0.333114  0.662864  0.666229  1
  I  I8  1  0.666886  0.337136  0.333771  1
  I  I9  1  0.000000  0.500000  0.000000  1
