# generated using pymatgen
data_YbEuNbIr3
_symmetry_space_group_name_H-M   'P 1'
_cell_length_a   5.67106267
_cell_length_b   5.67106308
_cell_length_c   5.27483670
_cell_angle_alpha   57.48243459
_cell_angle_beta   57.48244113
_cell_angle_gamma   59.99999836
_symmetry_Int_Tables_number   1
_chemical_formula_structural   YbEuNbIr3
_chemical_formula_sum   'Yb1 Eu1 Nb1 Ir3'
_cell_volume   115.18691345
_cell_formula_units_Z   1
loop_
 _symmetry_equiv_pos_site_id
 _symmetry_equiv_pos_as_xyz
  1  'x, y, z'
loop_
 _atom_site_type_symbol
 _atom_site_label
 _atom_site_symmetry_multiplicity
 _atom_site_fract_x
 _atom_site_fract_y
 _atom_site_fract_z
 _atom_site_occupancy
  Yb  Yb0  1  0.749751  0.749751  0.750745  1
  Eu  Eu1  1  0.503067  0.503067  0.490799  1
  Nb  Nb2  1  0.125985  0.125985  0.622044  1
  Ir  Ir3  1  0.626464  0.122366  0.128804  1
  Ir  Ir4  1  0.122366  0.122366  0.128804  1
  Ir  Ir5  1  0.122366  0.626464  0.128804  1
