# generated using pymatgen
data_Pr7Nd3(Si2Sn)2
_symmetry_space_group_name_H-M   'P 1'
_cell_length_a   7.96815279
_cell_length_b   9.22317643
_cell_length_c   7.96815279
_cell_angle_alpha   115.57961701
_cell_angle_beta   90.07251276
_cell_angle_gamma   115.53542186
_symmetry_Int_Tables_number   1
_chemical_formula_structural   Pr7Nd3(Si2Sn)2
_chemical_formula_sum   'Pr7 Nd3 Si4 Sn2'
_cell_volume   463.79768431
_cell_formula_units_Z   1
loop_
 _symmetry_equiv_pos_site_id
 _symmetry_equiv_pos_as_xyz
  1  'x, y, z'
loop_
 _atom_site_type_symbol
 _atom_site_label
 _atom_site_symmetry_multiplicity
 _atom_site_fract_x
 _atom_site_fract_y
 _atom_site_fract_z
 _atom_site_occupancy
  Pr  Pr0  1  0.185414  0.720681  0.035269  1
  Pr  Pr1  1  0.685077  0.720629  0.185154  1
  Pr  Pr2  1  0.035477  0.720629  0.535554  1
  Pr  Pr3  1  0.464594  0.279260  0.314663  1
  Pr  Pr4  1  0.814616  0.279226  0.964608  1
  Pr  Pr5  1  0.314768  0.279376  0.814707  1
  Pr  Pr6  1  0.964667  0.279376  0.464606  1
  Nd  Nd7  1  0.999849  0.999876  0.999903  1
  Nd  Nd8  1  0.499974  0.999876  0.500027  1
  Nd  Nd9  1  0.535772  0.721715  0.685945  1
  Si  Si10  1  0.882925  0.999602  0.616677  1
  Si  Si11  1  0.116536  0.999975  0.383439  1
  Si  Si12  1  0.616498  0.999553  0.115911  1
  Si  Si13  1  0.383641  0.999553  0.883055  1
  Sn  Sn14  1  0.749711  0.500337  0.749856  1
  Sn  Sn15  1  0.250480  0.500337  0.250625  1
