# generated using pymatgen
data_Gd10Si17
_symmetry_space_group_name_H-M   'P 1'
_cell_length_a   11.08336365
_cell_length_b   11.08336495
_cell_length_c   11.08336400
_cell_angle_alpha   144.25569305
_cell_angle_beta   136.12831511
_cell_angle_gamma   57.82372844
_symmetry_Int_Tables_number   1
_chemical_formula_structural   Gd10Si17
_chemical_formula_sum   'Gd10 Si17'
_cell_volume   546.54013148
_cell_formula_units_Z   1
loop_
 _symmetry_equiv_pos_site_id
 _symmetry_equiv_pos_as_xyz
  1  'x, y, z'
loop_
 _atom_site_type_symbol
 _atom_site_label
 _atom_site_symmetry_multiplicity
 _atom_site_fract_x
 _atom_site_fract_y
 _atom_site_fract_z
 _atom_site_occupancy
  Gd  Gd0  1  0.051127  0.563930  0.015195  1
  Gd  Gd1  1  0.352061  0.368352  0.519732  1
  Gd  Gd2  1  0.151380  0.167669  0.519732  1
  Gd  Gd3  1  0.451265  0.964070  0.015195  1
  Gd  Gd4  1  0.647939  0.167669  0.016290  1
  Gd  Gd5  1  0.948873  0.964070  0.512803  1
  Gd  Gd6  1  0.848620  0.368352  0.016290  1
  Gd  Gd7  1  0.548735  0.563930  0.512803  1
  Gd  Gd8  1  0.244997  0.760715  0.005711  1
  Gd  Gd9  1  0.755003  0.760715  0.515718  1
  Si  Si10  1  0.896454  0.505624  0.609170  1
  Si  Si11  1  0.117000  0.075128  0.958128  1
  Si  Si12  1  0.800623  0.192772  0.392149  1
  Si  Si13  1  0.300783  0.898839  0.598056  1
  Si  Si14  1  0.400332  0.502239  0.101907  1
  Si  Si15  1  0.883000  0.841128  0.958128  1
  Si  Si16  1  0.103546  0.712716  0.609170  1
  Si  Si17  1  0.199377  0.591527  0.392149  1
  Si  Si18  1  0.699217  0.297272  0.598056  1
  Si  Si19  1  0.000000  0.430820  0.430820  1
  Si  Si20  1  0.711339  0.663748  0.952409  1
  Si  Si21  1  0.599668  0.701575  0.101907  1
  Si  Si22  1  0.000000  0.084834  0.084834  1
  Si  Si23  1  0.500000  0.396087  0.896087  1
  Si  Si24  1  0.288661  0.241070  0.952409  1
  Si  Si25  1  0.584963  0.036999  0.452034  1
  Si  Si26  1  0.415037  0.867071  0.452034  1
