# generated using pymatgen
data_TmLu3(Ga5Co3)2
_symmetry_space_group_name_H-M   'P 1'
_cell_length_a   8.28378714
_cell_length_b   8.28358247
_cell_length_c   5.44810500
_cell_angle_alpha   70.80033650
_cell_angle_beta   70.80035074
_cell_angle_gamma   97.55819640
_symmetry_Int_Tables_number   1
_chemical_formula_structural   TmLu3(Ga5Co3)2
_chemical_formula_sum   'Tm1 Lu3 Ga10 Co6'
_cell_volume   321.14850336
_cell_formula_units_Z   1
loop_
 _symmetry_equiv_pos_site_id
 _symmetry_equiv_pos_as_xyz
  1  'x, y, z'
loop_
 _atom_site_type_symbol
 _atom_site_label
 _atom_site_symmetry_multiplicity
 _atom_site_fract_x
 _atom_site_fract_y
 _atom_site_fract_z
 _atom_site_occupancy
  Tm  Tm0  1  0.128477  0.427881  0.721249  1
  Lu  Lu1  1  0.571947  0.871504  0.778856  1
  Lu  Lu2  1  0.871472  0.572001  0.278832  1
  Lu  Lu3  1  0.428028  0.128497  0.221158  1
  Ga  Ga4  1  0.799511  0.200319  0.250184  1
  Ga  Ga5  1  0.200390  0.799686  0.749997  1
  Ga  Ga6  1  0.500065  0.500052  0.249881  1
  Ga  Ga7  1  0.500116  0.500006  0.750000  1
  Ga  Ga8  1  0.200396  0.799680  0.249929  1
  Ga  Ga9  1  0.799499  0.200327  0.749987  1
  Ga  Ga10  1  0.734583  0.893349  0.186464  1
  Ga  Ga11  1  0.893349  0.734569  0.686460  1
  Ga  Ga12  1  0.265452  0.106517  0.813595  1
  Ga  Ga13  1  0.106590  0.265296  0.313630  1
  Co  Co14  1  0.999956  0.000017  0.749998  1
  Co  Co15  1  0.571581  0.266672  0.580862  1
  Co  Co16  1  0.266772  0.571755  0.080714  1
  Co  Co17  1  0.428551  0.733551  0.418964  1
  Co  Co18  1  0.000015  0.999964  0.250028  1
  Co  Co19  1  0.733247  0.428356  0.919213  1
