# generated using pymatgen
data_Tm2Pd2O7
_symmetry_space_group_name_H-M   'P 1'
_cell_length_a   7.19068622
_cell_length_b   7.19068578
_cell_length_c   7.19068600
_cell_angle_alpha   59.99999899
_cell_angle_beta   60.00000101
_cell_angle_gamma   59.99999334
_symmetry_Int_Tables_number   1
_chemical_formula_structural   Tm2Pd2O7
_chemical_formula_sum   'Tm4 Pd4 O14'
_cell_volume   262.90324952
_cell_formula_units_Z   2
loop_
 _symmetry_equiv_pos_site_id
 _symmetry_equiv_pos_as_xyz
  1  'x, y, z'
loop_
 _atom_site_type_symbol
 _atom_site_label
 _atom_site_symmetry_multiplicity
 _atom_site_fract_x
 _atom_site_fract_y
 _atom_site_fract_z
 _atom_site_occupancy
  Tm  Tm0  1  0.625000  0.625000  0.125000  1
  Tm  Tm1  1  0.625000  0.625000  0.625000  1
  Tm  Tm2  1  0.625000  0.125000  0.625000  1
  Tm  Tm3  1  0.125000  0.625000  0.625000  1
  Pd  Pd4  1  0.125000  0.125000  0.125000  1
  Pd  Pd5  1  0.625000  0.125000  0.125000  1
  Pd  Pd6  1  0.125000  0.625000  0.125000  1
  Pd  Pd7  1  0.125000  0.125000  0.625000  1
  O  O8  1  0.032515  0.467485  0.467485  1
  O  O9  1  0.782515  0.782515  0.217485  1
  O  O10  1  0.782515  0.217485  0.217485  1
  O  O11  1  0.467485  0.032515  0.467485  1
  O  O12  1  0.032515  0.032515  0.467485  1
  O  O13  1  0.032515  0.467485  0.032515  1
  O  O14  1  0.750000  0.750000  0.750000  1
  O  O15  1  0.500000  0.500000  0.500000  1
  O  O16  1  0.782515  0.217485  0.782515  1
  O  O17  1  0.217485  0.782515  0.217485  1
  O  O18  1  0.217485  0.217485  0.782515  1
  O  O19  1  0.467485  0.032515  0.032515  1
  O  O20  1  0.467485  0.467485  0.032515  1
  O  O21  1  0.217485  0.782515  0.782515  1
