# generated using pymatgen
data_Sr2Ni18As3P7
_symmetry_space_group_name_H-M   'P 1'
_cell_length_a   6.59064600
_cell_length_b   6.59064612
_cell_length_c   10.64707400
_cell_angle_alpha   90.00000000
_cell_angle_beta   90.00000000
_cell_angle_gamma   119.99999941
_symmetry_Int_Tables_number   1
_chemical_formula_structural   Sr2Ni18As3P7
_chemical_formula_sum   'Sr2 Ni18 As3 P7'
_cell_volume   400.51324711
_cell_formula_units_Z   1
loop_
 _symmetry_equiv_pos_site_id
 _symmetry_equiv_pos_as_xyz
  1  'x, y, z'
loop_
 _atom_site_type_symbol
 _atom_site_label
 _atom_site_symmetry_multiplicity
 _atom_site_fract_x
 _atom_site_fract_y
 _atom_site_fract_z
 _atom_site_occupancy
  Sr  Sr0  1  0.000000  0.000000  0.000427  1
  Sr  Sr1  1  0.000000  0.000000  0.499958  1
  Ni  Ni2  1  0.537312  0.074624  0.113202  1
  Ni  Ni3  1  0.460297  0.539703  0.608764  1
  Ni  Ni4  1  0.079407  0.539703  0.608764  1
  Ni  Ni5  1  0.925376  0.462688  0.113202  1
  Ni  Ni6  1  0.537312  0.462688  0.113202  1
  Ni  Ni7  1  0.462579  0.925157  0.887020  1
  Ni  Ni8  1  0.462579  0.537421  0.887020  1
  Ni  Ni9  1  0.460297  0.920593  0.608764  1
  Ni  Ni10  1  0.074843  0.537421  0.887020  1
  Ni  Ni11  1  0.932488  0.466244  0.389037  1
  Ni  Ni12  1  0.533756  0.067512  0.389037  1
  Ni  Ni13  1  0.533756  0.466244  0.389037  1
  Ni  Ni14  1  0.199854  0.399706  0.253073  1
  Ni  Ni15  1  0.801415  0.198585  0.748702  1
  Ni  Ni16  1  0.397168  0.198585  0.748702  1
  Ni  Ni17  1  0.600294  0.800146  0.253073  1
  Ni  Ni18  1  0.199854  0.800146  0.253073  1
  Ni  Ni19  1  0.801415  0.602832  0.748702  1
  As  As20  1  0.333333  0.666667  0.063105  1
  As  As21  1  0.666667  0.333333  0.561951  1
  As  As22  1  0.666667  0.333333  0.936907  1
  P  P23  1  0.827999  0.655999  0.251341  1
  P  P24  1  0.172247  0.827753  0.748866  1
  P  P25  1  0.655504  0.827753  0.748866  1
  P  P26  1  0.344001  0.172001  0.251341  1
  P  P27  1  0.827999  0.172001  0.251341  1
  P  P28  1  0.172247  0.344496  0.748866  1
  P  P29  1  0.333333  0.666667  0.437639  1
