# generated using pymatgen
data_Dy7Er3Si5Ge
_symmetry_space_group_name_H-M   'P 1'
_cell_length_a   8.43493500
_cell_length_b   8.43700881
_cell_length_c   6.33960700
_cell_angle_alpha   89.99945896
_cell_angle_beta   89.99951144
_cell_angle_gamma   119.99173375
_symmetry_Int_Tables_number   1
_chemical_formula_structural   Dy7Er3Si5Ge
_chemical_formula_sum   'Dy7 Er3 Si5 Ge1'
_cell_volume   390.75035358
_cell_formula_units_Z   1
loop_
 _symmetry_equiv_pos_site_id
 _symmetry_equiv_pos_as_xyz
  1  'x, y, z'
loop_
 _atom_site_type_symbol
 _atom_site_label
 _atom_site_symmetry_multiplicity
 _atom_site_fract_x
 _atom_site_fract_y
 _atom_site_fract_z
 _atom_site_occupancy
  Dy  Dy0  1  0.998482  0.755594  0.750142  1
  Dy  Dy1  1  0.999770  0.243139  0.249843  1
  Dy  Dy2  1  0.756758  0.756741  0.249851  1
  Dy  Dy3  1  0.757876  0.000123  0.750161  1
  Dy  Dy4  1  0.243018  0.244283  0.750157  1
  Dy  Dy5  1  0.242891  0.000123  0.249846  1
  Dy  Dy6  1  0.333135  0.665490  0.499243  1
  Er  Er7  1  0.667648  0.334520  0.000768  1
  Er  Er8  1  0.667646  0.334519  0.499233  1
  Er  Er9  1  0.333125  0.665460  0.000769  1
  Si  Si10  1  0.394802  0.394271  0.249587  1
  Si  Si11  1  0.999675  0.605306  0.249599  1
  Si  Si12  1  0.999498  0.394381  0.750401  1
  Si  Si13  1  0.605551  0.605199  0.750406  1
  Si  Si14  1  0.605788  0.000427  0.249602  1
  Ge  Ge15  1  0.394338  0.000424  0.750393  1
