# generated using pymatgen
data_Tm7Zr2Ti(Si5Ir2)4
_symmetry_space_group_name_H-M   'P 1'
_cell_length_a   12.51553185
_cell_length_b   12.51553281
_cell_length_c   4.17303000
_cell_angle_alpha   90.00000000
_cell_angle_beta   90.00000000
_cell_angle_gamma   89.49575097
_symmetry_Int_Tables_number   1
_chemical_formula_structural   Tm7Zr2Ti(Si5Ir2)4
_chemical_formula_sum   'Tm7 Zr2 Ti1 Si20 Ir8'
_cell_volume   653.63205196
_cell_formula_units_Z   1
loop_
 _symmetry_equiv_pos_site_id
 _symmetry_equiv_pos_as_xyz
  1  'x, y, z'
loop_
 _atom_site_type_symbol
 _atom_site_label
 _atom_site_symmetry_multiplicity
 _atom_site_fract_x
 _atom_site_fract_y
 _atom_site_fract_z
 _atom_site_occupancy
  Tm  Tm0  1  0.493909  0.505497  0.000000  1
  Tm  Tm1  1  0.994503  0.006091  0.000000  1
  Tm  Tm2  1  0.823365  0.676635  0.500000  1
  Tm  Tm3  1  0.882355  0.380634  0.500000  1
  Tm  Tm4  1  0.119366  0.617645  0.500000  1
  Tm  Tm5  1  0.379437  0.120563  0.500000  1
  Tm  Tm6  1  0.608638  0.891362  0.500000  1
  Zr  Zr7  1  0.675159  0.171396  0.500000  1
  Zr  Zr8  1  0.328604  0.824841  0.500000  1
  Ti  Ti9  1  0.174756  0.325244  0.500000  1
  Si  Si10  1  0.563353  0.069705  0.000000  1
  Si  Si11  1  0.430295  0.936647  0.000000  1
  Si  Si12  1  0.068338  0.431662  0.000000  1
  Si  Si13  1  0.934358  0.565642  0.000000  1
  Si  Si14  1  0.662492  0.700512  0.000000  1
  Si  Si15  1  0.329085  0.304123  0.000000  1
  Si  Si16  1  0.166027  0.803654  0.000000  1
  Si  Si17  1  0.833707  0.199618  0.000000  1
  Si  Si18  1  0.300382  0.666293  0.000000  1
  Si  Si19  1  0.696346  0.333973  0.000000  1
  Si  Si20  1  0.195877  0.170915  0.000000  1
  Si  Si21  1  0.799488  0.837508  0.000000  1
  Si  Si22  1  0.653100  0.501107  0.500000  1
  Si  Si23  1  0.335132  0.452524  0.500000  1
  Si  Si24  1  0.152236  0.985445  0.500000  1
  Si  Si25  1  0.829567  0.969878  0.500000  1
  Si  Si26  1  0.530122  0.670433  0.500000  1
  Si  Si27  1  0.514555  0.347764  0.500000  1
  Si  Si28  1  0.047476  0.164868  0.500000  1
  Si  Si29  1  0.998893  0.846900  0.500000  1
  Ir  Ir30  1  0.744058  0.518005  0.000000  1
  Ir  Ir31  1  0.250290  0.484410  0.000000  1
  Ir  Ir32  1  0.243135  0.984873  0.000000  1
  Ir  Ir33  1  0.752002  0.023121  0.000000  1
  Ir  Ir34  1  0.476879  0.747998  0.000000  1
  Ir  Ir35  1  0.515127  0.256865  0.000000  1
  Ir  Ir36  1  0.015590  0.249710  0.000000  1
  Ir  Ir37  1  0.981995  0.755942  0.000000  1
