# generated using pymatgen
data_Hf3Sc(PIr)4
_symmetry_space_group_name_H-M   'P 1'
_cell_length_a   3.83480900
_cell_length_b   6.48805138
_cell_length_c   7.38773325
_cell_angle_alpha   90.06602623
_cell_angle_beta   90.00000000
_cell_angle_gamma   90.00000000
_symmetry_Int_Tables_number   1
_chemical_formula_structural   Hf3Sc(PIr)4
_chemical_formula_sum   'Hf3 Sc1 P4 Ir4'
_cell_volume   183.80991565
_cell_formula_units_Z   1
loop_
 _symmetry_equiv_pos_site_id
 _symmetry_equiv_pos_as_xyz
  1  'x, y, z'
loop_
 _atom_site_type_symbol
 _atom_site_label
 _atom_site_symmetry_multiplicity
 _atom_site_fract_x
 _atom_site_fract_y
 _atom_site_fract_z
 _atom_site_occupancy
  Hf  Hf0  1  0.750000  0.473345  0.823878  1
  Hf  Hf1  1  0.750000  0.973330  0.676200  1
  Hf  Hf2  1  0.250000  0.025273  0.322151  1
  Sc  Sc3  1  0.250000  0.527317  0.178809  1
  P  P4  1  0.250000  0.760131  0.877550  1
  P  P5  1  0.750000  0.241018  0.123655  1
  P  P6  1  0.750000  0.738773  0.375013  1
  P  P7  1  0.250000  0.260763  0.622729  1
  Ir  Ir8  1  0.250000  0.648138  0.564668  1
  Ir  Ir9  1  0.750000  0.351420  0.437487  1
  Ir  Ir10  1  0.750000  0.852435  0.060678  1
  Ir  Ir11  1  0.250000  0.148056  0.937184  1
