# generated using pymatgen
data_Nd5DyAl15Si9Os8
_symmetry_space_group_name_H-M   'P 1'
_cell_length_a   8.78544260
_cell_length_b   8.77166502
_cell_length_c   9.47565100
_cell_angle_alpha   90.00000000
_cell_angle_beta   90.00000000
_cell_angle_gamma   120.08492157
_symmetry_Int_Tables_number   1
_chemical_formula_structural   Nd5DyAl15Si9Os8
_chemical_formula_sum   'Nd5 Dy1 Al15 Si9 Os8'
_cell_volume   631.84870364
_cell_formula_units_Z   1
loop_
 _symmetry_equiv_pos_site_id
 _symmetry_equiv_pos_as_xyz
  1  'x, y, z'
loop_
 _atom_site_type_symbol
 _atom_site_label
 _atom_site_symmetry_multiplicity
 _atom_site_fract_x
 _atom_site_fract_y
 _atom_site_fract_z
 _atom_site_occupancy
  Nd  Nd0  1  0.190509  0.380273  0.250000  1
  Nd  Nd1  1  0.810333  0.620617  0.750000  1
  Nd  Nd2  1  0.617999  0.810891  0.250000  1
  Nd  Nd3  1  0.381278  0.189739  0.750000  1
  Nd  Nd4  1  0.194017  0.810402  0.250000  1
  Dy  Dy5  1  0.803685  0.194277  0.750000  1
  Al  Al6  1  0.165045  0.331562  0.579256  1
  Al  Al7  1  0.835057  0.669271  0.423799  1
  Al  Al8  1  0.667625  0.834882  0.577887  1
  Al  Al9  1  0.835057  0.669271  0.076201  1
  Al  Al10  1  0.329979  0.165461  0.424988  1
  Al  Al11  1  0.165045  0.331562  0.920744  1
  Al  Al12  1  0.167642  0.832870  0.577697  1
  Al  Al13  1  0.329979  0.165461  0.075012  1
  Al  Al14  1  0.836330  0.165506  0.426558  1
  Al  Al15  1  0.667625  0.834882  0.922113  1
  Al  Al16  1  0.836330  0.165506  0.073442  1
  Al  Al17  1  0.167642  0.832870  0.922303  1
  Al  Al18  1  0.871340  0.431729  0.250000  1
  Al  Al19  1  0.561304  0.432584  0.250000  1
  Al  Al20  1  0.999860  0.998828  0.250000  1
  Si  Si21  1  0.332959  0.664899  0.037371  1
  Si  Si22  1  0.667990  0.334711  0.961768  1
  Si  Si23  1  0.667990  0.334711  0.538232  1
  Si  Si24  1  0.332959  0.664899  0.462629  1
  Si  Si25  1  0.565306  0.129092  0.250000  1
  Si  Si26  1  0.440242  0.875733  0.750000  1
  Si  Si27  1  0.124472  0.559464  0.750000  1
  Si  Si28  1  0.435645  0.563953  0.750000  1
  Si  Si29  1  0.995955  0.007508  0.750000  1
  Os  Os30  1  0.500792  0.998979  0.996965  1
  Os  Os31  1  0.001930  0.499198  0.991744  1
  Os  Os32  1  0.500792  0.998979  0.503035  1
  Os  Os33  1  0.498388  0.500871  0.992730  1
  Os  Os34  1  0.001930  0.499198  0.508256  1
  Os  Os35  1  0.498388  0.500871  0.507270  1
  Os  Os36  1  0.000291  0.999241  0.991913  1
  Os  Os37  1  0.000291  0.999241  0.508087  1
