# generated using pymatgen
data_Pa2Al19Fe4Cu
_symmetry_space_group_name_H-M   'P 1'
_cell_length_a   6.71477309
_cell_length_b   6.72938118
_cell_length_c   8.94469000
_cell_angle_alpha   90.00000000
_cell_angle_beta   90.00000000
_cell_angle_gamma   97.93020135
_symmetry_Int_Tables_number   1
_chemical_formula_structural   Pa2Al19Fe4Cu
_chemical_formula_sum   'Pa2 Al19 Fe4 Cu1'
_cell_volume   400.31196015
_cell_formula_units_Z   1
loop_
 _symmetry_equiv_pos_site_id
 _symmetry_equiv_pos_as_xyz
  1  'x, y, z'
loop_
 _atom_site_type_symbol
 _atom_site_label
 _atom_site_symmetry_multiplicity
 _atom_site_fract_x
 _atom_site_fract_y
 _atom_site_fract_z
 _atom_site_occupancy
  Pa  Pa0  1  0.875259  0.122694  0.750000  1
  Pa  Pa1  1  0.123088  0.870556  0.250000  1
  Al  Al2  1  0.631897  0.383640  0.565340  1
  Al  Al3  1  0.377837  0.623542  0.449898  1
  Al  Al4  1  0.377837  0.623542  0.050102  1
  Al  Al5  1  0.631897  0.383640  0.934660  1
  Al  Al6  1  0.227658  0.225715  0.501538  1
  Al  Al7  1  0.775508  0.770838  0.505227  1
  Al  Al8  1  0.775508  0.770838  0.994773  1
  Al  Al9  1  0.227658  0.225715  0.998462  1
  Al  Al10  1  0.837853  0.160633  0.097457  1
  Al  Al11  1  0.156100  0.837566  0.900408  1
  Al  Al12  1  0.156100  0.837566  0.599592  1
  Al  Al13  1  0.837853  0.160633  0.402543  1
  Al  Al14  1  0.135298  0.405792  0.250000  1
  Al  Al15  1  0.406601  0.128956  0.750000  1
  Al  Al16  1  0.592803  0.864633  0.250000  1
  Al  Al17  1  0.200806  0.482124  0.750000  1
  Al  Al18  1  0.778384  0.520140  0.250000  1
  Al  Al19  1  0.522885  0.771775  0.750000  1
  Al  Al20  1  0.479062  0.219136  0.250000  1
  Fe  Fe21  1  0.005941  0.498773  0.492770  1
  Fe  Fe22  1  0.005941  0.498773  0.007230  1
  Fe  Fe23  1  0.500103  0.999760  0.999888  1
  Fe  Fe24  1  0.500103  0.999760  0.500112  1
  Cu  Cu25  1  0.860020  0.613257  0.750000  1
