# generated using pymatgen
data_DyY4Pt9
_symmetry_space_group_name_H-M   'P 1'
_cell_length_a   9.80526400
_cell_length_b   9.80526400
_cell_length_c   5.79212900
_cell_angle_alpha   90.00000000
_cell_angle_beta   90.00000000
_cell_angle_gamma   90.00000000
_symmetry_Int_Tables_number   1
_chemical_formula_structural   DyY4Pt9
_chemical_formula_sum   'Dy2 Y8 Pt18'
_cell_volume   556.87382909
_cell_formula_units_Z   2
loop_
 _symmetry_equiv_pos_site_id
 _symmetry_equiv_pos_as_xyz
  1  'x, y, z'
loop_
 _atom_site_type_symbol
 _atom_site_label
 _atom_site_symmetry_multiplicity
 _atom_site_fract_x
 _atom_site_fract_y
 _atom_site_fract_z
 _atom_site_occupancy
  Dy  Dy0  1  0.500000  0.500000  0.500000  1
  Dy  Dy1  1  0.000000  0.000000  0.000000  1
  Y  Y2  1  0.452412  0.809042  0.000000  1
  Y  Y3  1  0.547588  0.190958  0.000000  1
  Y  Y4  1  0.190958  0.547588  0.000000  1
  Y  Y5  1  0.809042  0.452412  0.000000  1
  Y  Y6  1  0.309042  0.047588  0.500000  1
  Y  Y7  1  0.690958  0.952412  0.500000  1
  Y  Y8  1  0.952412  0.690958  0.500000  1
  Y  Y9  1  0.047588  0.309042  0.500000  1
  Pt  Pt10  1  0.191586  0.808414  0.251032  1
  Pt  Pt11  1  0.808414  0.191586  0.748968  1
  Pt  Pt12  1  0.808414  0.191586  0.251032  1
  Pt  Pt13  1  0.191586  0.808414  0.748968  1
  Pt  Pt14  1  0.440184  0.781114  0.500000  1
  Pt  Pt15  1  0.559816  0.218886  0.500000  1
  Pt  Pt16  1  0.218886  0.559816  0.500000  1
  Pt  Pt17  1  0.781114  0.440184  0.500000  1
  Pt  Pt18  1  0.308414  0.308414  0.248968  1
  Pt  Pt19  1  0.691586  0.691586  0.751032  1
  Pt  Pt20  1  0.691586  0.691586  0.248968  1
  Pt  Pt21  1  0.308414  0.308414  0.751032  1
  Pt  Pt22  1  0.281114  0.059816  0.000000  1
  Pt  Pt23  1  0.718886  0.940184  0.000000  1
  Pt  Pt24  1  0.940184  0.718886  0.000000  1
  Pt  Pt25  1  0.059816  0.281114  0.000000  1
  Pt  Pt26  1  0.000000  0.000000  0.500000  1
  Pt  Pt27  1  0.500000  0.500000  0.000000  1
