# generated using pymatgen
data_CeDyLu14(CdCo)4
_symmetry_space_group_name_H-M   'P 1'
_cell_length_a   9.31261840
_cell_length_b   9.36757712
_cell_length_c   9.33109800
_cell_angle_alpha   60.12873535
_cell_angle_beta   59.93433611
_cell_angle_gamma   60.18147626
_symmetry_Int_Tables_number   1
_chemical_formula_structural   CeDyLu14(CdCo)4
_chemical_formula_sum   'Ce1 Dy1 Lu14 Cd4 Co4'
_cell_volume   576.65208597
_cell_formula_units_Z   1
loop_
 _symmetry_equiv_pos_site_id
 _symmetry_equiv_pos_as_xyz
  1  'x, y, z'
loop_
 _atom_site_type_symbol
 _atom_site_label
 _atom_site_symmetry_multiplicity
 _atom_site_fract_x
 _atom_site_fract_y
 _atom_site_fract_z
 _atom_site_occupancy
  Ce  Ce0  1  0.158244  0.517035  0.162361  1
  Dy  Dy1  1  0.312305  0.314223  0.686736  1
  Lu  Lu2  1  0.688121  0.315711  0.685731  1
  Lu  Lu3  1  0.688121  0.315711  0.310438  1
  Lu  Lu4  1  0.936533  0.562167  0.562846  1
  Lu  Lu5  1  0.544278  0.149266  0.153227  1
  Lu  Lu6  1  0.152510  0.149696  0.540946  1
  Lu  Lu7  1  0.935500  0.934624  0.564939  1
  Lu  Lu8  1  0.312958  0.692694  0.309891  1
  Lu  Lu9  1  0.562163  0.935199  0.939096  1
  Lu  Lu10  1  0.562163  0.935199  0.563543  1
  Lu  Lu11  1  0.684897  0.692062  0.311520  1
  Lu  Lu12  1  0.561818  0.560547  0.938818  1
  Lu  Lu13  1  0.936533  0.562167  0.938454  1
  Lu  Lu14  1  0.312958  0.692694  0.684457  1
  Lu  Lu15  1  0.152510  0.149696  0.156847  1
  Cd  Cd16  1  0.921445  0.239757  0.919399  1
  Cd  Cd17  1  0.920764  0.918108  0.918553  1
  Cd  Cd18  1  0.920764  0.918108  0.242576  1
  Cd  Cd19  1  0.244872  0.915368  0.919880  1
  Co  Co20  1  0.351557  0.367609  0.930504  1
  Co  Co21  1  0.359045  0.924326  0.358315  1
  Co  Co22  1  0.928390  0.370421  0.350595  1
  Co  Co23  1  0.351557  0.367609  0.350331  1
