# generated using pymatgen
data_Tb3YbCrB16Os3
_symmetry_space_group_name_H-M   'P 1'
_cell_length_a   3.54261600
_cell_length_b   5.96999229
_cell_length_c   11.53929317
_cell_angle_alpha   89.76388724
_cell_angle_beta   90.00000000
_cell_angle_gamma   90.00000000
_symmetry_Int_Tables_number   1
_chemical_formula_structural   Tb3YbCrB16Os3
_chemical_formula_sum   'Tb3 Yb1 Cr1 B16 Os3'
_cell_volume   244.04694174
_cell_formula_units_Z   1
loop_
 _symmetry_equiv_pos_site_id
 _symmetry_equiv_pos_as_xyz
  1  'x, y, z'
loop_
 _atom_site_type_symbol
 _atom_site_label
 _atom_site_symmetry_multiplicity
 _atom_site_fract_x
 _atom_site_fract_y
 _atom_site_fract_z
 _atom_site_occupancy
  Tb  Tb0  1  0.000000  0.128400  0.651854  1
  Tb  Tb1  1  0.000000  0.871947  0.348712  1
  Tb  Tb2  1  0.000000  0.625957  0.850641  1
  Yb  Yb3  1  0.000000  0.373318  0.149265  1
  Cr  Cr4  1  0.000000  0.132475  0.913986  1
  B  B5  1  0.500000  0.473906  0.691949  1
  B  B6  1  0.500000  0.526292  0.307754  1
  B  B7  1  0.500000  0.977427  0.810004  1
  B  B8  1  0.500000  0.023634  0.190358  1
  B  B9  1  0.500000  0.285675  0.816487  1
  B  B10  1  0.500000  0.712689  0.183476  1
  B  B11  1  0.500000  0.786504  0.686640  1
  B  B12  1  0.500000  0.213693  0.312709  1
  B  B13  1  0.500000  0.362848  0.968547  1
  B  B14  1  0.500000  0.636134  0.031562  1
  B  B15  1  0.500000  0.862872  0.530655  1
  B  B16  1  0.500000  0.136595  0.469670  1
  B  B17  1  0.500000  0.386971  0.547030  1
  B  B18  1  0.500000  0.611610  0.452676  1
  B  B19  1  0.500000  0.887912  0.954221  1
  B  B20  1  0.500000  0.114779  0.046848  1
  Os  Os21  1  0.000000  0.869893  0.086127  1
  Os  Os22  1  0.000000  0.640942  0.591258  1
  Os  Os23  1  0.000000  0.357526  0.407571  1
