# generated using pymatgen
data_Pr2DyAl12Ir3Os
_symmetry_space_group_name_H-M   'P 1'
_cell_length_a   8.84182600
_cell_length_b   8.89764421
_cell_length_c   9.64025700
_cell_angle_alpha   90.00000000
_cell_angle_beta   90.00000000
_cell_angle_gamma   119.79269468
_symmetry_Int_Tables_number   1
_chemical_formula_structural   Pr2DyAl12Ir3Os
_chemical_formula_sum   'Pr4 Dy2 Al24 Ir6 Os2'
_cell_volume   658.17241448
_cell_formula_units_Z   2
loop_
 _symmetry_equiv_pos_site_id
 _symmetry_equiv_pos_as_xyz
  1  'x, y, z'
loop_
 _atom_site_type_symbol
 _atom_site_label
 _atom_site_symmetry_multiplicity
 _atom_site_fract_x
 _atom_site_fract_y
 _atom_site_fract_z
 _atom_site_occupancy
  Pr  Pr0  1  0.621849  0.811323  0.250000  1
  Pr  Pr1  1  0.378151  0.188677  0.750000  1
  Pr  Pr2  1  0.189473  0.811323  0.250000  1
  Pr  Pr3  1  0.810527  0.188677  0.750000  1
  Dy  Dy4  1  0.194138  0.388277  0.250000  1
  Dy  Dy5  1  0.805862  0.611723  0.750000  1
  Al  Al6  1  0.333429  0.666858  0.025520  1
  Al  Al7  1  0.666571  0.333142  0.974480  1
  Al  Al8  1  0.666571  0.333142  0.525520  1
  Al  Al9  1  0.333429  0.666858  0.474480  1
  Al  Al10  1  0.164150  0.328300  0.572274  1
  Al  Al11  1  0.835850  0.671700  0.427726  1
  Al  Al12  1  0.672359  0.833860  0.576541  1
  Al  Al13  1  0.835850  0.671700  0.072274  1
  Al  Al14  1  0.327641  0.166140  0.423459  1
  Al  Al15  1  0.164150  0.328300  0.927726  1
  Al  Al16  1  0.161502  0.833860  0.576541  1
  Al  Al17  1  0.327641  0.166140  0.076541  1
  Al  Al18  1  0.838498  0.166140  0.423459  1
  Al  Al19  1  0.672359  0.833860  0.923459  1
  Al  Al20  1  0.838498  0.166140  0.076541  1
  Al  Al21  1  0.161502  0.833860  0.923459  1
  Al  Al22  1  0.564147  0.128294  0.250000  1
  Al  Al23  1  0.435853  0.871706  0.750000  1
  Al  Al24  1  0.874630  0.437510  0.250000  1
  Al  Al25  1  0.125370  0.562490  0.750000  1
  Al  Al26  1  0.562881  0.437510  0.250000  1
  Al  Al27  1  0.437119  0.562490  0.750000  1
  Al  Al28  1  0.004910  0.009820  0.250000  1
  Al  Al29  1  0.995090  0.990180  0.750000  1
  Ir  Ir30  1  0.500000  0.000000  0.000000  1
  Ir  Ir31  1  0.000000  0.500000  0.000000  1
  Ir  Ir32  1  0.500000  0.000000  0.500000  1
  Ir  Ir33  1  0.500000  0.500000  0.000000  1
  Ir  Ir34  1  0.000000  0.500000  0.500000  1
  Ir  Ir35  1  0.500000  0.500000  0.500000  1
  Os  Os36  1  0.000000  0.000000  0.000000  1
  Os  Os37  1  0.000000  0.000000  0.500000  1
