# generated using pymatgen
data_Dy16Tm3MgIr12
_symmetry_space_group_name_H-M   'P 1'
_cell_length_a   10.84072100
_cell_length_b   10.84072100
_cell_length_c   6.29432300
_cell_angle_alpha   90.00000000
_cell_angle_beta   90.00000000
_cell_angle_gamma   90.00000000
_symmetry_Int_Tables_number   1
_chemical_formula_structural   Dy16Tm3MgIr12
_chemical_formula_sum   'Dy16 Tm3 Mg1 Ir12'
_cell_volume   739.71659231
_cell_formula_units_Z   1
loop_
 _symmetry_equiv_pos_site_id
 _symmetry_equiv_pos_as_xyz
  1  'x, y, z'
loop_
 _atom_site_type_symbol
 _atom_site_label
 _atom_site_symmetry_multiplicity
 _atom_site_fract_x
 _atom_site_fract_y
 _atom_site_fract_z
 _atom_site_occupancy
  Dy  Dy0  1  0.283811  0.084568  0.378242  1
  Dy  Dy1  1  0.290154  0.912261  0.878970  1
  Dy  Dy2  1  0.709846  0.087739  0.878970  1
  Dy  Dy3  1  0.716189  0.915432  0.378242  1
  Dy  Dy4  1  0.588401  0.791264  0.878272  1
  Dy  Dy5  1  0.587203  0.208632  0.376736  1
  Dy  Dy6  1  0.412797  0.791368  0.376736  1
  Dy  Dy7  1  0.411599  0.208736  0.878272  1
  Dy  Dy8  1  0.208632  0.412797  0.623264  1
  Dy  Dy9  1  0.208736  0.588401  0.121728  1
  Dy  Dy10  1  0.791264  0.411599  0.121728  1
  Dy  Dy11  1  0.791368  0.587203  0.623264  1
  Dy  Dy12  1  0.912261  0.709846  0.121030  1
  Dy  Dy13  1  0.915432  0.283811  0.621758  1
  Dy  Dy14  1  0.084568  0.716189  0.621758  1
  Dy  Dy15  1  0.087739  0.290154  0.121030  1
  Tm  Tm16  1  0.000000  0.000000  0.000000  1
  Tm  Tm17  1  0.500000  0.500000  0.000000  1
  Tm  Tm18  1  0.500000  0.500000  0.500000  1
  Mg  Mg19  1  0.000000  0.000000  0.500000  1
  Ir  Ir20  1  0.846959  0.153916  0.246642  1
  Ir  Ir21  1  0.846084  0.846959  0.753358  1
  Ir  Ir22  1  0.153916  0.153041  0.753358  1
  Ir  Ir23  1  0.153041  0.846084  0.246642  1
  Ir  Ir24  1  0.653233  0.347152  0.748539  1
  Ir  Ir25  1  0.652848  0.653233  0.251461  1
  Ir  Ir26  1  0.347152  0.346767  0.251461  1
  Ir  Ir27  1  0.346767  0.652848  0.748539  1
  Ir  Ir28  1  0.500000  0.000000  0.124020  1
  Ir  Ir29  1  0.500000  0.000000  0.620156  1
  Ir  Ir30  1  0.000000  0.500000  0.875980  1
  Ir  Ir31  1  0.000000  0.500000  0.379844  1
