# generated using pymatgen
data_K3RbSb2S2(O4F3)2
_symmetry_space_group_name_H-M   'P 1'
_cell_length_a   5.72812000
_cell_length_b   9.29199100
_cell_length_c   14.35654900
_cell_angle_alpha   90.00000000
_cell_angle_beta   90.00000000
_cell_angle_gamma   90.00000000
_symmetry_Int_Tables_number   1
_chemical_formula_structural   K3RbSb2S2(O4F3)2
_chemical_formula_sum   'K6 Rb2 Sb4 S4 O16 F12'
_cell_volume   764.13650135
_cell_formula_units_Z   2
loop_
 _symmetry_equiv_pos_site_id
 _symmetry_equiv_pos_as_xyz
  1  'x, y, z'
loop_
 _atom_site_type_symbol
 _atom_site_label
 _atom_site_symmetry_multiplicity
 _atom_site_fract_x
 _atom_site_fract_y
 _atom_site_fract_z
 _atom_site_occupancy
  K  K0  1  0.492715  0.494353  0.191862  1
  K  K1  1  0.507285  0.994353  0.308138  1
  K  K2  1  0.004497  0.505795  0.692185  1
  K  K3  1  0.476808  0.683802  0.889738  1
  K  K4  1  0.995503  0.005795  0.807815  1
  K  K5  1  0.523192  0.183802  0.610262  1
  Rb  Rb6  1  0.975445  0.817534  0.114565  1
  Rb  Rb7  1  0.024555  0.317534  0.385435  1
  Sb  Sb8  1  0.468277  0.060557  0.018016  1
  Sb  Sb9  1  0.965347  0.439660  0.977102  1
  Sb  Sb10  1  0.034653  0.939660  0.522898  1
  Sb  Sb11  1  0.531723  0.560557  0.481984  1
  S  S12  1  0.970433  0.707691  0.343707  1
  S  S13  1  0.524432  0.292537  0.837860  1
  S  S14  1  0.475568  0.792537  0.662140  1
  S  S15  1  0.029567  0.207691  0.156293  1
  O  O16  1  0.353137  0.371791  0.781615  1
  O  O17  1  0.582097  0.649362  0.633038  1
  O  O18  1  0.076492  0.128332  0.065952  1
  O  O19  1  0.923508  0.628332  0.434048  1
  O  O20  1  0.922030  0.351897  0.130672  1
  O  O21  1  0.743533  0.265868  0.785944  1
  O  O22  1  0.646863  0.871791  0.718385  1
  O  O23  1  0.575788  0.375612  0.926521  1
  O  O24  1  0.138892  0.626500  0.287011  1
  O  O25  1  0.424212  0.875612  0.573479  1
  O  O26  1  0.747741  0.731275  0.293557  1
  O  O27  1  0.256467  0.765868  0.714056  1
  O  O28  1  0.417903  0.149362  0.866962  1
  O  O29  1  0.861108  0.126500  0.212989  1
  O  O30  1  0.252259  0.231275  0.206443  1
  O  O31  1  0.077970  0.851897  0.369328  1
  F  F32  1  0.538865  0.411585  0.375948  1
  F  F33  1  0.746518  0.421134  0.542422  1
  F  F34  1  0.710750  0.930035  0.958558  1
  F  F35  1  0.047532  0.090843  0.626339  1
  F  F36  1  0.253482  0.921134  0.957578  1
  F  F37  1  0.785601  0.068163  0.465164  1
  F  F38  1  0.952468  0.590843  0.873661  1
  F  F39  1  0.289250  0.430035  0.541442  1
  F  F40  1  0.252726  0.075673  0.460781  1
  F  F41  1  0.747274  0.575673  0.039219  1
  F  F42  1  0.461135  0.911585  0.124052  1
  F  F43  1  0.214399  0.568163  0.034836  1
