# generated using pymatgen
data_AcTb3(MoN3)4
_symmetry_space_group_name_H-M   'P 1'
_cell_length_a   7.29595880
_cell_length_b   7.29595874
_cell_length_c   6.18237231
_cell_angle_alpha   76.80124298
_cell_angle_beta   76.80123896
_cell_angle_gamma   84.16992547
_symmetry_Int_Tables_number   1
_chemical_formula_structural   AcTb3(MoN3)4
_chemical_formula_sum   'Ac1 Tb3 Mo4 N12'
_cell_volume   311.51211971
_cell_formula_units_Z   1
loop_
 _symmetry_equiv_pos_site_id
 _symmetry_equiv_pos_as_xyz
  1  'x, y, z'
loop_
 _atom_site_type_symbol
 _atom_site_label
 _atom_site_symmetry_multiplicity
 _atom_site_fract_x
 _atom_site_fract_y
 _atom_site_fract_z
 _atom_site_occupancy
  Ac  Ac0  1  0.684654  0.315346  0.750000  1
  Tb  Tb1  1  0.307734  0.692266  0.250000  1
  Tb  Tb2  1  0.919146  0.080854  0.250000  1
  Tb  Tb3  1  0.093549  0.906451  0.750000  1
  Mo  Mo4  1  0.616846  0.804197  0.742103  1
  Mo  Mo5  1  0.378199  0.198593  0.264580  1
  Mo  Mo6  1  0.801407  0.621801  0.235420  1
  Mo  Mo7  1  0.195803  0.383154  0.757897  1
  N  N8  1  0.384151  0.893477  0.851876  1
  N  N9  1  0.009755  0.210535  0.855628  1
  N  N10  1  0.657765  0.623525  0.005373  1
  N  N11  1  0.106523  0.615849  0.648124  1
  N  N12  1  0.884327  0.386024  0.330218  1
  N  N13  1  0.223003  0.994570  0.354668  1
  N  N14  1  0.328550  0.376757  0.000591  1
  N  N15  1  0.789465  0.990245  0.644372  1
  N  N16  1  0.613976  0.115673  0.169782  1
  N  N17  1  0.376475  0.342235  0.494627  1
  N  N18  1  0.005430  0.776997  0.145332  1
  N  N19  1  0.623243  0.671450  0.499409  1
