# generated using pymatgen
data_Ho3Tm3Hf2(Co4P3)4
_symmetry_space_group_name_H-M   'P 1'
_cell_length_a   3.69316600
_cell_length_b   10.62904304
_cell_length_c   12.32635205
_cell_angle_alpha   89.98988644
_cell_angle_beta   90.00000000
_cell_angle_gamma   90.00000000
_symmetry_Int_Tables_number   1
_chemical_formula_structural   Ho3Tm3Hf2(Co4P3)4
_chemical_formula_sum   'Ho3 Tm3 Hf2 Co16 P12'
_cell_volume   483.86872796
_cell_formula_units_Z   1
loop_
 _symmetry_equiv_pos_site_id
 _symmetry_equiv_pos_as_xyz
  1  'x, y, z'
loop_
 _atom_site_type_symbol
 _atom_site_label
 _atom_site_symmetry_multiplicity
 _atom_site_fract_x
 _atom_site_fract_y
 _atom_site_fract_z
 _atom_site_occupancy
  Ho  Ho0  1  0.000000  0.499925  0.529195  1
  Ho  Ho1  1  0.500000  0.000147  0.470936  1
  Ho  Ho2  1  0.500000  0.821982  0.204342  1
  Tm  Tm3  1  0.500000  0.178077  0.204222  1
  Tm  Tm4  1  0.000000  0.677734  0.795889  1
  Tm  Tm5  1  0.000000  0.322237  0.795639  1
  Hf  Hf6  1  0.500000  0.499747  0.157617  1
  Hf  Hf7  1  0.000000  0.000053  0.842332  1
  Co  Co8  1  0.500000  0.499882  0.703488  1
  Co  Co9  1  0.000000  0.000850  0.296744  1
  Co  Co10  1  0.000000  0.499674  0.986452  1
  Co  Co11  1  0.500000  0.000373  0.012978  1
  Co  Co12  1  0.500000  0.332023  0.993211  1
  Co  Co13  1  0.500000  0.667661  0.992842  1
  Co  Co14  1  0.000000  0.168274  0.006379  1
  Co  Co15  1  0.000000  0.831999  0.006226  1
  Co  Co16  1  0.500000  0.295090  0.433019  1
  Co  Co17  1  0.500000  0.704990  0.433547  1
  Co  Co18  1  0.000000  0.205213  0.567068  1
  Co  Co19  1  0.000000  0.794893  0.567503  1
  Co  Co20  1  0.500000  0.877082  0.703305  1
  Co  Co21  1  0.500000  0.122933  0.702979  1
  Co  Co22  1  0.000000  0.622146  0.297600  1
  Co  Co23  1  0.000000  0.376937  0.296835  1
  P  P24  1  0.500000  0.499805  0.882653  1
  P  P25  1  0.000000  0.000705  0.116775  1
  P  P26  1  0.500000  0.500100  0.362664  1
  P  P27  1  0.000000  0.000034  0.637457  1
  P  P28  1  0.500000  0.310805  0.616522  1
  P  P29  1  0.500000  0.689071  0.616863  1
  P  P30  1  0.000000  0.189481  0.383536  1
  P  P31  1  0.000000  0.810590  0.384243  1
  P  P32  1  0.500000  0.837813  0.891992  1
  P  P33  1  0.500000  0.162381  0.891768  1
  P  P34  1  0.000000  0.661624  0.107253  1
  P  P35  1  0.000000  0.337667  0.107925  1
