# generated using pymatgen
data_ScIn3BiB4Ir9
_symmetry_space_group_name_H-M   'P 1'
_cell_length_a   5.61367500
_cell_length_b   5.61367425
_cell_length_c   10.50824600
_cell_angle_alpha   90.00000000
_cell_angle_beta   90.00000000
_cell_angle_gamma   120.00001033
_symmetry_Int_Tables_number   1
_chemical_formula_structural   ScIn3BiB4Ir9
_chemical_formula_sum   'Sc1 In3 Bi1 B4 Ir9'
_cell_volume   286.78424639
_cell_formula_units_Z   1
loop_
 _symmetry_equiv_pos_site_id
 _symmetry_equiv_pos_as_xyz
  1  'x, y, z'
loop_
 _atom_site_type_symbol
 _atom_site_label
 _atom_site_symmetry_multiplicity
 _atom_site_fract_x
 _atom_site_fract_y
 _atom_site_fract_z
 _atom_site_occupancy
  Sc  Sc0  1  0.000000  0.000000  0.918503  1
  In  In1  1  0.666667  0.333333  0.506608  1
  In  In2  1  0.000000  0.000000  0.319259  1
  In  In3  1  0.333333  0.666667  0.506608  1
  Bi  Bi4  1  0.000000  0.000000  0.626308  1
  B  B5  1  0.666667  0.333333  0.154115  1
  B  B6  1  0.333333  0.666667  0.865997  1
  B  B7  1  0.666667  0.333333  0.865997  1
  B  B8  1  0.333333  0.666667  0.154115  1
  Ir  Ir9  1  0.000000  0.496459  0.281765  1
  Ir  Ir10  1  0.457146  0.000000  0.735458  1
  Ir  Ir11  1  0.496459  0.000000  0.281765  1
  Ir  Ir12  1  0.000000  0.490256  0.010273  1
  Ir  Ir13  1  0.542854  0.542854  0.735458  1
  Ir  Ir14  1  0.000000  0.457146  0.735458  1
  Ir  Ir15  1  0.509744  0.509744  0.010273  1
  Ir  Ir16  1  0.490256  0.000000  0.010273  1
  Ir  Ir17  1  0.503541  0.503541  0.281765  1
