# generated using pymatgen
data_TbHoAl20(FeRh)2
_symmetry_space_group_name_H-M   'P 1'
_cell_length_a   6.80173466
_cell_length_b   6.80173538
_cell_length_c   9.08149102
_cell_angle_alpha   90.27139036
_cell_angle_beta   90.27138026
_cell_angle_gamma   97.17978134
_symmetry_Int_Tables_number   1
_chemical_formula_structural   TbHoAl20(FeRh)2
_chemical_formula_sum   'Tb1 Ho1 Al20 Fe2 Rh2'
_cell_volume   416.83738079
_cell_formula_units_Z   1
loop_
 _symmetry_equiv_pos_site_id
 _symmetry_equiv_pos_as_xyz
  1  'x, y, z'
loop_
 _atom_site_type_symbol
 _atom_site_label
 _atom_site_symmetry_multiplicity
 _atom_site_fract_x
 _atom_site_fract_y
 _atom_site_fract_z
 _atom_site_occupancy
  Tb  Tb0  1  0.872943  0.127057  0.750000  1
  Ho  Ho1  1  0.127187  0.872813  0.250000  1
  Al  Al2  1  0.620345  0.372248  0.549573  1
  Al  Al3  1  0.379558  0.627847  0.450359  1
  Al  Al4  1  0.372153  0.620442  0.049641  1
  Al  Al5  1  0.627752  0.379655  0.950427  1
  Al  Al6  1  0.229088  0.221609  0.496856  1
  Al  Al7  1  0.770950  0.778322  0.503001  1
  Al  Al8  1  0.778391  0.770912  0.003144  1
  Al  Al9  1  0.221678  0.229050  0.996999  1
  Al  Al10  1  0.848651  0.159902  0.099913  1
  Al  Al11  1  0.151469  0.839994  0.900225  1
  Al  Al12  1  0.160006  0.848531  0.599775  1
  Al  Al13  1  0.840098  0.151349  0.400087  1
  Al  Al14  1  0.861054  0.586392  0.753600  1
  Al  Al15  1  0.138983  0.413817  0.246403  1
  Al  Al16  1  0.413608  0.138946  0.746400  1
  Al  Al17  1  0.586183  0.861017  0.253597  1
  Al  Al18  1  0.223699  0.479670  0.754817  1
  Al  Al19  1  0.776436  0.520496  0.245187  1
  Al  Al20  1  0.520330  0.776301  0.745183  1
  Al  Al21  1  0.479504  0.223564  0.254813  1
  Fe  Fe22  1  0.999997  0.500036  0.000084  1
  Fe  Fe23  1  0.499964  0.000003  0.499916  1
  Rh  Rh24  1  0.000005  0.500032  0.499907  1
  Rh  Rh25  1  0.499968  0.999995  0.000093  1
