# generated using pymatgen
data_CaTbY5CoI12
_symmetry_space_group_name_H-M   'P 1'
_cell_length_a   9.72638918
_cell_length_b   9.81354156
_cell_length_c   9.80733047
_cell_angle_alpha   106.82467256
_cell_angle_beta   107.04791245
_cell_angle_gamma   106.76501081
_symmetry_Int_Tables_number   1
_chemical_formula_structural   CaTbY5CoI12
_chemical_formula_sum   'Ca1 Tb1 Y5 Co1 I12'
_cell_volume   782.15448157
_cell_formula_units_Z   1
loop_
 _symmetry_equiv_pos_site_id
 _symmetry_equiv_pos_as_xyz
  1  'x, y, z'
loop_
 _atom_site_type_symbol
 _atom_site_label
 _atom_site_symmetry_multiplicity
 _atom_site_fract_x
 _atom_site_fract_y
 _atom_site_fract_z
 _atom_site_occupancy
  Ca  Ca0  1  0.500068  0.499994  0.500012  1
  Tb  Tb1  1  0.716261  0.977421  0.908417  1
  Y  Y2  1  0.023352  0.095809  0.295428  1
  Y  Y3  1  0.095369  0.295171  0.024139  1
  Y  Y4  1  0.283420  0.022681  0.091364  1
  Y  Y5  1  0.976793  0.904233  0.704715  1
  Y  Y6  1  0.904910  0.704978  0.975958  1
  Co  Co7  1  0.999240  0.000032  0.999821  1
  I  I8  1  0.148793  0.456081  0.377596  1
  I  I9  1  0.456217  0.376634  0.149685  1
  I  I10  1  0.378059  0.149168  0.454792  1
  I  I11  1  0.851320  0.543898  0.622430  1
  I  I12  1  0.543909  0.622944  0.850304  1
  I  I13  1  0.622037  0.850479  0.544607  1
  I  I14  1  0.678974  0.072003  0.222643  1
  I  I15  1  0.072407  0.223353  0.678863  1
  I  I16  1  0.225060  0.680145  0.073008  1
  I  I17  1  0.320797  0.928076  0.777915  1
  I  I18  1  0.927717  0.776675  0.321164  1
  I  I19  1  0.775298  0.320226  0.927139  1
