# generated using pymatgen
data_Dy3Bi(Rh2O7)2
_symmetry_space_group_name_H-M   'P 1'
_cell_length_a   7.26648855
_cell_length_b   7.26648922
_cell_length_c   7.26648898
_cell_angle_alpha   59.83728143
_cell_angle_beta   59.83728198
_cell_angle_gamma   59.83727707
_symmetry_Int_Tables_number   1
_chemical_formula_structural   Dy3Bi(Rh2O7)2
_chemical_formula_sum   'Dy3 Bi1 Rh4 O14'
_cell_volume   270.30371863
_cell_formula_units_Z   1
loop_
 _symmetry_equiv_pos_site_id
 _symmetry_equiv_pos_as_xyz
  1  'x, y, z'
loop_
 _atom_site_type_symbol
 _atom_site_label
 _atom_site_symmetry_multiplicity
 _atom_site_fract_x
 _atom_site_fract_y
 _atom_site_fract_z
 _atom_site_occupancy
  Dy  Dy0  1  0.125000  0.625000  0.125000  1
  Dy  Dy1  1  0.625000  0.125000  0.125000  1
  Dy  Dy2  1  0.125000  0.125000  0.625000  1
  Bi  Bi3  1  0.125000  0.125000  0.125000  1
  Rh  Rh4  1  0.625000  0.625000  0.625000  1
  Rh  Rh5  1  0.625000  0.625000  0.125000  1
  Rh  Rh6  1  0.125000  0.625000  0.625000  1
  Rh  Rh7  1  0.625000  0.125000  0.625000  1
  O  O8  1  0.252000  0.252000  0.252000  1
  O  O9  1  0.288802  0.707891  0.288802  1
  O  O10  1  0.961198  0.961198  0.542109  1
  O  O11  1  0.537484  0.962243  0.537484  1
  O  O12  1  0.712516  0.712516  0.287757  1
  O  O13  1  0.962243  0.537484  0.537484  1
  O  O14  1  0.712516  0.287757  0.712516  1
  O  O15  1  0.288802  0.288802  0.707891  1
  O  O16  1  0.707891  0.288802  0.288802  1
  O  O17  1  0.287757  0.712516  0.712516  1
  O  O18  1  0.961198  0.542109  0.961198  1
  O  O19  1  0.537484  0.537484  0.962243  1
  O  O20  1  0.998000  0.998000  0.998000  1
  O  O21  1  0.542109  0.961198  0.961198  1
