# generated using pymatgen
data_Li8Y8In3Bi5
_symmetry_space_group_name_H-M   'P 1'
_cell_length_a   9.55828012
_cell_length_b   9.55827951
_cell_length_c   7.31789323
_cell_angle_alpha   90.15715462
_cell_angle_beta   89.84283437
_cell_angle_gamma   120.05700543
_symmetry_Int_Tables_number   1
_chemical_formula_structural   Li8Y8In3Bi5
_chemical_formula_sum   'Li8 Y8 In3 Bi5'
_cell_volume   578.66104535
_cell_formula_units_Z   1
loop_
 _symmetry_equiv_pos_site_id
 _symmetry_equiv_pos_as_xyz
  1  'x, y, z'
loop_
 _atom_site_type_symbol
 _atom_site_label
 _atom_site_symmetry_multiplicity
 _atom_site_fract_x
 _atom_site_fract_y
 _atom_site_fract_z
 _atom_site_occupancy
  Li  Li0  1  0.169406  0.830594  0.200198  1
  Li  Li1  1  0.337583  0.168404  0.705033  1
  Li  Li2  1  0.831596  0.662417  0.705033  1
  Li  Li3  1  0.165335  0.336248  0.208982  1
  Li  Li4  1  0.663752  0.834665  0.208982  1
  Li  Li5  1  0.830686  0.169314  0.699792  1
  Li  Li6  1  0.333036  0.666964  0.808964  1
  Li  Li7  1  0.668775  0.331225  0.305458  1
  Y  Y8  1  0.511031  0.488969  0.989063  1
  Y  Y9  1  0.020431  0.506385  0.484860  1
  Y  Y10  1  0.493615  0.979569  0.484860  1
  Y  Y11  1  0.518436  0.026616  0.992004  1
  Y  Y12  1  0.973384  0.481564  0.992004  1
  Y  Y13  1  0.489377  0.510623  0.489019  1
  Y  Y14  1  0.996549  0.003451  0.987606  1
  Y  Y15  1  0.997078  0.002922  0.478290  1
  In  In16  1  0.834128  0.165872  0.251675  1
  In  In17  1  0.333850  0.666150  0.226371  1
  In  In18  1  0.665567  0.334433  0.725662  1
  Bi  Bi19  1  0.165930  0.834070  0.750468  1
  Bi  Bi20  1  0.332848  0.166573  0.248868  1
  Bi  Bi21  1  0.833427  0.667152  0.248868  1
  Bi  Bi22  1  0.166627  0.332445  0.748972  1
  Bi  Bi23  1  0.667555  0.833373  0.748972  1
