# generated using pymatgen
data_TbTh3(InGa2)2
_symmetry_space_group_name_H-M   'P 1'
_cell_length_a   7.44001472
_cell_length_b   7.44001472
_cell_length_c   4.46379900
_cell_angle_alpha   90.00000000
_cell_angle_beta   90.00000000
_cell_angle_gamma   90.63358240
_symmetry_Int_Tables_number   1
_chemical_formula_structural   TbTh3(InGa2)2
_chemical_formula_sum   'Tb1 Th3 In2 Ga4'
_cell_volume   247.07321515
_cell_formula_units_Z   1
loop_
 _symmetry_equiv_pos_site_id
 _symmetry_equiv_pos_as_xyz
  1  'x, y, z'
loop_
 _atom_site_type_symbol
 _atom_site_label
 _atom_site_symmetry_multiplicity
 _atom_site_fract_x
 _atom_site_fract_y
 _atom_site_fract_z
 _atom_site_occupancy
  Tb  Tb0  1  0.675762  0.175762  0.500000  1
  Th  Th1  1  0.174543  0.324311  0.500000  1
  Th  Th2  1  0.824311  0.674543  0.500000  1
  Th  Th3  1  0.326513  0.826513  0.500000  1
  In  In4  1  0.997016  0.002081  0.000000  1
  In  In5  1  0.502081  0.497016  0.000000  1
  Ga  Ga6  1  0.873557  0.373557  0.000000  1
  Ga  Ga7  1  0.381240  0.123352  0.000000  1
  Ga  Ga8  1  0.623352  0.881240  0.000000  1
  Ga  Ga9  1  0.121624  0.621624  0.000000  1
