# generated using pymatgen
data_Tb11Tm9(Bi2Ir)4
_symmetry_space_group_name_H-M   'P 1'
_cell_length_a   7.95171737
_cell_length_b   9.01166400
_cell_length_c   12.52595511
_cell_angle_alpha   90.00000000
_cell_angle_beta   89.93314275
_cell_angle_gamma   90.00000000
_symmetry_Int_Tables_number   1
_chemical_formula_structural   Tb11Tm9(Bi2Ir)4
_chemical_formula_sum   'Tb11 Tm9 Bi8 Ir4'
_cell_volume   897.58684974
_cell_formula_units_Z   1
loop_
 _symmetry_equiv_pos_site_id
 _symmetry_equiv_pos_as_xyz
  1  'x, y, z'
loop_
 _atom_site_type_symbol
 _atom_site_label
 _atom_site_symmetry_multiplicity
 _atom_site_fract_x
 _atom_site_fract_y
 _atom_site_fract_z
 _atom_site_occupancy
  Tb  Tb0  1  0.157633  0.250000  0.206490  1
  Tb  Tb1  1  0.341913  0.250000  0.706880  1
  Tb  Tb2  1  0.657837  0.750000  0.293279  1
  Tb  Tb3  1  0.375969  0.750000  0.693083  1
  Tb  Tb4  1  0.624776  0.250000  0.306996  1
  Tb  Tb5  1  0.875160  0.250000  0.807018  1
  Tb  Tb6  1  0.124953  0.750000  0.192871  1
  Tb  Tb7  1  0.945657  0.750000  0.502347  1
  Tb  Tb8  1  0.053490  0.250000  0.498637  1
  Tb  Tb9  1  0.446472  0.250000  0.997875  1
  Tb  Tb10  1  0.554683  0.750000  0.001141  1
  Tm  Tm11  1  0.843178  0.750000  0.795244  1
  Tm  Tm12  1  0.673497  0.040906  0.565244  1
  Tm  Tm13  1  0.326473  0.959077  0.435073  1
  Tm  Tm14  1  0.173111  0.958459  0.934364  1
  Tm  Tm15  1  0.326473  0.540923  0.435073  1
  Tm  Tm16  1  0.826432  0.040892  0.064726  1
  Tm  Tm17  1  0.673497  0.459094  0.565244  1
  Tm  Tm18  1  0.826432  0.459108  0.064726  1
  Tm  Tm19  1  0.173111  0.541541  0.934364  1
  Bi  Bi20  1  0.568748  0.492322  0.826851  1
  Bi  Bi21  1  0.432648  0.508527  0.172465  1
  Bi  Bi22  1  0.065900  0.509559  0.673505  1
  Bi  Bi23  1  0.432648  0.991473  0.172465  1
  Bi  Bi24  1  0.932849  0.491702  0.327472  1
  Bi  Bi25  1  0.568748  0.007678  0.826851  1
  Bi  Bi26  1  0.932849  0.008298  0.327472  1
  Bi  Bi27  1  0.065900  0.990441  0.673505  1
  Ir  Ir28  1  0.567913  0.750000  0.508539  1
  Ir  Ir29  1  0.431531  0.250000  0.491450  1
  Ir  Ir30  1  0.068374  0.250000  0.991108  1
  Ir  Ir31  1  0.931145  0.750000  0.007643  1
