# generated using pymatgen
data_NdTm2Mg3Pb2Au
_symmetry_space_group_name_H-M   'P 1'
_cell_length_a   7.61030958
_cell_length_b   7.61030811
_cell_length_c   4.53173100
_cell_angle_alpha   90.00000000
_cell_angle_beta   90.00000000
_cell_angle_gamma   120.64771872
_symmetry_Int_Tables_number   1
_chemical_formula_structural   NdTm2Mg3Pb2Au
_chemical_formula_sum   'Nd1 Tm2 Mg3 Pb2 Au1'
_cell_volume   225.80189466
_cell_formula_units_Z   1
loop_
 _symmetry_equiv_pos_site_id
 _symmetry_equiv_pos_as_xyz
  1  'x, y, z'
loop_
 _atom_site_type_symbol
 _atom_site_label
 _atom_site_symmetry_multiplicity
 _atom_site_fract_x
 _atom_site_fract_y
 _atom_site_fract_z
 _atom_site_occupancy
  Nd  Nd0  1  0.407646  0.407646  0.000000  1
  Tm  Tm1  1  0.599282  0.001632  0.000000  1
  Tm  Tm2  1  0.001632  0.599282  0.000000  1
  Mg  Mg3  1  0.231979  0.999151  0.500000  1
  Mg  Mg4  1  0.999151  0.231979  0.500000  1
  Mg  Mg5  1  0.766930  0.766930  0.500000  1
  Pb  Pb6  1  0.330160  0.671865  0.500000  1
  Pb  Pb7  1  0.671865  0.330160  0.500000  1
  Au  Au8  1  0.991355  0.991355  0.000000  1
