# generated using pymatgen
data_Pr3Al12(IrRu)2
_symmetry_space_group_name_H-M   'P 1'
_cell_length_a   8.93425400
_cell_length_b   8.93839424
_cell_length_c   9.65748616
_cell_angle_alpha   89.84943469
_cell_angle_beta   90.00000000
_cell_angle_gamma   119.98467136
_symmetry_Int_Tables_number   1
_chemical_formula_structural   Pr3Al12(IrRu)2
_chemical_formula_sum   'Pr6 Al24 Ir4 Ru4'
_cell_volume   668.00173345
_cell_formula_units_Z   2
loop_
 _symmetry_equiv_pos_site_id
 _symmetry_equiv_pos_as_xyz
  1  'x, y, z'
loop_
 _atom_site_type_symbol
 _atom_site_label
 _atom_site_symmetry_multiplicity
 _atom_site_fract_x
 _atom_site_fract_y
 _atom_site_fract_z
 _atom_site_occupancy
  Pr  Pr0  1  0.192057  0.384114  0.250059  1
  Pr  Pr1  1  0.807943  0.615886  0.749941  1
  Pr  Pr2  1  0.616399  0.807995  0.249517  1
  Pr  Pr3  1  0.383601  0.192005  0.750483  1
  Pr  Pr4  1  0.191596  0.807995  0.249517  1
  Pr  Pr5  1  0.808404  0.192005  0.750483  1
  Al  Al6  1  0.333271  0.666542  0.010628  1
  Al  Al7  1  0.666729  0.333458  0.989372  1
  Al  Al8  1  0.667288  0.334574  0.508999  1
  Al  Al9  1  0.332712  0.665426  0.491001  1
  Al  Al10  1  0.162628  0.325254  0.576557  1
  Al  Al11  1  0.837372  0.674746  0.423443  1
  Al  Al12  1  0.674688  0.836882  0.576126  1
  Al  Al13  1  0.837542  0.675084  0.075173  1
  Al  Al14  1  0.325312  0.163118  0.423874  1
  Al  Al15  1  0.162458  0.324916  0.924827  1
  Al  Al16  1  0.162195  0.836882  0.576126  1
  Al  Al17  1  0.324900  0.162459  0.075611  1
  Al  Al18  1  0.837805  0.163118  0.423874  1
  Al  Al19  1  0.675100  0.837541  0.924389  1
  Al  Al20  1  0.837558  0.162459  0.075611  1
  Al  Al21  1  0.162442  0.837541  0.924389  1
  Al  Al22  1  0.563014  0.126028  0.249024  1
  Al  Al23  1  0.436986  0.873972  0.750976  1
  Al  Al24  1  0.874164  0.436920  0.250237  1
  Al  Al25  1  0.125836  0.563080  0.749763  1
  Al  Al26  1  0.562756  0.436920  0.250237  1
  Al  Al27  1  0.437244  0.563080  0.749763  1
  Al  Al28  1  0.000003  0.000007  0.250020  1
  Al  Al29  1  0.999997  0.999993  0.749980  1
  Ir  Ir30  1  0.500000  0.000000  0.000000  1
  Ir  Ir31  1  0.000000  0.500000  0.000000  1
  Ir  Ir32  1  0.500000  0.000000  0.500000  1
  Ir  Ir33  1  0.500000  0.500000  0.000000  1
  Ru  Ru34  1  0.000000  0.500000  0.500000  1
  Ru  Ru35  1  0.500000  0.500000  0.500000  1
  Ru  Ru36  1  0.000000  0.000000  0.000000  1
  Ru  Ru37  1  0.000000  0.000000  0.500000  1
