# generated using pymatgen
data_Y16Cd3Co3AgIr
_symmetry_space_group_name_H-M   'P 1'
_cell_length_a   9.60137559
_cell_length_b   9.55921560
_cell_length_c   9.55921591
_cell_angle_alpha   59.90694885
_cell_angle_beta   60.06127291
_cell_angle_gamma   60.06128419
_symmetry_Int_Tables_number   1
_chemical_formula_structural   Y16Cd3Co3AgIr
_chemical_formula_sum   'Y16 Cd3 Co3 Ag1 Ir1'
_cell_volume   620.52276452
_cell_formula_units_Z   1
loop_
 _symmetry_equiv_pos_site_id
 _symmetry_equiv_pos_as_xyz
  1  'x, y, z'
loop_
 _atom_site_type_symbol
 _atom_site_label
 _atom_site_symmetry_multiplicity
 _atom_site_fract_x
 _atom_site_fract_y
 _atom_site_fract_z
 _atom_site_occupancy
  Y  Y0  1  0.340677  0.350808  0.350808  1
  Y  Y1  1  0.340895  0.351947  0.956783  1
  Y  Y2  1  0.340895  0.956783  0.351947  1
  Y  Y3  1  0.961715  0.346754  0.346754  1
  Y  Y4  1  0.815335  0.188824  0.188824  1
  Y  Y5  1  0.188594  0.810681  0.810681  1
  Y  Y6  1  0.189980  0.809888  0.187912  1
  Y  Y7  1  0.816488  0.186475  0.806024  1
  Y  Y8  1  0.189980  0.187912  0.809888  1
  Y  Y9  1  0.816488  0.806024  0.186475  1
  Y  Y10  1  0.934711  0.562589  0.562589  1
  Y  Y11  1  0.562675  0.938325  0.938325  1
  Y  Y12  1  0.562255  0.937868  0.558054  1
  Y  Y13  1  0.935005  0.563389  0.936697  1
  Y  Y14  1  0.562255  0.558054  0.937868  1
  Y  Y15  1  0.935005  0.936697  0.563389  1
  Cd  Cd16  1  0.582543  0.580634  0.260101  1
  Cd  Cd17  1  0.582543  0.260101  0.580634  1
  Cd  Cd18  1  0.258446  0.581593  0.581593  1
  Co  Co19  1  0.140675  0.140584  0.140584  1
  Co  Co20  1  0.142152  0.142429  0.577592  1
  Co  Co21  1  0.142152  0.577592  0.142429  1
  Ag  Ag22  1  0.583043  0.581688  0.581688  1
  Ir  Ir23  1  0.575492  0.142364  0.142364  1
