# generated using pymatgen
data_Yb6DyLuBi6
_symmetry_space_group_name_H-M   'P 1'
_cell_length_a   8.14181366
_cell_length_b   8.33761950
_cell_length_c   8.33761872
_cell_angle_alpha   109.94206187
_cell_angle_beta   108.99617472
_cell_angle_gamma   108.99617537
_symmetry_Int_Tables_number   1
_chemical_formula_structural   Yb6DyLuBi6
_chemical_formula_sum   'Yb6 Dy1 Lu1 Bi6'
_cell_volume   438.22381706
_cell_formula_units_Z   1
loop_
 _symmetry_equiv_pos_site_id
 _symmetry_equiv_pos_as_xyz
  1  'x, y, z'
loop_
 _atom_site_type_symbol
 _atom_site_label
 _atom_site_symmetry_multiplicity
 _atom_site_fract_x
 _atom_site_fract_y
 _atom_site_fract_z
 _atom_site_occupancy
  Yb  Yb0  1  0.500678  0.999008  0.646116  1
  Yb  Yb1  1  0.354784  0.352788  0.354353  1
  Yb  Yb2  1  0.501996  0.001566  0.147212  1
  Yb  Yb3  1  0.001670  0.647108  0.500992  1
  Yb  Yb4  1  0.854561  0.853884  0.852892  1
  Yb  Yb5  1  0.000430  0.145647  0.498434  1
  Dy  Dy6  1  0.142348  0.500000  0.000000  1
  Lu  Lu7  1  0.642419  0.500000  0.000000  1
  Bi  Bi8  1  0.378268  0.622109  0.757557  1
  Bi  Bi9  1  0.875094  0.256450  0.122854  1
  Bi  Bi10  1  0.620710  0.742443  0.364552  1
  Bi  Bi11  1  0.118643  0.866403  0.243550  1
  Bi  Bi12  1  0.256159  0.135448  0.877891  1
  Bi  Bi13  1  0.752241  0.377146  0.633597  1
