# generated using pymatgen
data_Hf3Al3GaPd2
_symmetry_space_group_name_H-M   'P 1'
_cell_length_a   6.63633200
_cell_length_b   6.63633191
_cell_length_c   8.30181200
_cell_angle_alpha   90.00000000
_cell_angle_beta   90.00000000
_cell_angle_gamma   120.00000043
_symmetry_Int_Tables_number   1
_chemical_formula_structural   Hf3Al3GaPd2
_chemical_formula_sum   'Hf6 Al6 Ga2 Pd4'
_cell_volume   316.63558961
_cell_formula_units_Z   2
loop_
 _symmetry_equiv_pos_site_id
 _symmetry_equiv_pos_as_xyz
  1  'x, y, z'
loop_
 _atom_site_type_symbol
 _atom_site_label
 _atom_site_symmetry_multiplicity
 _atom_site_fract_x
 _atom_site_fract_y
 _atom_site_fract_z
 _atom_site_occupancy
  Hf  Hf0  1  0.573632  0.994797  0.750000  1
  Hf  Hf1  1  0.005203  0.578834  0.750000  1
  Hf  Hf2  1  0.421166  0.426368  0.750000  1
  Hf  Hf3  1  0.005493  0.579037  0.250000  1
  Hf  Hf4  1  0.573544  0.994507  0.250000  1
  Hf  Hf5  1  0.420963  0.426456  0.250000  1
  Al  Al6  1  0.750860  0.759558  0.999975  1
  Al  Al7  1  0.240442  0.991303  0.999975  1
  Al  Al8  1  0.008697  0.249140  0.999975  1
  Al  Al9  1  0.750860  0.759558  0.500025  1
  Al  Al10  1  0.240442  0.991303  0.500025  1
  Al  Al11  1  0.008697  0.249140  0.500025  1
  Ga  Ga12  1  0.666667  0.333333  0.000196  1
  Ga  Ga13  1  0.666667  0.333333  0.499804  1
  Pd  Pd14  1  0.000000  0.000000  0.750000  1
  Pd  Pd15  1  0.000000  0.000000  0.250000  1
  Pd  Pd16  1  0.333333  0.666667  0.500119  1
  Pd  Pd17  1  0.333333  0.666667  0.999882  1
