# generated using pymatgen
data_Cs3Co2Br9
_symmetry_space_group_name_H-M   'P 1'
_cell_length_a   7.68017500
_cell_length_b   7.68017468
_cell_length_c   19.03508500
_cell_angle_alpha   90.00000000
_cell_angle_beta   90.00000000
_cell_angle_gamma   120.00000568
_symmetry_Int_Tables_number   1
_chemical_formula_structural   Cs3Co2Br9
_chemical_formula_sum   'Cs6 Co4 Br18'
_cell_volume   972.36124555
_cell_formula_units_Z   2
loop_
 _symmetry_equiv_pos_site_id
 _symmetry_equiv_pos_as_xyz
  1  'x, y, z'
loop_
 _atom_site_type_symbol
 _atom_site_label
 _atom_site_symmetry_multiplicity
 _atom_site_fract_x
 _atom_site_fract_y
 _atom_site_fract_z
 _atom_site_occupancy
  Cs  Cs0  1  0.666667  0.333333  0.929205  1
  Cs  Cs1  1  0.333333  0.666667  0.429205  1
  Cs  Cs2  1  0.666667  0.333333  0.570795  1
  Cs  Cs3  1  0.333333  0.666667  0.070795  1
  Cs  Cs4  1  0.000000  0.000000  0.750000  1
  Cs  Cs5  1  0.000000  0.000000  0.250000  1
  Co  Co6  1  0.333333  0.666667  0.666882  1
  Co  Co7  1  0.666667  0.333333  0.166882  1
  Co  Co8  1  0.666667  0.333333  0.333118  1
  Co  Co9  1  0.333333  0.666667  0.833118  1
  Br  Br10  1  0.816070  0.632139  0.403899  1
  Br  Br11  1  0.183930  0.367861  0.903899  1
  Br  Br12  1  0.183930  0.816070  0.903899  1
  Br  Br13  1  0.183930  0.367861  0.596101  1
  Br  Br14  1  0.632139  0.816070  0.903899  1
  Br  Br15  1  0.367861  0.183930  0.403899  1
  Br  Br16  1  0.049750  0.524874  0.750000  1
  Br  Br17  1  0.816070  0.183930  0.403899  1
  Br  Br18  1  0.524874  0.049750  0.250000  1
  Br  Br19  1  0.475126  0.524874  0.750000  1
  Br  Br20  1  0.524874  0.475126  0.250000  1
  Br  Br21  1  0.950250  0.475126  0.250000  1
  Br  Br22  1  0.367861  0.183930  0.096101  1
  Br  Br23  1  0.475126  0.950250  0.750000  1
  Br  Br24  1  0.816070  0.632139  0.096101  1
  Br  Br25  1  0.183930  0.816070  0.596101  1
  Br  Br26  1  0.632139  0.816070  0.596101  1
  Br  Br27  1  0.816070  0.183930  0.096101  1
