# generated using pymatgen
data_Nd3Er3CoBr10
_symmetry_space_group_name_H-M   'P 1'
_cell_length_a   7.41419156
_cell_length_b   9.28246582
_cell_length_c   9.39060921
_cell_angle_alpha   108.16028664
_cell_angle_beta   96.22716401
_cell_angle_gamma   104.26436726
_symmetry_Int_Tables_number   1
_chemical_formula_structural   Nd3Er3CoBr10
_chemical_formula_sum   'Nd3 Er3 Co1 Br10'
_cell_volume   582.98660996
_cell_formula_units_Z   1
loop_
 _symmetry_equiv_pos_site_id
 _symmetry_equiv_pos_as_xyz
  1  'x, y, z'
loop_
 _atom_site_type_symbol
 _atom_site_label
 _atom_site_symmetry_multiplicity
 _atom_site_fract_x
 _atom_site_fract_y
 _atom_site_fract_z
 _atom_site_occupancy
  Nd  Nd0  1  0.034988  0.713948  0.407637  1
  Nd  Nd1  1  0.964810  0.284906  0.586829  1
  Nd  Nd2  1  0.872928  0.951855  0.749240  1
  Er  Er3  1  0.124102  0.046574  0.261468  1
  Er  Er4  1  0.349369  0.126945  0.672748  1
  Er  Er5  1  0.650806  0.873919  0.328191  1
  Co  Co6  1  0.000058  0.999171  0.499965  1
  Br  Br7  1  0.453644  0.824316  0.580580  1
  Br  Br8  1  0.538315  0.172801  0.414540  1
  Br  Br9  1  0.912099  0.626724  0.670990  1
  Br  Br10  1  0.091999  0.361024  0.319335  1
  Br  Br11  1  0.253814  0.085294  0.954579  1
  Br  Br12  1  0.758787  0.920069  0.057920  1
  Br  Br13  1  0.351205  0.440621  0.769794  1
  Br  Br14  1  0.646038  0.559608  0.229213  1
  Br  Br15  1  0.760165  0.250489  0.841183  1
  Br  Br16  1  0.236874  0.761735  0.155787  1
