# generated using pymatgen
data_PrCo4As3Ru
_symmetry_space_group_name_H-M   'P 1'
_cell_length_a   3.88826600
_cell_length_b   10.90298900
_cell_length_c   12.35540300
_cell_angle_alpha   90.00000000
_cell_angle_beta   90.00000000
_cell_angle_gamma   90.00000000
_symmetry_Int_Tables_number   1
_chemical_formula_structural   PrCo4As3Ru
_chemical_formula_sum   'Pr4 Co16 As12 Ru4'
_cell_volume   523.79151290
_cell_formula_units_Z   4
loop_
 _symmetry_equiv_pos_site_id
 _symmetry_equiv_pos_as_xyz
  1  'x, y, z'
loop_
 _atom_site_type_symbol
 _atom_site_label
 _atom_site_symmetry_multiplicity
 _atom_site_fract_x
 _atom_site_fract_y
 _atom_site_fract_z
 _atom_site_occupancy
  Pr  Pr0  1  0.250000  0.583709  0.702193  1
  Pr  Pr1  1  0.250000  0.916291  0.202193  1
  Pr  Pr2  1  0.750000  0.416291  0.297807  1
  Pr  Pr3  1  0.750000  0.083709  0.797807  1
  Co  Co4  1  0.250000  0.404685  0.490063  1
  Co  Co5  1  0.250000  0.095315  0.990063  1
  Co  Co6  1  0.750000  0.595315  0.509937  1
  Co  Co7  1  0.750000  0.904685  0.009937  1
  Co  Co8  1  0.250000  0.217730  0.174389  1
  Co  Co9  1  0.250000  0.282270  0.674389  1
  Co  Co10  1  0.750000  0.782270  0.825611  1
  Co  Co11  1  0.750000  0.717730  0.325611  1
  Co  Co12  1  0.250000  0.884191  0.699753  1
  Co  Co13  1  0.250000  0.615809  0.199753  1
  Co  Co14  1  0.750000  0.115809  0.300247  1
  Co  Co15  1  0.750000  0.384191  0.800247  1
  Co  Co16  1  0.250000  0.466335  0.932408  1
  Co  Co17  1  0.250000  0.033665  0.432408  1
  Co  Co18  1  0.750000  0.533665  0.067592  1
  Co  Co19  1  0.750000  0.966335  0.567592  1
  As  As20  1  0.250000  0.418705  0.112418  1
  As  As21  1  0.250000  0.081295  0.612418  1
  As  As22  1  0.750000  0.581295  0.887582  1
  As  As23  1  0.750000  0.918705  0.387582  1
  As  As24  1  0.250000  0.273177  0.866830  1
  As  As25  1  0.250000  0.226823  0.366830  1
  As  As26  1  0.750000  0.726823  0.133170  1
  As  As27  1  0.750000  0.773177  0.633170  1
  As  As28  1  0.250000  0.600068  0.392237  1
  As  As29  1  0.250000  0.899932  0.892237  1
  As  As30  1  0.750000  0.399932  0.607763  1
  As  As31  1  0.750000  0.100068  0.107763  1
  Ru  Ru32  1  0.250000  0.706622  0.989429  1
  Ru  Ru33  1  0.250000  0.793378  0.489429  1
  Ru  Ru34  1  0.750000  0.293378  0.010571  1
  Ru  Ru35  1  0.750000  0.206622  0.510571  1
