# generated using pymatgen
data_NdTmTcB6
_symmetry_space_group_name_H-M   'P 1'
_cell_length_a   3.71517200
_cell_length_b   9.20289100
_cell_length_c   11.65220700
_cell_angle_alpha   90.00000000
_cell_angle_beta   90.00000000
_cell_angle_gamma   90.00000000
_symmetry_Int_Tables_number   1
_chemical_formula_structural   NdTmTcB6
_chemical_formula_sum   'Nd4 Tm4 Tc4 B24'
_cell_volume   398.39272055
_cell_formula_units_Z   4
loop_
 _symmetry_equiv_pos_site_id
 _symmetry_equiv_pos_as_xyz
  1  'x, y, z'
loop_
 _atom_site_type_symbol
 _atom_site_label
 _atom_site_symmetry_multiplicity
 _atom_site_fract_x
 _atom_site_fract_y
 _atom_site_fract_z
 _atom_site_occupancy
  Nd  Nd0  1  0.000000  0.323443  0.414714  1
  Nd  Nd1  1  0.000000  0.676557  0.585286  1
  Nd  Nd2  1  0.000000  0.823443  0.085286  1
  Nd  Nd3  1  0.000000  0.176557  0.914714  1
  Tm  Tm4  1  0.000000  0.943058  0.368966  1
  Tm  Tm5  1  0.000000  0.056942  0.631034  1
  Tm  Tm6  1  0.000000  0.443058  0.131034  1
  Tm  Tm7  1  0.000000  0.556942  0.868966  1
  Tc  Tc8  1  0.000000  0.640501  0.318517  1
  Tc  Tc9  1  0.000000  0.359499  0.681483  1
  Tc  Tc10  1  0.000000  0.140501  0.181483  1
  Tc  Tc11  1  0.000000  0.859499  0.818517  1
  B  B12  1  0.500000  0.555713  0.430162  1
  B  B13  1  0.500000  0.444287  0.569838  1
  B  B14  1  0.500000  0.055713  0.069838  1
  B  B15  1  0.500000  0.944287  0.930162  1
  B  B16  1  0.500000  0.750967  0.415839  1
  B  B17  1  0.500000  0.249033  0.584161  1
  B  B18  1  0.500000  0.250967  0.084161  1
  B  B19  1  0.500000  0.749033  0.915839  1
  B  B20  1  0.500000  0.792474  0.265858  1
  B  B21  1  0.500000  0.207526  0.734142  1
  B  B22  1  0.500000  0.292474  0.234142  1
  B  B23  1  0.500000  0.707526  0.765858  1
  B  B24  1  0.500000  0.629830  0.185586  1
  B  B25  1  0.500000  0.370170  0.814414  1
  B  B26  1  0.500000  0.129830  0.314414  1
  B  B27  1  0.500000  0.870170  0.685586  1
  B  B28  1  0.500000  0.983994  0.213581  1
  B  B29  1  0.500000  0.016006  0.786419  1
  B  B30  1  0.500000  0.483994  0.286419  1
  B  B31  1  0.500000  0.516006  0.713581  1
  B  B32  1  0.500000  0.595803  0.026220  1
  B  B33  1  0.500000  0.404197  0.973780  1
  B  B34  1  0.500000  0.095803  0.473780  1
  B  B35  1  0.500000  0.904197  0.526220  1
