# generated using pymatgen
data_Ce6CoCu(Sb2Pt)4
_symmetry_space_group_name_H-M   'P 1'
_cell_length_a   8.47655908
_cell_length_b   8.47655906
_cell_length_c   8.47655891
_cell_angle_alpha   109.28391755
_cell_angle_beta   109.28391938
_cell_angle_gamma   109.84647508
_symmetry_Int_Tables_number   1
_chemical_formula_structural   Ce6CoCu(Sb2Pt)4
_chemical_formula_sum   'Ce6 Co1 Cu1 Sb8 Pt4'
_cell_volume   468.83811615
_cell_formula_units_Z   1
loop_
 _symmetry_equiv_pos_site_id
 _symmetry_equiv_pos_as_xyz
  1  'x, y, z'
loop_
 _atom_site_type_symbol
 _atom_site_label
 _atom_site_symmetry_multiplicity
 _atom_site_fract_x
 _atom_site_fract_y
 _atom_site_fract_z
 _atom_site_occupancy
  Ce  Ce0  1  0.869928  0.253427  0.129648  1
  Ce  Ce1  1  0.623779  0.740280  0.370352  1
  Ce  Ce2  1  0.259720  0.130072  0.883499  1
  Ce  Ce3  1  0.746573  0.376221  0.616501  1
  Ce  Ce4  1  0.125000  0.875000  0.250000  1
  Ce  Ce5  1  0.375000  0.625000  0.750000  1
  Co  Co6  1  0.625000  0.375000  0.250000  1
  Cu  Cu7  1  0.875000  0.125000  0.750000  1
  Sb  Sb8  1  0.667841  0.494110  0.007240  1
  Sb  Sb9  1  0.508866  0.005053  0.669514  1
  Sb  Sb10  1  0.986869  0.660602  0.492760  1
  Sb  Sb11  1  0.835541  0.839352  0.830486  1
  Sb  Sb12  1  0.505890  0.013131  0.173733  1
  Sb  Sb13  1  0.160648  0.491134  0.996187  1
  Sb  Sb14  1  0.994947  0.164459  0.503813  1
  Sb  Sb15  1  0.339398  0.332159  0.326267  1
  Pt  Pt16  1  0.374390  0.252274  0.623954  1
  Pt  Pt17  1  0.128320  0.750437  0.876046  1
  Pt  Pt18  1  0.249563  0.625610  0.377884  1
  Pt  Pt19  1  0.747726  0.871680  0.122116  1
