# generated using pymatgen
data_Sr3IrRh3PbO14
_symmetry_space_group_name_H-M   'P 1'
_cell_length_a   7.42641576
_cell_length_b   7.42641448
_cell_length_c   7.37864948
_cell_angle_alpha   59.72670502
_cell_angle_beta   59.72671238
_cell_angle_gamma   59.83523884
_symmetry_Int_Tables_number   1
_chemical_formula_structural   Sr3IrRh3PbO14
_chemical_formula_sum   'Sr3 Ir1 Rh3 Pb1 O14'
_cell_volume   286.20337083
_cell_formula_units_Z   1
loop_
 _symmetry_equiv_pos_site_id
 _symmetry_equiv_pos_as_xyz
  1  'x, y, z'
loop_
 _atom_site_type_symbol
 _atom_site_label
 _atom_site_symmetry_multiplicity
 _atom_site_fract_x
 _atom_site_fract_y
 _atom_site_fract_z
 _atom_site_occupancy
  Sr  Sr0  1  0.625000  0.125000  0.125000  1
  Sr  Sr1  1  0.125000  0.625000  0.125000  1
  Sr  Sr2  1  0.125000  0.125000  0.125000  1
  Ir  Ir3  1  0.625000  0.625000  0.625000  1
  Rh  Rh4  1  0.125000  0.625000  0.625000  1
  Rh  Rh5  1  0.625000  0.125000  0.625000  1
  Rh  Rh6  1  0.625000  0.625000  0.125000  1
  Pb  Pb7  1  0.125000  0.125000  0.625000  1
  O  O8  1  0.697272  0.697272  0.308966  1
  O  O9  1  0.300448  0.300448  0.682641  1
  O  O10  1  0.711496  0.306495  0.681597  1
  O  O11  1  0.298860  0.696751  0.301007  1
  O  O12  1  0.306495  0.711496  0.681597  1
  O  O13  1  0.696751  0.298860  0.301007  1
  O  O14  1  0.552728  0.552728  0.941034  1
  O  O15  1  0.949552  0.949552  0.567359  1
  O  O16  1  0.538504  0.943505  0.568403  1
  O  O17  1  0.951140  0.553249  0.948993  1
  O  O18  1  0.943505  0.538504  0.568403  1
  O  O19  1  0.553249  0.951140  0.948993  1
  O  O20  1  0.238319  0.238319  0.285946  1
  O  O21  1  0.011681  0.011681  0.964054  1
