# generated using pymatgen
data_Lu8Al3CoB24
_symmetry_space_group_name_H-M   'P 1'
_cell_length_a   3.53533100
_cell_length_b   9.07444819
_cell_length_c   11.41579014
_cell_angle_alpha   90.20973163
_cell_angle_beta   90.00000000
_cell_angle_gamma   90.00000000
_symmetry_Int_Tables_number   1
_chemical_formula_structural   Lu8Al3CoB24
_chemical_formula_sum   'Lu8 Al3 Co1 B24'
_cell_volume   366.22954153
_cell_formula_units_Z   1
loop_
 _symmetry_equiv_pos_site_id
 _symmetry_equiv_pos_as_xyz
  1  'x, y, z'
loop_
 _atom_site_type_symbol
 _atom_site_label
 _atom_site_symmetry_multiplicity
 _atom_site_fract_x
 _atom_site_fract_y
 _atom_site_fract_z
 _atom_site_occupancy
  Lu  Lu0  1  0.000000  0.820965  0.086621  1
  Lu  Lu1  1  0.000000  0.179848  0.912485  1
  Lu  Lu2  1  0.000000  0.323581  0.416578  1
  Lu  Lu3  1  0.000000  0.675471  0.586542  1
  Lu  Lu4  1  0.000000  0.443128  0.125855  1
  Lu  Lu5  1  0.000000  0.552879  0.868451  1
  Lu  Lu6  1  0.000000  0.945431  0.372990  1
  Lu  Lu7  1  0.000000  0.061156  0.629353  1
  Al  Al8  1  0.000000  0.140268  0.179794  1
  Al  Al9  1  0.000000  0.859608  0.819321  1
  Al  Al10  1  0.000000  0.638519  0.322452  1
  Co  Co11  1  0.000000  0.357067  0.681013  1
  B  B12  1  0.500000  0.050823  0.063641  1
  B  B13  1  0.500000  0.948955  0.936088  1
  B  B14  1  0.500000  0.550702  0.436015  1
  B  B15  1  0.500000  0.447461  0.566510  1
  B  B16  1  0.500000  0.250100  0.078276  1
  B  B17  1  0.500000  0.748987  0.921404  1
  B  B18  1  0.500000  0.751829  0.421976  1
  B  B19  1  0.500000  0.253579  0.582438  1
  B  B20  1  0.500000  0.297477  0.237628  1
  B  B21  1  0.500000  0.702060  0.761872  1
  B  B22  1  0.500000  0.796713  0.262909  1
  B  B23  1  0.500000  0.207764  0.736310  1
  B  B24  1  0.500000  0.133494  0.318176  1
  B  B25  1  0.500000  0.867056  0.680880  1
  B  B26  1  0.500000  0.632624  0.181934  1
  B  B27  1  0.500000  0.366399  0.814821  1
  B  B28  1  0.500000  0.479272  0.287621  1
  B  B29  1  0.500000  0.514815  0.710133  1
  B  B30  1  0.500000  0.979842  0.212245  1
  B  B31  1  0.500000  0.020252  0.787744  1
  B  B32  1  0.500000  0.105673  0.472230  1
  B  B33  1  0.500000  0.895413  0.529518  1
  B  B34  1  0.500000  0.605528  0.028282  1
  B  B35  1  0.500000  0.395258  0.969895  1
