# generated using pymatgen
data_PrSm2Al7Cu2
_symmetry_space_group_name_H-M   'P 1'
_cell_length_a   9.20894809
_cell_length_b   9.20894812
_cell_length_c   9.20894865
_cell_angle_alpha   35.20009787
_cell_angle_beta   35.20009587
_cell_angle_gamma   35.20009558
_symmetry_Int_Tables_number   1
_chemical_formula_structural   PrSm2Al7Cu2
_chemical_formula_sum   'Pr1 Sm2 Al7 Cu2'
_cell_volume   231.77740877
_cell_formula_units_Z   1
loop_
 _symmetry_equiv_pos_site_id
 _symmetry_equiv_pos_as_xyz
  1  'x, y, z'
loop_
 _atom_site_type_symbol
 _atom_site_label
 _atom_site_symmetry_multiplicity
 _atom_site_fract_x
 _atom_site_fract_y
 _atom_site_fract_z
 _atom_site_occupancy
  Pr  Pr0  1  0.000000  0.000000  0.000000  1
  Sm  Sm1  1  0.141924  0.141924  0.141924  1
  Sm  Sm2  1  0.858076  0.858076  0.858076  1
  Al  Al3  1  0.581159  0.581159  0.073232  1
  Al  Al4  1  0.926768  0.418840  0.418841  1
  Al  Al5  1  0.418840  0.926768  0.418841  1
  Al  Al6  1  0.500000  0.500000  0.500000  1
  Al  Al7  1  0.581160  0.073232  0.581159  1
  Al  Al8  1  0.073232  0.581160  0.581159  1
  Al  Al9  1  0.418841  0.418841  0.926768  1
  Cu  Cu10  1  0.335434  0.335434  0.335434  1
  Cu  Cu11  1  0.664566  0.664566  0.664566  1
