# generated using pymatgen
data_Dy4Ta5TiSi8
_symmetry_space_group_name_H-M   'P 1'
_cell_length_a   7.04788191
_cell_length_b   7.04788191
_cell_length_c   12.98404010
_cell_angle_alpha   89.94407195
_cell_angle_beta   90.05592805
_cell_angle_gamma   90.01674413
_symmetry_Int_Tables_number   1
_chemical_formula_structural   Dy4Ta5TiSi8
_chemical_formula_sum   'Dy8 Ta10 Ti2 Si16'
_cell_volume   644.95090061
_cell_formula_units_Z   2
loop_
 _symmetry_equiv_pos_site_id
 _symmetry_equiv_pos_as_xyz
  1  'x, y, z'
loop_
 _atom_site_type_symbol
 _atom_site_label
 _atom_site_symmetry_multiplicity
 _atom_site_fract_x
 _atom_site_fract_y
 _atom_site_fract_z
 _atom_site_occupancy
  Dy  Dy0  1  0.998406  0.658135  0.032545  1
  Dy  Dy1  1  0.002120  0.341211  0.531983  1
  Dy  Dy2  1  0.658135  0.998406  0.967455  1
  Dy  Dy3  1  0.159540  0.503215  0.782276  1
  Dy  Dy4  1  0.841331  0.497665  0.282023  1
  Dy  Dy5  1  0.503215  0.159540  0.217724  1
  Dy  Dy6  1  0.497665  0.841331  0.717977  1
  Dy  Dy7  1  0.341211  0.002120  0.468017  1
  Ta  Ta8  1  0.346216  0.508443  0.375878  1
  Ta  Ta9  1  0.847245  0.992471  0.374787  1
  Ta  Ta10  1  0.008072  0.152972  0.126263  1
  Ta  Ta11  1  0.992471  0.847245  0.625213  1
  Ta  Ta12  1  0.508443  0.346216  0.624122  1
  Ta  Ta13  1  0.152972  0.008072  0.873737  1
  Ta  Ta14  1  0.672238  0.672238  0.500000  1
  Ta  Ta15  1  0.829342  0.170384  0.750092  1
  Ta  Ta16  1  0.170384  0.829342  0.249908  1
  Ta  Ta17  1  0.326094  0.326094  0.000000  1
  Ti  Ti18  1  0.492743  0.653044  0.124279  1
  Ti  Ti19  1  0.653044  0.492743  0.875721  1
  Si  Si20  1  0.045614  0.705329  0.435858  1
  Si  Si21  1  0.952557  0.295480  0.935722  1
  Si  Si22  1  0.705329  0.045614  0.564142  1
  Si  Si23  1  0.207842  0.455293  0.185188  1
  Si  Si24  1  0.793776  0.545272  0.687270  1
  Si  Si25  1  0.455293  0.207842  0.814812  1
  Si  Si26  1  0.545272  0.793776  0.312730  1
  Si  Si27  1  0.295480  0.952557  0.064278  1
  Si  Si28  1  0.795265  0.865030  0.181854  1
  Si  Si29  1  0.296958  0.633606  0.568341  1
  Si  Si30  1  0.700815  0.368520  0.066224  1
  Si  Si31  1  0.633606  0.296958  0.431659  1
  Si  Si32  1  0.368520  0.700815  0.933776  1
  Si  Si33  1  0.133840  0.203919  0.317751  1
  Si  Si34  1  0.203919  0.133840  0.682249  1
  Si  Si35  1  0.865030  0.795265  0.818146  1
