# generated using pymatgen
data_La13Yb3Cd4(CoIr)2
_symmetry_space_group_name_H-M   'P 1'
_cell_length_a   9.99337465
_cell_length_b   9.99379096
_cell_length_c   9.99337487
_cell_angle_alpha   60.25575309
_cell_angle_beta   60.61149295
_cell_angle_gamma   60.25575846
_symmetry_Int_Tables_number   1
_chemical_formula_structural   La13Yb3Cd4(CoIr)2
_chemical_formula_sum   'La13 Yb3 Cd4 Co2 Ir2'
_cell_volume   711.68886759
_cell_formula_units_Z   1
loop_
 _symmetry_equiv_pos_site_id
 _symmetry_equiv_pos_as_xyz
  1  'x, y, z'
loop_
 _atom_site_type_symbol
 _atom_site_label
 _atom_site_symmetry_multiplicity
 _atom_site_fract_x
 _atom_site_fract_y
 _atom_site_fract_z
 _atom_site_occupancy
  La  La0  1  0.682432  0.697650  0.308529  1
  La  La1  1  0.158775  0.150649  0.539465  1
  La  La2  1  0.308529  0.697650  0.682432  1
  La  La3  1  0.157333  0.147135  0.157333  1
  La  La4  1  0.539465  0.150649  0.158775  1
  La  La5  1  0.309750  0.691195  0.309750  1
  La  La6  1  0.314663  0.307023  0.682540  1
  La  La7  1  0.692252  0.303038  0.692252  1
  La  La8  1  0.935306  0.563890  0.559652  1
  La  La9  1  0.559652  0.563890  0.935306  1
  La  La10  1  0.157551  0.538568  0.157551  1
  La  La11  1  0.682540  0.307023  0.314663  1
  La  La12  1  0.939472  0.562211  0.939472  1
  Yb  Yb13  1  0.936483  0.940843  0.561611  1
  Yb  Yb14  1  0.562948  0.937137  0.562948  1
  Yb  Yb15  1  0.561611  0.940843  0.936483  1
  Cd  Cd16  1  0.238759  0.920748  0.920593  1
  Cd  Cd17  1  0.920162  0.921483  0.920162  1
  Cd  Cd18  1  0.920593  0.920748  0.238759  1
  Cd  Cd19  1  0.921017  0.237711  0.921017  1
  Co  Co20  1  0.361737  0.917206  0.361737  1
  Co  Co21  1  0.360444  0.360428  0.360444  1
  Ir  Ir22  1  0.920231  0.361140  0.358292  1
  Ir  Ir23  1  0.358292  0.361140  0.920231  1
