# generated using pymatgen
data_Ho5Er11Cd4FeNi3
_symmetry_space_group_name_H-M   'P 1'
_cell_length_a   9.49714729
_cell_length_b   9.49620864
_cell_length_c   9.49620922
_cell_angle_alpha   59.57142613
_cell_angle_beta   59.57534927
_cell_angle_gamma   59.57535525
_symmetry_Int_Tables_number   1
_chemical_formula_structural   Ho5Er11Cd4FeNi3
_chemical_formula_sum   'Ho5 Er11 Cd4 Fe1 Ni3'
_cell_volume   599.72605630
_cell_formula_units_Z   1
loop_
 _symmetry_equiv_pos_site_id
 _symmetry_equiv_pos_as_xyz
  1  'x, y, z'
loop_
 _atom_site_type_symbol
 _atom_site_label
 _atom_site_symmetry_multiplicity
 _atom_site_fract_x
 _atom_site_fract_y
 _atom_site_fract_z
 _atom_site_occupancy
  Ho  Ho0  1  0.347591  0.347951  0.347951  1
  Ho  Ho1  1  0.347798  0.347969  0.956100  1
  Ho  Ho2  1  0.347798  0.956100  0.347969  1
  Ho  Ho3  1  0.956285  0.347904  0.347904  1
  Ho  Ho4  1  0.815405  0.187827  0.187827  1
  Er  Er5  1  0.186334  0.811794  0.811794  1
  Er  Er6  1  0.188146  0.815121  0.187785  1
  Er  Er7  1  0.811761  0.186399  0.811535  1
  Er  Er8  1  0.188146  0.187785  0.815121  1
  Er  Er9  1  0.811761  0.811535  0.186399  1
  Er  Er10  1  0.935620  0.564626  0.564626  1
  Er  Er11  1  0.559374  0.937746  0.937746  1
  Er  Er12  1  0.564458  0.935616  0.564767  1
  Er  Er13  1  0.937815  0.559544  0.937600  1
  Er  Er14  1  0.564458  0.564767  0.935616  1
  Er  Er15  1  0.937815  0.937600  0.559544  1
  Cd  Cd16  1  0.579501  0.579508  0.579508  1
  Cd  Cd17  1  0.580273  0.580488  0.255255  1
  Cd  Cd18  1  0.580273  0.255255  0.580488  1
  Cd  Cd19  1  0.255367  0.580290  0.580290  1
  Fe  Fe20  1  0.143202  0.143173  0.143173  1
  Ni  Ni21  1  0.141948  0.142324  0.576558  1
  Ni  Ni22  1  0.141948  0.576558  0.142324  1
  Ni  Ni23  1  0.576920  0.142118  0.142118  1
