# generated using pymatgen
data_Ac3Zn9(NiRu2)2
_symmetry_space_group_name_H-M   'P 1'
_cell_length_a   9.49910219
_cell_length_b   9.57457013
_cell_length_c   4.16127400
_cell_angle_alpha   90.00000000
_cell_angle_beta   90.00000000
_cell_angle_gamma   120.26315772
_symmetry_Int_Tables_number   1
_chemical_formula_structural   Ac3Zn9(NiRu2)2
_chemical_formula_sum   'Ac3 Zn9 Ni2 Ru4'
_cell_volume   326.88954406
_cell_formula_units_Z   1
loop_
 _symmetry_equiv_pos_site_id
 _symmetry_equiv_pos_as_xyz
  1  'x, y, z'
loop_
 _atom_site_type_symbol
 _atom_site_label
 _atom_site_symmetry_multiplicity
 _atom_site_fract_x
 _atom_site_fract_y
 _atom_site_fract_z
 _atom_site_occupancy
  Ac  Ac0  1  0.000000  0.009039  0.500000  1
  Ac  Ac1  1  0.337934  0.663059  0.000000  1
  Ac  Ac2  1  0.662066  0.325124  0.000000  1
  Zn  Zn3  1  0.493542  0.991869  0.500000  1
  Zn  Zn4  1  0.506458  0.498327  0.500000  1
  Zn  Zn5  1  0.000000  0.508727  0.500000  1
  Zn  Zn6  1  0.284267  0.989929  0.000000  1
  Zn  Zn7  1  0.294142  0.292656  0.000000  1
  Zn  Zn8  1  0.000000  0.711974  0.000000  1
  Zn  Zn9  1  0.000000  0.298874  0.000000  1
  Zn  Zn10  1  0.715733  0.705662  0.000000  1
  Zn  Zn11  1  0.705858  0.998513  0.000000  1
  Ni  Ni12  1  0.174863  0.816419  0.500000  1
  Ni  Ni13  1  0.825137  0.641557  0.500000  1
  Ru  Ru14  1  0.185724  0.372659  0.500000  1
  Ru  Ru15  1  0.814276  0.186936  0.500000  1
  Ru  Ru16  1  0.362197  0.175437  0.500000  1
  Ru  Ru17  1  0.637803  0.813240  0.500000  1
