# generated using pymatgen
data_Dy3Tm5TlCdNi2
_symmetry_space_group_name_H-M   'P 1'
_cell_length_a   9.48430071
_cell_length_b   9.49115672
_cell_length_c   9.47997104
_cell_angle_alpha   59.99946098
_cell_angle_beta   60.06951854
_cell_angle_gamma   60.09111899
_symmetry_Int_Tables_number   1
_chemical_formula_structural   Dy3Tm5TlCdNi2
_chemical_formula_sum   'Dy6 Tm10 Tl2 Cd2 Ni4'
_cell_volume   604.14452481
_cell_formula_units_Z   2
loop_
 _symmetry_equiv_pos_site_id
 _symmetry_equiv_pos_as_xyz
  1  'x, y, z'
loop_
 _atom_site_type_symbol
 _atom_site_label
 _atom_site_symmetry_multiplicity
 _atom_site_fract_x
 _atom_site_fract_y
 _atom_site_fract_z
 _atom_site_occupancy
  Dy  Dy0  1  0.347066  0.347684  0.348912  1
  Dy  Dy1  1  0.347638  0.347043  0.956382  1
  Dy  Dy2  1  0.350462  0.951245  0.348861  1
  Dy  Dy3  1  0.951244  0.350444  0.349446  1
  Dy  Dy4  1  0.813688  0.187458  0.186724  1
  Dy  Dy5  1  0.187460  0.813666  0.812137  1
  Tm  Tm6  1  0.189074  0.811228  0.188470  1
  Tm  Tm7  1  0.811260  0.189081  0.811181  1
  Tm  Tm8  1  0.188136  0.188140  0.811860  1
  Tm  Tm9  1  0.810967  0.810975  0.189017  1
  Tm  Tm10  1  0.937961  0.565209  0.564398  1
  Tm  Tm11  1  0.565203  0.937957  0.932433  1
  Tm  Tm12  1  0.564671  0.938670  0.563356  1
  Tm  Tm13  1  0.938634  0.564716  0.933299  1
  Tm  Tm14  1  0.564837  0.564828  0.935166  1
  Tm  Tm15  1  0.937903  0.937913  0.562074  1
  Tl  Tl16  1  0.583407  0.583549  0.587589  1
  Tl  Tl17  1  0.583554  0.583408  0.245472  1
  Cd  Cd18  1  0.580048  0.250515  0.584895  1
  Cd  Cd19  1  0.250499  0.580043  0.584584  1
  Ni  Ni20  1  0.142025  0.140270  0.144131  1
  Ni  Ni21  1  0.140341  0.142030  0.573582  1
  Ni  Ni22  1  0.139029  0.574870  0.143979  1
  Ni  Ni23  1  0.574895  0.139060  0.142052  1
