# generated using pymatgen
data_Yb3Co6CuC2
_symmetry_space_group_name_H-M   'P 1'
_cell_length_a   5.05021300
_cell_length_b   5.05021223
_cell_length_c   13.75654600
_cell_angle_alpha   90.00000000
_cell_angle_beta   90.00000000
_cell_angle_gamma   120.00002468
_symmetry_Int_Tables_number   1
_chemical_formula_structural   Yb3Co6CuC2
_chemical_formula_sum   'Yb6 Co12 Cu2 C4'
_cell_volume   303.85000889
_cell_formula_units_Z   2
loop_
 _symmetry_equiv_pos_site_id
 _symmetry_equiv_pos_as_xyz
  1  'x, y, z'
loop_
 _atom_site_type_symbol
 _atom_site_label
 _atom_site_symmetry_multiplicity
 _atom_site_fract_x
 _atom_site_fract_y
 _atom_site_fract_z
 _atom_site_occupancy
  Yb  Yb0  1  0.666667  0.333333  0.536299  1
  Yb  Yb1  1  0.333333  0.666667  0.463701  1
  Yb  Yb2  1  0.333333  0.666667  0.036299  1
  Yb  Yb3  1  0.666667  0.333333  0.750000  1
  Yb  Yb4  1  0.666667  0.333333  0.963701  1
  Yb  Yb5  1  0.333333  0.666667  0.250000  1
  Co  Co6  1  0.165392  0.330784  0.656569  1
  Co  Co7  1  0.330784  0.165392  0.343431  1
  Co  Co8  1  0.330784  0.165392  0.156569  1
  Co  Co9  1  0.165392  0.834608  0.843431  1
  Co  Co10  1  0.834608  0.669216  0.343431  1
  Co  Co11  1  0.834608  0.165392  0.156569  1
  Co  Co12  1  0.669216  0.834608  0.656569  1
  Co  Co13  1  0.669216  0.834608  0.843431  1
  Co  Co14  1  0.165392  0.834608  0.656569  1
  Co  Co15  1  0.834608  0.669216  0.156569  1
  Co  Co16  1  0.165392  0.330784  0.843431  1
  Co  Co17  1  0.834608  0.165392  0.343431  1
  Cu  Cu18  1  0.000000  0.000000  0.000000  1
  Cu  Cu19  1  0.000000  0.000000  0.500000  1
  C  C20  1  0.666667  0.333333  0.250000  1
  C  C21  1  0.000000  0.000000  0.750000  1
  C  C22  1  0.333333  0.666667  0.750000  1
  C  C23  1  0.000000  0.000000  0.250000  1
