# generated using pymatgen
data_LaNdNi12P5
_symmetry_space_group_name_H-M   'P 1'
_cell_length_a   3.68018000
_cell_length_b   10.86777663
_cell_length_c   13.16744603
_cell_angle_alpha   71.91696015
_cell_angle_beta   90.00000000
_cell_angle_gamma   90.00000000
_symmetry_Int_Tables_number   1
_chemical_formula_structural   LaNdNi12P5
_chemical_formula_sum   'La2 Nd2 Ni24 P10'
_cell_volume   500.62509738
_cell_formula_units_Z   2
loop_
 _symmetry_equiv_pos_site_id
 _symmetry_equiv_pos_as_xyz
  1  'x, y, z'
loop_
 _atom_site_type_symbol
 _atom_site_label
 _atom_site_symmetry_multiplicity
 _atom_site_fract_x
 _atom_site_fract_y
 _atom_site_fract_z
 _atom_site_occupancy
  La  La0  1  0.250000  0.747838  0.187038  1
  La  La1  1  0.750000  0.252162  0.812962  1
  Nd  Nd2  1  0.250000  0.780394  0.682981  1
  Nd  Nd3  1  0.750000  0.219606  0.317019  1
  Ni  Ni4  1  0.250000  0.571285  0.014455  1
  Ni  Ni5  1  0.250000  0.565530  0.447950  1
  Ni  Ni6  1  0.750000  0.506958  0.340574  1
  Ni  Ni7  1  0.250000  0.493042  0.659426  1
  Ni  Ni8  1  0.750000  0.510697  0.150760  1
  Ni  Ni9  1  0.250000  0.489303  0.849240  1
  Ni  Ni10  1  0.750000  0.434470  0.552050  1
  Ni  Ni11  1  0.250000  0.342469  0.136468  1
  Ni  Ni12  1  0.750000  0.658279  0.562447  1
  Ni  Ni13  1  0.250000  0.341721  0.437553  1
  Ni  Ni14  1  0.750000  0.904675  0.304939  1
  Ni  Ni15  1  0.250000  0.095325  0.695061  1
  Ni  Ni16  1  0.750000  0.917972  0.991085  1
  Ni  Ni17  1  0.250000  0.082028  0.008915  1
  Ni  Ni18  1  0.750000  0.920804  0.490830  1
  Ni  Ni19  1  0.250000  0.079196  0.509170  1
  Ni  Ni20  1  0.750000  0.937744  0.795829  1
  Ni  Ni21  1  0.250000  0.062256  0.204171  1
  Ni  Ni22  1  0.250000  0.787438  0.439032  1
  Ni  Ni23  1  0.750000  0.212562  0.560968  1
  Ni  Ni24  1  0.250000  0.797889  0.917212  1
  Ni  Ni25  1  0.750000  0.202111  0.082788  1
  Ni  Ni26  1  0.750000  0.657531  0.863532  1
  Ni  Ni27  1  0.750000  0.428715  0.985545  1
  P  P28  1  0.250000  0.007462  0.871231  1
  P  P29  1  0.750000  0.992538  0.128769  1
  P  P30  1  0.250000  0.299533  0.984955  1
  P  P31  1  0.750000  0.700467  0.015045  1
  P  P32  1  0.250000  0.449026  0.260051  1
  P  P33  1  0.750000  0.550974  0.739949  1
  P  P34  1  0.250000  0.994511  0.378388  1
  P  P35  1  0.750000  0.005489  0.621612  1
  P  P36  1  0.250000  0.311214  0.610464  1
  P  P37  1  0.750000  0.688786  0.389536  1
