# generated using pymatgen
data_TmNb2(Ni10B3)2
_symmetry_space_group_name_H-M   'P 1'
_cell_length_a   7.52581477
_cell_length_b   7.52581467
_cell_length_c   7.52581500
_cell_angle_alpha   60.00000295
_cell_angle_beta   60.00000339
_cell_angle_gamma   59.99999929
_symmetry_Int_Tables_number   1
_chemical_formula_structural   TmNb2(Ni10B3)2
_chemical_formula_sum   'Tm1 Nb2 Ni20 B6'
_cell_volume   301.40163467
_cell_formula_units_Z   1
loop_
 _symmetry_equiv_pos_site_id
 _symmetry_equiv_pos_as_xyz
  1  'x, y, z'
loop_
 _atom_site_type_symbol
 _atom_site_label
 _atom_site_symmetry_multiplicity
 _atom_site_fract_x
 _atom_site_fract_y
 _atom_site_fract_z
 _atom_site_occupancy
  Tm  Tm0  1  0.250000  0.250000  0.250000  1
  Nb  Nb1  1  0.750000  0.750000  0.750000  1
  Nb  Nb2  1  0.000000  0.000000  0.000000  1
  Ni  Ni3  1  0.389822  0.389822  0.389822  1
  Ni  Ni4  1  0.617232  0.617232  0.617232  1
  Ni  Ni5  1  0.389822  0.389822  0.830533  1
  Ni  Ni6  1  0.389822  0.830533  0.389822  1
  Ni  Ni7  1  0.617232  0.617232  0.148305  1
  Ni  Ni8  1  0.617232  0.148305  0.617232  1
  Ni  Ni9  1  0.830533  0.389822  0.389822  1
  Ni  Ni10  1  0.148305  0.617232  0.617232  1
  Ni  Ni11  1  0.345216  0.997424  0.997424  1
  Ni  Ni12  1  0.659936  0.997424  0.997424  1
  Ni  Ni13  1  0.997424  0.345216  0.659936  1
  Ni  Ni14  1  0.997424  0.659936  0.345216  1
  Ni  Ni15  1  0.997424  0.345216  0.997424  1
  Ni  Ni16  1  0.659936  0.997424  0.345216  1
  Ni  Ni17  1  0.997424  0.659936  0.997424  1
  Ni  Ni18  1  0.345216  0.997424  0.659936  1
  Ni  Ni19  1  0.997424  0.997424  0.345216  1
  Ni  Ni20  1  0.997424  0.997424  0.659936  1
  Ni  Ni21  1  0.659936  0.345216  0.997424  1
  Ni  Ni22  1  0.345216  0.659936  0.997424  1
  B  B23  1  0.732474  0.267526  0.267526  1
  B  B24  1  0.267526  0.732474  0.732474  1
  B  B25  1  0.267526  0.732474  0.267526  1
  B  B26  1  0.732474  0.267526  0.732474  1
  B  B27  1  0.267526  0.267526  0.732474  1
  B  B28  1  0.732474  0.732474  0.267526  1
