# generated using pymatgen
data_Nb4Cr7Si10Os
_symmetry_space_group_name_H-M   'P 1'
_cell_length_a   4.90330932
_cell_length_b   7.52662753
_cell_length_c   9.08575701
_cell_angle_alpha   114.52038636
_cell_angle_beta   105.65442866
_cell_angle_gamma   90.00000424
_symmetry_Int_Tables_number   1
_chemical_formula_structural   Nb4Cr7Si10Os
_chemical_formula_sum   'Nb4 Cr7 Si10 Os1'
_cell_volume   291.34660912
_cell_formula_units_Z   1
loop_
 _symmetry_equiv_pos_site_id
 _symmetry_equiv_pos_as_xyz
  1  'x, y, z'
loop_
 _atom_site_type_symbol
 _atom_site_label
 _atom_site_symmetry_multiplicity
 _atom_site_fract_x
 _atom_site_fract_y
 _atom_site_fract_z
 _atom_site_occupancy
  Nb  Nb0  1  0.642325  0.021633  0.284650  1
  Nb  Nb1  1  0.143062  0.262767  0.286124  1
  Nb  Nb2  1  0.859346  0.737063  0.718691  1
  Nb  Nb3  1  0.357121  0.975701  0.714244  1
  Cr  Cr4  1  0.060476  0.801685  0.120952  1
  Cr  Cr5  1  0.445708  0.696227  0.386756  1
  Cr  Cr6  1  0.941047  0.696227  0.386756  1
  Cr  Cr7  1  0.056180  0.307885  0.613751  1
  Cr  Cr8  1  0.557570  0.307885  0.613751  1
  Cr  Cr9  1  0.939855  0.194932  0.879707  1
  Cr  Cr10  1  0.439547  0.683975  0.879095  1
  Si  Si11  1  0.246278  0.995791  0.999390  1
  Si  Si12  1  0.753111  0.995791  0.999390  1
  Si  Si13  1  0.065740  0.489739  0.131480  1
  Si  Si14  1  0.564919  0.647085  0.129837  1
  Si  Si15  1  0.211444  0.004729  0.422889  1
  Si  Si16  1  0.713374  0.421628  0.426747  1
  Si  Si17  1  0.288248  0.580714  0.576496  1
  Si  Si18  1  0.789460  0.997438  0.578918  1
  Si  Si19  1  0.431974  0.358965  0.863947  1
  Si  Si20  1  0.934762  0.509072  0.869522  1
  Os  Os21  1  0.558454  0.313063  0.116906  1
