# generated using pymatgen
data_Yb5Ge9P3Rh19
_symmetry_space_group_name_H-M   'P 1'
_cell_length_a   12.78266300
_cell_length_b   12.78266335
_cell_length_c   3.91249900
_cell_angle_alpha   90.00000000
_cell_angle_beta   90.00000000
_cell_angle_gamma   120.00000169
_symmetry_Int_Tables_number   1
_chemical_formula_structural   Yb5Ge9P3Rh19
_chemical_formula_sum   'Yb5 Ge9 P3 Rh19'
_cell_volume   553.64012054
_cell_formula_units_Z   1
loop_
 _symmetry_equiv_pos_site_id
 _symmetry_equiv_pos_as_xyz
  1  'x, y, z'
loop_
 _atom_site_type_symbol
 _atom_site_label
 _atom_site_symmetry_multiplicity
 _atom_site_fract_x
 _atom_site_fract_y
 _atom_site_fract_z
 _atom_site_occupancy
  Yb  Yb0  1  0.666667  0.333333  0.000000  1
  Yb  Yb1  1  0.333333  0.666667  0.000000  1
  Yb  Yb2  1  0.819580  0.819580  0.500000  1
  Yb  Yb3  1  0.180420  0.000000  0.500000  1
  Yb  Yb4  1  0.000000  0.180420  0.500000  1
  Ge  Ge5  1  0.680358  0.159808  0.500000  1
  Ge  Ge6  1  0.840192  0.520550  0.500000  1
  Ge  Ge7  1  0.479450  0.319642  0.500000  1
  Ge  Ge8  1  0.159808  0.680358  0.500000  1
  Ge  Ge9  1  0.520550  0.840192  0.500000  1
  Ge  Ge10  1  0.319642  0.479450  0.500000  1
  Ge  Ge11  1  0.635413  0.635413  0.000000  1
  Ge  Ge12  1  0.364587  0.000000  0.000000  1
  Ge  Ge13  1  0.000000  0.364587  0.000000  1
  P  P14  1  0.176858  0.176858  0.000000  1
  P  P15  1  0.823142  0.000000  0.000000  1
  P  P16  1  0.000000  0.823142  0.000000  1
  Rh  Rh17  1  0.808785  0.175341  0.000000  1
  Rh  Rh18  1  0.824659  0.633444  0.000000  1
  Rh  Rh19  1  0.366556  0.191215  0.000000  1
  Rh  Rh20  1  0.175341  0.808785  0.000000  1
  Rh  Rh21  1  0.633444  0.824659  0.000000  1
  Rh  Rh22  1  0.191215  0.366556  0.000000  1
  Rh  Rh23  1  0.445505  0.445505  0.000000  1
  Rh  Rh24  1  0.554495  0.000000  0.000000  1
  Rh  Rh25  1  0.000000  0.554495  0.000000  1
  Rh  Rh26  1  0.268909  0.268909  0.500000  1
  Rh  Rh27  1  0.731091  0.000000  0.500000  1
  Rh  Rh28  1  0.000000  0.731091  0.500000  1
  Rh  Rh29  1  0.871851  0.352899  0.500000  1
  Rh  Rh30  1  0.647101  0.518952  0.500000  1
  Rh  Rh31  1  0.481048  0.128149  0.500000  1
  Rh  Rh32  1  0.352899  0.871851  0.500000  1
  Rh  Rh33  1  0.518952  0.647101  0.500000  1
  Rh  Rh34  1  0.128149  0.481048  0.500000  1
  Rh  Rh35  1  0.000000  0.000000  0.000000  1
