# generated using pymatgen
data_Tm5Ga6P6Ir19
_symmetry_space_group_name_H-M   'P 1'
_cell_length_a   12.94301500
_cell_length_b   12.94301543
_cell_length_c   3.97017300
_cell_angle_alpha   90.00000000
_cell_angle_beta   90.00000000
_cell_angle_gamma   120.00000146
_symmetry_Int_Tables_number   1
_chemical_formula_structural   Tm5Ga6P6Ir19
_chemical_formula_sum   'Tm5 Ga6 P6 Ir19'
_cell_volume   575.98474370
_cell_formula_units_Z   1
loop_
 _symmetry_equiv_pos_site_id
 _symmetry_equiv_pos_as_xyz
  1  'x, y, z'
loop_
 _atom_site_type_symbol
 _atom_site_label
 _atom_site_symmetry_multiplicity
 _atom_site_fract_x
 _atom_site_fract_y
 _atom_site_fract_z
 _atom_site_occupancy
  Tm  Tm0  1  0.666667  0.333333  0.000000  1
  Tm  Tm1  1  0.333333  0.666667  0.000000  1
  Tm  Tm2  1  0.816707  0.812097  0.500000  1
  Tm  Tm3  1  0.187903  0.004610  0.500000  1
  Tm  Tm4  1  0.995390  0.183293  0.500000  1
  Ga  Ga5  1  0.677051  0.158815  0.500000  1
  Ga  Ga6  1  0.841185  0.518236  0.500000  1
  Ga  Ga7  1  0.481764  0.322949  0.500000  1
  Ga  Ga8  1  0.635687  0.637398  0.000000  1
  Ga  Ga9  1  0.362602  0.998290  0.000000  1
  Ga  Ga10  1  0.001710  0.364313  0.000000  1
  P  P11  1  0.180348  0.697231  0.500000  1
  P  P12  1  0.516883  0.819652  0.500000  1
  P  P13  1  0.302769  0.483117  0.500000  1
  P  P14  1  0.175203  0.180958  0.000000  1
  P  P15  1  0.819042  0.994244  0.000000  1
  P  P16  1  0.005756  0.824797  0.000000  1
  Ir  Ir17  1  0.809486  0.169198  0.000000  1
  Ir  Ir18  1  0.830802  0.640288  0.000000  1
  Ir  Ir19  1  0.359712  0.190514  0.000000  1
  Ir  Ir20  1  0.182372  0.793910  0.000000  1
  Ir  Ir21  1  0.611537  0.817628  0.000000  1
  Ir  Ir22  1  0.206090  0.388463  0.000000  1
  Ir  Ir23  1  0.446462  0.440546  0.000000  1
  Ir  Ir24  1  0.559454  0.005916  0.000000  1
  Ir  Ir25  1  0.994084  0.553538  0.000000  1
  Ir  Ir26  1  0.267582  0.280416  0.500000  1
  Ir  Ir27  1  0.719584  0.987166  0.500000  1
  Ir  Ir28  1  0.012834  0.732418  0.500000  1
  Ir  Ir29  1  0.872672  0.348590  0.500000  1
  Ir  Ir30  1  0.651410  0.524083  0.500000  1
  Ir  Ir31  1  0.475917  0.127328  0.500000  1
  Ir  Ir32  1  0.371369  0.868474  0.500000  1
  Ir  Ir33  1  0.497107  0.628631  0.500000  1
  Ir  Ir34  1  0.131526  0.502893  0.500000  1
  Ir  Ir35  1  0.000000  0.000000  0.000000  1
