# generated using pymatgen
data_Ta8TcMo3Ru4
_symmetry_space_group_name_H-M   'P 1'
_cell_length_a   6.40944100
_cell_length_b   4.49915600
_cell_length_c   9.05603000
_cell_angle_alpha   90.00000000
_cell_angle_beta   89.99980044
_cell_angle_gamma   90.00000000
_symmetry_Int_Tables_number   1
_chemical_formula_structural   Ta8TcMo3Ru4
_chemical_formula_sum   'Ta8 Tc1 Mo3 Ru4'
_cell_volume   261.14941569
_cell_formula_units_Z   1
loop_
 _symmetry_equiv_pos_site_id
 _symmetry_equiv_pos_as_xyz
  1  'x, y, z'
loop_
 _atom_site_type_symbol
 _atom_site_label
 _atom_site_symmetry_multiplicity
 _atom_site_fract_x
 _atom_site_fract_y
 _atom_site_fract_z
 _atom_site_occupancy
  Ta  Ta0  1  0.501059  0.750001  0.125453  1
  Ta  Ta1  1  0.998951  0.750001  0.125455  1
  Ta  Ta2  1  0.499833  0.250000  0.374995  1
  Ta  Ta3  1  0.000162  0.250000  0.374994  1
  Ta  Ta4  1  0.998951  0.750001  0.624556  1
  Ta  Ta5  1  0.501058  0.750001  0.624555  1
  Ta  Ta6  1  0.000336  0.250000  0.874993  1
  Ta  Ta7  1  0.499649  0.250000  0.874995  1
  Tc  Tc8  1  0.250001  0.750001  0.874997  1
  Mo  Mo9  1  0.750000  0.250000  0.123937  1
  Mo  Mo10  1  0.250001  0.750001  0.374992  1
  Mo  Mo11  1  0.749999  0.250000  0.626079  1
  Ru  Ru12  1  0.250001  0.250000  0.123007  1
  Ru  Ru13  1  0.750001  0.750001  0.374981  1
  Ru  Ru14  1  0.249997  0.250000  0.627027  1
  Ru  Ru15  1  0.750003  0.750001  0.874983  1
