# generated using pymatgen
data_Hf4Co3Si4Ir
_symmetry_space_group_name_H-M   'P 1'
_cell_length_a   3.86438300
_cell_length_b   6.42180571
_cell_length_c   7.19858607
_cell_angle_alpha   89.58853069
_cell_angle_beta   90.00000000
_cell_angle_gamma   90.00000000
_symmetry_Int_Tables_number   1
_chemical_formula_structural   Hf4Co3Si4Ir
_chemical_formula_sum   'Hf4 Co3 Si4 Ir1'
_cell_volume   178.63778568
_cell_formula_units_Z   1
loop_
 _symmetry_equiv_pos_site_id
 _symmetry_equiv_pos_as_xyz
  1  'x, y, z'
loop_
 _atom_site_type_symbol
 _atom_site_label
 _atom_site_symmetry_multiplicity
 _atom_site_fract_x
 _atom_site_fract_y
 _atom_site_fract_z
 _atom_site_occupancy
  Hf  Hf0  1  0.250000  0.007729  0.314992  1
  Hf  Hf1  1  0.250000  0.516433  0.194403  1
  Hf  Hf2  1  0.750000  0.986936  0.682108  1
  Hf  Hf3  1  0.750000  0.487209  0.806185  1
  Co  Co4  1  0.250000  0.645004  0.566557  1
  Co  Co5  1  0.750000  0.849444  0.065596  1
  Co  Co6  1  0.750000  0.355421  0.432249  1
  Si  Si7  1  0.250000  0.283624  0.600987  1
  Si  Si8  1  0.250000  0.775221  0.887255  1
  Si  Si9  1  0.750000  0.719824  0.391088  1
  Si  Si10  1  0.750000  0.221420  0.124481  1
  Ir  Ir11  1  0.250000  0.151734  0.934102  1
