# generated using pymatgen
data_YHo2Tm(WO6)2
_symmetry_space_group_name_H-M   'P 1'
_cell_length_a   5.38243200
_cell_length_b   7.68847421
_cell_length_c   11.42690416
_cell_angle_alpha   75.42862046
_cell_angle_beta   90.00000000
_cell_angle_gamma   90.00000000
_symmetry_Int_Tables_number   1
_chemical_formula_structural   YHo2Tm(WO6)2
_chemical_formula_sum   'Y2 Ho4 Tm2 W4 O24'
_cell_volume   457.66595400
_cell_formula_units_Z   2
loop_
 _symmetry_equiv_pos_site_id
 _symmetry_equiv_pos_as_xyz
  1  'x, y, z'
loop_
 _atom_site_type_symbol
 _atom_site_label
 _atom_site_symmetry_multiplicity
 _atom_site_fract_x
 _atom_site_fract_y
 _atom_site_fract_z
 _atom_site_occupancy
  Y  Y0  1  0.684101  0.499328  0.750395  1
  Y  Y1  1  0.315899  0.499328  0.250395  1
  Ho  Ho2  1  0.741260  0.000562  0.750221  1
  Ho  Ho3  1  0.258740  0.000562  0.250221  1
  Ho  Ho4  1  0.182955  0.794651  0.577899  1
  Ho  Ho5  1  0.817045  0.794651  0.077899  1
  Tm  Tm6  1  0.183667  0.206456  0.921426  1
  Tm  Tm7  1  0.816333  0.206456  0.421426  1
  W  W8  1  0.256126  0.724202  0.885054  1
  W  W9  1  0.743874  0.724202  0.385054  1
  W  W10  1  0.255654  0.275296  0.614791  1
  W  W11  1  0.744346  0.275296  0.114791  1
  O  O12  1  0.047083  0.941915  0.895670  1
  O  O13  1  0.536990  0.845592  0.930642  1
  O  O14  1  0.952917  0.941915  0.395670  1
  O  O15  1  0.457724  0.792092  0.726546  1
  O  O16  1  0.463010  0.845592  0.430642  1
  O  O17  1  0.979745  0.712633  0.771511  1
  O  O18  1  0.542276  0.792092  0.226546  1
  O  O19  1  0.848680  0.634944  0.548467  1
  O  O20  1  0.357260  0.488891  0.885261  1
  O  O21  1  0.020255  0.712633  0.271511  1
  O  O22  1  0.358813  0.509571  0.614183  1
  O  O23  1  0.851563  0.364079  0.951518  1
  O  O24  1  0.151320  0.634944  0.048467  1
  O  O25  1  0.642740  0.488891  0.385261  1
  O  O26  1  0.981475  0.287552  0.730055  1
  O  O27  1  0.641187  0.509571  0.114183  1
  O  O28  1  0.148437  0.364079  0.451518  1
  O  O29  1  0.456264  0.206784  0.774231  1
  O  O30  1  0.018525  0.287552  0.230055  1
  O  O31  1  0.537285  0.154956  0.568510  1
  O  O32  1  0.543736  0.206784  0.274231  1
  O  O33  1  0.043032  0.060496  0.603619  1
  O  O34  1  0.462715  0.154956  0.068510  1
  O  O35  1  0.956968  0.060496  0.103619  1
