# generated using pymatgen
data_KTeS2
_symmetry_space_group_name_H-M   'P 1'
_cell_length_a   6.48645550
_cell_length_b   6.48645642
_cell_length_c   8.31211963
_cell_angle_alpha   64.88087724
_cell_angle_beta   64.88087757
_cell_angle_gamma   92.26339978
_symmetry_Int_Tables_number   1
_chemical_formula_structural   KTeS2
_chemical_formula_sum   'K2 Te2 S4'
_cell_volume   276.21712549
_cell_formula_units_Z   2
loop_
 _symmetry_equiv_pos_site_id
 _symmetry_equiv_pos_as_xyz
  1  'x, y, z'
loop_
 _atom_site_type_symbol
 _atom_site_label
 _atom_site_symmetry_multiplicity
 _atom_site_fract_x
 _atom_site_fract_y
 _atom_site_fract_z
 _atom_site_occupancy
  K  K0  1  0.873490  0.126510  0.750000  1
  K  K1  1  0.126510  0.873490  0.250000  1
  Te  Te2  1  0.567076  0.432924  0.250000  1
  Te  Te3  1  0.432924  0.567076  0.750000  1
  S  S4  1  0.624107  0.791560  0.249485  1
  S  S5  1  0.208440  0.375893  0.250515  1
  S  S6  1  0.791560  0.624107  0.749485  1
  S  S7  1  0.375893  0.208440  0.750515  1
