# generated using pymatgen
data_Rb3Na2NbAs3
_symmetry_space_group_name_H-M   'P 1'
_cell_length_a   10.72679850
_cell_length_b   10.72679610
_cell_length_c   16.06867300
_cell_angle_alpha   90.00000000
_cell_angle_beta   90.00000000
_cell_angle_gamma   142.03153887
_symmetry_Int_Tables_number   1
_chemical_formula_structural   Rb3Na2NbAs3
_chemical_formula_sum   'Rb12 Na8 Nb4 As12'
_cell_volume   1137.51198755
_cell_formula_units_Z   4
loop_
 _symmetry_equiv_pos_site_id
 _symmetry_equiv_pos_as_xyz
  1  'x, y, z'
loop_
 _atom_site_type_symbol
 _atom_site_label
 _atom_site_symmetry_multiplicity
 _atom_site_fract_x
 _atom_site_fract_y
 _atom_site_fract_z
 _atom_site_occupancy
  Rb  Rb0  1  0.942124  0.609065  0.826353  1
  Rb  Rb1  1  0.557876  0.890935  0.326353  1
  Rb  Rb2  1  0.390935  0.057876  0.173647  1
  Rb  Rb3  1  0.058411  0.390902  0.173683  1
  Rb  Rb4  1  0.890902  0.558411  0.326317  1
  Rb  Rb5  1  0.441589  0.109098  0.673683  1
  Rb  Rb6  1  0.609098  0.941589  0.826317  1
  Rb  Rb7  1  0.279606  0.279300  0.314591  1
  Rb  Rb8  1  0.779300  0.779606  0.185409  1
  Rb  Rb9  1  0.220394  0.220700  0.814591  1
  Rb  Rb10  1  0.720700  0.720394  0.685409  1
  Rb  Rb11  1  0.109065  0.442124  0.673647  1
  Na  Na12  1  0.920782  0.079218  0.000000  1
  Na  Na13  1  0.579218  0.420782  0.500000  1
  Na  Na14  1  0.079066  0.920934  0.000000  1
  Na  Na15  1  0.420934  0.579066  0.500000  1
  Na  Na16  1  0.754923  0.245077  0.000000  1
  Na  Na17  1  0.745077  0.254923  0.500000  1
  Na  Na18  1  0.245128  0.754872  0.000000  1
  Na  Na19  1  0.254872  0.745128  0.500000  1
  Nb  Nb20  1  0.418803  0.581197  0.000000  1
  Nb  Nb21  1  0.081197  0.918803  0.500000  1
  Nb  Nb22  1  0.581035  0.418965  0.000000  1
  Nb  Nb23  1  0.918965  0.081035  0.500000  1
  As  As24  1  0.860257  0.554302  0.094402  1
  As  As25  1  0.445698  0.139743  0.905598  1
  As  As26  1  0.639743  0.945698  0.594402  1
  As  As27  1  0.945689  0.639451  0.594373  1
  As  As28  1  0.139451  0.445689  0.905627  1
  As  As29  1  0.554311  0.860549  0.094373  1
  As  As30  1  0.360549  0.054311  0.405627  1
  As  As31  1  0.200992  0.200914  0.589602  1
  As  As32  1  0.700914  0.700992  0.910398  1
  As  As33  1  0.299008  0.299086  0.089602  1
  As  As34  1  0.054302  0.360257  0.405598  1
  As  As35  1  0.799086  0.799008  0.410398  1
