# generated using pymatgen
data_AcTb2Ho(AsPt)4
_symmetry_space_group_name_H-M   'P 1'
_cell_length_a   4.32797700
_cell_length_b   4.32797722
_cell_length_c   15.93440300
_cell_angle_alpha   90.00000000
_cell_angle_beta   90.00000000
_cell_angle_gamma   120.00000592
_symmetry_Int_Tables_number   1
_chemical_formula_structural   AcTb2Ho(AsPt)4
_chemical_formula_sum   'Ac1 Tb2 Ho1 As4 Pt4'
_cell_volume   258.48557588
_cell_formula_units_Z   1
loop_
 _symmetry_equiv_pos_site_id
 _symmetry_equiv_pos_as_xyz
  1  'x, y, z'
loop_
 _atom_site_type_symbol
 _atom_site_label
 _atom_site_symmetry_multiplicity
 _atom_site_fract_x
 _atom_site_fract_y
 _atom_site_fract_z
 _atom_site_occupancy
  Ac  Ac0  1  0.000000  0.000000  0.500678  1
  Tb  Tb1  1  0.000000  0.000000  0.999334  1
  Tb  Tb2  1  0.000000  0.000000  0.240846  1
  Ho  Ho3  1  0.000000  0.000000  0.759049  1
  As  As4  1  0.333333  0.666667  0.887960  1
  As  As5  1  0.666667  0.333333  0.111196  1
  As  As6  1  0.666667  0.333333  0.368731  1
  As  As7  1  0.333333  0.666667  0.632045  1
  Pt  Pt8  1  0.333333  0.666667  0.350790  1
  Pt  Pt9  1  0.666667  0.333333  0.651929  1
  Pt  Pt10  1  0.666667  0.333333  0.867770  1
  Pt  Pt11  1  0.333333  0.666667  0.129672  1
