# generated using pymatgen
data_Tb4Y4Tc(B8Os)3
_symmetry_space_group_name_H-M   'P 1'
_cell_length_a   3.67228600
_cell_length_b   9.18003968
_cell_length_c   11.56769600
_cell_angle_alpha   89.94932390
_cell_angle_beta   90.00000000
_cell_angle_gamma   90.00000000
_symmetry_Int_Tables_number   1
_chemical_formula_structural   Tb4Y4Tc(B8Os)3
_chemical_formula_sum   'Tb4 Y4 Tc1 B24 Os3'
_cell_volume   389.96690565
_cell_formula_units_Z   1
loop_
 _symmetry_equiv_pos_site_id
 _symmetry_equiv_pos_as_xyz
  1  'x, y, z'
loop_
 _atom_site_type_symbol
 _atom_site_label
 _atom_site_symmetry_multiplicity
 _atom_site_fract_x
 _atom_site_fract_y
 _atom_site_fract_z
 _atom_site_occupancy
  Tb  Tb0  1  0.000000  0.324358  0.412967  1
  Tb  Tb1  1  0.000000  0.676605  0.583676  1
  Tb  Tb2  1  0.000000  0.820828  0.088150  1
  Tb  Tb3  1  0.000000  0.176987  0.914751  1
  Y  Y4  1  0.000000  0.942764  0.372720  1
  Y  Y5  1  0.000000  0.056848  0.627367  1
  Y  Y6  1  0.000000  0.444592  0.128010  1
  Y  Y7  1  0.000000  0.556634  0.872294  1
  Tc  Tc8  1  0.000000  0.637625  0.321301  1
  B  B9  1  0.500000  0.553065  0.432614  1
  B  B10  1  0.500000  0.446388  0.567645  1
  B  B11  1  0.500000  0.053657  0.067547  1
  B  B12  1  0.500000  0.946238  0.932819  1
  B  B13  1  0.500000  0.747358  0.419178  1
  B  B14  1  0.500000  0.252741  0.580690  1
  B  B15  1  0.500000  0.247607  0.080581  1
  B  B16  1  0.500000  0.752491  0.919368  1
  B  B17  1  0.500000  0.790758  0.266593  1
  B  B18  1  0.500000  0.209522  0.733429  1
  B  B19  1  0.500000  0.290485  0.232829  1
  B  B20  1  0.500000  0.709980  0.766541  1
  B  B21  1  0.500000  0.631796  0.186254  1
  B  B22  1  0.500000  0.368030  0.814251  1
  B  B23  1  0.500000  0.131759  0.313605  1
  B  B24  1  0.500000  0.868567  0.685929  1
  B  B25  1  0.500000  0.983384  0.212738  1
  B  B26  1  0.500000  0.016543  0.787667  1
  B  B27  1  0.500000  0.483031  0.287310  1
  B  B28  1  0.500000  0.516244  0.712756  1
  B  B29  1  0.500000  0.608277  0.029633  1
  B  B30  1  0.500000  0.391538  0.969731  1
  B  B31  1  0.500000  0.108784  0.469928  1
  B  B32  1  0.500000  0.892370  0.530375  1
  Os  Os33  1  0.000000  0.362047  0.679206  1
  Os  Os34  1  0.000000  0.137386  0.178035  1
  Os  Os35  1  0.000000  0.862712  0.821513  1
