# generated using pymatgen
data_Rb6Fe2O7
_symmetry_space_group_name_H-M   'P 1'
_cell_length_a   9.54025700
_cell_length_b   6.98479442
_cell_length_c   11.67313715
_cell_angle_alpha   55.94769533
_cell_angle_beta   90.00000000
_cell_angle_gamma   90.00000000
_symmetry_Int_Tables_number   1
_chemical_formula_structural   Rb6Fe2O7
_chemical_formula_sum   'Rb12 Fe4 O14'
_cell_volume   644.47759475
_cell_formula_units_Z   2
loop_
 _symmetry_equiv_pos_site_id
 _symmetry_equiv_pos_as_xyz
  1  'x, y, z'
loop_
 _atom_site_type_symbol
 _atom_site_label
 _atom_site_symmetry_multiplicity
 _atom_site_fract_x
 _atom_site_fract_y
 _atom_site_fract_z
 _atom_site_occupancy
  Rb  Rb0  1  0.793049  0.589532  0.286530  1
  Rb  Rb1  1  0.706951  0.589532  0.786530  1
  Rb  Rb2  1  0.206951  0.410468  0.713470  1
  Rb  Rb3  1  0.353674  0.060445  0.067452  1
  Rb  Rb4  1  0.853674  0.939555  0.432548  1
  Rb  Rb5  1  0.646326  0.939555  0.932548  1
  Rb  Rb6  1  0.146326  0.060445  0.567452  1
  Rb  Rb7  1  0.478547  0.800884  0.439618  1
  Rb  Rb8  1  0.978547  0.199116  0.060382  1
  Rb  Rb9  1  0.521453  0.199116  0.560382  1
  Rb  Rb10  1  0.021453  0.800884  0.939618  1
  Rb  Rb11  1  0.293049  0.410468  0.213470  1
  Fe  Fe12  1  0.360752  0.686425  0.862170  1
  Fe  Fe13  1  0.139248  0.686425  0.362170  1
  Fe  Fe14  1  0.639248  0.313575  0.137830  1
  Fe  Fe15  1  0.860752  0.313575  0.637830  1
  O  O16  1  0.289829  0.495640  0.424553  1
  O  O17  1  0.000000  0.500000  0.500000  1
  O  O18  1  0.500000  0.500000  0.000000  1
  O  O19  1  0.105134  0.756048  0.190934  1
  O  O20  1  0.789829  0.504360  0.075447  1
  O  O21  1  0.710171  0.504360  0.575447  1
  O  O22  1  0.210171  0.495640  0.924553  1
  O  O23  1  0.358289  0.962870  0.843318  1
  O  O24  1  0.858289  0.037130  0.656682  1
  O  O25  1  0.641711  0.037130  0.156682  1
  O  O26  1  0.141711  0.962870  0.343318  1
  O  O27  1  0.394866  0.756048  0.690934  1
  O  O28  1  0.894866  0.243952  0.809066  1
  O  O29  1  0.605134  0.243952  0.309066  1
