# generated using pymatgen
data_Lu12Co3Ni
_symmetry_space_group_name_H-M   'P 1'
_cell_length_a   6.09125826
_cell_length_b   6.77820136
_cell_length_c   9.14280200
_cell_angle_alpha   90.00000000
_cell_angle_beta   90.00000000
_cell_angle_gamma   89.92681085
_symmetry_Int_Tables_number   1
_chemical_formula_structural   Lu12Co3Ni
_chemical_formula_sum   'Lu12 Co3 Ni1'
_cell_volume   377.48564424
_cell_formula_units_Z   1
loop_
 _symmetry_equiv_pos_site_id
 _symmetry_equiv_pos_as_xyz
  1  'x, y, z'
loop_
 _atom_site_type_symbol
 _atom_site_label
 _atom_site_symmetry_multiplicity
 _atom_site_fract_x
 _atom_site_fract_y
 _atom_site_fract_z
 _atom_site_occupancy
  Lu  Lu0  1  0.325936  0.676956  0.063999  1
  Lu  Lu1  1  0.176762  0.179958  0.436044  1
  Lu  Lu2  1  0.677656  0.322517  0.565072  1
  Lu  Lu3  1  0.821852  0.822515  0.932657  1
  Lu  Lu4  1  0.677656  0.322517  0.934928  1
  Lu  Lu5  1  0.821852  0.822515  0.567343  1
  Lu  Lu6  1  0.325936  0.676956  0.436001  1
  Lu  Lu7  1  0.176762  0.179958  0.063956  1
  Lu  Lu8  1  0.862439  0.536581  0.250000  1
  Lu  Lu9  1  0.633444  0.040391  0.250000  1
  Lu  Lu10  1  0.134744  0.458984  0.750000  1
  Lu  Lu11  1  0.366191  0.958963  0.750000  1
  Co  Co12  1  0.453295  0.389275  0.250000  1
  Co  Co13  1  0.958585  0.111009  0.750000  1
  Co  Co14  1  0.543105  0.610651  0.750000  1
  Ni  Ni15  1  0.043786  0.890254  0.250000  1
