# generated using pymatgen
data_Mg4Zn7Ru
_symmetry_space_group_name_H-M   'P 1'
_cell_length_a   5.19840000
_cell_length_b   5.25499860
_cell_length_c   8.39017300
_cell_angle_alpha   90.00000000
_cell_angle_beta   90.00000000
_cell_angle_gamma   119.64435197
_symmetry_Int_Tables_number   1
_chemical_formula_structural   Mg4Zn7Ru
_chemical_formula_sum   'Mg4 Zn7 Ru1'
_cell_volume   199.19990105
_cell_formula_units_Z   1
loop_
 _symmetry_equiv_pos_site_id
 _symmetry_equiv_pos_as_xyz
  1  'x, y, z'
loop_
 _atom_site_type_symbol
 _atom_site_label
 _atom_site_symmetry_multiplicity
 _atom_site_fract_x
 _atom_site_fract_y
 _atom_site_fract_z
 _atom_site_occupancy
  Mg  Mg0  1  0.325655  0.651312  0.056451  1
  Mg  Mg1  1  0.669026  0.338050  0.574092  1
  Mg  Mg2  1  0.669026  0.338050  0.925908  1
  Mg  Mg3  1  0.325655  0.651312  0.443549  1
  Zn  Zn4  1  0.007132  0.014264  0.999096  1
  Zn  Zn5  1  0.007132  0.014264  0.500904  1
  Zn  Zn6  1  0.820822  0.165569  0.250000  1
  Zn  Zn7  1  0.344747  0.165569  0.250000  1
  Zn  Zn8  1  0.659752  0.828577  0.750000  1
  Zn  Zn9  1  0.168826  0.828577  0.750000  1
  Zn  Zn10  1  0.831932  0.663864  0.250000  1
  Ru  Ru11  1  0.170296  0.340591  0.750000  1
