# generated using pymatgen
data_YHoNb4(B2Ru5)2
_symmetry_space_group_name_H-M   'P 1'
_cell_length_a   9.56721671
_cell_length_b   9.56721731
_cell_length_c   3.09199100
_cell_angle_alpha   90.00000000
_cell_angle_beta   90.00000000
_cell_angle_gamma   90.78039517
_symmetry_Int_Tables_number   1
_chemical_formula_structural   YHoNb4(B2Ru5)2
_chemical_formula_sum   'Y1 Ho1 Nb4 B4 Ru10'
_cell_volume   282.98875962
_cell_formula_units_Z   1
loop_
 _symmetry_equiv_pos_site_id
 _symmetry_equiv_pos_as_xyz
  1  'x, y, z'
loop_
 _atom_site_type_symbol
 _atom_site_label
 _atom_site_symmetry_multiplicity
 _atom_site_fract_x
 _atom_site_fract_y
 _atom_site_fract_z
 _atom_site_occupancy
  Y  Y0  1  0.823766  0.676234  0.000000  1
  Ho  Ho1  1  0.176285  0.323715  0.000000  1
  Nb  Nb2  1  0.324392  0.824438  0.000000  1
  Nb  Nb3  1  0.675562  0.175608  0.000000  1
  Nb  Nb4  1  0.499809  0.499899  0.000000  1
  Nb  Nb5  1  0.000101  0.000191  0.000000  1
  B  B6  1  0.620649  0.879351  0.000000  1
  B  B7  1  0.379110  0.120890  0.000000  1
  B  B8  1  0.121271  0.621007  0.000000  1
  B  B9  1  0.878993  0.378729  0.000000  1
  Ru  Ru10  1  0.558610  0.723434  0.500000  1
  Ru  Ru11  1  0.440270  0.276962  0.500000  1
  Ru  Ru12  1  0.081968  0.784958  0.500000  1
  Ru  Ru13  1  0.918991  0.215067  0.500000  1
  Ru  Ru14  1  0.284933  0.581009  0.500000  1
  Ru  Ru15  1  0.715042  0.418032  0.500000  1
  Ru  Ru16  1  0.223038  0.059730  0.500000  1
  Ru  Ru17  1  0.776566  0.941390  0.500000  1
  Ru  Ru18  1  0.499833  0.000167  0.500000  1
  Ru  Ru19  1  0.000810  0.499190  0.500000  1
