# generated using pymatgen
data_ScTa3Ga2FeCo9B4
_symmetry_space_group_name_H-M   'P 1'
_cell_length_a   8.57808500
_cell_length_b   8.57808452
_cell_length_c   3.02817100
_cell_angle_alpha   90.00000000
_cell_angle_beta   90.00000000
_cell_angle_gamma   89.54918794
_symmetry_Int_Tables_number   1
_chemical_formula_structural   ScTa3Ga2FeCo9B4
_chemical_formula_sum   'Sc1 Ta3 Ga2 Fe1 Co9 B4'
_cell_volume   222.81663918
_cell_formula_units_Z   1
loop_
 _symmetry_equiv_pos_site_id
 _symmetry_equiv_pos_as_xyz
  1  'x, y, z'
loop_
 _atom_site_type_symbol
 _atom_site_label
 _atom_site_symmetry_multiplicity
 _atom_site_fract_x
 _atom_site_fract_y
 _atom_site_fract_z
 _atom_site_occupancy
  Sc  Sc0  1  0.176860  0.676860  0.000000  1
  Ta  Ta1  1  0.824444  0.324444  0.000000  1
  Ta  Ta2  1  0.326430  0.174397  0.000000  1
  Ta  Ta3  1  0.674397  0.826430  0.000000  1
  Ga  Ga4  1  0.001252  0.996291  0.000000  1
  Ga  Ga5  1  0.496291  0.501252  0.000000  1
  Fe  Fe6  1  0.502546  0.002546  0.500000  1
  Co  Co7  1  0.997936  0.497936  0.500000  1
  Co  Co8  1  0.067472  0.219516  0.500000  1
  Co  Co9  1  0.224562  0.936852  0.500000  1
  Co  Co10  1  0.781036  0.070928  0.500000  1
  Co  Co11  1  0.922176  0.777829  0.500000  1
  Co  Co12  1  0.436852  0.724562  0.500000  1
  Co  Co13  1  0.570928  0.281036  0.500000  1
  Co  Co14  1  0.719516  0.567472  0.500000  1
  Co  Co15  1  0.277829  0.422176  0.500000  1
  B  B16  1  0.622362  0.122362  0.000000  1
  B  B17  1  0.118412  0.376303  0.000000  1
  B  B18  1  0.876303  0.618412  0.000000  1
  B  B19  1  0.382394  0.882394  0.000000  1
