# generated using pymatgen
data_HoTmB6Ir
_symmetry_space_group_name_H-M   'P 1'
_cell_length_a   3.61992700
_cell_length_b   9.13879200
_cell_length_c   11.48733100
_cell_angle_alpha   90.00000000
_cell_angle_beta   90.00000000
_cell_angle_gamma   90.00000000
_symmetry_Int_Tables_number   1
_chemical_formula_structural   HoTmB6Ir
_chemical_formula_sum   'Ho4 Tm4 B24 Ir4'
_cell_volume   380.02112613
_cell_formula_units_Z   4
loop_
 _symmetry_equiv_pos_site_id
 _symmetry_equiv_pos_as_xyz
  1  'x, y, z'
loop_
 _atom_site_type_symbol
 _atom_site_label
 _atom_site_symmetry_multiplicity
 _atom_site_fract_x
 _atom_site_fract_y
 _atom_site_fract_z
 _atom_site_occupancy
  Ho  Ho0  1  0.000000  0.321189  0.413358  1
  Ho  Ho1  1  0.000000  0.678811  0.586642  1
  Ho  Ho2  1  0.000000  0.821189  0.086642  1
  Ho  Ho3  1  0.000000  0.178811  0.913358  1
  Tm  Tm4  1  0.000000  0.944020  0.374413  1
  Tm  Tm5  1  0.000000  0.055980  0.625587  1
  Tm  Tm6  1  0.000000  0.444020  0.125587  1
  Tm  Tm7  1  0.000000  0.555980  0.874413  1
  B  B8  1  0.500000  0.553741  0.434165  1
  B  B9  1  0.500000  0.446259  0.565835  1
  B  B10  1  0.500000  0.053741  0.065835  1
  B  B11  1  0.500000  0.946259  0.934165  1
  B  B12  1  0.500000  0.750120  0.420706  1
  B  B13  1  0.500000  0.249880  0.579294  1
  B  B14  1  0.500000  0.250120  0.079294  1
  B  B15  1  0.500000  0.749880  0.920706  1
  B  B16  1  0.500000  0.793337  0.264944  1
  B  B17  1  0.500000  0.206663  0.735056  1
  B  B18  1  0.500000  0.293337  0.235056  1
  B  B19  1  0.500000  0.706663  0.764944  1
  B  B20  1  0.500000  0.631495  0.183589  1
  B  B21  1  0.500000  0.368505  0.816411  1
  B  B22  1  0.500000  0.131495  0.316411  1
  B  B23  1  0.500000  0.868505  0.683589  1
  B  B24  1  0.500000  0.981499  0.213507  1
  B  B25  1  0.500000  0.018501  0.786493  1
  B  B26  1  0.500000  0.481499  0.286493  1
  B  B27  1  0.500000  0.518501  0.713507  1
  B  B28  1  0.500000  0.607889  0.029435  1
  B  B29  1  0.500000  0.392111  0.970565  1
  B  B30  1  0.500000  0.107889  0.470565  1
  B  B31  1  0.500000  0.892111  0.529435  1
  Ir  Ir32  1  0.000000  0.638665  0.320704  1
  Ir  Ir33  1  0.000000  0.361335  0.679296  1
  Ir  Ir34  1  0.000000  0.138665  0.179296  1
  Ir  Ir35  1  0.000000  0.861335  0.820704  1
