# generated using pymatgen
data_Ho4Co5Si10Ir
_symmetry_space_group_name_H-M   'P 1'
_cell_length_a   7.90186261
_cell_length_b   7.90186363
_cell_length_c   7.90186358
_cell_angle_alpha   138.83792266
_cell_angle_beta   105.42299735
_cell_angle_gamma   88.92313494
_symmetry_Int_Tables_number   1
_chemical_formula_structural   Ho4Co5Si10Ir
_chemical_formula_sum   'Ho4 Co5 Si10 Ir1'
_cell_volume   299.97925100
_cell_formula_units_Z   1
loop_
 _symmetry_equiv_pos_site_id
 _symmetry_equiv_pos_as_xyz
  1  'x, y, z'
loop_
 _atom_site_type_symbol
 _atom_site_label
 _atom_site_symmetry_multiplicity
 _atom_site_fract_x
 _atom_site_fract_y
 _atom_site_fract_z
 _atom_site_occupancy
  Ho  Ho0  1  0.598395  0.870956  0.737613  1
  Ho  Ho1  1  0.133344  0.360782  0.762387  1
  Ho  Ho2  1  0.866656  0.629044  0.227438  1
  Ho  Ho3  1  0.401605  0.139218  0.272562  1
  Co  Co4  1  0.000000  0.750000  0.750000  1
  Co  Co5  1  0.254157  0.859946  0.389774  1
  Co  Co6  1  0.529829  0.640054  0.894212  1
  Co  Co7  1  0.470171  0.364384  0.110226  1
  Co  Co8  1  0.745843  0.135616  0.605788  1
  Si  Si9  1  0.770700  0.020700  0.250000  1
  Si  Si10  1  0.228652  0.978652  0.750000  1
  Si  Si11  1  0.771348  0.521348  0.750000  1
  Si  Si12  1  0.941030  0.091694  0.824855  1
  Si  Si13  1  0.058970  0.883826  0.150664  1
  Si  Si14  1  0.500000  0.250000  0.750000  1
  Si  Si15  1  0.500000  0.750000  0.250000  1
  Si  Si16  1  0.733162  0.408306  0.349336  1
  Si  Si17  1  0.266838  0.616174  0.675145  1
  Si  Si18  1  0.229300  0.479300  0.250000  1
  Ir  Ir19  1  0.000000  0.250000  0.250000  1
