# generated using pymatgen
data_NaScSnI6
_symmetry_space_group_name_H-M   'P 1'
_cell_length_a   8.51434946
_cell_length_b   8.51426613
_cell_length_c   8.51426268
_cell_angle_alpha   54.29888663
_cell_angle_beta   54.29767134
_cell_angle_gamma   54.29708377
_symmetry_Int_Tables_number   1
_chemical_formula_structural   NaScSnI6
_chemical_formula_sum   'Na1 Sc1 Sn1 I6'
_cell_volume   378.38174490
_cell_formula_units_Z   1
loop_
 _symmetry_equiv_pos_site_id
 _symmetry_equiv_pos_as_xyz
  1  'x, y, z'
loop_
 _atom_site_type_symbol
 _atom_site_label
 _atom_site_symmetry_multiplicity
 _atom_site_fract_x
 _atom_site_fract_y
 _atom_site_fract_z
 _atom_site_occupancy
  Na  Na0  1  0.669786  0.669777  0.669785  1
  Sc  Sc1  1  0.999626  0.999670  0.999654  1
  Sn  Sn2  1  0.331184  0.331172  0.331174  1
  I  I3  1  0.225313  0.619124  0.917720  1
  I  I4  1  0.619128  0.917734  0.225297  1
  I  I5  1  0.917727  0.225303  0.619124  1
  I  I6  1  0.770715  0.377347  0.089176  1
  I  I7  1  0.377356  0.089159  0.770719  1
  I  I8  1  0.089167  0.770716  0.377352  1
