# generated using pymatgen
data_Yb3Co(GeO4)2
_symmetry_space_group_name_H-M   'P 1'
_cell_length_a   5.14757100
_cell_length_b   6.54977224
_cell_length_c   11.26264585
_cell_angle_alpha   88.18316483
_cell_angle_beta   90.00000000
_cell_angle_gamma   90.00000000
_symmetry_Int_Tables_number   1
_chemical_formula_structural   Yb3Co(GeO4)2
_chemical_formula_sum   'Yb6 Co2 Ge4 O16'
_cell_volume   379.53391602
_cell_formula_units_Z   2
loop_
 _symmetry_equiv_pos_site_id
 _symmetry_equiv_pos_as_xyz
  1  'x, y, z'
loop_
 _atom_site_type_symbol
 _atom_site_label
 _atom_site_symmetry_multiplicity
 _atom_site_fract_x
 _atom_site_fract_y
 _atom_site_fract_z
 _atom_site_occupancy
  Yb  Yb0  1  0.491870  0.754065  0.776488  1
  Yb  Yb1  1  0.991870  0.245935  0.723512  1
  Yb  Yb2  1  0.508130  0.245935  0.223512  1
  Yb  Yb3  1  0.008130  0.754065  0.276488  1
  Yb  Yb4  1  0.500000  0.500000  0.500000  1
  Yb  Yb5  1  0.000000  0.500000  0.000000  1
  Co  Co6  1  0.500000  0.000000  0.500000  1
  Co  Co7  1  0.000000  0.000000  0.000000  1
  Ge  Ge8  1  0.926312  0.764492  0.590272  1
  Ge  Ge9  1  0.426312  0.235508  0.909728  1
  Ge  Ge10  1  0.073688  0.235508  0.409728  1
  Ge  Ge11  1  0.573688  0.764492  0.090272  1
  O  O12  1  0.214714  0.455686  0.338048  1
  O  O13  1  0.714714  0.544314  0.161952  1
  O  O14  1  0.760217  0.973105  0.655735  1
  O  O15  1  0.260217  0.026895  0.844265  1
  O  O16  1  0.785286  0.544314  0.661952  1
  O  O17  1  0.285286  0.455686  0.838048  1
  O  O18  1  0.239783  0.026895  0.344265  1
  O  O19  1  0.739783  0.973105  0.155735  1
  O  O20  1  0.768625  0.770589  0.447271  1
  O  O21  1  0.268625  0.229411  0.052729  1
  O  O22  1  0.231375  0.229411  0.552729  1
  O  O23  1  0.731375  0.770589  0.947271  1
  O  O24  1  0.230742  0.761612  0.088400  1
  O  O25  1  0.730742  0.238388  0.411600  1
  O  O26  1  0.769258  0.238388  0.911600  1
  O  O27  1  0.269258  0.761612  0.588400  1
