# generated using pymatgen
data_Ac2BiN
_symmetry_space_group_name_H-M   'P 1'
_cell_length_a   5.01986000
_cell_length_b   5.01986000
_cell_length_c   9.91300600
_cell_angle_alpha   90.00000000
_cell_angle_beta   90.00000000
_cell_angle_gamma   90.00000000
_symmetry_Int_Tables_number   1
_chemical_formula_structural   Ac2BiN
_chemical_formula_sum   'Ac4 Bi2 N2'
_cell_volume   249.79778288
_cell_formula_units_Z   2
loop_
 _symmetry_equiv_pos_site_id
 _symmetry_equiv_pos_as_xyz
  1  'x, y, z'
loop_
 _atom_site_type_symbol
 _atom_site_label
 _atom_site_symmetry_multiplicity
 _atom_site_fract_x
 _atom_site_fract_y
 _atom_site_fract_z
 _atom_site_occupancy
  Ac  Ac0  1  0.750000  0.250000  0.000000  1
  Ac  Ac1  1  0.250000  0.750000  0.000000  1
  Ac  Ac2  1  0.750000  0.750000  0.671527  1
  Ac  Ac3  1  0.250000  0.250000  0.328473  1
  Bi  Bi4  1  0.750000  0.750000  0.300796  1
  Bi  Bi5  1  0.250000  0.250000  0.699204  1
  N  N6  1  0.750000  0.750000  0.912068  1
  N  N7  1  0.250000  0.250000  0.087932  1
