# generated using pymatgen
data_TbHo6CoI12
_symmetry_space_group_name_H-M   'P 1'
_cell_length_a   9.72744251
_cell_length_b   9.72220516
_cell_length_c   9.71871367
_cell_angle_alpha   106.74522193
_cell_angle_beta   106.88229675
_cell_angle_gamma   106.82060279
_symmetry_Int_Tables_number   1
_chemical_formula_structural   TbHo6CoI12
_chemical_formula_sum   'Tb1 Ho6 Co1 I12'
_cell_volume   769.25999504
_cell_formula_units_Z   1
loop_
 _symmetry_equiv_pos_site_id
 _symmetry_equiv_pos_as_xyz
  1  'x, y, z'
loop_
 _atom_site_type_symbol
 _atom_site_label
 _atom_site_symmetry_multiplicity
 _atom_site_fract_x
 _atom_site_fract_y
 _atom_site_fract_z
 _atom_site_occupancy
  Tb  Tb0  1  0.710449  0.978900  0.907653  1
  Ho  Ho1  1  0.500338  0.500055  0.500181  1
  Ho  Ho2  1  0.021416  0.091203  0.286277  1
  Ho  Ho3  1  0.091879  0.286308  0.021103  1
  Ho  Ho4  1  0.285950  0.021044  0.091411  1
  Ho  Ho5  1  0.978713  0.908739  0.713695  1
  Ho  Ho6  1  0.909171  0.713810  0.979108  1
  Co  Co7  1  0.999534  0.000044  0.999824  1
  I  I8  1  0.161911  0.462404  0.385858  1
  I  I9  1  0.462823  0.385934  0.161766  1
  I  I10  1  0.386115  0.161692  0.462766  1
  I  I11  1  0.838677  0.537611  0.614157  1
  I  I12  1  0.537397  0.612138  0.838394  1
  I  I13  1  0.614134  0.837463  0.535127  1
  I  I14  1  0.677195  0.071550  0.226578  1
  I  I15  1  0.070765  0.223702  0.676529  1
  I  I16  1  0.224133  0.676417  0.070677  1
  I  I17  1  0.321993  0.928755  0.775510  1
  I  I18  1  0.929477  0.776300  0.323494  1
  I  I19  1  0.777929  0.325930  0.929893  1
