# generated using pymatgen
data_LiDy16Ni4Ag3
_symmetry_space_group_name_H-M   'P 1'
_cell_length_a   9.42734477
_cell_length_b   9.42734480
_cell_length_c   9.42734517
_cell_angle_alpha   60.21255139
_cell_angle_beta   60.21255095
_cell_angle_gamma   60.21254978
_symmetry_Int_Tables_number   1
_chemical_formula_structural   LiDy16Ni4Ag3
_chemical_formula_sum   'Li1 Dy16 Ni4 Ag3'
_cell_volume   595.30323992
_cell_formula_units_Z   1
loop_
 _symmetry_equiv_pos_site_id
 _symmetry_equiv_pos_as_xyz
  1  'x, y, z'
loop_
 _atom_site_type_symbol
 _atom_site_label
 _atom_site_symmetry_multiplicity
 _atom_site_fract_x
 _atom_site_fract_y
 _atom_site_fract_z
 _atom_site_occupancy
  Li  Li0  1  0.819178  0.819178  0.819178  1
  Dy  Dy1  1  0.598891  0.598891  0.598891  1
  Dy  Dy2  1  0.600665  0.600665  0.201194  1
  Dy  Dy3  1  0.600665  0.201194  0.600665  1
  Dy  Dy4  1  0.201194  0.600665  0.600665  1
  Dy  Dy5  1  0.061705  0.440396  0.440396  1
  Dy  Dy6  1  0.435424  0.064259  0.064259  1
  Dy  Dy7  1  0.440396  0.061705  0.440396  1
  Dy  Dy8  1  0.064259  0.435424  0.064259  1
  Dy  Dy9  1  0.440396  0.440396  0.061705  1
  Dy  Dy10  1  0.064259  0.064259  0.435424  1
  Dy  Dy11  1  0.186096  0.815201  0.815201  1
  Dy  Dy12  1  0.815519  0.185939  0.185939  1
  Dy  Dy13  1  0.815201  0.186096  0.815201  1
  Dy  Dy14  1  0.185939  0.815519  0.185939  1
  Dy  Dy15  1  0.815201  0.815201  0.186096  1
  Dy  Dy16  1  0.185939  0.185939  0.815519  1
  Ni  Ni17  1  0.394591  0.394591  0.394591  1
  Ni  Ni18  1  0.392634  0.392634  0.822208  1
  Ni  Ni19  1  0.392634  0.822208  0.392634  1
  Ni  Ni20  1  0.822208  0.392634  0.392634  1
  Ag  Ag21  1  0.832471  0.832471  0.502065  1
  Ag  Ag22  1  0.832471  0.502065  0.832471  1
  Ag  Ag23  1  0.502065  0.832471  0.832471  1
