# generated using pymatgen
data_LaEu2LuTi2O10
_symmetry_space_group_name_H-M   'P 1'
_cell_length_a   3.80157800
_cell_length_b   10.70235300
_cell_length_c   11.36226400
_cell_angle_alpha   90.00000000
_cell_angle_beta   90.00000000
_cell_angle_gamma   90.00000000
_symmetry_Int_Tables_number   1
_chemical_formula_structural   LaEu2LuTi2O10
_chemical_formula_sum   'La2 Eu4 Lu2 Ti4 O20'
_cell_volume   462.28313826
_cell_formula_units_Z   2
loop_
 _symmetry_equiv_pos_site_id
 _symmetry_equiv_pos_as_xyz
  1  'x, y, z'
loop_
 _atom_site_type_symbol
 _atom_site_label
 _atom_site_symmetry_multiplicity
 _atom_site_fract_x
 _atom_site_fract_y
 _atom_site_fract_z
 _atom_site_occupancy
  La  La0  1  0.250000  0.628167  0.556613  1
  La  La1  1  0.250000  0.128167  0.943387  1
  Eu  Eu2  1  0.750000  0.893321  0.719375  1
  Eu  Eu3  1  0.750000  0.393321  0.780625  1
  Eu  Eu4  1  0.250000  0.109844  0.282442  1
  Eu  Eu5  1  0.250000  0.609844  0.217558  1
  Lu  Lu6  1  0.750000  0.356223  0.443292  1
  Lu  Lu7  1  0.750000  0.856223  0.056708  1
  Ti  Ti8  1  0.250000  0.683491  0.878416  1
  Ti  Ti9  1  0.250000  0.183491  0.621584  1
  Ti  Ti10  1  0.750000  0.322588  0.123735  1
  Ti  Ti11  1  0.750000  0.822588  0.376265  1
  O  O12  1  0.750000  0.492678  0.595493  1
  O  O13  1  0.750000  0.992678  0.904507  1
  O  O14  1  0.250000  0.483806  0.389571  1
  O  O15  1  0.250000  0.983806  0.110429  1
  O  O16  1  0.750000  0.775930  0.539347  1
  O  O17  1  0.750000  0.275930  0.960653  1
  O  O18  1  0.250000  0.235160  0.459174  1
  O  O19  1  0.250000  0.735160  0.040826  1
  O  O20  1  0.750000  0.732917  0.886766  1
  O  O21  1  0.750000  0.232917  0.613234  1
  O  O22  1  0.250000  0.264916  0.121896  1
  O  O23  1  0.250000  0.764916  0.378104  1
  O  O24  1  0.250000  0.768549  0.732798  1
  O  O25  1  0.250000  0.268549  0.767202  1
  O  O26  1  0.750000  0.243142  0.275720  1
  O  O27  1  0.750000  0.743142  0.224280  1
  O  O28  1  0.250000  0.522466  0.834606  1
  O  O29  1  0.250000  0.022466  0.665394  1
  O  O30  1  0.750000  0.486803  0.147965  1
  O  O31  1  0.750000  0.986803  0.352035  1
