# generated using pymatgen
data_Y6Ho2Tc3B24Ru
_symmetry_space_group_name_H-M   'P 1'
_cell_length_a   3.68218200
_cell_length_b   9.16435382
_cell_length_c   11.55320911
_cell_angle_alpha   89.93319728
_cell_angle_beta   90.00000000
_cell_angle_gamma   90.00000000
_symmetry_Int_Tables_number   1
_chemical_formula_structural   Y6Ho2Tc3B24Ru
_chemical_formula_sum   'Y6 Ho2 Tc3 B24 Ru1'
_cell_volume   389.86068158
_cell_formula_units_Z   1
loop_
 _symmetry_equiv_pos_site_id
 _symmetry_equiv_pos_as_xyz
  1  'x, y, z'
loop_
 _atom_site_type_symbol
 _atom_site_label
 _atom_site_symmetry_multiplicity
 _atom_site_fract_x
 _atom_site_fract_y
 _atom_site_fract_z
 _atom_site_occupancy
  Y  Y0  1  0.000000  0.323786  0.413904  1
  Y  Y1  1  0.000000  0.674982  0.584215  1
  Y  Y2  1  0.000000  0.822894  0.087120  1
  Y  Y3  1  0.000000  0.178229  0.914598  1
  Y  Y4  1  0.000000  0.942592  0.370270  1
  Y  Y5  1  0.000000  0.057763  0.630694  1
  Ho  Ho6  1  0.000000  0.442976  0.130037  1
  Ho  Ho7  1  0.000000  0.557903  0.869136  1
  Tc  Tc8  1  0.000000  0.638080  0.320093  1
  Tc  Tc9  1  0.000000  0.362055  0.680391  1
  Tc  Tc10  1  0.000000  0.138575  0.178146  1
  B  B11  1  0.500000  0.553014  0.432560  1
  B  B12  1  0.500000  0.446655  0.567021  1
  B  B13  1  0.500000  0.053212  0.067027  1
  B  B14  1  0.500000  0.945936  0.932620  1
  B  B15  1  0.500000  0.747956  0.418429  1
  B  B16  1  0.500000  0.251288  0.581701  1
  B  B17  1  0.500000  0.249323  0.081525  1
  B  B18  1  0.500000  0.751310  0.918145  1
  B  B19  1  0.500000  0.791288  0.265531  1
  B  B20  1  0.500000  0.208945  0.735168  1
  B  B21  1  0.500000  0.291882  0.234295  1
  B  B22  1  0.500000  0.709117  0.765571  1
  B  B23  1  0.500000  0.630651  0.185572  1
  B  B24  1  0.500000  0.369467  0.814945  1
  B  B25  1  0.500000  0.130758  0.313721  1
  B  B26  1  0.500000  0.868579  0.686106  1
  B  B27  1  0.500000  0.982214  0.211586  1
  B  B28  1  0.500000  0.016242  0.788619  1
  B  B29  1  0.500000  0.482304  0.287690  1
  B  B30  1  0.500000  0.517556  0.711881  1
  B  B31  1  0.500000  0.601729  0.027982  1
  B  B32  1  0.500000  0.399982  0.971676  1
  B  B33  1  0.500000  0.102131  0.471915  1
  B  B34  1  0.500000  0.897585  0.528935  1
  Ru  Ru35  1  0.000000  0.861043  0.821175  1
