# generated using pymatgen
data_Er6FeCoSi6
_symmetry_space_group_name_H-M   'P 1'
_cell_length_a   5.58836715
_cell_length_b   5.58836632
_cell_length_c   13.35466628
_cell_angle_alpha   70.40058318
_cell_angle_beta   70.40058557
_cell_angle_gamma   43.47279751
_symmetry_Int_Tables_number   1
_chemical_formula_structural   Er6FeCoSi6
_chemical_formula_sum   'Er6 Fe1 Co1 Si6'
_cell_volume   267.58132688
_cell_formula_units_Z   1
loop_
 _symmetry_equiv_pos_site_id
 _symmetry_equiv_pos_as_xyz
  1  'x, y, z'
loop_
 _atom_site_type_symbol
 _atom_site_label
 _atom_site_symmetry_multiplicity
 _atom_site_fract_x
 _atom_site_fract_y
 _atom_site_fract_z
 _atom_site_occupancy
  Er  Er0  1  0.747877  0.747877  0.771402  1
  Er  Er1  1  0.251872  0.251872  0.228720  1
  Er  Er2  1  0.524710  0.524710  0.620638  1
  Er  Er3  1  0.476628  0.476628  0.379114  1
  Er  Er4  1  0.399479  0.399479  0.919887  1
  Er  Er5  1  0.600406  0.600406  0.081423  1
  Fe  Fe6  1  0.247096  0.247096  0.581653  1
  Co  Co7  1  0.752439  0.752439  0.416333  1
  Si  Si8  1  0.140735  0.140735  0.456636  1
  Si  Si9  1  0.856388  0.856388  0.543935  1
  Si  Si10  1  0.115482  0.115482  0.924606  1
  Si  Si11  1  0.884913  0.884913  0.075848  1
  Si  Si12  1  0.055269  0.055269  0.757792  1
  Si  Si13  1  0.946705  0.946705  0.242015  1
