# generated using pymatgen
data_Yb2Tm2IrRu7
_symmetry_space_group_name_H-M   'P 1'
_cell_length_a   5.21784414
_cell_length_b   5.21784369
_cell_length_c   8.91886405
_cell_angle_alpha   89.99112864
_cell_angle_beta   90.00887165
_cell_angle_gamma   119.97126357
_symmetry_Int_Tables_number   1
_chemical_formula_structural   Yb2Tm2IrRu7
_chemical_formula_sum   'Yb2 Tm2 Ir1 Ru7'
_cell_volume   210.35266587
_cell_formula_units_Z   1
loop_
 _symmetry_equiv_pos_site_id
 _symmetry_equiv_pos_as_xyz
  1  'x, y, z'
loop_
 _atom_site_type_symbol
 _atom_site_label
 _atom_site_symmetry_multiplicity
 _atom_site_fract_x
 _atom_site_fract_y
 _atom_site_fract_z
 _atom_site_occupancy
  Yb  Yb0  1  0.333334  0.666666  0.060142  1
  Yb  Yb1  1  0.666666  0.333334  0.939858  1
  Tm  Tm2  1  0.666673  0.333327  0.572669  1
  Tm  Tm3  1  0.333327  0.666673  0.427331  1
  Ir  Ir4  1  0.000000  0.000000  0.000000  1
  Ru  Ru5  1  0.000000  0.000000  0.500000  1
  Ru  Ru6  1  0.171158  0.342279  0.747557  1
  Ru  Ru7  1  0.171142  0.828858  0.747587  1
  Ru  Ru8  1  0.657721  0.828842  0.747557  1
  Ru  Ru9  1  0.828842  0.657721  0.252443  1
  Ru  Ru10  1  0.828858  0.171142  0.252413  1
  Ru  Ru11  1  0.342279  0.171158  0.252443  1
