# generated using pymatgen
data_Tm2Fe3P7Ru9
_symmetry_space_group_name_H-M   'P 1'
_cell_length_a   9.28896200
_cell_length_b   9.28896194
_cell_length_c   3.84685500
_cell_angle_alpha   90.00000000
_cell_angle_beta   90.00000000
_cell_angle_gamma   120.00000021
_symmetry_Int_Tables_number   1
_chemical_formula_structural   Tm2Fe3P7Ru9
_chemical_formula_sum   'Tm2 Fe3 P7 Ru9'
_cell_volume   287.45562885
_cell_formula_units_Z   1
loop_
 _symmetry_equiv_pos_site_id
 _symmetry_equiv_pos_as_xyz
  1  'x, y, z'
loop_
 _atom_site_type_symbol
 _atom_site_label
 _atom_site_symmetry_multiplicity
 _atom_site_fract_x
 _atom_site_fract_y
 _atom_site_fract_z
 _atom_site_occupancy
  Tm  Tm0  1  0.333333  0.666667  0.000000  1
  Tm  Tm1  1  0.000000  0.000000  0.500000  1
  Fe  Fe2  1  0.935037  0.444008  0.000000  1
  Fe  Fe3  1  0.508972  0.064963  0.000000  1
  Fe  Fe4  1  0.555992  0.491028  0.000000  1
  P  P5  1  0.970456  0.223921  0.000000  1
  P  P6  1  0.253466  0.029544  0.000000  1
  P  P7  1  0.776079  0.746534  0.000000  1
  P  P8  1  0.063830  0.613949  0.500000  1
  P  P9  1  0.550119  0.936170  0.500000  1
  P  P10  1  0.386051  0.449881  0.500000  1
  P  P11  1  0.666667  0.333333  0.000000  1
  Ru  Ru12  1  0.727525  0.972093  0.000000  1
  Ru  Ru13  1  0.244568  0.272475  0.000000  1
  Ru  Ru14  1  0.027907  0.755432  0.000000  1
  Ru  Ru15  1  0.105738  0.386506  0.500000  1
  Ru  Ru16  1  0.280769  0.894262  0.500000  1
  Ru  Ru17  1  0.613494  0.719231  0.500000  1
  Ru  Ru18  1  0.754887  0.216622  0.500000  1
  Ru  Ru19  1  0.461735  0.245113  0.500000  1
  Ru  Ru20  1  0.783378  0.538265  0.500000  1
