# generated using pymatgen
data_LaCdSiIrAu
_symmetry_space_group_name_H-M   'P 1'
_cell_length_a   4.19877800
_cell_length_b   4.19877800
_cell_length_c   11.45089700
_cell_angle_alpha   90.00000000
_cell_angle_beta   90.00000000
_cell_angle_gamma   90.00000000
_symmetry_Int_Tables_number   1
_chemical_formula_structural   LaCdSiIrAu
_chemical_formula_sum   'La2 Cd2 Si2 Ir2 Au2'
_cell_volume   201.87629901
_cell_formula_units_Z   2
loop_
 _symmetry_equiv_pos_site_id
 _symmetry_equiv_pos_as_xyz
  1  'x, y, z'
loop_
 _atom_site_type_symbol
 _atom_site_label
 _atom_site_symmetry_multiplicity
 _atom_site_fract_x
 _atom_site_fract_y
 _atom_site_fract_z
 _atom_site_occupancy
  La  La0  1  0.000000  0.500000  0.725186  1
  La  La1  1  0.500000  0.000000  0.274814  1
  Cd  Cd2  1  0.000000  0.000000  0.000000  1
  Cd  Cd3  1  0.500000  0.500000  0.000000  1
  Si  Si4  1  0.000000  0.500000  0.392313  1
  Si  Si5  1  0.500000  0.000000  0.607687  1
  Ir  Ir6  1  0.000000  0.000000  0.500000  1
  Ir  Ir7  1  0.500000  0.500000  0.500000  1
  Au  Au8  1  0.500000  0.000000  0.826438  1
  Au  Au9  1  0.000000  0.500000  0.173562  1
