# generated using pymatgen
data_Nd3EuLu4(B6Os)4
_symmetry_space_group_name_H-M   'P 1'
_cell_length_a   3.67955700
_cell_length_b   9.20357068
_cell_length_c   11.65256753
_cell_angle_alpha   89.96077453
_cell_angle_beta   90.00000000
_cell_angle_gamma   90.00000000
_symmetry_Int_Tables_number   1
_chemical_formula_structural   Nd3EuLu4(B6Os)4
_chemical_formula_sum   'Nd3 Eu1 Lu4 B24 Os4'
_cell_volume   394.61483991
_cell_formula_units_Z   1
loop_
 _symmetry_equiv_pos_site_id
 _symmetry_equiv_pos_as_xyz
  1  'x, y, z'
loop_
 _atom_site_type_symbol
 _atom_site_label
 _atom_site_symmetry_multiplicity
 _atom_site_fract_x
 _atom_site_fract_y
 _atom_site_fract_z
 _atom_site_occupancy
  Nd  Nd0  1  0.000000  0.676780  0.584758  1
  Nd  Nd1  1  0.000000  0.822340  0.085764  1
  Nd  Nd2  1  0.000000  0.178295  0.914984  1
  Eu  Eu3  1  0.000000  0.322391  0.414429  1
  Lu  Lu4  1  0.000000  0.945125  0.372154  1
  Lu  Lu5  1  0.000000  0.056385  0.627167  1
  Lu  Lu6  1  0.000000  0.444202  0.128678  1
  Lu  Lu7  1  0.000000  0.555277  0.872289  1
  B  B8  1  0.500000  0.555686  0.429888  1
  B  B9  1  0.500000  0.443113  0.569291  1
  B  B10  1  0.500000  0.056470  0.070361  1
  B  B11  1  0.500000  0.943221  0.929563  1
  B  B12  1  0.500000  0.750608  0.416432  1
  B  B13  1  0.500000  0.249499  0.582441  1
  B  B14  1  0.500000  0.250917  0.083997  1
  B  B15  1  0.500000  0.748798  0.916550  1
  B  B16  1  0.500000  0.791751  0.266516  1
  B  B17  1  0.500000  0.208720  0.733395  1
  B  B18  1  0.500000  0.291792  0.234574  1
  B  B19  1  0.500000  0.708344  0.766283  1
  B  B20  1  0.500000  0.629954  0.185328  1
  B  B21  1  0.500000  0.369760  0.815236  1
  B  B22  1  0.500000  0.130841  0.315694  1
  B  B23  1  0.500000  0.869846  0.684483  1
  B  B24  1  0.500000  0.985397  0.214689  1
  B  B25  1  0.500000  0.014925  0.784987  1
  B  B26  1  0.500000  0.484279  0.285978  1
  B  B27  1  0.500000  0.514481  0.714272  1
  B  B28  1  0.500000  0.600446  0.027319  1
  B  B29  1  0.500000  0.399559  0.973076  1
  B  B30  1  0.500000  0.100882  0.472653  1
  B  B31  1  0.500000  0.899848  0.527042  1
  Os  Os32  1  0.000000  0.640593  0.318388  1
  Os  Os33  1  0.000000  0.359673  0.681705  1
  Os  Os34  1  0.000000  0.139681  0.181287  1
  Os  Os35  1  0.000000  0.860120  0.818349  1
