# generated using pymatgen
data_NdThCBr
_symmetry_space_group_name_H-M   'P 1'
_cell_length_a   3.77535800
_cell_length_b   3.77535806
_cell_length_c   15.25722300
_cell_angle_alpha   90.00000000
_cell_angle_beta   90.00000000
_cell_angle_gamma   119.99999952
_symmetry_Int_Tables_number   1
_chemical_formula_structural   NdThCBr
_chemical_formula_sum   'Nd2 Th2 C2 Br2'
_cell_volume   188.33126098
_cell_formula_units_Z   2
loop_
 _symmetry_equiv_pos_site_id
 _symmetry_equiv_pos_as_xyz
  1  'x, y, z'
loop_
 _atom_site_type_symbol
 _atom_site_label
 _atom_site_symmetry_multiplicity
 _atom_site_fract_x
 _atom_site_fract_y
 _atom_site_fract_z
 _atom_site_occupancy
  Nd  Nd0  1  0.666667  0.333333  0.907139  1
  Nd  Nd1  1  0.333333  0.666667  0.407139  1
  Th  Th2  1  0.333333  0.666667  0.089119  1
  Th  Th3  1  0.666667  0.333333  0.589119  1
  C  C4  1  0.000000  0.000000  0.003124  1
  C  C5  1  0.000000  0.000000  0.503124  1
  Br  Br6  1  0.666667  0.333333  0.250618  1
  Br  Br7  1  0.333333  0.666667  0.750618  1
