# generated using pymatgen
data_Er20CoBi10Ru
_symmetry_space_group_name_H-M   'P 1'
_cell_length_a   7.98722585
_cell_length_b   9.36788600
_cell_length_c   12.06730114
_cell_angle_alpha   90.00000000
_cell_angle_beta   90.20482297
_cell_angle_gamma   90.00000000
_symmetry_Int_Tables_number   1
_chemical_formula_structural   Er20CoBi10Ru
_chemical_formula_sum   'Er20 Co1 Bi10 Ru1'
_cell_volume   902.91098677
_cell_formula_units_Z   1
loop_
 _symmetry_equiv_pos_site_id
 _symmetry_equiv_pos_as_xyz
  1  'x, y, z'
loop_
 _atom_site_type_symbol
 _atom_site_label
 _atom_site_symmetry_multiplicity
 _atom_site_fract_x
 _atom_site_fract_y
 _atom_site_fract_z
 _atom_site_occupancy
  Er  Er0  1  0.432154  0.179196  0.563377  1
  Er  Er1  1  0.569937  0.822754  0.062800  1
  Er  Er2  1  0.071712  0.723814  0.434623  1
  Er  Er3  1  0.927021  0.270161  0.936483  1
  Er  Er4  1  0.071712  0.276186  0.434623  1
  Er  Er5  1  0.927021  0.729839  0.936483  1
  Er  Er6  1  0.432154  0.820804  0.563377  1
  Er  Er7  1  0.569937  0.177246  0.062800  1
  Er  Er8  1  0.574976  0.500000  0.772882  1
  Er  Er9  1  0.424806  0.500000  0.273139  1
  Er  Er10  1  0.907687  0.000000  0.202074  1
  Er  Er11  1  0.091937  0.000000  0.706211  1
  Er  Er12  1  0.258965  0.500000  0.992988  1
  Er  Er13  1  0.741003  0.500000  0.494120  1
  Er  Er14  1  0.197026  0.000000  0.996907  1
  Er  Er15  1  0.803399  0.000000  0.495385  1
  Er  Er16  1  0.089340  0.500000  0.719679  1
  Er  Er17  1  0.908130  0.500000  0.218576  1
  Er  Er18  1  0.374458  0.000000  0.304414  1
  Er  Er19  1  0.630973  0.000000  0.810013  1
  Co  Co20  1  0.825273  0.000000  0.989434  1
  Bi  Bi21  1  0.815332  0.741085  0.671704  1
  Bi  Bi22  1  0.184176  0.259421  0.170162  1
  Bi  Bi23  1  0.679052  0.242891  0.325464  1
  Bi  Bi24  1  0.321278  0.758126  0.826074  1
  Bi  Bi25  1  0.679052  0.757109  0.325464  1
  Bi  Bi26  1  0.321278  0.241874  0.826074  1
  Bi  Bi27  1  0.815332  0.258915  0.671704  1
  Bi  Bi28  1  0.184176  0.740579  0.170162  1
  Bi  Bi29  1  0.347291  0.500000  0.528821  1
  Bi  Bi30  1  0.653471  0.500000  0.027487  1
  Ru  Ru31  1  0.169940  0.000000  0.486498  1
