# generated using pymatgen
data_Th6Cd23B
_symmetry_space_group_name_H-M   'P 1'
_cell_length_a   10.00977487
_cell_length_b   10.00977544
_cell_length_c   10.00977500
_cell_angle_alpha   59.99999817
_cell_angle_beta   59.99999627
_cell_angle_gamma   59.99999368
_symmetry_Int_Tables_number   1
_chemical_formula_structural   Th6Cd23B
_chemical_formula_sum   'Th6 Cd23 B1'
_cell_volume   709.18235824
_cell_formula_units_Z   1
loop_
 _symmetry_equiv_pos_site_id
 _symmetry_equiv_pos_as_xyz
  1  'x, y, z'
loop_
 _atom_site_type_symbol
 _atom_site_label
 _atom_site_symmetry_multiplicity
 _atom_site_fract_x
 _atom_site_fract_y
 _atom_site_fract_z
 _atom_site_occupancy
  Th  Th0  1  0.810495  0.810495  0.189505  1
  Th  Th1  1  0.189505  0.810495  0.189505  1
  Th  Th2  1  0.810495  0.189505  0.189505  1
  Th  Th3  1  0.189505  0.189505  0.810495  1
  Th  Th4  1  0.810495  0.189505  0.810495  1
  Th  Th5  1  0.189505  0.810495  0.810495  1
  Cd  Cd6  1  0.832017  0.832017  0.503951  1
  Cd  Cd7  1  0.832017  0.503951  0.832017  1
  Cd  Cd8  1  0.503951  0.832017  0.832017  1
  Cd  Cd9  1  0.832017  0.832017  0.832017  1
  Cd  Cd10  1  0.167983  0.167983  0.496049  1
  Cd  Cd11  1  0.167983  0.496049  0.167983  1
  Cd  Cd12  1  0.496049  0.167983  0.167983  1
  Cd  Cd13  1  0.167983  0.167983  0.167983  1
  Cd  Cd14  1  0.619933  0.619933  0.140201  1
  Cd  Cd15  1  0.619933  0.140201  0.619933  1
  Cd  Cd16  1  0.140201  0.619933  0.619933  1
  Cd  Cd17  1  0.619933  0.619933  0.619933  1
  Cd  Cd18  1  0.380067  0.380067  0.859799  1
  Cd  Cd19  1  0.380067  0.859799  0.380067  1
  Cd  Cd20  1  0.859799  0.380067  0.380067  1
  Cd  Cd21  1  0.380067  0.380067  0.380067  1
  Cd  Cd22  1  0.000000  0.000000  0.500000  1
  Cd  Cd23  1  0.500000  0.000000  0.500000  1
  Cd  Cd24  1  0.000000  0.500000  0.500000  1
  Cd  Cd25  1  0.500000  0.500000  0.000000  1
  Cd  Cd26  1  0.000000  0.500000  0.000000  1
  Cd  Cd27  1  0.500000  0.000000  0.000000  1
  Cd  Cd28  1  0.500000  0.500000  0.500000  1
  B  B29  1  0.000000  0.000000  0.000000  1
