# generated using pymatgen
data_KZn(In4Ir)2
_symmetry_space_group_name_H-M   'P 1'
_cell_length_a   9.11753400
_cell_length_b   8.99555787
_cell_length_c   4.18202800
_cell_angle_alpha   90.00000000
_cell_angle_beta   90.00000000
_cell_angle_gamma   120.44956334
_symmetry_Int_Tables_number   1
_chemical_formula_structural   KZn(In4Ir)2
_chemical_formula_sum   'K1 Zn1 In8 Ir2'
_cell_volume   295.69078179
_cell_formula_units_Z   1
loop_
 _symmetry_equiv_pos_site_id
 _symmetry_equiv_pos_as_xyz
  1  'x, y, z'
loop_
 _atom_site_type_symbol
 _atom_site_label
 _atom_site_symmetry_multiplicity
 _atom_site_fract_x
 _atom_site_fract_y
 _atom_site_fract_z
 _atom_site_occupancy
  K  K0  1  0.000000  0.000000  0.000000  1
  Zn  Zn1  1  0.500000  0.000000  0.000000  1
  In  In2  1  0.585853  0.803667  0.500000  1
  In  In3  1  0.217815  0.803667  0.500000  1
  In  In4  1  0.204681  0.409360  0.500000  1
  In  In5  1  0.795319  0.590640  0.500000  1
  In  In6  1  0.782185  0.196333  0.500000  1
  In  In7  1  0.414147  0.196333  0.500000  1
  In  In8  1  0.000000  0.500000  0.000000  1
  In  In9  1  0.500000  0.500000  0.000000  1
  Ir  Ir10  1  0.337103  0.674207  0.000000  1
  Ir  Ir11  1  0.662897  0.325793  0.000000  1
