# generated using pymatgen
data_Tb4Dy7Tm9(CoSb2)4
_symmetry_space_group_name_H-M   'P 1'
_cell_length_a   7.82340158
_cell_length_b   8.76143300
_cell_length_c   12.16264588
_cell_angle_alpha   90.00000000
_cell_angle_beta   90.04396608
_cell_angle_gamma   90.00000000
_symmetry_Int_Tables_number   1
_chemical_formula_structural   Tb4Dy7Tm9(CoSb2)4
_chemical_formula_sum   'Tb4 Dy7 Tm9 Co4 Sb8'
_cell_volume   833.67869361
_cell_formula_units_Z   1
loop_
 _symmetry_equiv_pos_site_id
 _symmetry_equiv_pos_as_xyz
  1  'x, y, z'
loop_
 _atom_site_type_symbol
 _atom_site_label
 _atom_site_symmetry_multiplicity
 _atom_site_fract_x
 _atom_site_fract_y
 _atom_site_fract_z
 _atom_site_occupancy
  Tb  Tb0  1  0.622707  0.750000  0.307928  1
  Tb  Tb1  1  0.122662  0.250000  0.192545  1
  Tb  Tb2  1  0.377063  0.250000  0.691966  1
  Tb  Tb3  1  0.877215  0.750000  0.807566  1
  Dy  Dy4  1  0.153791  0.750000  0.204038  1
  Dy  Dy5  1  0.653679  0.250000  0.296942  1
  Dy  Dy6  1  0.846486  0.250000  0.796128  1
  Dy  Dy7  1  0.345983  0.750000  0.702926  1
  Dy  Dy8  1  0.451550  0.750000  0.997658  1
  Dy  Dy9  1  0.951390  0.250000  0.502470  1
  Dy  Dy10  1  0.548364  0.250000  0.002296  1
  Tm  Tm11  1  0.049493  0.750000  0.497553  1
  Tm  Tm12  1  0.824467  0.963862  0.065118  1
  Tm  Tm13  1  0.323667  0.035201  0.435336  1
  Tm  Tm14  1  0.175697  0.463821  0.934873  1
  Tm  Tm15  1  0.676032  0.536625  0.564885  1
  Tm  Tm16  1  0.175697  0.036179  0.934873  1
  Tm  Tm17  1  0.676032  0.963375  0.564885  1
  Tm  Tm18  1  0.824467  0.536138  0.065118  1
  Tm  Tm19  1  0.323667  0.464799  0.435336  1
  Co  Co20  1  0.434464  0.750000  0.491170  1
  Co  Co21  1  0.935585  0.250000  0.008508  1
  Co  Co22  1  0.564543  0.250000  0.508692  1
  Co  Co23  1  0.064349  0.750000  0.991484  1
  Sb  Sb24  1  0.930618  0.991121  0.328615  1
  Sb  Sb25  1  0.429805  0.007813  0.172662  1
  Sb  Sb26  1  0.069902  0.493216  0.671264  1
  Sb  Sb27  1  0.570149  0.507991  0.827313  1
  Sb  Sb28  1  0.069902  0.006784  0.671264  1
  Sb  Sb29  1  0.570149  0.992009  0.827313  1
  Sb  Sb30  1  0.930618  0.508879  0.328615  1
  Sb  Sb31  1  0.429805  0.492187  0.172662  1
