# generated using pymatgen
data_K4Li2DyInAs4
_symmetry_space_group_name_H-M   'P 1'
_cell_length_a   10.25304914
_cell_length_b   10.25304892
_cell_length_c   6.60774500
_cell_angle_alpha   90.00000000
_cell_angle_beta   90.00000000
_cell_angle_gamma   100.47091898
_symmetry_Int_Tables_number   1
_chemical_formula_structural   K4Li2DyInAs4
_chemical_formula_sum   'K8 Li4 Dy2 In2 As8'
_cell_volume   683.07165168
_cell_formula_units_Z   2
loop_
 _symmetry_equiv_pos_site_id
 _symmetry_equiv_pos_as_xyz
  1  'x, y, z'
loop_
 _atom_site_type_symbol
 _atom_site_label
 _atom_site_symmetry_multiplicity
 _atom_site_fract_x
 _atom_site_fract_y
 _atom_site_fract_z
 _atom_site_occupancy
  K  K0  1  0.567854  0.932146  0.750000  1
  K  K1  1  0.932146  0.567854  0.250000  1
  K  K2  1  0.425639  0.074361  0.250000  1
  K  K3  1  0.074361  0.425639  0.750000  1
  K  K4  1  0.672332  0.320588  0.779933  1
  K  K5  1  0.827668  0.179412  0.279933  1
  K  K6  1  0.320588  0.672332  0.220067  1
  K  K7  1  0.179412  0.827668  0.720067  1
  Li  Li8  1  0.615674  0.615674  0.000000  1
  Li  Li9  1  0.884326  0.884326  0.500000  1
  Li  Li10  1  0.376661  0.376661  0.000000  1
  Li  Li11  1  0.123339  0.123339  0.500000  1
  Dy  Dy12  1  0.873149  0.873149  0.000000  1
  Dy  Dy13  1  0.626851  0.626851  0.500000  1
  In  In14  1  0.132077  0.132077  0.000000  1
  In  In15  1  0.367923  0.367923  0.500000  1
  As  As16  1  0.348845  0.151155  0.750000  1
  As  As17  1  0.151155  0.348845  0.250000  1
  As  As18  1  0.650680  0.849320  0.250000  1
  As  As19  1  0.849320  0.650680  0.750000  1
  As  As20  1  0.906162  0.101866  0.762317  1
  As  As21  1  0.593838  0.398134  0.262317  1
  As  As22  1  0.101866  0.906162  0.237683  1
  As  As23  1  0.398134  0.593838  0.737683  1
