# generated using pymatgen
data_Yb3RuBr2O5
_symmetry_space_group_name_H-M   'P 1'
_cell_length_a   6.93726462
_cell_length_b   6.93726446
_cell_length_c   10.79352000
_cell_angle_alpha   90.00000000
_cell_angle_beta   90.00000000
_cell_angle_gamma   133.42153681
_symmetry_Int_Tables_number   1
_chemical_formula_structural   Yb3RuBr2O5
_chemical_formula_sum   'Yb6 Ru2 Br4 O10'
_cell_volume   377.28143395
_cell_formula_units_Z   2
loop_
 _symmetry_equiv_pos_site_id
 _symmetry_equiv_pos_as_xyz
  1  'x, y, z'
loop_
 _atom_site_type_symbol
 _atom_site_label
 _atom_site_symmetry_multiplicity
 _atom_site_fract_x
 _atom_site_fract_y
 _atom_site_fract_z
 _atom_site_occupancy
  Yb  Yb0  1  0.875638  0.124362  0.750000  1
  Yb  Yb1  1  0.664353  0.335647  0.528414  1
  Yb  Yb2  1  0.335647  0.664353  0.471586  1
  Yb  Yb3  1  0.664353  0.335647  0.971586  1
  Yb  Yb4  1  0.335647  0.664353  0.028414  1
  Yb  Yb5  1  0.124362  0.875638  0.250000  1
  Ru  Ru6  1  0.773575  0.226425  0.250000  1
  Ru  Ru7  1  0.226425  0.773575  0.750000  1
  Br  Br8  1  0.499467  0.500533  0.250000  1
  Br  Br9  1  0.500533  0.499467  0.750000  1
  Br  Br10  1  0.000000  0.000000  0.500000  1
  Br  Br11  1  0.000000  0.000000  0.000000  1
  O  O12  1  0.094658  0.905342  0.750000  1
  O  O13  1  0.037107  0.488239  0.629736  1
  O  O14  1  0.488239  0.037107  0.370264  1
  O  O15  1  0.511761  0.962893  0.629736  1
  O  O16  1  0.962893  0.511761  0.370264  1
  O  O17  1  0.905342  0.094658  0.250000  1
  O  O18  1  0.037107  0.488239  0.870264  1
  O  O19  1  0.511761  0.962893  0.870264  1
  O  O20  1  0.962893  0.511761  0.129736  1
  O  O21  1  0.488239  0.037107  0.129736  1
