# generated using pymatgen
data_Pa(FeP3)4
_symmetry_space_group_name_H-M   'P 1'
_cell_length_a   6.73935527
_cell_length_b   6.73935595
_cell_length_c   6.73935600
_cell_angle_alpha   109.47122080
_cell_angle_beta   109.47122282
_cell_angle_gamma   109.47122068
_symmetry_Int_Tables_number   1
_chemical_formula_structural   Pa(FeP3)4
_chemical_formula_sum   'Pa1 Fe4 P12'
_cell_volume   235.63144179
_cell_formula_units_Z   1
loop_
 _symmetry_equiv_pos_site_id
 _symmetry_equiv_pos_as_xyz
  1  'x, y, z'
loop_
 _atom_site_type_symbol
 _atom_site_label
 _atom_site_symmetry_multiplicity
 _atom_site_fract_x
 _atom_site_fract_y
 _atom_site_fract_z
 _atom_site_occupancy
  Pa  Pa0  1  0.000000  0.000000  0.000000  1
  Fe  Fe1  1  0.000000  0.000000  0.500000  1
  Fe  Fe2  1  0.000000  0.500000  0.000000  1
  Fe  Fe3  1  0.500000  0.000000  0.000000  1
  Fe  Fe4  1  0.500000  0.500000  0.500000  1
  P  P5  1  0.650718  0.848937  0.499654  1
  P  P6  1  0.650718  0.151063  0.801781  1
  P  P7  1  0.349282  0.848937  0.198219  1
  P  P8  1  0.151063  0.500346  0.349282  1
  P  P9  1  0.500346  0.349282  0.151063  1
  P  P10  1  0.349282  0.151063  0.500346  1
  P  P11  1  0.848937  0.198219  0.349282  1
  P  P12  1  0.801781  0.650718  0.151063  1
  P  P13  1  0.848937  0.499654  0.650718  1
  P  P14  1  0.198219  0.349282  0.848937  1
  P  P15  1  0.151063  0.801781  0.650718  1
  P  P16  1  0.499654  0.650718  0.848937  1
