# generated using pymatgen
data_YbPr(Be12Cu)2
_symmetry_space_group_name_H-M   'P 1'
_cell_length_a   7.34658111
_cell_length_b   7.39923514
_cell_length_c   7.31832459
_cell_angle_alpha   59.88734373
_cell_angle_beta   59.87904946
_cell_angle_gamma   59.50952586
_symmetry_Int_Tables_number   1
_chemical_formula_structural   YbPr(Be12Cu)2
_chemical_formula_sum   'Yb1 Pr1 Be24 Cu2'
_cell_volume   279.74974902
_cell_formula_units_Z   1
loop_
 _symmetry_equiv_pos_site_id
 _symmetry_equiv_pos_as_xyz
  1  'x, y, z'
loop_
 _atom_site_type_symbol
 _atom_site_label
 _atom_site_symmetry_multiplicity
 _atom_site_fract_x
 _atom_site_fract_y
 _atom_site_fract_z
 _atom_site_occupancy
  Yb  Yb0  1  0.250306  0.249694  0.250306  1
  Pr  Pr1  1  0.746835  0.753165  0.746835  1
  Be  Be2  1  0.499930  0.500070  0.499930  1
  Be  Be3  1  0.000051  0.999949  0.000051  1
  Be  Be4  1  0.566387  0.790194  0.433170  1
  Be  Be5  1  0.433170  0.210249  0.566387  1
  Be  Be6  1  0.288514  0.934941  0.711373  1
  Be  Be7  1  0.711373  0.065172  0.288514  1
  Be  Be8  1  0.929762  0.277966  0.069866  1
  Be  Be9  1  0.069866  0.722407  0.929762  1
  Be  Be10  1  0.210963  0.796635  0.559418  1
  Be  Be11  1  0.789536  0.203821  0.439599  1
  Be  Be12  1  0.439599  0.567045  0.789536  1
  Be  Be13  1  0.559418  0.432985  0.210963  1
  Be  Be14  1  0.712997  0.284528  0.935158  1
  Be  Be15  1  0.286773  0.716589  0.064519  1
  Be  Be16  1  0.064519  0.932119  0.286773  1
  Be  Be17  1  0.935158  0.067317  0.712997  1
  Be  Be18  1  0.568003  0.209094  0.789134  1
  Be  Be19  1  0.431980  0.790793  0.211339  1
  Be  Be20  1  0.789134  0.433768  0.568003  1
  Be  Be21  1  0.211339  0.565890  0.431980  1
  Be  Be22  1  0.935584  0.715153  0.287361  1
  Be  Be23  1  0.064053  0.285177  0.712593  1
  Be  Be24  1  0.287361  0.061902  0.935584  1
  Be  Be25  1  0.712593  0.938178  0.064053  1
  Cu  Cu26  1  0.804932  0.556226  0.199867  1
  Cu  Cu27  1  0.199867  0.438975  0.804932  1
