# generated using pymatgen
data_YPa3(InRh2)2
_symmetry_space_group_name_H-M   'P 1'
_cell_length_a   7.70828830
_cell_length_b   7.70828982
_cell_length_c   3.61736500
_cell_angle_alpha   90.00000000
_cell_angle_beta   90.00000000
_cell_angle_gamma   87.82576894
_symmetry_Int_Tables_number   1
_chemical_formula_structural   YPa3(InRh2)2
_chemical_formula_sum   'Y1 Pa3 In2 Rh4'
_cell_volume   214.78084534
_cell_formula_units_Z   1
loop_
 _symmetry_equiv_pos_site_id
 _symmetry_equiv_pos_as_xyz
  1  'x, y, z'
loop_
 _atom_site_type_symbol
 _atom_site_label
 _atom_site_symmetry_multiplicity
 _atom_site_fract_x
 _atom_site_fract_y
 _atom_site_fract_z
 _atom_site_occupancy
  Y  Y0  1  0.670671  0.170671  0.500000  1
  Pa  Pa1  1  0.331219  0.831219  0.500000  1
  Pa  Pa2  1  0.168455  0.328838  0.500000  1
  Pa  Pa3  1  0.828838  0.668455  0.500000  1
  In  In4  1  0.991762  0.000786  0.000000  1
  In  In5  1  0.500786  0.491762  0.000000  1
  Rh  Rh6  1  0.143189  0.643189  0.000000  1
  Rh  Rh7  1  0.886033  0.386033  0.000000  1
  Rh  Rh8  1  0.628962  0.850087  0.000000  1
  Rh  Rh9  1  0.350087  0.128962  0.000000  1
