# generated using pymatgen
data_Tl2Se21
_symmetry_space_group_name_H-M   'P 1'
_cell_length_a   17.29538246
_cell_length_b   17.29538258
_cell_length_c   10.25801300
_cell_angle_alpha   82.04669161
_cell_angle_beta   82.04669490
_cell_angle_gamma   13.62060492
_symmetry_Int_Tables_number   1
_chemical_formula_structural   Tl2Se21
_chemical_formula_sum   'Tl2 Se21'
_cell_volume   715.55165434
_cell_formula_units_Z   1
loop_
 _symmetry_equiv_pos_site_id
 _symmetry_equiv_pos_as_xyz
  1  'x, y, z'
loop_
 _atom_site_type_symbol
 _atom_site_label
 _atom_site_symmetry_multiplicity
 _atom_site_fract_x
 _atom_site_fract_y
 _atom_site_fract_z
 _atom_site_occupancy
  Tl  Tl0  1  0.371380  0.371380  0.082470  1
  Tl  Tl1  1  0.628620  0.628620  0.917530  1
  Se  Se2  1  0.447378  0.447378  0.327802  1
  Se  Se3  1  0.691708  0.691708  0.160093  1
  Se  Se4  1  0.308292  0.308292  0.839907  1
  Se  Se5  1  0.944180  0.944180  0.696302  1
  Se  Se6  1  0.055820  0.055820  0.303698  1
  Se  Se7  1  0.838652  0.838652  0.406311  1
  Se  Se8  1  0.161348  0.161348  0.593689  1
  Se  Se9  1  0.552622  0.552622  0.672198  1
  Se  Se10  1  0.157160  0.157160  0.186413  1
  Se  Se11  1  0.000000  0.000000  0.500000  1
  Se  Se12  1  0.714903  0.714903  0.846233  1
  Se  Se13  1  0.285097  0.285097  0.153767  1
  Se  Se14  1  0.842840  0.842840  0.813587  1
  Se  Se15  1  0.388576  0.388576  0.480424  1
  Se  Se16  1  0.705768  0.705768  0.626192  1
  Se  Se17  1  0.294232  0.294232  0.373808  1
  Se  Se18  1  0.611424  0.611424  0.519576  1
  Se  Se19  1  0.454866  0.454866  0.804741  1
  Se  Se20  1  0.545134  0.545134  0.195259  1
  Se  Se21  1  0.942495  0.942495  0.198677  1
  Se  Se22  1  0.057505  0.057505  0.801323  1
