# generated using pymatgen
data_NbGaNi3Au
_symmetry_space_group_name_H-M   'P 1'
_cell_length_a   4.90162090
_cell_length_b   4.90162090
_cell_length_c   4.79431612
_cell_angle_alpha   59.25682398
_cell_angle_beta   59.25682509
_cell_angle_gamma   59.99999181
_symmetry_Int_Tables_number   1
_chemical_formula_structural   NbGaNi3Au
_chemical_formula_sum   'Nb1 Ga1 Ni3 Au1'
_cell_volume   80.52303958
_cell_formula_units_Z   1
loop_
 _symmetry_equiv_pos_site_id
 _symmetry_equiv_pos_as_xyz
  1  'x, y, z'
loop_
 _atom_site_type_symbol
 _atom_site_label
 _atom_site_symmetry_multiplicity
 _atom_site_fract_x
 _atom_site_fract_y
 _atom_site_fract_z
 _atom_site_occupancy
  Nb  Nb0  1  0.002636  0.002636  0.992091  1
  Ga  Ga1  1  0.623818  0.623818  0.128545  1
  Ni  Ni2  1  0.624899  0.123579  0.626620  1
  Ni  Ni3  1  0.123579  0.624899  0.626620  1
  Ni  Ni4  1  0.624899  0.624899  0.626620  1
  Au  Au5  1  0.250165  0.250165  0.249504  1
