# generated using pymatgen
data_NaLuB4Ir5
_symmetry_space_group_name_H-M   'P 1'
_cell_length_a   7.45633497
_cell_length_b   6.29280521
_cell_length_c   5.57938629
_cell_angle_alpha   77.55546373
_cell_angle_beta   55.49993811
_cell_angle_gamma   46.94459233
_symmetry_Int_Tables_number   1
_chemical_formula_structural   NaLuB4Ir5
_chemical_formula_sum   'Na1 Lu1 B4 Ir5'
_cell_volume   151.14196581
_cell_formula_units_Z   1
loop_
 _symmetry_equiv_pos_site_id
 _symmetry_equiv_pos_as_xyz
  1  'x, y, z'
loop_
 _atom_site_type_symbol
 _atom_site_label
 _atom_site_symmetry_multiplicity
 _atom_site_fract_x
 _atom_site_fract_y
 _atom_site_fract_z
 _atom_site_occupancy
  Na  Na0  1  0.854408  0.854406  0.145593  1
  Lu  Lu1  1  0.129174  0.129173  0.870827  1
  B  B2  1  0.480318  0.791738  0.208262  1
  B  B3  1  0.212806  0.525141  0.474859  1
  B  B4  1  0.791739  0.480317  0.519683  1
  B  B5  1  0.525142  0.212805  0.787195  1
  Ir  Ir6  1  0.500024  0.500024  0.999976  1
  Ir  Ir7  1  0.251378  0.251378  0.248622  1
  Ir  Ir8  1  0.000024  0.000024  0.499976  1
  Ir  Ir9  1  0.503612  0.503611  0.496388  1
  Ir  Ir10  1  0.751378  0.751377  0.748622  1
