# generated using pymatgen
data_Hf3ScCo5Si2Ni
_symmetry_space_group_name_H-M   'P 1'
_cell_length_a   4.98305698
_cell_length_b   4.98305749
_cell_length_c   7.59008659
_cell_angle_alpha   90.08201937
_cell_angle_beta   89.91797852
_cell_angle_gamma   119.77394934
_symmetry_Int_Tables_number   1
_chemical_formula_structural   Hf3ScCo5Si2Ni
_chemical_formula_sum   'Hf3 Sc1 Co5 Si2 Ni1'
_cell_volume   163.58868828
_cell_formula_units_Z   1
loop_
 _symmetry_equiv_pos_site_id
 _symmetry_equiv_pos_as_xyz
  1  'x, y, z'
loop_
 _atom_site_type_symbol
 _atom_site_label
 _atom_site_symmetry_multiplicity
 _atom_site_fract_x
 _atom_site_fract_y
 _atom_site_fract_z
 _atom_site_occupancy
  Hf  Hf0  1  0.332528  0.667472  0.561502  1
  Hf  Hf1  1  0.664650  0.335350  0.437157  1
  Hf  Hf2  1  0.663949  0.336051  0.055277  1
  Sc  Sc3  1  0.332833  0.667167  0.945605  1
  Co  Co4  1  0.662746  0.830640  0.252242  1
  Co  Co5  1  0.170415  0.829585  0.252085  1
  Co  Co6  1  0.832537  0.663799  0.747631  1
  Co  Co7  1  0.169360  0.337254  0.252242  1
  Co  Co8  1  0.336201  0.167463  0.747631  1
  Si  Si9  1  0.001150  0.998850  0.497538  1
  Si  Si10  1  0.001462  0.998538  0.002174  1
  Ni  Ni11  1  0.832168  0.167832  0.748918  1
