# generated using pymatgen
data_La4Pr16(Si3Au)3
_symmetry_space_group_name_H-M   'P 1'
_cell_length_a   7.86714946
_cell_length_b   7.86120618
_cell_length_c   14.51787500
_cell_angle_alpha   90.00815574
_cell_angle_beta   90.01967115
_cell_angle_gamma   90.03030245
_symmetry_Int_Tables_number   1
_chemical_formula_structural   La4Pr16(Si3Au)3
_chemical_formula_sum   'La4 Pr16 Si9 Au3'
_cell_volume   897.86191451
_cell_formula_units_Z   1
loop_
 _symmetry_equiv_pos_site_id
 _symmetry_equiv_pos_as_xyz
  1  'x, y, z'
loop_
 _atom_site_type_symbol
 _atom_site_label
 _atom_site_symmetry_multiplicity
 _atom_site_fract_x
 _atom_site_fract_y
 _atom_site_fract_z
 _atom_site_occupancy
  La  La0  1  0.816297  0.825371  0.603160  1
  La  La1  1  0.997866  0.502025  0.724081  1
  La  La2  1  0.000164  0.499927  0.223611  1
  La  La3  1  0.500680  0.999864  0.285729  1
  Pr  Pr4  1  0.185678  0.838979  0.109437  1
  Pr  Pr5  1  0.163972  0.810661  0.393230  1
  Pr  Pr6  1  0.837774  0.189466  0.393184  1
  Pr  Pr7  1  0.688491  0.663275  0.393485  1
  Pr  Pr8  1  0.671631  0.316383  0.604861  1
  Pr  Pr9  1  0.327339  0.682871  0.604705  1
  Pr  Pr10  1  0.660775  0.685398  0.109398  1
  Pr  Pr11  1  0.687834  0.339983  0.890924  1
  Pr  Pr12  1  0.839254  0.812875  0.890560  1
  Pr  Pr13  1  0.312655  0.336464  0.393461  1
  Pr  Pr14  1  0.183617  0.172650  0.605119  1
  Pr  Pr15  1  0.814749  0.160111  0.109311  1
  Pr  Pr16  1  0.311821  0.660578  0.890713  1
  Pr  Pr17  1  0.340021  0.314062  0.109612  1
  Pr  Pr18  1  0.160545  0.189049  0.890780  1
  Pr  Pr19  1  0.499854  0.000052  0.775030  1
  Si  Si20  1  0.615605  0.384602  0.252701  1
  Si  Si21  1  0.115558  0.888619  0.747086  1
  Si  Si22  1  0.387135  0.384065  0.747022  1
  Si  Si23  1  0.385076  0.615118  0.252659  1
  Si  Si24  1  0.885057  0.885050  0.252840  1
  Si  Si25  1  0.610591  0.614756  0.747071  1
  Si  Si26  1  0.001362  0.498888  0.501706  1
  Si  Si27  1  0.884829  0.112704  0.747141  1
  Si  Si28  1  0.115730  0.114577  0.252598  1
  Au  Au29  1  0.498440  0.001055  0.500877  1
  Au  Au30  1  0.499858  0.999923  0.996657  1
  Au  Au31  1  0.999743  0.500598  0.001248  1
