# generated using pymatgen
data_Nd5HoTa2O14
_symmetry_space_group_name_H-M   'P 1'
_cell_length_a   6.66122574
_cell_length_b   6.63483484
_cell_length_c   7.69113300
_cell_angle_alpha   90.00000000
_cell_angle_beta   90.00000000
_cell_angle_gamma   108.93771610
_symmetry_Int_Tables_number   1
_chemical_formula_structural   Nd5HoTa2O14
_chemical_formula_sum   'Nd5 Ho1 Ta2 O14'
_cell_volume   321.51921012
_cell_formula_units_Z   1
loop_
 _symmetry_equiv_pos_site_id
 _symmetry_equiv_pos_as_xyz
  1  'x, y, z'
loop_
 _atom_site_type_symbol
 _atom_site_label
 _atom_site_symmetry_multiplicity
 _atom_site_fract_x
 _atom_site_fract_y
 _atom_site_fract_z
 _atom_site_occupancy
  Nd  Nd0  1  0.530511  0.524312  0.498883  1
  Nd  Nd1  1  0.530511  0.524312  0.001117  1
  Nd  Nd2  1  0.005964  0.462889  0.750000  1
  Nd  Nd3  1  0.533408  0.003126  0.750000  1
  Nd  Nd4  1  0.463774  0.003148  0.250000  1
  Ho  Ho5  1  0.002755  0.531427  0.250000  1
  Ta  Ta6  1  0.001526  0.001452  0.497742  1
  Ta  Ta7  1  0.001526  0.001452  0.002258  1
  O  O8  1  0.945538  0.057494  0.750000  1
  O  O9  1  0.059881  0.935807  0.250000  1
  O  O10  1  0.352538  0.633313  0.250000  1
  O  O11  1  0.641261  0.369482  0.750000  1
  O  O12  1  0.371216  0.631055  0.750000  1
  O  O13  1  0.643840  0.377694  0.250000  1
  O  O14  1  0.310673  0.072938  0.969769  1
  O  O15  1  0.679040  0.917490  0.473088  1
  O  O16  1  0.310673  0.072938  0.530231  1
  O  O17  1  0.679040  0.917490  0.026912  1
  O  O18  1  0.036457  0.300897  0.457462  1
  O  O19  1  0.931705  0.680194  0.976840  1
  O  O20  1  0.931705  0.680194  0.523160  1
  O  O21  1  0.036457  0.300897  0.042538  1
