# generated using pymatgen
data_SrLaAl20IrRu3
_symmetry_space_group_name_H-M   'P 1'
_cell_length_a   6.91385581
_cell_length_b   6.91425204
_cell_length_c   9.23890612
_cell_angle_alpha   90.01081974
_cell_angle_beta   90.01350841
_cell_angle_gamma   96.76587387
_symmetry_Int_Tables_number   1
_chemical_formula_structural   SrLaAl20IrRu3
_chemical_formula_sum   'Sr1 La1 Al20 Ir1 Ru3'
_cell_volume   438.58218407
_cell_formula_units_Z   1
loop_
 _symmetry_equiv_pos_site_id
 _symmetry_equiv_pos_as_xyz
  1  'x, y, z'
loop_
 _atom_site_type_symbol
 _atom_site_label
 _atom_site_symmetry_multiplicity
 _atom_site_fract_x
 _atom_site_fract_y
 _atom_site_fract_z
 _atom_site_occupancy
  Sr  Sr0  1  0.878347  0.121129  0.750149  1
  La  La1  1  0.122959  0.878397  0.249846  1
  Al  Al2  1  0.620120  0.376787  0.546344  1
  Al  Al3  1  0.380015  0.622826  0.446495  1
  Al  Al4  1  0.378111  0.621960  0.052897  1
  Al  Al5  1  0.622303  0.377403  0.953890  1
  Al  Al6  1  0.227621  0.226591  0.499418  1
  Al  Al7  1  0.770476  0.775111  0.500850  1
  Al  Al8  1  0.771101  0.773312  0.000161  1
  Al  Al9  1  0.227087  0.228559  0.999663  1
  Al  Al10  1  0.839672  0.160813  0.101066  1
  Al  Al11  1  0.164150  0.835099  0.898362  1
  Al  Al12  1  0.165149  0.837484  0.602396  1
  Al  Al13  1  0.838652  0.158882  0.398140  1
  Al  Al14  1  0.859203  0.589647  0.751430  1
  Al  Al15  1  0.139064  0.410258  0.248700  1
  Al  Al16  1  0.411653  0.140469  0.750248  1
  Al  Al17  1  0.588769  0.861488  0.249702  1
  Al  Al18  1  0.222221  0.480433  0.751619  1
  Al  Al19  1  0.777336  0.517930  0.248369  1
  Al  Al20  1  0.519656  0.778471  0.749559  1
  Al  Al21  1  0.482145  0.222097  0.250401  1
  Ir  Ir22  1  0.999378  0.502053  0.499539  1
  Ru  Ru23  1  0.999544  0.502338  0.000730  1
  Ru  Ru24  1  0.497421  0.000148  0.000675  1
  Ru  Ru25  1  0.497843  0.000316  0.499351  1
