# generated using pymatgen
data_Nd2Al20TcIr3
_symmetry_space_group_name_H-M   'P 1'
_cell_length_a   6.90507708
_cell_length_b   6.89863333
_cell_length_c   9.22451708
_cell_angle_alpha   90.18116180
_cell_angle_beta   90.14787556
_cell_angle_gamma   97.04854490
_symmetry_Int_Tables_number   1
_chemical_formula_structural   Nd2Al20TcIr3
_chemical_formula_sum   'Nd2 Al20 Tc1 Ir3'
_cell_volume   436.09036333
_cell_formula_units_Z   1
loop_
 _symmetry_equiv_pos_site_id
 _symmetry_equiv_pos_as_xyz
  1  'x, y, z'
loop_
 _atom_site_type_symbol
 _atom_site_label
 _atom_site_symmetry_multiplicity
 _atom_site_fract_x
 _atom_site_fract_y
 _atom_site_fract_z
 _atom_site_occupancy
  Nd  Nd0  1  0.875550  0.129601  0.749888  1
  Nd  Nd1  1  0.124450  0.870399  0.250112  1
  Al  Al2  1  0.590757  0.856855  0.249659  1
  Al  Al3  1  0.776677  0.516627  0.246501  1
  Al  Al4  1  0.157500  0.840742  0.897852  1
  Al  Al5  1  0.409243  0.143145  0.750341  1
  Al  Al6  1  0.624255  0.379976  0.949585  1
  Al  Al7  1  0.840380  0.157887  0.395868  1
  Al  Al8  1  0.777420  0.775733  0.001359  1
  Al  Al9  1  0.857707  0.590031  0.750896  1
  Al  Al10  1  0.842500  0.159258  0.102148  1
  Al  Al11  1  0.223323  0.483373  0.753499  1
  Al  Al12  1  0.159620  0.842113  0.604132  1
  Al  Al13  1  0.776535  0.775956  0.499954  1
  Al  Al14  1  0.482327  0.223945  0.251269  1
  Al  Al15  1  0.621701  0.379078  0.552345  1
  Al  Al16  1  0.223465  0.224044  0.500046  1
  Al  Al17  1  0.378299  0.620922  0.447655  1
  Al  Al18  1  0.142293  0.409969  0.249104  1
  Al  Al19  1  0.517673  0.776055  0.748731  1
  Al  Al20  1  0.375745  0.620024  0.050415  1
  Al  Al21  1  0.222580  0.224267  0.998641  1
  Tc  Tc22  1  0.000000  0.500000  0.000000  1
  Ir  Ir23  1  0.500000  0.000000  0.000000  1
  Ir  Ir24  1  0.500000  0.000000  0.500000  1
  Ir  Ir25  1  0.000000  0.500000  0.500000  1
