# generated using pymatgen
data_CeLuTe3
_symmetry_space_group_name_H-M   'P 1'
_cell_length_a   7.24053900
_cell_length_b   7.24053963
_cell_length_c   10.43444400
_cell_angle_alpha   90.00000000
_cell_angle_beta   90.00000000
_cell_angle_gamma   145.87507216
_symmetry_Int_Tables_number   1
_chemical_formula_structural   CeLuTe3
_chemical_formula_sum   'Ce2 Lu2 Te6'
_cell_volume   306.88339711
_cell_formula_units_Z   2
loop_
 _symmetry_equiv_pos_site_id
 _symmetry_equiv_pos_as_xyz
  1  'x, y, z'
loop_
 _atom_site_type_symbol
 _atom_site_label
 _atom_site_symmetry_multiplicity
 _atom_site_fract_x
 _atom_site_fract_y
 _atom_site_fract_z
 _atom_site_occupancy
  Ce  Ce0  1  0.751679  0.248321  0.250000  1
  Ce  Ce1  1  0.248321  0.751679  0.750000  1
  Lu  Lu2  1  0.000000  0.000000  0.500000  1
  Lu  Lu3  1  0.000000  0.000000  0.000000  1
  Te  Te4  1  0.645750  0.354250  0.560601  1
  Te  Te5  1  0.645750  0.354250  0.939399  1
  Te  Te6  1  0.354250  0.645750  0.060601  1
  Te  Te7  1  0.354250  0.645750  0.439399  1
  Te  Te8  1  0.087003  0.912997  0.250000  1
  Te  Te9  1  0.912997  0.087003  0.750000  1
