# generated using pymatgen
data_Y4Ga18CuRu5
_symmetry_space_group_name_H-M   'P 1'
_cell_length_a   7.54092905
_cell_length_b   7.54127297
_cell_length_c   9.62386326
_cell_angle_alpha   90.30322454
_cell_angle_beta   90.30302352
_cell_angle_gamma   119.74614349
_symmetry_Int_Tables_number   1
_chemical_formula_structural   Y4Ga18CuRu5
_chemical_formula_sum   'Y4 Ga18 Cu1 Ru5'
_cell_volume   475.14999223
_cell_formula_units_Z   1
loop_
 _symmetry_equiv_pos_site_id
 _symmetry_equiv_pos_as_xyz
  1  'x, y, z'
loop_
 _atom_site_type_symbol
 _atom_site_label
 _atom_site_symmetry_multiplicity
 _atom_site_fract_x
 _atom_site_fract_y
 _atom_site_fract_z
 _atom_site_occupancy
  Y  Y0  1  0.997104  0.669877  0.250209  1
  Y  Y1  1  0.002896  0.330123  0.749791  1
  Y  Y2  1  0.669885  0.997095  0.250202  1
  Y  Y3  1  0.330115  0.002905  0.749798  1
  Ga  Ga4  1  0.127212  0.127211  0.249851  1
  Ga  Ga5  1  0.872788  0.872789  0.750149  1
  Ga  Ga6  1  0.002634  0.336684  0.078386  1
  Ga  Ga7  1  0.997366  0.663316  0.921614  1
  Ga  Ga8  1  0.996179  0.664721  0.577070  1
  Ga  Ga9  1  0.335299  0.003823  0.422944  1
  Ga  Ga10  1  0.003821  0.335279  0.422930  1
  Ga  Ga11  1  0.664701  0.996177  0.577056  1
  Ga  Ga12  1  0.663308  0.997377  0.921627  1
  Ga  Ga13  1  0.336692  0.002623  0.078373  1
  Ga  Ga14  1  0.336046  0.336060  0.558612  1
  Ga  Ga15  1  0.663954  0.663940  0.441388  1
  Ga  Ga16  1  0.661758  0.661758  0.059868  1
  Ga  Ga17  1  0.338242  0.338242  0.940132  1
  Ga  Ga18  1  0.337025  0.550152  0.249289  1
  Ga  Ga19  1  0.662975  0.449848  0.750711  1
  Ga  Ga20  1  0.550148  0.336994  0.249277  1
  Ga  Ga21  1  0.449852  0.663006  0.750723  1
  Cu  Cu22  1  0.000000  0.000000  0.000000  1
  Ru  Ru23  1  0.673292  0.326729  0.999995  1
  Ru  Ru24  1  0.326708  0.673271  0.000005  1
  Ru  Ru25  1  0.326700  0.673292  0.500000  1
  Ru  Ru26  1  0.673300  0.326708  0.500000  1
  Ru  Ru27  1  0.000000  0.000000  0.500000  1
