# generated using pymatgen
data_TmMn2P6BrN12
_symmetry_space_group_name_H-M   'P 1'
_cell_length_a   7.37767052
_cell_length_b   7.34136794
_cell_length_c   7.37767051
_cell_angle_alpha   109.43971605
_cell_angle_beta   109.99305249
_cell_angle_gamma   109.43971256
_symmetry_Int_Tables_number   1
_chemical_formula_structural   TmMn2P6BrN12
_chemical_formula_sum   'Tm1 Mn2 P6 Br1 N12'
_cell_volume   305.84383319
_cell_formula_units_Z   1
loop_
 _symmetry_equiv_pos_site_id
 _symmetry_equiv_pos_as_xyz
  1  'x, y, z'
loop_
 _atom_site_type_symbol
 _atom_site_label
 _atom_site_symmetry_multiplicity
 _atom_site_fract_x
 _atom_site_fract_y
 _atom_site_fract_z
 _atom_site_occupancy
  Tm  Tm0  1  0.021757  0.363674  0.021757  1
  Mn  Mn1  1  0.002995  0.004424  0.382605  1
  Mn  Mn2  1  0.382605  0.004424  0.002995  1
  P  P3  1  0.502234  0.259164  0.748236  1
  P  P4  1  0.250556  0.751369  0.497642  1
  P  P5  1  0.742280  0.502695  0.257981  1
  P  P6  1  0.748236  0.259164  0.502234  1
  P  P7  1  0.497642  0.751369  0.250556  1
  P  P8  1  0.257981  0.502695  0.742280  1
  Br  Br9  1  0.004596  0.973017  0.004596  1
  N  N10  1  0.384081  0.674394  0.384081  1
  N  N11  1  0.703292  0.426022  0.425624  1
  N  N12  1  0.425624  0.426022  0.703292  1
  N  N13  1  0.723984  0.289761  0.723984  1
  N  N14  1  0.991494  0.575188  0.288116  1
  N  N15  1  0.288116  0.575188  0.991494  1
  N  N16  1  0.287286  0.002653  0.565731  1
  N  N17  1  0.998858  0.283550  0.572669  1
  N  N18  1  0.717494  0.724510  0.290490  1
  N  N19  1  0.565731  0.002653  0.287286  1
  N  N20  1  0.290490  0.724510  0.717494  1
  N  N21  1  0.572669  0.283550  0.998858  1
