# generated using pymatgen
data_Li4YTh3Si8
_symmetry_space_group_name_H-M   'P 1'
_cell_length_a   3.84785100
_cell_length_b   7.77925565
_cell_length_c   10.38120440
_cell_angle_alpha   89.91766672
_cell_angle_beta   90.00000000
_cell_angle_gamma   90.00000000
_symmetry_Int_Tables_number   1
_chemical_formula_structural   Li4YTh3Si8
_chemical_formula_sum   'Li4 Y1 Th3 Si8'
_cell_volume   310.74459587
_cell_formula_units_Z   1
loop_
 _symmetry_equiv_pos_site_id
 _symmetry_equiv_pos_as_xyz
  1  'x, y, z'
loop_
 _atom_site_type_symbol
 _atom_site_label
 _atom_site_symmetry_multiplicity
 _atom_site_fract_x
 _atom_site_fract_y
 _atom_site_fract_z
 _atom_site_occupancy
  Li  Li0  1  0.250000  0.990450  0.396425  1
  Li  Li1  1  0.750000  0.011089  0.601390  1
  Li  Li2  1  0.250000  0.488237  0.107896  1
  Li  Li3  1  0.750000  0.508964  0.896488  1
  Y  Y4  1  0.750000  0.368798  0.362808  1
  Th  Th5  1  0.250000  0.138429  0.862083  1
  Th  Th6  1  0.750000  0.862497  0.137463  1
  Th  Th7  1  0.250000  0.634679  0.637946  1
  Si  Si8  1  0.750000  0.266529  0.070537  1
  Si  Si9  1  0.250000  0.733262  0.930829  1
  Si  Si10  1  0.750000  0.761747  0.432080  1
  Si  Si11  1  0.250000  0.237913  0.563689  1
  Si  Si12  1  0.750000  0.839123  0.817523  1
  Si  Si13  1  0.250000  0.162674  0.184687  1
  Si  Si14  1  0.750000  0.335726  0.682145  1
  Si  Si15  1  0.250000  0.659883  0.316011  1
