# generated using pymatgen
data_Zr2U(AlFe)3
_symmetry_space_group_name_H-M   'P 1'
_cell_length_a   6.81519130
_cell_length_b   7.22381094
_cell_length_c   3.46510500
_cell_angle_alpha   90.00000000
_cell_angle_beta   90.00000000
_cell_angle_gamma   122.00401471
_symmetry_Int_Tables_number   1
_chemical_formula_structural   Zr2U(AlFe)3
_chemical_formula_sum   'Zr2 U1 Al3 Fe3'
_cell_volume   144.66460565
_cell_formula_units_Z   1
loop_
 _symmetry_equiv_pos_site_id
 _symmetry_equiv_pos_as_xyz
  1  'x, y, z'
loop_
 _atom_site_type_symbol
 _atom_site_label
 _atom_site_symmetry_multiplicity
 _atom_site_fract_x
 _atom_site_fract_y
 _atom_site_fract_z
 _atom_site_occupancy
  Zr  Zr0  1  0.412194  0.402305  0.500000  1
  Zr  Zr1  1  0.587806  0.990111  0.500000  1
  U  U2  1  0.000000  0.571653  0.500000  1
  Al  Al3  1  0.738290  0.748077  0.000000  1
  Al  Al4  1  0.261710  0.009787  0.000000  1
  Al  Al5  1  0.000000  0.236285  0.000000  1
  Fe  Fe6  1  0.707412  0.374036  0.000000  1
  Fe  Fe7  1  0.292588  0.666625  0.000000  1
  Fe  Fe8  1  0.000000  0.001121  0.500000  1
