# generated using pymatgen
data_YCu2HgPd2
_symmetry_space_group_name_H-M   'P 1'
_cell_length_a   5.12102720
_cell_length_b   5.23595833
_cell_length_c   5.23595905
_cell_angle_alpha   63.29606421
_cell_angle_beta   60.72350044
_cell_angle_gamma   60.72350622
_symmetry_Int_Tables_number   1
_chemical_formula_structural   YCu2HgPd2
_chemical_formula_sum   'Y1 Cu2 Hg1 Pd2'
_cell_volume   102.66091104
_cell_formula_units_Z   1
loop_
 _symmetry_equiv_pos_site_id
 _symmetry_equiv_pos_as_xyz
  1  'x, y, z'
loop_
 _atom_site_type_symbol
 _atom_site_label
 _atom_site_symmetry_multiplicity
 _atom_site_fract_x
 _atom_site_fract_y
 _atom_site_fract_z
 _atom_site_occupancy
  Y  Y0  1  0.252076  0.247924  0.247924  1
  Cu  Cu1  1  0.620833  0.628054  0.628054  1
  Cu  Cu2  1  0.123063  0.628054  0.628054  1
  Hg  Hg3  1  0.006443  0.993557  0.993557  1
  Pd  Pd4  1  0.623794  0.626496  0.125919  1
  Pd  Pd5  1  0.623794  0.125919  0.626496  1
