# generated using pymatgen
data_Dy3Tm5(AlIr)2
_symmetry_space_group_name_H-M   'P 1'
_cell_length_a   9.45536363
_cell_length_b   9.45536437
_cell_length_c   9.45536400
_cell_angle_alpha   60.00000130
_cell_angle_beta   59.99999871
_cell_angle_gamma   60.00000375
_symmetry_Int_Tables_number   1
_chemical_formula_structural   Dy3Tm5(AlIr)2
_chemical_formula_sum   'Dy6 Tm10 Al4 Ir4'
_cell_volume   597.75025736
_cell_formula_units_Z   2
loop_
 _symmetry_equiv_pos_site_id
 _symmetry_equiv_pos_as_xyz
  1  'x, y, z'
loop_
 _atom_site_type_symbol
 _atom_site_label
 _atom_site_symmetry_multiplicity
 _atom_site_fract_x
 _atom_site_fract_y
 _atom_site_fract_z
 _atom_site_occupancy
  Dy  Dy0  1  0.188954  0.811046  0.811046  1
  Dy  Dy1  1  0.811046  0.188954  0.188954  1
  Dy  Dy2  1  0.811046  0.188954  0.811046  1
  Dy  Dy3  1  0.188954  0.811046  0.188954  1
  Dy  Dy4  1  0.811046  0.811046  0.188954  1
  Dy  Dy5  1  0.188954  0.188954  0.811046  1
  Tm  Tm6  1  0.601292  0.601292  0.601292  1
  Tm  Tm7  1  0.601292  0.601292  0.196125  1
  Tm  Tm8  1  0.601292  0.196125  0.601292  1
  Tm  Tm9  1  0.196125  0.601292  0.601292  1
  Tm  Tm10  1  0.055865  0.444135  0.444135  1
  Tm  Tm11  1  0.444135  0.055865  0.055865  1
  Tm  Tm12  1  0.444135  0.055865  0.444135  1
  Tm  Tm13  1  0.055865  0.444135  0.055865  1
  Tm  Tm14  1  0.444135  0.444135  0.055865  1
  Tm  Tm15  1  0.055865  0.055865  0.444135  1
  Al  Al16  1  0.827344  0.827344  0.827344  1
  Al  Al17  1  0.827344  0.827344  0.517967  1
  Al  Al18  1  0.827344  0.517967  0.827344  1
  Al  Al19  1  0.517967  0.827344  0.827344  1
  Ir  Ir20  1  0.391236  0.391236  0.391236  1
  Ir  Ir21  1  0.391236  0.391236  0.826292  1
  Ir  Ir22  1  0.391236  0.826292  0.391236  1
  Ir  Ir23  1  0.826292  0.391236  0.391236  1
