# generated using pymatgen
data_La2Dy2Y2CoI10
_symmetry_space_group_name_H-M   'P 1'
_cell_length_a   7.83010709
_cell_length_b   9.85929239
_cell_length_c   9.78070784
_cell_angle_alpha   106.85525943
_cell_angle_beta   95.86232015
_cell_angle_gamma   105.60392902
_symmetry_Int_Tables_number   1
_chemical_formula_structural   La2Dy2Y2CoI10
_chemical_formula_sum   'La2 Dy2 Y2 Co1 I10'
_cell_volume   682.57453645
_cell_formula_units_Z   1
loop_
 _symmetry_equiv_pos_site_id
 _symmetry_equiv_pos_as_xyz
  1  'x, y, z'
loop_
 _atom_site_type_symbol
 _atom_site_label
 _atom_site_symmetry_multiplicity
 _atom_site_fract_x
 _atom_site_fract_y
 _atom_site_fract_z
 _atom_site_occupancy
  La  La0  1  0.886923  0.958150  0.229852  1
  La  La1  1  0.113077  0.041850  0.770148  1
  Dy  Dy2  1  0.028092  0.717179  0.914303  1
  Dy  Dy3  1  0.971908  0.282821  0.085697  1
  Y  Y4  1  0.654154  0.875160  0.837059  1
  Y  Y5  1  0.345846  0.124840  0.162941  1
  Co  Co6  1  0.000000  0.000000  0.000000  1
  I  I7  1  0.651204  0.552423  0.730326  1
  I  I8  1  0.348796  0.447577  0.269674  1
  I  I9  1  0.729232  0.909291  0.540500  1
  I  I10  1  0.270768  0.090709  0.459500  1
  I  I11  1  0.082506  0.378962  0.823556  1
  I  I12  1  0.917494  0.621038  0.176444  1
  I  I13  1  0.444767  0.816286  0.089007  1
  I  I14  1  0.555233  0.183714  0.910993  1
  I  I15  1  0.225771  0.736414  0.656785  1
  I  I16  1  0.774229  0.263586  0.343215  1
