# generated using pymatgen
data_Nd3Er(TcB4)4
_symmetry_space_group_name_H-M   'P 1'
_cell_length_a   3.65140900
_cell_length_b   6.03475999
_cell_length_c   11.68995817
_cell_angle_alpha   89.83540840
_cell_angle_beta   90.00000000
_cell_angle_gamma   90.00000000
_symmetry_Int_Tables_number   1
_chemical_formula_structural   Nd3Er(TcB4)4
_chemical_formula_sum   'Nd3 Er1 Tc4 B16'
_cell_volume   257.59157202
_cell_formula_units_Z   1
loop_
 _symmetry_equiv_pos_site_id
 _symmetry_equiv_pos_as_xyz
  1  'x, y, z'
loop_
 _atom_site_type_symbol
 _atom_site_label
 _atom_site_symmetry_multiplicity
 _atom_site_fract_x
 _atom_site_fract_y
 _atom_site_fract_z
 _atom_site_occupancy
  Nd  Nd0  1  0.000000  0.625753  0.349479  1
  Nd  Nd1  1  0.000000  0.374168  0.651372  1
  Nd  Nd2  1  0.000000  0.125773  0.149740  1
  Er  Er3  1  0.000000  0.874099  0.850268  1
  Tc  Tc4  1  0.000000  0.632259  0.084142  1
  Tc  Tc5  1  0.000000  0.368547  0.912360  1
  Tc  Tc6  1  0.000000  0.130144  0.414426  1
  Tc  Tc7  1  0.000000  0.869324  0.589089  1
  B  B8  1  0.500000  0.782592  0.182253  1
  B  B9  1  0.500000  0.212745  0.816483  1
  B  B10  1  0.500000  0.282568  0.316607  1
  B  B11  1  0.500000  0.717448  0.686297  1
  B  B12  1  0.500000  0.862458  0.029082  1
  B  B13  1  0.500000  0.137373  0.966336  1
  B  B14  1  0.500000  0.360320  0.468743  1
  B  B15  1  0.500000  0.639660  0.533460  1
  B  B16  1  0.500000  0.887709  0.455079  1
  B  B17  1  0.500000  0.110902  0.547499  1
  B  B18  1  0.500000  0.389267  0.044020  1
  B  B19  1  0.500000  0.615553  0.951531  1
  B  B20  1  0.500000  0.976208  0.310303  1
  B  B21  1  0.500000  0.021841  0.693327  1
  B  B22  1  0.500000  0.476424  0.188707  1
  B  B23  1  0.500000  0.526864  0.809399  1
