# generated using pymatgen
data_La2AgHg3
_symmetry_space_group_name_H-M   'P 1'
_cell_length_a   6.20906987
_cell_length_b   6.18796797
_cell_length_c   6.18796718
_cell_angle_alpha   131.78181884
_cell_angle_beta   109.27035422
_cell_angle_gamma   90.14575343
_symmetry_Int_Tables_number   1
_chemical_formula_structural   La2AgHg3
_chemical_formula_sum   'La2 Ag1 Hg3'
_cell_volume   158.77920848
_cell_formula_units_Z   1
loop_
 _symmetry_equiv_pos_site_id
 _symmetry_equiv_pos_as_xyz
  1  'x, y, z'
loop_
 _atom_site_type_symbol
 _atom_site_label
 _atom_site_symmetry_multiplicity
 _atom_site_fract_x
 _atom_site_fract_y
 _atom_site_fract_z
 _atom_site_occupancy
  La  La0  1  0.237838  0.487945  0.749892  1
  La  La1  1  0.761783  0.512035  0.249749  1
  Ag  Ag2  1  0.812204  0.831547  0.980657  1
  Hg  Hg3  1  0.357062  0.835900  0.521163  1
  Hg  Hg4  1  0.658227  0.173421  0.484805  1
  Hg  Hg5  1  0.172887  0.159152  0.013734  1
