# generated using pymatgen
data_KBaFe2(CoAs2)2
_symmetry_space_group_name_H-M   'P 1'
_cell_length_a   7.14467022
_cell_length_b   7.14467029
_cell_length_c   5.48792200
_cell_angle_alpha   90.00000000
_cell_angle_beta   90.00000000
_cell_angle_gamma   134.92041478
_symmetry_Int_Tables_number   1
_chemical_formula_structural   KBaFe2(CoAs2)2
_chemical_formula_sum   'K1 Ba1 Fe2 Co2 As4'
_cell_volume   198.36256710
_cell_formula_units_Z   1
loop_
 _symmetry_equiv_pos_site_id
 _symmetry_equiv_pos_as_xyz
  1  'x, y, z'
loop_
 _atom_site_type_symbol
 _atom_site_label
 _atom_site_symmetry_multiplicity
 _atom_site_fract_x
 _atom_site_fract_y
 _atom_site_fract_z
 _atom_site_occupancy
  K  K0  1  0.000000  0.000000  0.000000  1
  Ba  Ba1  1  0.500000  0.500000  0.500000  1
  Fe  Fe2  1  0.000000  0.500000  0.749688  1
  Fe  Fe3  1  0.500000  0.000000  0.250312  1
  Co  Co4  1  0.500000  0.000000  0.749786  1
  Co  Co5  1  0.000000  0.500000  0.250214  1
  As  As6  1  0.653964  0.346036  0.000000  1
  As  As7  1  0.153816  0.846184  0.500000  1
  As  As8  1  0.846184  0.153816  0.500000  1
  As  As9  1  0.346036  0.653964  0.000000  1
