# generated using pymatgen
data_Tb11Zn2In9Ru2
_symmetry_space_group_name_H-M   'P 1'
_cell_length_a   3.68107000
_cell_length_b   13.29803103
_cell_length_c   13.21724968
_cell_angle_alpha   110.97078646
_cell_angle_beta   90.00000000
_cell_angle_gamma   90.00000000
_symmetry_Int_Tables_number   1
_chemical_formula_structural   Tb11Zn2In9Ru2
_chemical_formula_sum   'Tb11 Zn2 In9 Ru2'
_cell_volume   604.14221835
_cell_formula_units_Z   1
loop_
 _symmetry_equiv_pos_site_id
 _symmetry_equiv_pos_as_xyz
  1  'x, y, z'
loop_
 _atom_site_type_symbol
 _atom_site_label
 _atom_site_symmetry_multiplicity
 _atom_site_fract_x
 _atom_site_fract_y
 _atom_site_fract_z
 _atom_site_occupancy
  Tb  Tb0  1  0.000000  0.930357  0.582034  1
  Tb  Tb1  1  0.000000  0.069643  0.417966  1
  Tb  Tb2  1  0.000000  0.583916  0.926935  1
  Tb  Tb3  1  0.000000  0.416084  0.073065  1
  Tb  Tb4  1  0.000000  0.160897  0.841881  1
  Tb  Tb5  1  0.000000  0.839103  0.158119  1
  Tb  Tb6  1  0.000000  0.385860  0.640180  1
  Tb  Tb7  1  0.000000  0.614140  0.359820  1
  Tb  Tb8  1  0.000000  0.683089  0.697970  1
  Tb  Tb9  1  0.000000  0.316911  0.302030  1
  Tb  Tb10  1  0.000000  0.000000  0.000000  1
  Zn  Zn11  1  0.500000  0.747875  0.546375  1
  Zn  Zn12  1  0.500000  0.252125  0.453625  1
  In  In13  1  0.500000  0.158586  0.632598  1
  In  In14  1  0.500000  0.841414  0.367402  1
  In  In15  1  0.500000  0.631433  0.160757  1
  In  In16  1  0.500000  0.368567  0.839243  1
  In  In17  1  0.500000  0.929581  0.782348  1
  In  In18  1  0.500000  0.070419  0.217652  1
  In  In19  1  0.500000  0.780346  0.922496  1
  In  In20  1  0.500000  0.219654  0.077504  1
  In  In21  1  0.500000  0.500000  0.500000  1
  Ru  Ru22  1  0.500000  0.551226  0.758779  1
  Ru  Ru23  1  0.500000  0.448774  0.241221  1
