# generated using pymatgen
data_TbY11Ru4
_symmetry_space_group_name_H-M   'P 1'
_cell_length_a   6.37317936
_cell_length_b   7.34941343
_cell_length_c   9.23794500
_cell_angle_alpha   90.00000000
_cell_angle_beta   90.00000000
_cell_angle_gamma   89.96115909
_symmetry_Int_Tables_number   1
_chemical_formula_structural   TbY11Ru4
_chemical_formula_sum   'Tb1 Y11 Ru4'
_cell_volume   432.69720714
_cell_formula_units_Z   1
loop_
 _symmetry_equiv_pos_site_id
 _symmetry_equiv_pos_as_xyz
  1  'x, y, z'
loop_
 _atom_site_type_symbol
 _atom_site_label
 _atom_site_symmetry_multiplicity
 _atom_site_fract_x
 _atom_site_fract_y
 _atom_site_fract_z
 _atom_site_occupancy
  Tb  Tb0  1  0.363252  0.956626  0.750000  1
  Y  Y1  1  0.329020  0.675846  0.064929  1
  Y  Y2  1  0.171207  0.176093  0.435193  1
  Y  Y3  1  0.671095  0.323993  0.565321  1
  Y  Y4  1  0.829126  0.824151  0.935270  1
  Y  Y5  1  0.671095  0.323993  0.934679  1
  Y  Y6  1  0.829126  0.824151  0.564730  1
  Y  Y7  1  0.329020  0.675846  0.435071  1
  Y  Y8  1  0.171207  0.176093  0.064807  1
  Y  Y9  1  0.864892  0.541838  0.250000  1
  Y  Y10  1  0.635548  0.042201  0.250000  1
  Y  Y11  1  0.134879  0.458433  0.750000  1
  Ru  Ru12  1  0.037541  0.885337  0.250000  1
  Ru  Ru13  1  0.462539  0.385348  0.250000  1
  Ru  Ru14  1  0.964706  0.114127  0.750000  1
  Ru  Ru15  1  0.535746  0.615926  0.750000  1
