# generated using pymatgen
data_Tb3Dy2Bi3O14
_symmetry_space_group_name_H-M   'P 1'
_cell_length_a   6.60590182
_cell_length_b   6.62687669
_cell_length_c   7.76604926
_cell_angle_alpha   106.78360706
_cell_angle_beta   89.65865087
_cell_angle_gamma   98.61968524
_symmetry_Int_Tables_number   1
_chemical_formula_structural   Tb3Dy2Bi3O14
_chemical_formula_sum   'Tb3 Dy2 Bi3 O14'
_cell_volume   321.56180490
_cell_formula_units_Z   1
loop_
 _symmetry_equiv_pos_site_id
 _symmetry_equiv_pos_as_xyz
  1  'x, y, z'
loop_
 _atom_site_type_symbol
 _atom_site_label
 _atom_site_symmetry_multiplicity
 _atom_site_fract_x
 _atom_site_fract_y
 _atom_site_fract_z
 _atom_site_occupancy
  Tb  Tb0  1  0.271633  0.535596  0.882460  1
  Tb  Tb1  1  0.737276  0.460525  0.113169  1
  Tb  Tb2  1  0.741987  0.478168  0.617964  1
  Dy  Dy3  1  0.461096  0.007289  0.253640  1
  Dy  Dy4  1  0.538030  0.998697  0.750484  1
  Bi  Bi5  1  0.994067  0.999837  0.500644  1
  Bi  Bi6  1  0.999283  0.996153  0.997713  1
  Bi  Bi7  1  0.281226  0.532127  0.388302  1
  O  O8  1  0.452281  0.652878  0.166453  1
  O  O9  1  0.556151  0.352748  0.834566  1
  O  O10  1  0.302233  0.920587  0.950760  1
  O  O11  1  0.698441  0.076615  0.050532  1
  O  O12  1  0.297518  0.931787  0.517066  1
  O  O13  1  0.698024  0.084575  0.491626  1
  O  O14  1  0.549727  0.361745  0.343808  1
  O  O15  1  0.460338  0.640257  0.657309  1
  O  O16  1  0.927103  0.662074  0.951561  1
  O  O17  1  0.069975  0.325117  0.028165  1
  O  O18  1  0.066594  0.341140  0.628214  1
  O  O19  1  0.905047  0.664372  0.380418  1
  O  O20  1  0.870801  0.899873  0.725655  1
  O  O21  1  0.121168  0.077840  0.269493  1
