# generated using pymatgen
data_Nd3Cd2Pd3Au
_symmetry_space_group_name_H-M   'P 1'
_cell_length_a   7.80295500
_cell_length_b   7.70105076
_cell_length_c   4.01818900
_cell_angle_alpha   90.00000000
_cell_angle_beta   90.00000000
_cell_angle_gamma   120.43869760
_symmetry_Int_Tables_number   1
_chemical_formula_structural   Nd3Cd2Pd3Au
_chemical_formula_sum   'Nd3 Cd2 Pd3 Au1'
_cell_volume   208.17722278
_cell_formula_units_Z   1
loop_
 _symmetry_equiv_pos_site_id
 _symmetry_equiv_pos_as_xyz
  1  'x, y, z'
loop_
 _atom_site_type_symbol
 _atom_site_label
 _atom_site_symmetry_multiplicity
 _atom_site_fract_x
 _atom_site_fract_y
 _atom_site_fract_z
 _atom_site_occupancy
  Nd  Nd0  1  0.582904  0.000000  0.000000  1
  Nd  Nd1  1  0.012934  0.614771  0.000000  1
  Nd  Nd2  1  0.398163  0.385229  0.000000  1
  Cd  Cd3  1  0.996744  0.253962  0.500000  1
  Cd  Cd4  1  0.742782  0.746038  0.500000  1
  Pd  Pd5  1  0.335992  0.658582  0.500000  1
  Pd  Pd6  1  0.677411  0.341418  0.500000  1
  Pd  Pd7  1  0.991953  0.000000  0.000000  1
  Au  Au8  1  0.261116  0.000000  0.500000  1
