# generated using pymatgen
data_Na2AsF5
_symmetry_space_group_name_H-M   'P 1'
_cell_length_a   6.71059641
_cell_length_b   8.79454471
_cell_length_c   8.79454422
_cell_angle_alpha   68.92934872
_cell_angle_beta   77.27444381
_cell_angle_gamma   77.27444126
_symmetry_Int_Tables_number   1
_chemical_formula_structural   Na2AsF5
_chemical_formula_sum   'Na8 As4 F20'
_cell_volume   466.71495440
_cell_formula_units_Z   4
loop_
 _symmetry_equiv_pos_site_id
 _symmetry_equiv_pos_as_xyz
  1  'x, y, z'
loop_
 _atom_site_type_symbol
 _atom_site_label
 _atom_site_symmetry_multiplicity
 _atom_site_fract_x
 _atom_site_fract_y
 _atom_site_fract_z
 _atom_site_occupancy
  Na  Na0  1  0.634505  0.000615  0.794156  1
  Na  Na1  1  0.134505  0.794156  0.000615  1
  Na  Na2  1  0.365495  0.999385  0.205844  1
  Na  Na3  1  0.865495  0.205844  0.999385  1
  Na  Na4  1  0.019054  0.559504  0.705300  1
  Na  Na5  1  0.519054  0.705300  0.559504  1
  Na  Na6  1  0.980946  0.440496  0.294700  1
  Na  Na7  1  0.480946  0.294700  0.440496  1
  As  As8  1  0.910820  0.899927  0.408407  1
  As  As9  1  0.089180  0.100073  0.591593  1
  As  As10  1  0.589180  0.591593  0.100073  1
  As  As11  1  0.410820  0.408407  0.899927  1
  F  F12  1  0.090668  0.311753  0.582392  1
  F  F13  1  0.590668  0.582392  0.311753  1
  F  F14  1  0.409332  0.417608  0.688247  1
  F  F15  1  0.909332  0.688247  0.417608  1
  F  F16  1  0.287712  0.651817  0.807882  1
  F  F17  1  0.212288  0.192118  0.348183  1
  F  F18  1  0.712288  0.348183  0.192118  1
  F  F19  1  0.787712  0.807882  0.651817  1
  F  F20  1  0.633296  0.940764  0.350092  1
  F  F21  1  0.866704  0.649908  0.059236  1
  F  F22  1  0.133296  0.350092  0.940764  1
  F  F23  1  0.366704  0.059236  0.649908  1
  F  F24  1  0.968699  0.043738  0.830547  1
  F  F25  1  0.031301  0.956262  0.169453  1
  F  F26  1  0.468699  0.830547  0.043738  1
  F  F27  1  0.531301  0.169453  0.956262  1
  F  F28  1  0.204010  0.803883  0.456708  1
  F  F29  1  0.795990  0.196117  0.543292  1
  F  F30  1  0.704010  0.456708  0.803883  1
  F  F31  1  0.295990  0.543292  0.196117  1
