# generated using pymatgen
data_LaCd3(Rh2O7)2
_symmetry_space_group_name_H-M   'P 1'
_cell_length_a   7.25826982
_cell_length_b   7.30617512
_cell_length_c   7.25827000
_cell_angle_alpha   60.21666116
_cell_angle_beta   59.99999918
_cell_angle_gamma   60.21665360
_symmetry_Int_Tables_number   1
_chemical_formula_structural   LaCd3(Rh2O7)2
_chemical_formula_sum   'La1 Cd3 Rh4 O14'
_cell_volume   273.05855421
_cell_formula_units_Z   1
loop_
 _symmetry_equiv_pos_site_id
 _symmetry_equiv_pos_as_xyz
  1  'x, y, z'
loop_
 _atom_site_type_symbol
 _atom_site_label
 _atom_site_symmetry_multiplicity
 _atom_site_fract_x
 _atom_site_fract_y
 _atom_site_fract_z
 _atom_site_occupancy
  La  La0  1  0.125000  0.625000  0.125000  1
  Cd  Cd1  1  0.125000  0.125000  0.125000  1
  Cd  Cd2  1  0.625000  0.125000  0.125000  1
  Cd  Cd3  1  0.125000  0.125000  0.625000  1
  Rh  Rh4  1  0.625000  0.625000  0.125000  1
  Rh  Rh5  1  0.625000  0.625000  0.625000  1
  Rh  Rh6  1  0.625000  0.125000  0.625000  1
  Rh  Rh7  1  0.125000  0.625000  0.625000  1
  O  O8  1  0.698887  0.301711  0.300516  1
  O  O9  1  0.698887  0.301711  0.698887  1
  O  O10  1  0.992532  0.022404  0.992532  1
  O  O11  1  0.297678  0.702721  0.297678  1
  O  O12  1  0.701924  0.702721  0.297678  1
  O  O13  1  0.952322  0.547279  0.548076  1
  O  O14  1  0.297678  0.702721  0.701924  1
  O  O15  1  0.257468  0.227596  0.257468  1
  O  O16  1  0.952322  0.547279  0.952322  1
  O  O17  1  0.551113  0.948289  0.551113  1
  O  O18  1  0.548076  0.547279  0.952322  1
  O  O19  1  0.949484  0.948289  0.551113  1
  O  O20  1  0.551113  0.948289  0.949484  1
  O  O21  1  0.300516  0.301711  0.698887  1
