# generated using pymatgen
data_YbDy2Y(B4Ru)4
_symmetry_space_group_name_H-M   'P 1'
_cell_length_a   3.54988401
_cell_length_b   5.96558408
_cell_length_c   11.52896926
_cell_angle_alpha   90.05984207
_cell_angle_beta   89.99996694
_cell_angle_gamma   89.99980965
_symmetry_Int_Tables_number   1
_chemical_formula_structural   YbDy2Y(B4Ru)4
_chemical_formula_sum   'Yb1 Dy2 Y1 B16 Ru4'
_cell_volume   244.15036533
_cell_formula_units_Z   1
loop_
 _symmetry_equiv_pos_site_id
 _symmetry_equiv_pos_as_xyz
  1  'x, y, z'
loop_
 _atom_site_type_symbol
 _atom_site_label
 _atom_site_symmetry_multiplicity
 _atom_site_fract_x
 _atom_site_fract_y
 _atom_site_fract_z
 _atom_site_occupancy
  Yb  Yb0  1  0.000006  0.129795  0.149754  1
  Dy  Dy1  1  0.000006  0.629004  0.348724  1
  Dy  Dy2  1  0.999995  0.371610  0.649945  1
  Y  Y3  1  0.999990  0.871465  0.850963  1
  B  B4  1  0.500003  0.788629  0.185195  1
  B  B5  1  0.500000  0.211362  0.815063  1
  B  B6  1  0.500008  0.287586  0.314092  1
  B  B7  1  0.499993  0.711158  0.685421  1
  B  B8  1  0.499999  0.864197  0.030856  1
  B  B9  1  0.499996  0.136220  0.970073  1
  B  B10  1  0.500002  0.363996  0.469597  1
  B  B11  1  0.499994  0.636235  0.530258  1
  B  B12  1  0.500006  0.888512  0.453014  1
  B  B13  1  0.499997  0.112358  0.546739  1
  B  B14  1  0.500002  0.386403  0.047155  1
  B  B15  1  0.499996  0.611385  0.954082  1
  B  B16  1  0.500008  0.975460  0.308139  1
  B  B17  1  0.499993  0.024255  0.691529  1
  B  B18  1  0.500009  0.475713  0.191304  1
  B  B19  1  0.499997  0.524292  0.808527  1
  Ru  Ru20  1  0.000003  0.639335  0.091160  1
  Ru  Ru21  1  0.999998  0.360412  0.907763  1
  Ru  Ru22  1  0.000012  0.140582  0.408704  1
  Ru  Ru23  1  0.999989  0.860036  0.591943  1
