# generated using pymatgen
data_Y5CoIrO12
_symmetry_space_group_name_H-M   'P 1'
_cell_length_a   6.84087358
_cell_length_b   6.84087508
_cell_length_c   7.25719811
_cell_angle_alpha   74.48613541
_cell_angle_beta   74.48613076
_cell_angle_gamma   50.73212649
_symmetry_Int_Tables_number   1
_chemical_formula_structural   Y5CoIrO12
_chemical_formula_sum   'Y5 Co1 Ir1 O12'
_cell_volume   251.14821402
_cell_formula_units_Z   1
loop_
 _symmetry_equiv_pos_site_id
 _symmetry_equiv_pos_as_xyz
  1  'x, y, z'
loop_
 _atom_site_type_symbol
 _atom_site_label
 _atom_site_symmetry_multiplicity
 _atom_site_fract_x
 _atom_site_fract_y
 _atom_site_fract_z
 _atom_site_occupancy
  Y  Y0  1  0.687598  0.694657  0.667797  1
  Y  Y1  1  0.679497  0.713909  0.141820  1
  Y  Y2  1  0.995227  0.004773  0.000000  1
  Y  Y3  1  0.286091  0.320503  0.858180  1
  Y  Y4  1  0.305343  0.312402  0.332203  1
  Co  Co5  1  0.258448  0.741552  0.500000  1
  Ir  Ir6  1  0.767020  0.232980  0.500000  1
  O  O7  1  0.395532  0.913370  0.922370  1
  O  O8  1  0.579095  0.098408  0.582754  1
  O  O9  1  0.901592  0.420905  0.417246  1
  O  O10  1  0.086630  0.604468  0.077630  1
  O  O11  1  0.016924  0.983411  0.324833  1
  O  O12  1  0.504213  0.495582  0.679805  1
  O  O13  1  0.892803  0.405705  0.929353  1
  O  O14  1  0.099195  0.570510  0.581610  1
  O  O15  1  0.429490  0.900805  0.418390  1
  O  O16  1  0.594295  0.107197  0.070647  1
  O  O17  1  0.504418  0.495787  0.320195  1
  O  O18  1  0.016589  0.983076  0.675167  1
