# generated using pymatgen
data_Yb5Pr4YSi8
_symmetry_space_group_name_H-M   'P 1'
_cell_length_a   7.52909103
_cell_length_b   7.92278600
_cell_length_c   15.13685311
_cell_angle_alpha   90.00000000
_cell_angle_beta   89.98804682
_cell_angle_gamma   90.00000000
_symmetry_Int_Tables_number   1
_chemical_formula_structural   Yb5Pr4YSi8
_chemical_formula_sum   'Yb10 Pr8 Y2 Si16'
_cell_volume   902.93411181
_cell_formula_units_Z   2
loop_
 _symmetry_equiv_pos_site_id
 _symmetry_equiv_pos_as_xyz
  1  'x, y, z'
loop_
 _atom_site_type_symbol
 _atom_site_label
 _atom_site_symmetry_multiplicity
 _atom_site_fract_x
 _atom_site_fract_y
 _atom_site_fract_z
 _atom_site_occupancy
  Yb  Yb0  1  0.319856  0.180985  0.622376  1
  Yb  Yb1  1  0.681808  0.820087  0.377060  1
  Yb  Yb2  1  0.644119  0.007056  0.749853  1
  Yb  Yb3  1  0.181808  0.679913  0.377060  1
  Yb  Yb4  1  0.819253  0.319878  0.879349  1
  Yb  Yb5  1  0.819856  0.319015  0.622376  1
  Yb  Yb6  1  0.853214  0.496371  0.252868  1
  Yb  Yb7  1  0.353214  0.003629  0.252868  1
  Yb  Yb8  1  0.319253  0.180122  0.879349  1
  Yb  Yb9  1  0.144119  0.492944  0.749853  1
  Pr  Pr10  1  0.026960  0.183072  0.400968  1
  Pr  Pr11  1  0.526960  0.316928  0.400968  1
  Pr  Pr12  1  0.469712  0.687489  0.898970  1
  Pr  Pr13  1  0.470920  0.686551  0.599897  1
  Pr  Pr14  1  0.970920  0.813449  0.599897  1
  Pr  Pr15  1  0.969712  0.812511  0.898970  1
  Pr  Pr16  1  0.529611  0.314453  0.098341  1
  Pr  Pr17  1  0.029611  0.185547  0.098341  1
  Y  Y18  1  0.180249  0.682971  0.122419  1
  Y  Y19  1  0.680249  0.817029  0.122419  1
  Si  Si20  1  0.256249  0.874095  0.750761  1
  Si  Si21  1  0.469660  0.598047  0.244739  1
  Si  Si22  1  0.030518  0.092573  0.751564  1
  Si  Si23  1  0.530518  0.407427  0.751564  1
  Si  Si24  1  0.142834  0.470791  0.536896  1
  Si  Si25  1  0.969660  0.901953  0.244739  1
  Si  Si26  1  0.742985  0.120185  0.246451  1
  Si  Si27  1  0.859445  0.533198  0.040670  1
  Si  Si28  1  0.359445  0.966802  0.040670  1
  Si  Si29  1  0.144268  0.474892  0.965451  1
  Si  Si30  1  0.642834  0.029209  0.536896  1
  Si  Si31  1  0.358339  0.972744  0.461368  1
  Si  Si32  1  0.858339  0.527256  0.461368  1
  Si  Si33  1  0.756249  0.625905  0.750761  1
  Si  Si34  1  0.242985  0.379815  0.246451  1
  Si  Si35  1  0.644268  0.025108  0.965451  1
