# generated using pymatgen
data_Yb7Ce(CdIn)4
_symmetry_space_group_name_H-M   'P 1'
_cell_length_a   7.62796855
_cell_length_b   7.53176900
_cell_length_c   7.62897600
_cell_angle_alpha   90.00000000
_cell_angle_beta   89.81549269
_cell_angle_gamma   90.00000000
_symmetry_Int_Tables_number   1
_chemical_formula_structural   Yb7Ce(CdIn)4
_chemical_formula_sum   'Yb7 Ce1 Cd4 In4'
_cell_volume   438.29839707
_cell_formula_units_Z   1
loop_
 _symmetry_equiv_pos_site_id
 _symmetry_equiv_pos_as_xyz
  1  'x, y, z'
loop_
 _atom_site_type_symbol
 _atom_site_label
 _atom_site_symmetry_multiplicity
 _atom_site_fract_x
 _atom_site_fract_y
 _atom_site_fract_z
 _atom_site_occupancy
  Yb  Yb0  1  0.249993  0.000003  0.250010  1
  Yb  Yb1  1  0.250018  0.499998  0.250000  1
  Yb  Yb2  1  0.750013  0.000002  0.249993  1
  Yb  Yb3  1  0.750018  0.499998  0.249987  1
  Yb  Yb4  1  0.249972  0.000001  0.749998  1
  Yb  Yb5  1  0.249985  0.499998  0.749999  1
  Yb  Yb6  1  0.749963  0.000000  0.749990  1
  Ce  Ce7  1  0.750012  0.500010  0.750002  1
  Cd  Cd8  1  0.003072  0.248091  0.002642  1
  Cd  Cd9  1  0.003035  0.752001  0.003343  1
  Cd  Cd10  1  0.496915  0.751905  0.497345  1
  Cd  Cd11  1  0.496962  0.248003  0.496647  1
  In  In12  1  0.497683  0.247221  0.002532  1
  In  In13  1  0.498917  0.751449  0.000809  1
  In  In14  1  0.001102  0.248545  0.499207  1
  In  In15  1  0.002341  0.752781  0.497504  1
