# generated using pymatgen
data_Pr8Y2Si5Sn
_symmetry_space_group_name_H-M   'P 1'
_cell_length_a   7.74593353
_cell_length_b   7.74593455
_cell_length_c   9.22775692
_cell_angle_alpha   114.81618650
_cell_angle_beta   114.81618518
_cell_angle_gamma   89.99999535
_symmetry_Int_Tables_number   1
_chemical_formula_structural   Pr8Y2Si5Sn
_chemical_formula_sum   'Pr8 Y2 Si5 Sn1'
_cell_volume   445.58153348
_cell_formula_units_Z   1
loop_
 _symmetry_equiv_pos_site_id
 _symmetry_equiv_pos_as_xyz
  1  'x, y, z'
loop_
 _atom_site_type_symbol
 _atom_site_label
 _atom_site_symmetry_multiplicity
 _atom_site_fract_x
 _atom_site_fract_y
 _atom_site_fract_z
 _atom_site_occupancy
  Pr  Pr0  1  0.975311  0.827111  0.281595  1
  Pr  Pr1  1  0.306284  0.454484  0.281595  1
  Pr  Pr2  1  0.827111  0.306284  0.281595  1
  Pr  Pr3  1  0.454484  0.975311  0.281595  1
  Pr  Pr4  1  0.045516  0.193716  0.718405  1
  Pr  Pr5  1  0.672889  0.524689  0.718405  1
  Pr  Pr6  1  0.193716  0.672889  0.718405  1
  Pr  Pr7  1  0.524689  0.045516  0.718405  1
  Y  Y8  1  0.517325  0.517325  0.034651  1
  Y  Y9  1  0.982675  0.982675  0.965349  1
  Si  Si10  1  0.250000  0.250000  0.500000  1
  Si  Si11  1  0.618579  0.881421  0.000000  1
  Si  Si12  1  0.381421  0.118579  0.000000  1
  Si  Si13  1  0.881421  0.381421  0.000000  1
  Si  Si14  1  0.118579  0.618579  0.000000  1
  Sn  Sn15  1  0.750000  0.750000  0.500000  1
