# generated using pymatgen
data_Hf6Ga4SnSb
_symmetry_space_group_name_H-M   'P 1'
_cell_length_a   5.69849300
_cell_length_b   8.77712519
_cell_length_c   9.37719375
_cell_angle_alpha   89.85301551
_cell_angle_beta   90.00000000
_cell_angle_gamma   90.00000000
_symmetry_Int_Tables_number   1
_chemical_formula_structural   Hf6Ga4SnSb
_chemical_formula_sum   'Hf12 Ga8 Sn2 Sb2'
_cell_volume   469.01180299
_cell_formula_units_Z   2
loop_
 _symmetry_equiv_pos_site_id
 _symmetry_equiv_pos_as_xyz
  1  'x, y, z'
loop_
 _atom_site_type_symbol
 _atom_site_label
 _atom_site_symmetry_multiplicity
 _atom_site_fract_x
 _atom_site_fract_y
 _atom_site_fract_z
 _atom_site_occupancy
  Hf  Hf0  1  0.999748  0.751099  0.120340  1
  Hf  Hf1  1  0.499748  0.248901  0.879660  1
  Hf  Hf2  1  0.000252  0.248901  0.879660  1
  Hf  Hf3  1  0.500252  0.751099  0.120340  1
  Hf  Hf4  1  0.750000  0.468844  0.610413  1
  Hf  Hf5  1  0.250000  0.531156  0.389587  1
  Hf  Hf6  1  0.750000  0.970003  0.388182  1
  Hf  Hf7  1  0.250000  0.029997  0.611818  1
  Hf  Hf8  1  0.750000  0.376785  0.198512  1
  Hf  Hf9  1  0.250000  0.623215  0.801488  1
  Hf  Hf10  1  0.750000  0.875861  0.803961  1
  Hf  Hf11  1  0.250000  0.124139  0.196039  1
  Ga  Ga12  1  0.999071  0.750309  0.571397  1
  Ga  Ga13  1  0.499071  0.249691  0.428603  1
  Ga  Ga14  1  0.000929  0.249691  0.428603  1
  Ga  Ga15  1  0.500929  0.750309  0.571397  1
  Ga  Ga16  1  0.750000  0.138007  0.644428  1
  Ga  Ga17  1  0.250000  0.861993  0.355572  1
  Ga  Ga18  1  0.750000  0.638222  0.354727  1
  Ga  Ga19  1  0.250000  0.361778  0.645273  1
  Sn  Sn20  1  0.750000  0.550379  0.915218  1
  Sn  Sn21  1  0.250000  0.449621  0.084782  1
  Sb  Sb22  1  0.750000  0.052803  0.085901  1
  Sb  Sb23  1  0.250000  0.947197  0.914099  1
