# generated using pymatgen
data_TbPr15(CoAg)4
_symmetry_space_group_name_H-M   'P 1'
_cell_length_a   9.78516719
_cell_length_b   9.84644307
_cell_length_c   9.78516776
_cell_angle_alpha   59.79263695
_cell_angle_beta   60.12007808
_cell_angle_gamma   59.79264029
_symmetry_Int_Tables_number   1
_chemical_formula_structural   TbPr15(CoAg)4
_chemical_formula_sum   'Tb1 Pr15 Co4 Ag4'
_cell_volume   665.15467043
_cell_formula_units_Z   1
loop_
 _symmetry_equiv_pos_site_id
 _symmetry_equiv_pos_as_xyz
  1  'x, y, z'
loop_
 _atom_site_type_symbol
 _atom_site_label
 _atom_site_symmetry_multiplicity
 _atom_site_fract_x
 _atom_site_fract_y
 _atom_site_fract_z
 _atom_site_occupancy
  Tb  Tb0  1  0.059910  0.440090  0.059910  1
  Pr  Pr1  1  0.436656  0.440363  0.059376  1
  Pr  Pr2  1  0.598303  0.597109  0.598303  1
  Pr  Pr3  1  0.186516  0.811132  0.812069  1
  Pr  Pr4  1  0.059376  0.063605  0.436656  1
  Pr  Pr5  1  0.436656  0.063605  0.059376  1
  Pr  Pr6  1  0.812100  0.187900  0.812100  1
  Pr  Pr7  1  0.440650  0.059350  0.440650  1
  Pr  Pr8  1  0.598303  0.206286  0.598303  1
  Pr  Pr9  1  0.812069  0.811132  0.186516  1
  Pr  Pr10  1  0.204832  0.596288  0.602594  1
  Pr  Pr11  1  0.812069  0.190283  0.186516  1
  Pr  Pr12  1  0.059376  0.440363  0.436656  1
  Pr  Pr13  1  0.190616  0.809384  0.190616  1
  Pr  Pr14  1  0.602594  0.596288  0.204832  1
  Pr  Pr15  1  0.186516  0.190283  0.812069  1
  Co  Co16  1  0.390937  0.390691  0.390937  1
  Co  Co17  1  0.828725  0.390992  0.389291  1
  Co  Co18  1  0.390937  0.827436  0.390937  1
  Co  Co19  1  0.389291  0.390992  0.828725  1
  Ag  Ag20  1  0.830032  0.829366  0.511235  1
  Ag  Ag21  1  0.831151  0.827796  0.831151  1
  Ag  Ag22  1  0.511235  0.829366  0.830032  1
  Ag  Ag23  1  0.831151  0.509901  0.831151  1
