# generated using pymatgen
data_DyHo3(Er2Rh)4
_symmetry_space_group_name_H-M   'P 1'
_cell_length_a   6.27593504
_cell_length_b   7.14043503
_cell_length_c   9.32563400
_cell_angle_alpha   90.00000000
_cell_angle_beta   90.00000000
_cell_angle_gamma   89.99873681
_symmetry_Int_Tables_number   1
_chemical_formula_structural   DyHo3(Er2Rh)4
_chemical_formula_sum   'Dy1 Ho3 Er8 Rh4'
_cell_volume   417.90876337
_cell_formula_units_Z   1
loop_
 _symmetry_equiv_pos_site_id
 _symmetry_equiv_pos_as_xyz
  1  'x, y, z'
loop_
 _atom_site_type_symbol
 _atom_site_label
 _atom_site_symmetry_multiplicity
 _atom_site_fract_x
 _atom_site_fract_y
 _atom_site_fract_z
 _atom_site_occupancy
  Dy  Dy0  1  0.132511  0.033536  0.250000  1
  Ho  Ho1  1  0.867418  0.966179  0.750000  1
  Ho  Ho2  1  0.367505  0.533696  0.250000  1
  Ho  Ho3  1  0.632566  0.466239  0.750000  1
  Er  Er4  1  0.672082  0.178397  0.062723  1
  Er  Er5  1  0.172240  0.321734  0.937101  1
  Er  Er6  1  0.827798  0.678289  0.437221  1
  Er  Er7  1  0.327850  0.821586  0.562943  1
  Er  Er8  1  0.327850  0.821586  0.937057  1
  Er  Er9  1  0.827798  0.678289  0.062779  1
  Er  Er10  1  0.172240  0.321734  0.562899  1
  Er  Er11  1  0.672082  0.178397  0.437277  1
  Rh  Rh12  1  0.054322  0.616267  0.750000  1
  Rh  Rh13  1  0.555005  0.883401  0.250000  1
  Rh  Rh14  1  0.445792  0.116321  0.750000  1
  Rh  Rh15  1  0.944943  0.384353  0.250000  1
