# generated using pymatgen
data_Dy10Si16Hg
_symmetry_space_group_name_H-M   'P 1'
_cell_length_a   11.11350581
_cell_length_b   11.05559649
_cell_length_c   11.11350613
_cell_angle_alpha   144.53632511
_cell_angle_beta   136.10153523
_cell_angle_gamma   57.75169029
_symmetry_Int_Tables_number   1
_chemical_formula_structural   Dy10Si16Hg
_chemical_formula_sum   'Dy10 Si16 Hg1'
_cell_volume   544.47633201
_cell_formula_units_Z   1
loop_
 _symmetry_equiv_pos_site_id
 _symmetry_equiv_pos_as_xyz
  1  'x, y, z'
loop_
 _atom_site_type_symbol
 _atom_site_label
 _atom_site_symmetry_multiplicity
 _atom_site_fract_x
 _atom_site_fract_y
 _atom_site_fract_z
 _atom_site_occupancy
  Dy  Dy0  1  0.754768  0.760409  0.515866  1
  Dy  Dy1  1  0.444387  0.968986  0.015701  1
  Dy  Dy2  1  0.849629  0.365577  0.018408  1
  Dy  Dy3  1  0.953284  0.968986  0.524598  1
  Dy  Dy4  1  0.151713  0.166443  0.519100  1
  Dy  Dy5  1  0.347170  0.365577  0.515949  1
  Dy  Dy6  1  0.244543  0.760409  0.005641  1
  Dy  Dy7  1  0.545586  0.560619  0.499361  1
  Dy  Dy8  1  0.061258  0.560619  0.015033  1
  Dy  Dy9  1  0.647343  0.166443  0.014729  1
  Si  Si10  1  0.199485  0.581061  0.381574  1
  Si  Si11  1  0.000347  0.081808  0.081461  1
  Si  Si12  1  0.699834  0.281264  0.581431  1
  Si  Si13  1  0.801079  0.178263  0.377185  1
  Si  Si14  1  0.895970  0.506210  0.610239  1
  Si  Si15  1  0.416840  0.870106  0.453266  1
  Si  Si16  1  0.103614  0.713224  0.609610  1
  Si  Si17  1  0.301087  0.897003  0.595916  1
  Si  Si18  1  0.582870  0.040487  0.457617  1
  Si  Si19  1  0.999413  0.429592  0.430179  1
  Si  Si20  1  0.879789  0.842839  0.963051  1
  Si  Si21  1  0.399890  0.499558  0.099668  1
  Si  Si22  1  0.120232  0.087207  0.966976  1
  Si  Si23  1  0.285909  0.238803  0.952895  1
  Si  Si24  1  0.499356  0.391079  0.891723  1
  Si  Si25  1  0.596599  0.703432  0.106833  1
  Hg  Hg26  1  0.718005  0.675496  0.957492  1
