# generated using pymatgen
data_YPa(P2O7)2
_symmetry_space_group_name_H-M   'P 1'
_cell_length_a   8.84238217
_cell_length_b   5.29960610
_cell_length_c   7.40352900
_cell_angle_alpha   71.86256022
_cell_angle_beta   90.67475731
_cell_angle_gamma   90.25880198
_symmetry_Int_Tables_number   1
_chemical_formula_structural   YPa(P2O7)2
_chemical_formula_sum   'Y1 Pa1 P4 O14'
_cell_volume   329.67636545
_cell_formula_units_Z   1
loop_
 _symmetry_equiv_pos_site_id
 _symmetry_equiv_pos_as_xyz
  1  'x, y, z'
loop_
 _atom_site_type_symbol
 _atom_site_label
 _atom_site_symmetry_multiplicity
 _atom_site_fract_x
 _atom_site_fract_y
 _atom_site_fract_z
 _atom_site_occupancy
  Y  Y0  1  0.545847  0.800265  0.723885  1
  Pa  Pa1  1  0.048018  0.196842  0.282628  1
  P  P2  1  0.277509  0.759721  0.097400  1
  P  P3  1  0.776253  0.239776  0.899039  1
  P  P4  1  0.375354  0.407934  0.473537  1
  P  P5  1  0.863217  0.595275  0.530209  1
  O  O6  1  0.373274  0.585336  0.597601  1
  O  O7  1  0.649948  0.421271  0.915415  1
  O  O8  1  0.143442  0.568179  0.096352  1
  O  O9  1  0.215046  0.276928  0.469155  1
  O  O10  1  0.880182  0.161678  0.081461  1
  O  O11  1  0.215086  0.987886  0.164632  1
  O  O12  1  0.359522  0.855089  0.912948  1
  O  O13  1  0.988113  0.812533  0.486200  1
  O  O14  1  0.397110  0.595558  0.253709  1
  O  O15  1  0.889405  0.417820  0.401678  1
  O  O16  1  0.496246  0.198444  0.511591  1
  O  O17  1  0.731952  0.997356  0.845796  1
  O  O18  1  0.707001  0.710129  0.513612  1
  O  O19  1  0.899202  0.411980  0.743152  1
