# generated using pymatgen
data_Er2Zn(Co2B)3
_symmetry_space_group_name_H-M   'P 1'
_cell_length_a   5.06459125
_cell_length_b   5.06529458
_cell_length_c   12.60403600
_cell_angle_alpha   90.00000000
_cell_angle_beta   90.00000000
_cell_angle_gamma   119.95950120
_symmetry_Int_Tables_number   1
_chemical_formula_structural   Er2Zn(Co2B)3
_chemical_formula_sum   'Er4 Zn2 Co12 B6'
_cell_volume   280.13441232
_cell_formula_units_Z   2
loop_
 _symmetry_equiv_pos_site_id
 _symmetry_equiv_pos_as_xyz
  1  'x, y, z'
loop_
 _atom_site_type_symbol
 _atom_site_label
 _atom_site_symmetry_multiplicity
 _atom_site_fract_x
 _atom_site_fract_y
 _atom_site_fract_z
 _atom_site_occupancy
  Er  Er0  1  0.000000  0.000000  0.000000  1
  Er  Er1  1  0.000000  0.000000  0.500000  1
  Er  Er2  1  0.000000  0.000000  0.739733  1
  Er  Er3  1  0.000000  0.000000  0.260267  1
  Zn  Zn4  1  0.666731  0.333238  0.000000  1
  Zn  Zn5  1  0.333269  0.666762  0.000000  1
  Co  Co6  1  0.500000  0.500000  0.839105  1
  Co  Co7  1  0.500000  0.000000  0.839063  1
  Co  Co8  1  0.000000  0.500000  0.839039  1
  Co  Co9  1  0.500000  0.500000  0.160895  1
  Co  Co10  1  0.500000  0.000000  0.160937  1
  Co  Co11  1  0.000000  0.500000  0.160961  1
  Co  Co12  1  0.500000  0.500000  0.614129  1
  Co  Co13  1  0.500000  0.000000  0.614082  1
  Co  Co14  1  0.000000  0.500000  0.614078  1
  Co  Co15  1  0.500000  0.500000  0.385871  1
  Co  Co16  1  0.500000  0.000000  0.385918  1
  Co  Co17  1  0.000000  0.500000  0.385922  1
  B  B18  1  0.666513  0.333351  0.500000  1
  B  B19  1  0.333487  0.666649  0.500000  1
  B  B20  1  0.666621  0.333371  0.730837  1
  B  B21  1  0.333379  0.666629  0.730837  1
  B  B22  1  0.333379  0.666629  0.269163  1
  B  B23  1  0.666621  0.333371  0.269163  1
