# generated using pymatgen
data_Ho2Cr3Fe3P7Ir6
_symmetry_space_group_name_H-M   'P 1'
_cell_length_a   9.33057800
_cell_length_b   9.33057786
_cell_length_c   3.80516100
_cell_angle_alpha   90.00000000
_cell_angle_beta   90.00000000
_cell_angle_gamma   119.99999953
_symmetry_Int_Tables_number   1
_chemical_formula_structural   Ho2Cr3Fe3P7Ir6
_chemical_formula_sum   'Ho2 Cr3 Fe3 P7 Ir6'
_cell_volume   286.89353373
_cell_formula_units_Z   1
loop_
 _symmetry_equiv_pos_site_id
 _symmetry_equiv_pos_as_xyz
  1  'x, y, z'
loop_
 _atom_site_type_symbol
 _atom_site_label
 _atom_site_symmetry_multiplicity
 _atom_site_fract_x
 _atom_site_fract_y
 _atom_site_fract_z
 _atom_site_occupancy
  Ho  Ho0  1  0.000000  0.000000  0.000000  1
  Ho  Ho1  1  0.333333  0.666667  0.500000  1
  Cr  Cr2  1  0.550183  0.125828  0.500000  1
  Cr  Cr3  1  0.575644  0.449817  0.500000  1
  Cr  Cr4  1  0.874172  0.424356  0.500000  1
  Fe  Fe5  1  0.776779  0.177039  0.000000  1
  Fe  Fe6  1  0.400259  0.223221  0.000000  1
  Fe  Fe7  1  0.822961  0.599741  0.000000  1
  P  P8  1  0.557376  0.930010  0.000000  1
  P  P9  1  0.372633  0.442624  0.000000  1
  P  P10  1  0.069990  0.627367  0.000000  1
  P  P11  1  0.943805  0.218727  0.500000  1
  P  P12  1  0.274922  0.056195  0.500000  1
  P  P13  1  0.781273  0.725078  0.500000  1
  P  P14  1  0.666667  0.333333  0.000000  1
  Ir  Ir15  1  0.302690  0.904325  0.000000  1
  Ir  Ir16  1  0.601635  0.697310  0.000000  1
  Ir  Ir17  1  0.095675  0.398365  0.000000  1
  Ir  Ir18  1  0.721916  0.949051  0.500000  1
  Ir  Ir19  1  0.227135  0.278084  0.500000  1
  Ir  Ir20  1  0.050949  0.772865  0.500000  1
