# generated using pymatgen
data_Cs2K4H9Pt2F
_symmetry_space_group_name_H-M   'P 1'
_cell_length_a   7.61900600
_cell_length_b   7.61900600
_cell_length_c   5.95431800
_cell_angle_alpha   90.00000000
_cell_angle_beta   90.00000000
_cell_angle_gamma   90.00000000
_symmetry_Int_Tables_number   1
_chemical_formula_structural   Cs2K4H9Pt2F
_chemical_formula_sum   'Cs2 K4 H9 Pt2 F1'
_cell_volume   345.64370862
_cell_formula_units_Z   1
loop_
 _symmetry_equiv_pos_site_id
 _symmetry_equiv_pos_as_xyz
  1  'x, y, z'
loop_
 _atom_site_type_symbol
 _atom_site_label
 _atom_site_symmetry_multiplicity
 _atom_site_fract_x
 _atom_site_fract_y
 _atom_site_fract_z
 _atom_site_occupancy
  Cs  Cs0  1  0.500000  0.500000  0.000000  1
  Cs  Cs1  1  0.000000  0.000000  0.000000  1
  K  K2  1  0.187901  0.680999  0.500000  1
  K  K3  1  0.812099  0.319001  0.500000  1
  K  K4  1  0.680999  0.812099  0.500000  1
  K  K5  1  0.319001  0.187901  0.500000  1
  H  H6  1  0.000000  0.000000  0.500000  1
  H  H7  1  0.609685  0.109471  0.803218  1
  H  H8  1  0.390315  0.890529  0.803218  1
  H  H9  1  0.109471  0.390315  0.803218  1
  H  H10  1  0.890529  0.609685  0.803218  1
  H  H11  1  0.390315  0.890529  0.196782  1
  H  H12  1  0.609685  0.109471  0.196782  1
  H  H13  1  0.890529  0.609685  0.196782  1
  H  H14  1  0.109471  0.390315  0.196782  1
  Pt  Pt15  1  0.500000  0.000000  0.000000  1
  Pt  Pt16  1  0.000000  0.500000  0.000000  1
  F  F17  1  0.500000  0.500000  0.500000  1
