# generated using pymatgen
data_Ca20CdGa8Hg3
_symmetry_space_group_name_H-M   'P 1'
_cell_length_a   7.99147400
_cell_length_b   7.99147400
_cell_length_c   15.17965300
_cell_angle_alpha   90.00000000
_cell_angle_beta   90.00000000
_cell_angle_gamma   90.00000000
_symmetry_Int_Tables_number   1
_chemical_formula_structural   Ca20CdGa8Hg3
_chemical_formula_sum   'Ca20 Cd1 Ga8 Hg3'
_cell_volume   969.42814791
_cell_formula_units_Z   1
loop_
 _symmetry_equiv_pos_site_id
 _symmetry_equiv_pos_as_xyz
  1  'x, y, z'
loop_
 _atom_site_type_symbol
 _atom_site_label
 _atom_site_symmetry_multiplicity
 _atom_site_fract_x
 _atom_site_fract_y
 _atom_site_fract_z
 _atom_site_occupancy
  Ca  Ca0  1  0.669217  0.173769  0.107635  1
  Ca  Ca1  1  0.173768  0.672228  0.608408  1
  Ca  Ca2  1  0.330783  0.826231  0.107635  1
  Ca  Ca3  1  0.826232  0.327772  0.608408  1
  Ca  Ca4  1  0.826231  0.669217  0.107635  1
  Ca  Ca5  1  0.327772  0.173768  0.608408  1
  Ca  Ca6  1  0.173769  0.330783  0.107635  1
  Ca  Ca7  1  0.672228  0.826232  0.608408  1
  Ca  Ca8  1  0.826231  0.330783  0.892365  1
  Ca  Ca9  1  0.327772  0.826232  0.391592  1
  Ca  Ca10  1  0.173769  0.669217  0.892365  1
  Ca  Ca11  1  0.672228  0.173768  0.391592  1
  Ca  Ca12  1  0.669217  0.826231  0.892365  1
  Ca  Ca13  1  0.173768  0.327772  0.391592  1
  Ca  Ca14  1  0.330783  0.173769  0.892365  1
  Ca  Ca15  1  0.826232  0.672228  0.391592  1
  Ca  Ca16  1  0.500000  0.500000  0.752220  1
  Ca  Ca17  1  0.000000  0.000000  0.249952  1
  Ca  Ca18  1  0.000000  0.000000  0.750048  1
  Ca  Ca19  1  0.500000  0.500000  0.247780  1
  Cd  Cd20  1  0.000000  0.000000  0.000000  1
  Ga  Ga21  1  0.613494  0.112933  0.750383  1
  Ga  Ga22  1  0.112933  0.613494  0.249617  1
  Ga  Ga23  1  0.887067  0.386506  0.249617  1
  Ga  Ga24  1  0.386506  0.887067  0.750383  1
  Ga  Ga25  1  0.887067  0.613494  0.750383  1
  Ga  Ga26  1  0.386506  0.112933  0.249617  1
  Ga  Ga27  1  0.112933  0.386506  0.750383  1
  Ga  Ga28  1  0.613494  0.887067  0.249617  1
  Hg  Hg29  1  0.500000  0.500000  0.500000  1
  Hg  Hg30  1  0.500000  0.500000  0.000000  1
  Hg  Hg31  1  0.000000  0.000000  0.500000  1
