# generated using pymatgen
data_Tb2Y6CdNi2Ag
_symmetry_space_group_name_H-M   'P 1'
_cell_length_a   9.54222406
_cell_length_b   9.54222383
_cell_length_c   9.53502200
_cell_angle_alpha   60.02497014
_cell_angle_beta   60.02497096
_cell_angle_gamma   60.01005872
_symmetry_Int_Tables_number   1
_chemical_formula_structural   Tb2Y6CdNi2Ag
_chemical_formula_sum   'Tb4 Y12 Cd2 Ni4 Ag2'
_cell_volume   614.19001558
_cell_formula_units_Z   2
loop_
 _symmetry_equiv_pos_site_id
 _symmetry_equiv_pos_as_xyz
  1  'x, y, z'
loop_
 _atom_site_type_symbol
 _atom_site_label
 _atom_site_symmetry_multiplicity
 _atom_site_fract_x
 _atom_site_fract_y
 _atom_site_fract_z
 _atom_site_occupancy
  Tb  Tb0  1  0.599069  0.599069  0.598369  1
  Tb  Tb1  1  0.599069  0.599069  0.203493  1
  Tb  Tb2  1  0.600751  0.199772  0.599739  1
  Tb  Tb3  1  0.199772  0.600751  0.599739  1
  Y  Y4  1  0.061217  0.439041  0.439741  1
  Y  Y5  1  0.439041  0.061217  0.060002  1
  Y  Y6  1  0.439041  0.061217  0.439741  1
  Y  Y7  1  0.061217  0.439041  0.060002  1
  Y  Y8  1  0.439815  0.439815  0.060185  1
  Y  Y9  1  0.061089  0.061089  0.438911  1
  Y  Y10  1  0.183544  0.813550  0.814400  1
  Y  Y11  1  0.813550  0.183544  0.188505  1
  Y  Y12  1  0.813550  0.183544  0.814400  1
  Y  Y13  1  0.183544  0.813550  0.188505  1
  Y  Y14  1  0.813229  0.813229  0.186771  1
  Y  Y15  1  0.186070  0.186070  0.813930  1
  Cd  Cd16  1  0.831463  0.509193  0.829671  1
  Cd  Cd17  1  0.509193  0.831463  0.829671  1
  Ni  Ni18  1  0.393172  0.393172  0.393496  1
  Ni  Ni19  1  0.393172  0.393172  0.820161  1
  Ni  Ni20  1  0.392274  0.821378  0.393174  1
  Ni  Ni21  1  0.821378  0.392274  0.393174  1
  Ag  Ag22  1  0.832889  0.832889  0.831443  1
  Ag  Ag23  1  0.832889  0.832889  0.502777  1
