# generated using pymatgen
data_CsP(ClO)2
_symmetry_space_group_name_H-M   'P 1'
_cell_length_a   6.30981290
_cell_length_b   6.30981301
_cell_length_c   8.18455803
_cell_angle_alpha   101.32611631
_cell_angle_beta   101.32611467
_cell_angle_gamma   92.44433703
_symmetry_Int_Tables_number   1
_chemical_formula_structural   CsP(ClO)2
_chemical_formula_sum   'Cs2 P2 Cl4 O4'
_cell_volume   312.16955967
_cell_formula_units_Z   2
loop_
 _symmetry_equiv_pos_site_id
 _symmetry_equiv_pos_as_xyz
  1  'x, y, z'
loop_
 _atom_site_type_symbol
 _atom_site_label
 _atom_site_symmetry_multiplicity
 _atom_site_fract_x
 _atom_site_fract_y
 _atom_site_fract_z
 _atom_site_occupancy
  Cs  Cs0  1  0.671673  0.328328  0.250000  1
  Cs  Cs1  1  0.328327  0.671672  0.750000  1
  P  P2  1  0.211855  0.788146  0.250000  1
  P  P3  1  0.788146  0.211854  0.750000  1
  Cl  Cl4  1  0.904628  0.778771  0.095447  1
  Cl  Cl5  1  0.221230  0.095373  0.404554  1
  Cl  Cl6  1  0.778770  0.904627  0.595447  1
  Cl  Cl7  1  0.095372  0.221229  0.904553  1
  O  O8  1  0.377310  0.799450  0.143693  1
  O  O9  1  0.200550  0.622690  0.356307  1
  O  O10  1  0.799450  0.377309  0.643692  1
  O  O11  1  0.622690  0.200550  0.856308  1
