# generated using pymatgen
data_TbTm7(ScGa5)4
_symmetry_space_group_name_H-M   'P 1'
_cell_length_a   5.96747370
_cell_length_b   9.44547031
_cell_length_c   11.28510798
_cell_angle_alpha   90.00565070
_cell_angle_beta   89.95255153
_cell_angle_gamma   89.97121273
_symmetry_Int_Tables_number   1
_chemical_formula_structural   TbTm7(ScGa5)4
_chemical_formula_sum   'Tb1 Tm7 Sc4 Ga20'
_cell_volume   636.09153187
_cell_formula_units_Z   1
loop_
 _symmetry_equiv_pos_site_id
 _symmetry_equiv_pos_as_xyz
  1  'x, y, z'
loop_
 _atom_site_type_symbol
 _atom_site_label
 _atom_site_symmetry_multiplicity
 _atom_site_fract_x
 _atom_site_fract_y
 _atom_site_fract_z
 _atom_site_occupancy
  Tb  Tb0  1  0.891245  0.509606  0.352352  1
  Tm  Tm1  1  0.608465  0.990237  0.852212  1
  Tm  Tm2  1  0.108698  0.009643  0.647888  1
  Tm  Tm3  1  0.391339  0.490282  0.147332  1
  Tm  Tm4  1  0.108756  0.490286  0.648394  1
  Tm  Tm5  1  0.391501  0.009680  0.147662  1
  Tm  Tm6  1  0.891490  0.990355  0.352280  1
  Tm  Tm7  1  0.608467  0.509642  0.852247  1
  Sc  Sc8  1  0.849333  0.750054  0.073594  1
  Sc  Sc9  1  0.650399  0.750264  0.574129  1
  Sc  Sc10  1  0.150591  0.249969  0.926074  1
  Sc  Sc11  1  0.350154  0.249992  0.426308  1
  Ga  Ga12  1  0.877509  0.050541  0.089892  1
  Ga  Ga13  1  0.622079  0.449248  0.590296  1
  Ga  Ga14  1  0.122381  0.550605  0.910126  1
  Ga  Ga15  1  0.377669  0.949657  0.410178  1
  Ga  Ga16  1  0.122370  0.949431  0.910138  1
  Ga  Ga17  1  0.378646  0.550933  0.410436  1
  Ga  Ga18  1  0.877524  0.449113  0.088891  1
  Ga  Ga19  1  0.622326  0.050491  0.589863  1
  Ga  Ga20  1  0.164334  0.750793  0.247857  1
  Ga  Ga21  1  0.336203  0.749959  0.748336  1
  Ga  Ga22  1  0.836352  0.249939  0.751822  1
  Ga  Ga23  1  0.662973  0.249112  0.251052  1
  Ga  Ga24  1  0.382335  0.749994  0.003897  1
  Ga  Ga25  1  0.118288  0.750459  0.504172  1
  Ga  Ga26  1  0.617633  0.249898  0.995965  1
  Ga  Ga27  1  0.882296  0.248877  0.497161  1
  Ga  Ga28  1  0.605480  0.751215  0.295069  1
  Ga  Ga29  1  0.893081  0.749990  0.795440  1
  Ga  Ga30  1  0.393032  0.249978  0.704588  1
  Ga  Ga31  1  0.107048  0.249756  0.204351  1
