# generated using pymatgen
data_Y12AlGa7Rh8
_symmetry_space_group_name_H-M   'P 1'
_cell_length_a   5.58437600
_cell_length_b   7.86715632
_cell_length_c   13.63701312
_cell_angle_alpha   90.06724206
_cell_angle_beta   90.00000000
_cell_angle_gamma   90.00000000
_symmetry_Int_Tables_number   1
_chemical_formula_structural   Y12AlGa7Rh8
_chemical_formula_sum   'Y12 Al1 Ga7 Rh8'
_cell_volume   599.11665227
_cell_formula_units_Z   1
loop_
 _symmetry_equiv_pos_site_id
 _symmetry_equiv_pos_as_xyz
  1  'x, y, z'
loop_
 _atom_site_type_symbol
 _atom_site_label
 _atom_site_symmetry_multiplicity
 _atom_site_fract_x
 _atom_site_fract_y
 _atom_site_fract_z
 _atom_site_occupancy
  Y  Y0  1  0.628755  0.264911  0.250372  1
  Y  Y1  1  0.370798  0.733978  0.749009  1
  Y  Y2  1  0.370798  0.766022  0.250991  1
  Y  Y3  1  0.628755  0.235089  0.749628  1
  Y  Y4  1  0.149270  0.402911  0.098595  1
  Y  Y5  1  0.851904  0.601008  0.901584  1
  Y  Y6  1  0.849585  0.599257  0.597835  1
  Y  Y7  1  0.849585  0.900743  0.402165  1
  Y  Y8  1  0.150785  0.400547  0.402346  1
  Y  Y9  1  0.150785  0.099453  0.597654  1
  Y  Y10  1  0.149270  0.097089  0.901405  1
  Y  Y11  1  0.851904  0.898992  0.098416  1
  Al  Al12  1  0.633894  0.250000  0.000000  1
  Ga  Ga13  1  0.124678  0.112350  0.250048  1
  Ga  Ga14  1  0.874629  0.889337  0.749517  1
  Ga  Ga15  1  0.874629  0.610663  0.250483  1
  Ga  Ga16  1  0.124678  0.387650  0.749952  1
  Ga  Ga17  1  0.357769  0.750000  0.000000  1
  Ga  Ga18  1  0.354194  0.750000  0.500000  1
  Ga  Ga19  1  0.645120  0.250000  0.500000  1
  Rh  Rh20  1  0.360465  0.038712  0.093451  1
  Rh  Rh21  1  0.644185  0.966161  0.907817  1
  Rh  Rh22  1  0.641627  0.962014  0.593013  1
  Rh  Rh23  1  0.641627  0.537986  0.406987  1
  Rh  Rh24  1  0.357831  0.037764  0.406709  1
  Rh  Rh25  1  0.357831  0.462236  0.593291  1
  Rh  Rh26  1  0.360465  0.461288  0.906549  1
  Rh  Rh27  1  0.644185  0.533839  0.092183  1
