# generated using pymatgen
data_Sr3NiP6Os5
_symmetry_space_group_name_H-M   'P 1'
_cell_length_a   8.61168121
_cell_length_b   8.59348036
_cell_length_c   8.59348037
_cell_angle_alpha   152.89999742
_cell_angle_beta   94.21424494
_cell_angle_gamma   92.06705713
_symmetry_Int_Tables_number   1
_chemical_formula_structural   Sr3NiP6Os5
_chemical_formula_sum   'Sr3 Ni1 P6 Os5'
_cell_volume   281.62152766
_cell_formula_units_Z   1
loop_
 _symmetry_equiv_pos_site_id
 _symmetry_equiv_pos_as_xyz
  1  'x, y, z'
loop_
 _atom_site_type_symbol
 _atom_site_label
 _atom_site_symmetry_multiplicity
 _atom_site_fract_x
 _atom_site_fract_y
 _atom_site_fract_z
 _atom_site_occupancy
  Sr  Sr0  1  0.334094  0.332694  0.001400  1
  Sr  Sr1  1  0.663066  0.667205  0.995861  1
  Sr  Sr2  1  0.001451  0.000017  0.001434  1
  Ni  Ni3  1  0.922761  0.166776  0.755985  1
  P  P4  1  0.315417  0.666664  0.648753  1
  P  P5  1  0.687323  0.337336  0.349987  1
  P  P6  1  0.974583  0.327808  0.646775  1
  P  P7  1  0.346614  0.995726  0.350888  1
  P  P8  1  0.025620  0.666062  0.359558  1
  P  P9  1  0.652227  0.006334  0.645892  1
  Os  Os10  1  0.585769  0.838757  0.747011  1
  Os  Os11  1  0.242716  0.494716  0.747999  1
  Os  Os12  1  0.757166  0.508615  0.248551  1
  Os  Os13  1  0.074184  0.824707  0.249477  1
  Os  Os14  1  0.417011  0.166584  0.250428  1
