# generated using pymatgen
data_Ho3ErGa18(NiIr2)2
_symmetry_space_group_name_H-M   'P 1'
_cell_length_a   7.54315300
_cell_length_b   7.54315086
_cell_length_c   9.42507600
_cell_angle_alpha   90.00000000
_cell_angle_beta   90.00000000
_cell_angle_gamma   119.99061419
_symmetry_Int_Tables_number   1
_chemical_formula_structural   Ho3ErGa18(NiIr2)2
_chemical_formula_sum   'Ho3 Er1 Ga18 Ni2 Ir4'
_cell_volume   464.47492101
_cell_formula_units_Z   1
loop_
 _symmetry_equiv_pos_site_id
 _symmetry_equiv_pos_as_xyz
  1  'x, y, z'
loop_
 _atom_site_type_symbol
 _atom_site_label
 _atom_site_symmetry_multiplicity
 _atom_site_fract_x
 _atom_site_fract_y
 _atom_site_fract_z
 _atom_site_occupancy
  Ho  Ho0  1  0.996771  0.663694  0.750000  1
  Ho  Ho1  1  0.003261  0.336379  0.250000  1
  Ho  Ho2  1  0.663633  0.996762  0.750000  1
  Er  Er3  1  0.336441  0.003233  0.250000  1
  Ga  Ga4  1  0.114747  0.114708  0.750000  1
  Ga  Ga5  1  0.885559  0.885404  0.250000  1
  Ga  Ga6  1  0.999282  0.328634  0.578988  1
  Ga  Ga7  1  0.000951  0.671615  0.420805  1
  Ga  Ga8  1  0.000951  0.671615  0.079195  1
  Ga  Ga9  1  0.328620  0.999278  0.921161  1
  Ga  Ga10  1  0.999282  0.328634  0.921012  1
  Ga  Ga11  1  0.671151  0.000724  0.079204  1
  Ga  Ga12  1  0.671151  0.000724  0.420796  1
  Ga  Ga13  1  0.328620  0.999278  0.578839  1
  Ga  Ga14  1  0.326374  0.326168  0.065725  1
  Ga  Ga15  1  0.673595  0.673597  0.934529  1
  Ga  Ga16  1  0.673595  0.673597  0.565471  1
  Ga  Ga17  1  0.326374  0.326168  0.434275  1
  Ga  Ga18  1  0.338262  0.542904  0.750000  1
  Ga  Ga19  1  0.661535  0.456853  0.250000  1
  Ga  Ga20  1  0.542893  0.338267  0.750000  1
  Ga  Ga21  1  0.457035  0.661802  0.250000  1
  Ni  Ni22  1  0.000002  0.999997  0.500005  1
  Ni  Ni23  1  0.000002  0.999997  0.999995  1
  Ir  Ir24  1  0.671731  0.328183  0.499908  1
  Ir  Ir25  1  0.328224  0.671801  0.499914  1
  Ir  Ir26  1  0.328224  0.671801  0.000086  1
  Ir  Ir27  1  0.671731  0.328183  0.000092  1
