# generated using pymatgen
data_Pr2Ho3AlBi3
_symmetry_space_group_name_H-M   'P 1'
_cell_length_a   8.39099400
_cell_length_b   8.37231200
_cell_length_c   15.66446200
_cell_angle_alpha   90.00000000
_cell_angle_beta   90.00000000
_cell_angle_gamma   90.00000000
_symmetry_Int_Tables_number   1
_chemical_formula_structural   Pr2Ho3AlBi3
_chemical_formula_sum   'Pr8 Ho12 Al4 Bi12'
_cell_volume   1100.46009392
_cell_formula_units_Z   4
loop_
 _symmetry_equiv_pos_site_id
 _symmetry_equiv_pos_as_xyz
  1  'x, y, z'
loop_
 _atom_site_type_symbol
 _atom_site_label
 _atom_site_symmetry_multiplicity
 _atom_site_fract_x
 _atom_site_fract_y
 _atom_site_fract_z
 _atom_site_occupancy
  Pr  Pr0  1  0.476032  0.687213  0.603410  1
  Pr  Pr1  1  0.976032  0.812787  0.896590  1
  Pr  Pr2  1  0.523968  0.312787  0.103410  1
  Pr  Pr3  1  0.023968  0.187213  0.396590  1
  Pr  Pr4  1  0.523968  0.312787  0.396590  1
  Pr  Pr5  1  0.023968  0.187213  0.103410  1
  Pr  Pr6  1  0.476032  0.687213  0.896590  1
  Pr  Pr7  1  0.976032  0.812787  0.603410  1
  Ho  Ho8  1  0.635585  0.146784  0.625603  1
  Ho  Ho9  1  0.135585  0.353216  0.874397  1
  Ho  Ho10  1  0.364415  0.853216  0.125603  1
  Ho  Ho11  1  0.864415  0.646784  0.374397  1
  Ho  Ho12  1  0.364415  0.853216  0.374397  1
  Ho  Ho13  1  0.864415  0.646784  0.125603  1
  Ho  Ho14  1  0.635585  0.146784  0.874397  1
  Ho  Ho15  1  0.135585  0.353216  0.625603  1
  Ho  Ho16  1  0.811302  0.513235  0.750000  1
  Ho  Ho17  1  0.311302  0.986765  0.750000  1
  Ho  Ho18  1  0.188698  0.486765  0.250000  1
  Ho  Ho19  1  0.688698  0.013235  0.250000  1
  Al  Al20  1  0.665078  0.852978  0.750000  1
  Al  Al21  1  0.165078  0.647022  0.750000  1
  Al  Al22  1  0.334922  0.147022  0.250000  1
  Al  Al23  1  0.834922  0.352978  0.250000  1
  Bi  Bi24  1  0.712209  0.954642  0.455140  1
  Bi  Bi25  1  0.212209  0.545358  0.044860  1
  Bi  Bi26  1  0.287791  0.045358  0.955140  1
  Bi  Bi27  1  0.787791  0.454642  0.544860  1
  Bi  Bi28  1  0.287791  0.045358  0.544860  1
  Bi  Bi29  1  0.787791  0.454642  0.955140  1
  Bi  Bi30  1  0.712209  0.954642  0.044860  1
  Bi  Bi31  1  0.212209  0.545358  0.455140  1
  Bi  Bi32  1  0.438945  0.378357  0.750000  1
  Bi  Bi33  1  0.938945  0.121643  0.750000  1
  Bi  Bi34  1  0.561055  0.621643  0.250000  1
  Bi  Bi35  1  0.061055  0.878357  0.250000  1
