# generated using pymatgen
data_ThMn2GeC
_symmetry_space_group_name_H-M   'P 1'
_cell_length_a   5.79079670
_cell_length_b   5.79079671
_cell_length_c   7.19769200
_cell_angle_alpha   90.00000000
_cell_angle_beta   90.00000000
_cell_angle_gamma   140.90108174
_symmetry_Int_Tables_number   1
_chemical_formula_structural   ThMn2GeC
_chemical_formula_sum   'Th2 Mn4 Ge2 C2'
_cell_volume   152.21798827
_cell_formula_units_Z   2
loop_
 _symmetry_equiv_pos_site_id
 _symmetry_equiv_pos_as_xyz
  1  'x, y, z'
loop_
 _atom_site_type_symbol
 _atom_site_label
 _atom_site_symmetry_multiplicity
 _atom_site_fract_x
 _atom_site_fract_y
 _atom_site_fract_z
 _atom_site_occupancy
  Th  Th0  1  0.547880  0.452120  0.250000  1
  Th  Th1  1  0.452120  0.547880  0.750000  1
  Mn  Mn2  1  0.834670  0.165330  0.059861  1
  Mn  Mn3  1  0.165330  0.834670  0.940139  1
  Mn  Mn4  1  0.165330  0.834670  0.559861  1
  Mn  Mn5  1  0.834670  0.165330  0.440139  1
  Ge  Ge6  1  0.268379  0.731621  0.250000  1
  Ge  Ge7  1  0.731621  0.268379  0.750000  1
  C  C8  1  0.000000  0.000000  0.000000  1
  C  C9  1  0.000000  0.000000  0.500000  1
