# generated using pymatgen
data_PrSi2IrRh2
_symmetry_space_group_name_H-M   'P 1'
_cell_length_a   6.71801277
_cell_length_b   6.71191093
_cell_length_c   6.71801353
_cell_angle_alpha   130.31098691
_cell_angle_beta   114.73660237
_cell_angle_gamma   86.28149042
_symmetry_Int_Tables_number   1
_chemical_formula_structural   PrSi2IrRh2
_chemical_formula_sum   'Pr2 Si4 Ir2 Rh4'
_cell_volume   200.31300037
_cell_formula_units_Z   2
loop_
 _symmetry_equiv_pos_site_id
 _symmetry_equiv_pos_as_xyz
  1  'x, y, z'
loop_
 _atom_site_type_symbol
 _atom_site_label
 _atom_site_symmetry_multiplicity
 _atom_site_fract_x
 _atom_site_fract_y
 _atom_site_fract_z
 _atom_site_occupancy
  Pr  Pr0  1  0.250113  0.970230  0.720117  1
  Pr  Pr1  1  0.749887  0.029770  0.279883  1
  Si  Si2  1  0.079484  0.280628  0.201144  1
  Si  Si3  1  0.920516  0.719372  0.798856  1
  Si  Si4  1  0.421473  0.622671  0.201198  1
  Si  Si5  1  0.578527  0.377329  0.798802  1
  Ir  Ir6  1  0.219062  0.500000  0.719062  1
  Ir  Ir7  1  0.780938  0.500000  0.280938  1
  Rh  Rh8  1  0.500000  0.500000  0.500000  1
  Rh  Rh9  1  0.000000  0.500000  0.000000  1
  Rh  Rh10  1  0.281513  0.000000  0.281513  1
  Rh  Rh11  1  0.718487  0.000000  0.718487  1
