# generated using pymatgen
data_Yb7Er(Si4W3)4
_symmetry_space_group_name_H-M   'P 1'
_cell_length_a   6.86169569
_cell_length_b   6.86365525
_cell_length_c   12.79230636
_cell_angle_alpha   90.08009870
_cell_angle_beta   89.97737978
_cell_angle_gamma   90.07728527
_symmetry_Int_Tables_number   1
_chemical_formula_structural   Yb7Er(Si4W3)4
_chemical_formula_sum   'Yb7 Er1 Si16 W12'
_cell_volume   602.46928909
_cell_formula_units_Z   1
loop_
 _symmetry_equiv_pos_site_id
 _symmetry_equiv_pos_as_xyz
  1  'x, y, z'
loop_
 _atom_site_type_symbol
 _atom_site_label
 _atom_site_symmetry_multiplicity
 _atom_site_fract_x
 _atom_site_fract_y
 _atom_site_fract_z
 _atom_site_occupancy
  Yb  Yb0  1  0.332725  0.006678  0.470032  1
  Yb  Yb1  1  0.493974  0.833360  0.719986  1
  Yb  Yb2  1  0.506013  0.166480  0.220469  1
  Yb  Yb3  1  0.832870  0.493553  0.279994  1
  Yb  Yb4  1  0.166751  0.506092  0.779240  1
  Yb  Yb5  1  0.664892  0.996292  0.969691  1
  Yb  Yb6  1  0.006548  0.332367  0.529845  1
  Er  Er7  1  0.998809  0.663524  0.030840  1
  Si  Si8  1  0.200543  0.127625  0.684824  1
  Si  Si9  1  0.372828  0.702883  0.933672  1
  Si  Si10  1  0.628357  0.298606  0.434659  1
  Si  Si11  1  0.701287  0.371175  0.065924  1
  Si  Si12  1  0.299166  0.628387  0.565328  1
  Si  Si13  1  0.798546  0.871771  0.183460  1
  Si  Si14  1  0.127789  0.200556  0.315058  1
  Si  Si15  1  0.870522  0.799006  0.816320  1
  Si  Si16  1  0.295625  0.961870  0.065890  1
  Si  Si17  1  0.538865  0.794694  0.315032  1
  Si  Si18  1  0.460263  0.206108  0.814692  1
  Si  Si19  1  0.794931  0.539112  0.685077  1
  Si  Si20  1  0.206928  0.459386  0.186026  1
  Si  Si21  1  0.705045  0.039337  0.565114  1
  Si  Si22  1  0.959653  0.293932  0.933670  1
  Si  Si23  1  0.039383  0.704785  0.434903  1
  W  W24  1  0.329724  0.332515  0.999786  1
  W  W25  1  0.168736  0.830674  0.250113  1
  W  W26  1  0.830647  0.169321  0.750147  1
  W  W27  1  0.669482  0.669295  0.500220  1
  W  W28  1  0.158372  0.006256  0.876174  1
  W  W29  1  0.493563  0.659824  0.123791  1
  W  W30  1  0.508007  0.341199  0.624793  1
  W  W31  1  0.659615  0.494560  0.876377  1
  W  W32  1  0.341032  0.507330  0.375337  1
  W  W33  1  0.841048  0.991039  0.374380  1
  W  W34  1  0.006439  0.159993  0.123870  1
  W  W35  1  0.991023  0.840416  0.625267  1
