# generated using pymatgen
data_LaHoErRh9
_symmetry_space_group_name_H-M   'P 1'
_cell_length_a   5.29991200
_cell_length_b   5.29991113
_cell_length_c   17.51475800
_cell_angle_alpha   90.00000000
_cell_angle_beta   90.00000000
_cell_angle_gamma   119.99999296
_symmetry_Int_Tables_number   1
_chemical_formula_structural   LaHoErRh9
_chemical_formula_sum   'La2 Ho2 Er2 Rh18'
_cell_volume   426.06126192
_cell_formula_units_Z   2
loop_
 _symmetry_equiv_pos_site_id
 _symmetry_equiv_pos_as_xyz
  1  'x, y, z'
loop_
 _atom_site_type_symbol
 _atom_site_label
 _atom_site_symmetry_multiplicity
 _atom_site_fract_x
 _atom_site_fract_y
 _atom_site_fract_z
 _atom_site_occupancy
  La  La0  1  0.333333  0.666667  0.750043  1
  La  La1  1  0.666667  0.333333  0.250043  1
  Ho  Ho2  1  0.333333  0.666667  0.541345  1
  Ho  Ho3  1  0.666667  0.333333  0.041345  1
  Er  Er4  1  0.666667  0.333333  0.458533  1
  Er  Er5  1  0.333333  0.666667  0.958533  1
  Rh  Rh6  1  0.167503  0.335008  0.123889  1
  Rh  Rh7  1  0.832497  0.664992  0.623889  1
  Rh  Rh8  1  0.664992  0.832497  0.123889  1
  Rh  Rh9  1  0.167503  0.832497  0.123889  1
  Rh  Rh10  1  0.832497  0.167503  0.623889  1
  Rh  Rh11  1  0.335008  0.167503  0.623889  1
  Rh  Rh12  1  0.832509  0.665018  0.876157  1
  Rh  Rh13  1  0.832509  0.167491  0.876157  1
  Rh  Rh14  1  0.334982  0.167491  0.876157  1
  Rh  Rh15  1  0.665018  0.832509  0.376157  1
  Rh  Rh16  1  0.167491  0.832509  0.376157  1
  Rh  Rh17  1  0.167491  0.334982  0.376157  1
  Rh  Rh18  1  0.000000  0.000000  0.249976  1
  Rh  Rh19  1  0.000000  0.000000  0.749976  1
  Rh  Rh20  1  0.333333  0.666667  0.250011  1
  Rh  Rh21  1  0.666667  0.333333  0.750011  1
  Rh  Rh22  1  0.000000  0.000000  0.999955  1
  Rh  Rh23  1  0.000000  0.000000  0.499955  1
