# generated using pymatgen
data_Yb3Hf5Si16(Mo2W)4
_symmetry_space_group_name_H-M   'P 1'
_cell_length_a   6.63846806
_cell_length_b   6.80793033
_cell_length_c   12.75265246
_cell_angle_alpha   90.24425469
_cell_angle_beta   89.87775736
_cell_angle_gamma   90.15759765
_symmetry_Int_Tables_number   1
_chemical_formula_structural   Yb3Hf5Si16(Mo2W)4
_chemical_formula_sum   'Yb3 Hf5 Si16 Mo8 W4'
_cell_volume   576.33756869
_cell_formula_units_Z   1
loop_
 _symmetry_equiv_pos_site_id
 _symmetry_equiv_pos_as_xyz
  1  'x, y, z'
loop_
 _atom_site_type_symbol
 _atom_site_label
 _atom_site_symmetry_multiplicity
 _atom_site_fract_x
 _atom_site_fract_y
 _atom_site_fract_z
 _atom_site_occupancy
  Yb  Yb0  1  0.994763  0.162769  0.089381  1
  Yb  Yb1  1  0.003126  0.835234  0.911057  1
  Yb  Yb2  1  0.503497  0.666524  0.908864  1
  Hf  Hf3  1  0.002830  0.831385  0.593323  1
  Hf  Hf4  1  0.494340  0.329106  0.098744  1
  Hf  Hf5  1  0.995090  0.169141  0.406607  1
  Hf  Hf6  1  0.494905  0.331179  0.407091  1
  Hf  Hf7  1  0.503452  0.669924  0.593266  1
  Si  Si8  1  0.035590  0.126808  0.747914  1
  Si  Si9  1  0.967254  0.872604  0.250882  1
  Si  Si10  1  0.465404  0.626407  0.251152  1
  Si  Si11  1  0.535204  0.376235  0.746115  1
  Si  Si12  1  0.301253  0.862952  0.749532  1
  Si  Si13  1  0.699086  0.137943  0.250966  1
  Si  Si14  1  0.197552  0.360775  0.251425  1
  Si  Si15  1  0.801947  0.639226  0.749478  1
  Si  Si16  1  0.169231  0.458391  0.541795  1
  Si  Si17  1  0.831322  0.542064  0.457402  1
  Si  Si18  1  0.332211  0.957861  0.457353  1
  Si  Si19  1  0.834604  0.536593  0.048689  1
  Si  Si20  1  0.667524  0.041816  0.540838  1
  Si  Si21  1  0.162184  0.459521  0.954009  1
  Si  Si22  1  0.656488  0.044155  0.954614  1
  Si  Si23  1  0.343738  0.961854  0.048382  1
  Mo  Mo24  1  0.331877  0.161295  0.621633  1
  Mo  Mo25  1  0.669181  0.839595  0.376639  1
  Mo  Mo26  1  0.168866  0.659805  0.378047  1
  Mo  Mo27  1  0.668114  0.834715  0.128324  1
  Mo  Mo28  1  0.833593  0.337126  0.620255  1
  Mo  Mo29  1  0.334857  0.170819  0.872318  1
  Mo  Mo30  1  0.831637  0.332545  0.870361  1
  Mo  Mo31  1  0.169987  0.658458  0.128699  1
  W  W32  1  0.166844  0.504581  0.743573  1
  W  W33  1  0.831356  0.493368  0.254577  1
  W  W34  1  0.334928  0.009496  0.253800  1
  W  W35  1  0.666167  0.997723  0.742897  1
