# generated using pymatgen
data_La4MgTc
_symmetry_space_group_name_H-M   'P 1'
_cell_length_a   10.14935812
_cell_length_b   10.14935894
_cell_length_c   10.14935800
_cell_angle_alpha   60.00000305
_cell_angle_beta   60.00000039
_cell_angle_gamma   59.99999916
_symmetry_Int_Tables_number   1
_chemical_formula_structural   La4MgTc
_chemical_formula_sum   'La16 Mg4 Tc4'
_cell_volume   739.26606526
_cell_formula_units_Z   4
loop_
 _symmetry_equiv_pos_site_id
 _symmetry_equiv_pos_as_xyz
  1  'x, y, z'
loop_
 _atom_site_type_symbol
 _atom_site_label
 _atom_site_symmetry_multiplicity
 _atom_site_fract_x
 _atom_site_fract_y
 _atom_site_fract_z
 _atom_site_occupancy
  La  La0  1  0.556587  0.943413  0.556587  1
  La  La1  1  0.186715  0.186715  0.813285  1
  La  La2  1  0.556587  0.556587  0.943413  1
  La  La3  1  0.969641  0.343453  0.343453  1
  La  La4  1  0.813285  0.186715  0.813285  1
  La  La5  1  0.186715  0.813285  0.186715  1
  La  La6  1  0.343453  0.343453  0.969641  1
  La  La7  1  0.343453  0.969641  0.343453  1
  La  La8  1  0.943413  0.943413  0.556587  1
  La  La9  1  0.943413  0.556587  0.556587  1
  La  La10  1  0.343453  0.343453  0.343453  1
  La  La11  1  0.813285  0.813285  0.186715  1
  La  La12  1  0.813285  0.186715  0.186715  1
  La  La13  1  0.556587  0.943413  0.943413  1
  La  La14  1  0.943413  0.556587  0.943413  1
  La  La15  1  0.186715  0.813285  0.813285  1
  Mg  Mg16  1  0.577441  0.577441  0.577441  1
  Mg  Mg17  1  0.577441  0.267678  0.577441  1
  Mg  Mg18  1  0.577441  0.577441  0.267678  1
  Mg  Mg19  1  0.267678  0.577441  0.577441  1
  Tc  Tc20  1  0.133246  0.600263  0.133246  1
  Tc  Tc21  1  0.600263  0.133246  0.133246  1
  Tc  Tc22  1  0.133246  0.133246  0.600263  1
  Tc  Tc23  1  0.133246  0.133246  0.133246  1
