# generated using pymatgen
data_Li2AlRh4W
_symmetry_space_group_name_H-M   'P 1'
_cell_length_a   4.26447000
_cell_length_b   6.01654200
_cell_length_c   12.68230200
_cell_angle_alpha   90.00005568
_cell_angle_beta   89.99838518
_cell_angle_gamma   89.99989864
_symmetry_Int_Tables_number   1
_chemical_formula_structural   Li2AlRh4W
_chemical_formula_sum   'Li6 Al3 Rh12 W3'
_cell_volume   325.39442428
_cell_formula_units_Z   3
loop_
 _symmetry_equiv_pos_site_id
 _symmetry_equiv_pos_as_xyz
  1  'x, y, z'
loop_
 _atom_site_type_symbol
 _atom_site_label
 _atom_site_symmetry_multiplicity
 _atom_site_fract_x
 _atom_site_fract_y
 _atom_site_fract_z
 _atom_site_occupancy
  Li  Li0  1  0.999984  0.999999  0.997676  1
  Li  Li1  1  0.499608  0.499999  0.166626  1
  Li  Li2  1  0.999556  0.000000  0.335656  1
  Li  Li3  1  0.499953  0.499997  0.503693  1
  Li  Li4  1  0.000442  0.000004  0.666638  1
  Li  Li5  1  0.500402  0.499997  0.829664  1
  Al  Al6  1  0.499990  0.000001  0.506217  1
  Al  Al7  1  0.000389  0.499997  0.666634  1
  Al  Al8  1  0.500368  0.000002  0.827093  1
  Rh  Rh9  1  0.500024  0.248180  0.999707  1
  Rh  Rh10  1  0.500025  0.751821  0.999709  1
  Rh  Rh11  1  0.999665  0.251162  0.166736  1
  Rh  Rh12  1  0.999661  0.748835  0.166736  1
  Rh  Rh13  1  0.499661  0.248248  0.333735  1
  Rh  Rh14  1  0.499662  0.751748  0.333735  1
  Rh  Rh15  1  0.999968  0.248849  0.499380  1
  Rh  Rh16  1  0.999966  0.751149  0.499379  1
  Rh  Rh17  1  0.500342  0.252227  0.666589  1
  Rh  Rh18  1  0.500349  0.747778  0.666590  1
  Rh  Rh19  1  0.000316  0.248876  0.833844  1
  Rh  Rh20  1  0.000318  0.751125  0.833846  1
  W  W21  1  0.000059  0.500000  0.991667  1
  W  W22  1  0.499631  0.000000  0.166780  1
  W  W23  1  0.999651  0.500000  0.341671  1
