# generated using pymatgen
data_Na14AlGa3Sb10
_symmetry_space_group_name_H-M   'P 1'
_cell_length_a   13.73062326
_cell_length_b   7.75897629
_cell_length_c   8.24933504
_cell_angle_alpha   62.10709049
_cell_angle_beta   90.11271262
_cell_angle_gamma   89.88834200
_symmetry_Int_Tables_number   1
_chemical_formula_structural   Na14AlGa3Sb10
_chemical_formula_sum   'Na14 Al1 Ga3 Sb10'
_cell_volume   776.74067858
_cell_formula_units_Z   1
loop_
 _symmetry_equiv_pos_site_id
 _symmetry_equiv_pos_as_xyz
  1  'x, y, z'
loop_
 _atom_site_type_symbol
 _atom_site_label
 _atom_site_symmetry_multiplicity
 _atom_site_fract_x
 _atom_site_fract_y
 _atom_site_fract_z
 _atom_site_occupancy
  Na  Na0  1  0.250090  0.901828  0.403028  1
  Na  Na1  1  0.924250  0.893471  0.415362  1
  Na  Na2  1  0.922800  0.190175  0.885546  1
  Na  Na3  1  0.422797  0.809726  0.115311  1
  Na  Na4  1  0.750025  0.097800  0.597444  1
  Na  Na5  1  0.250207  0.438681  0.261850  1
  Na  Na6  1  0.749938  0.769083  0.144648  1
  Na  Na7  1  0.249765  0.230381  0.854900  1
  Na  Na8  1  0.075866  0.106258  0.584999  1
  Na  Na9  1  0.077258  0.809947  0.114200  1
  Na  Na10  1  0.424161  0.107147  0.584118  1
  Na  Na11  1  0.750053  0.561640  0.738218  1
  Na  Na12  1  0.577280  0.190015  0.885483  1
  Na  Na13  1  0.575481  0.893671  0.415295  1
  Al  Al14  1  0.411438  0.587691  0.838825  1
  Ga  Ga15  1  0.089805  0.588839  0.837529  1
  Ga  Ga16  1  0.589455  0.411179  0.162393  1
  Ga  Ga17  1  0.909957  0.411092  0.162524  1
  Sb  Sb18  1  0.101559  0.529526  0.534646  1
  Sb  Sb19  1  0.920519  0.777167  0.849277  1
  Sb  Sb20  1  0.419994  0.223936  0.149160  1
  Sb  Sb21  1  0.079451  0.222774  0.150919  1
  Sb  Sb22  1  0.898230  0.470549  0.465358  1
  Sb  Sb23  1  0.398172  0.530162  0.535647  1
  Sb  Sb24  1  0.601348  0.470610  0.464912  1
  Sb  Sb25  1  0.251325  0.805576  0.835858  1
  Sb  Sb26  1  0.749662  0.192959  0.164000  1
  Sb  Sb27  1  0.579116  0.778120  0.848550  1
