# generated using pymatgen
data_Ta5Ti3Cr2(B2P)2
_symmetry_space_group_name_H-M   'P 1'
_cell_length_a   5.97210315
_cell_length_b   5.97210249
_cell_length_c   7.10135005
_cell_angle_alpha   114.83224330
_cell_angle_beta   115.08553631
_cell_angle_gamma   89.79885899
_symmetry_Int_Tables_number   1
_chemical_formula_structural   Ta5Ti3Cr2(B2P)2
_chemical_formula_sum   'Ta5 Ti3 Cr2 B4 P2'
_cell_volume   203.42998510
_cell_formula_units_Z   1
loop_
 _symmetry_equiv_pos_site_id
 _symmetry_equiv_pos_as_xyz
  1  'x, y, z'
loop_
 _atom_site_type_symbol
 _atom_site_label
 _atom_site_symmetry_multiplicity
 _atom_site_fract_x
 _atom_site_fract_y
 _atom_site_fract_z
 _atom_site_occupancy
  Ta  Ta0  1  0.530734  0.693832  0.724566  1
  Ta  Ta1  1  0.965715  0.464703  0.274898  1
  Ta  Ta2  1  0.310195  0.809183  0.274898  1
  Ta  Ta3  1  0.809338  0.965000  0.274338  1
  Ta  Ta4  1  0.464978  0.308604  0.273582  1
  Ti  Ti5  1  0.032441  0.532832  0.726340  1
  Ti  Ti6  1  0.693508  0.193899  0.726340  1
  Ti  Ti7  1  0.192932  0.035147  0.728078  1
  Cr  Cr8  1  0.496299  0.495904  0.993874  1
  Cr  Cr9  1  0.997970  0.997575  0.993874  1
  B  B10  1  0.377811  0.879637  0.996726  1
  B  B11  1  0.617088  0.118915  0.996726  1
  B  B12  1  0.114321  0.380754  0.995075  1
  B  B13  1  0.881828  0.614635  0.996463  1
  P  P14  1  0.254674  0.251943  0.512111  1
  P  P15  1  0.760168  0.757437  0.512111  1
