# generated using pymatgen
data_La9Nd(IrOs)2
_symmetry_space_group_name_H-M   'P 1'
_cell_length_a   9.15289351
_cell_length_b   9.15289288
_cell_length_c   7.41026508
_cell_angle_alpha   84.92548836
_cell_angle_beta   84.92548811
_cell_angle_gamma   43.21501067
_symmetry_Int_Tables_number   1
_chemical_formula_structural   La9Nd(IrOs)2
_chemical_formula_sum   'La9 Nd1 Ir2 Os2'
_cell_volume   423.15615242
_cell_formula_units_Z   1
loop_
 _symmetry_equiv_pos_site_id
 _symmetry_equiv_pos_as_xyz
  1  'x, y, z'
loop_
 _atom_site_type_symbol
 _atom_site_label
 _atom_site_symmetry_multiplicity
 _atom_site_fract_x
 _atom_site_fract_y
 _atom_site_fract_z
 _atom_site_occupancy
  La  La0  1  0.018990  0.799198  0.910828  1
  La  La1  1  0.200802  0.981010  0.589172  1
  La  La2  1  0.989945  0.192754  0.087151  1
  La  La3  1  0.807246  0.010055  0.412849  1
  La  La4  1  0.353472  0.213210  0.817266  1
  La  La5  1  0.786790  0.646528  0.682734  1
  La  La6  1  0.638969  0.787190  0.179506  1
  La  La7  1  0.212810  0.361031  0.320494  1
  La  La8  1  0.568627  0.431373  0.750000  1
  Nd  Nd9  1  0.432112  0.567888  0.250000  1
  Ir  Ir10  1  0.822581  0.403398  0.421308  1
  Ir  Ir11  1  0.596602  0.177419  0.078692  1
  Os  Os12  1  0.174356  0.603301  0.576025  1
  Os  Os13  1  0.396699  0.825644  0.923975  1
