# generated using pymatgen
data_Y3Er5Re2(B12Os)2
_symmetry_space_group_name_H-M   'P 1'
_cell_length_a   3.65434100
_cell_length_b   9.13680872
_cell_length_c   11.52854816
_cell_angle_alpha   90.12105229
_cell_angle_beta   90.00000000
_cell_angle_gamma   90.00000000
_symmetry_Int_Tables_number   1
_chemical_formula_structural   Y3Er5Re2(B12Os)2
_chemical_formula_sum   'Y3 Er5 Re2 B24 Os2'
_cell_volume   384.92600505
_cell_formula_units_Z   1
loop_
 _symmetry_equiv_pos_site_id
 _symmetry_equiv_pos_as_xyz
  1  'x, y, z'
loop_
 _atom_site_type_symbol
 _atom_site_label
 _atom_site_symmetry_multiplicity
 _atom_site_fract_x
 _atom_site_fract_y
 _atom_site_fract_z
 _atom_site_occupancy
  Y  Y0  1  0.000000  0.320551  0.412486  1
  Y  Y1  1  0.000000  0.679461  0.587560  1
  Y  Y2  1  0.000000  0.824169  0.084764  1
  Er  Er3  1  0.000000  0.175473  0.915380  1
  Er  Er4  1  0.000000  0.943445  0.370574  1
  Er  Er5  1  0.000000  0.056710  0.629460  1
  Er  Er6  1  0.000000  0.442410  0.128544  1
  Er  Er7  1  0.000000  0.557329  0.871277  1
  Re  Re8  1  0.000000  0.138395  0.179419  1
  Re  Re9  1  0.000000  0.862136  0.820357  1
  B  B10  1  0.500000  0.553755  0.432798  1
  B  B11  1  0.500000  0.446093  0.567357  1
  B  B12  1  0.500000  0.053559  0.066655  1
  B  B13  1  0.500000  0.947465  0.932802  1
  B  B14  1  0.500000  0.749217  0.418473  1
  B  B15  1  0.500000  0.250783  0.581775  1
  B  B16  1  0.500000  0.249067  0.080571  1
  B  B17  1  0.500000  0.751013  0.918635  1
  B  B18  1  0.500000  0.790903  0.266017  1
  B  B19  1  0.500000  0.208869  0.734532  1
  B  B20  1  0.500000  0.291731  0.234127  1
  B  B21  1  0.500000  0.708320  0.765659  1
  B  B22  1  0.500000  0.630374  0.185922  1
  B  B23  1  0.500000  0.369015  0.814483  1
  B  B24  1  0.500000  0.130833  0.314759  1
  B  B25  1  0.500000  0.869453  0.685287  1
  B  B26  1  0.500000  0.982630  0.212695  1
  B  B27  1  0.500000  0.018229  0.787462  1
  B  B28  1  0.500000  0.482783  0.287512  1
  B  B29  1  0.500000  0.516928  0.712590  1
  B  B30  1  0.500000  0.602125  0.028505  1
  B  B31  1  0.500000  0.396944  0.971191  1
  B  B32  1  0.500000  0.102240  0.471874  1
  B  B33  1  0.500000  0.897864  0.528199  1
  Os  Os34  1  0.000000  0.637672  0.321461  1
  Os  Os35  1  0.000000  0.362056  0.678839  1
