# generated using pymatgen
data_Gd5Rh2Au
_symmetry_space_group_name_H-M   'P 1'
_cell_length_a   8.57389542
_cell_length_b   8.57389580
_cell_length_c   8.57389500
_cell_angle_alpha   127.78804897
_cell_angle_beta   127.78804251
_cell_angle_gamma   76.96863982
_symmetry_Int_Tables_number   1
_chemical_formula_structural   Gd5Rh2Au
_chemical_formula_sum   'Gd10 Rh4 Au2'
_cell_volume   382.12338634
_cell_formula_units_Z   2
loop_
 _symmetry_equiv_pos_site_id
 _symmetry_equiv_pos_as_xyz
  1  'x, y, z'
loop_
 _atom_site_type_symbol
 _atom_site_label
 _atom_site_symmetry_multiplicity
 _atom_site_fract_x
 _atom_site_fract_y
 _atom_site_fract_z
 _atom_site_occupancy
  Gd  Gd0  1  0.477805  0.977805  0.173872  1
  Gd  Gd1  1  0.196068  0.696068  0.173872  1
  Gd  Gd2  1  0.522195  0.022195  0.826128  1
  Gd  Gd3  1  0.022195  0.196068  0.500000  1
  Gd  Gd4  1  0.696068  0.522195  0.500000  1
  Gd  Gd5  1  0.977805  0.803932  0.500000  1
  Gd  Gd6  1  0.000000  0.000000  0.000000  1
  Gd  Gd7  1  0.500000  0.500000  0.000000  1
  Gd  Gd8  1  0.803932  0.303932  0.826128  1
  Gd  Gd9  1  0.303932  0.477805  0.500000  1
  Rh  Rh10  1  0.136783  0.636783  0.773565  1
  Rh  Rh11  1  0.636783  0.863217  0.500000  1
  Rh  Rh12  1  0.363217  0.136783  0.500000  1
  Rh  Rh13  1  0.863217  0.363217  0.226435  1
  Au  Au14  1  0.750000  0.750000  0.000000  1
  Au  Au15  1  0.250000  0.250000  0.000000  1
