# generated using pymatgen
data_LiEu2ScPb2
_symmetry_space_group_name_H-M   'P 1'
_cell_length_a   8.04175600
_cell_length_b   4.93636700
_cell_length_c   8.81351300
_cell_angle_alpha   90.00000000
_cell_angle_beta   90.00000000
_cell_angle_gamma   90.00000000
_symmetry_Int_Tables_number   1
_chemical_formula_structural   LiEu2ScPb2
_chemical_formula_sum   'Li2 Eu4 Sc2 Pb4'
_cell_volume   349.87054503
_cell_formula_units_Z   2
loop_
 _symmetry_equiv_pos_site_id
 _symmetry_equiv_pos_as_xyz
  1  'x, y, z'
loop_
 _atom_site_type_symbol
 _atom_site_label
 _atom_site_symmetry_multiplicity
 _atom_site_fract_x
 _atom_site_fract_y
 _atom_site_fract_z
 _atom_site_occupancy
  Li  Li0  1  0.147487  0.250000  0.936425  1
  Li  Li1  1  0.647487  0.250000  0.563575  1
  Eu  Eu2  1  0.010825  0.250000  0.309653  1
  Eu  Eu3  1  0.510825  0.250000  0.190347  1
  Eu  Eu4  1  0.992525  0.750000  0.696653  1
  Eu  Eu5  1  0.492525  0.750000  0.803347  1
  Sc  Sc6  1  0.847874  0.750000  0.073327  1
  Sc  Sc7  1  0.347874  0.750000  0.426673  1
  Pb  Pb8  1  0.279080  0.250000  0.606272  1
  Pb  Pb9  1  0.779080  0.250000  0.893728  1
  Pb  Pb10  1  0.722209  0.750000  0.398084  1
  Pb  Pb11  1  0.222209  0.750000  0.101916  1
