# generated using pymatgen
data_SmDy2Mg3Pb2Au
_symmetry_space_group_name_H-M   'P 1'
_cell_length_a   7.62903156
_cell_length_b   7.62903121
_cell_length_c   4.52582100
_cell_angle_alpha   90.00000000
_cell_angle_beta   90.00000000
_cell_angle_gamma   120.28630597
_symmetry_Int_Tables_number   1
_chemical_formula_structural   SmDy2Mg3Pb2Au
_chemical_formula_sum   'Sm1 Dy2 Mg3 Pb2 Au1'
_cell_volume   227.46083101
_cell_formula_units_Z   1
loop_
 _symmetry_equiv_pos_site_id
 _symmetry_equiv_pos_as_xyz
  1  'x, y, z'
loop_
 _atom_site_type_symbol
 _atom_site_label
 _atom_site_symmetry_multiplicity
 _atom_site_fract_x
 _atom_site_fract_y
 _atom_site_fract_z
 _atom_site_occupancy
  Sm  Sm0  1  0.407289  0.407289  0.000000  1
  Dy  Dy1  1  0.596957  0.000982  0.000000  1
  Dy  Dy2  1  0.000982  0.596957  0.000000  1
  Mg  Mg3  1  0.232109  0.000634  0.500000  1
  Mg  Mg4  1  0.000634  0.232109  0.500000  1
  Mg  Mg5  1  0.765887  0.765887  0.500000  1
  Pb  Pb6  1  0.332162  0.669452  0.500000  1
  Pb  Pb7  1  0.669452  0.332162  0.500000  1
  Au  Au8  1  0.994527  0.994527  0.000000  1
