# generated using pymatgen
data_Na2Co5Ni5P6
_symmetry_space_group_name_H-M   'P 1'
_cell_length_a   3.60698900
_cell_length_b   10.22467900
_cell_length_c   11.83015900
_cell_angle_alpha   90.00000000
_cell_angle_beta   90.00000000
_cell_angle_gamma   90.00000000
_symmetry_Int_Tables_number   1
_chemical_formula_structural   Na2Co5Ni5P6
_chemical_formula_sum   'Na4 Co10 Ni10 P12'
_cell_volume   436.29986835
_cell_formula_units_Z   2
loop_
 _symmetry_equiv_pos_site_id
 _symmetry_equiv_pos_as_xyz
  1  'x, y, z'
loop_
 _atom_site_type_symbol
 _atom_site_label
 _atom_site_symmetry_multiplicity
 _atom_site_fract_x
 _atom_site_fract_y
 _atom_site_fract_z
 _atom_site_occupancy
  Na  Na0  1  0.250000  0.580468  0.705814  1
  Na  Na1  1  0.250000  0.919532  0.205814  1
  Na  Na2  1  0.750000  0.418867  0.294071  1
  Na  Na3  1  0.750000  0.081133  0.794071  1
  Co  Co4  1  0.750000  0.781667  0.827122  1
  Co  Co5  1  0.750000  0.718333  0.327122  1
  Co  Co6  1  0.250000  0.877389  0.697928  1
  Co  Co7  1  0.250000  0.622611  0.197928  1
  Co  Co8  1  0.750000  0.121439  0.301687  1
  Co  Co9  1  0.750000  0.378561  0.801687  1
  Co  Co10  1  0.250000  0.465520  0.932278  1
  Co  Co11  1  0.250000  0.034480  0.432278  1
  Co  Co12  1  0.750000  0.536550  0.066995  1
  Co  Co13  1  0.750000  0.963450  0.566995  1
  Ni  Ni14  1  0.250000  0.712083  0.988974  1
  Ni  Ni15  1  0.250000  0.787917  0.488974  1
  Ni  Ni16  1  0.750000  0.286274  0.009342  1
  Ni  Ni17  1  0.750000  0.213726  0.509342  1
  Ni  Ni18  1  0.250000  0.408160  0.483910  1
  Ni  Ni19  1  0.250000  0.091840  0.983910  1
  Ni  Ni20  1  0.750000  0.593621  0.516979  1
  Ni  Ni21  1  0.750000  0.906379  0.016979  1
  Ni  Ni22  1  0.250000  0.220076  0.173632  1
  Ni  Ni23  1  0.250000  0.279924  0.673632  1
  P  P24  1  0.250000  0.424663  0.113311  1
  P  P25  1  0.250000  0.075337  0.613311  1
  P  P26  1  0.750000  0.579799  0.885666  1
  P  P27  1  0.750000  0.920201  0.385666  1
  P  P28  1  0.250000  0.268307  0.865483  1
  P  P29  1  0.250000  0.231693  0.365483  1
  P  P30  1  0.750000  0.732776  0.137966  1
  P  P31  1  0.750000  0.767224  0.637966  1
  P  P32  1  0.250000  0.603670  0.387588  1
  P  P33  1  0.250000  0.896330  0.887588  1
  P  P34  1  0.750000  0.399923  0.611253  1
  P  P35  1  0.750000  0.100077  0.111253  1
