# generated using pymatgen
data_Tb3Nd6Er11Pb16
_symmetry_space_group_name_H-M   'P 1'
_cell_length_a   8.20196045
_cell_length_b   8.31819377
_cell_length_c   15.65660700
_cell_angle_alpha   90.14004710
_cell_angle_beta   89.98096418
_cell_angle_gamma   90.15114202
_symmetry_Int_Tables_number   1
_chemical_formula_structural   Tb3Nd6Er11Pb16
_chemical_formula_sum   'Tb3 Nd6 Er11 Pb16'
_cell_volume   1068.17281974
_cell_formula_units_Z   1
loop_
 _symmetry_equiv_pos_site_id
 _symmetry_equiv_pos_as_xyz
  1  'x, y, z'
loop_
 _atom_site_type_symbol
 _atom_site_label
 _atom_site_symmetry_multiplicity
 _atom_site_fract_x
 _atom_site_fract_y
 _atom_site_fract_z
 _atom_site_occupancy
  Tb  Tb0  1  0.132335  0.342056  0.622338  1
  Tb  Tb1  1  0.472130  0.678647  0.598422  1
  Tb  Tb2  1  0.972720  0.822232  0.901790  1
  Nd  Nd3  1  0.525362  0.321487  0.096660  1
  Nd  Nd4  1  0.026019  0.177506  0.402302  1
  Nd  Nd5  1  0.525011  0.323014  0.403140  1
  Nd  Nd6  1  0.025136  0.176967  0.096900  1
  Nd  Nd7  1  0.476186  0.678640  0.903315  1
  Nd  Nd8  1  0.975187  0.822122  0.597293  1
  Er  Er9  1  0.634701  0.158339  0.622948  1
  Er  Er10  1  0.134514  0.341931  0.877191  1
  Er  Er11  1  0.366516  0.842002  0.122248  1
  Er  Er12  1  0.867156  0.657858  0.377765  1
  Er  Er13  1  0.367278  0.841718  0.377181  1
  Er  Er14  1  0.867031  0.658562  0.122407  1
  Er  Er15  1  0.633284  0.157030  0.877508  1
  Er  Er16  1  0.800033  0.495234  0.750288  1
  Er  Er17  1  0.300641  0.004754  0.750405  1
  Er  Er18  1  0.199903  0.505841  0.249847  1
  Er  Er19  1  0.699846  0.994368  0.249793  1
  Pb  Pb20  1  0.706627  0.959569  0.456943  1
  Pb  Pb21  1  0.205842  0.540458  0.043008  1
  Pb  Pb22  1  0.290004  0.037989  0.956221  1
  Pb  Pb23  1  0.787493  0.463819  0.544015  1
  Pb  Pb24  1  0.296146  0.037854  0.543338  1
  Pb  Pb25  1  0.795897  0.460500  0.956444  1
  Pb  Pb26  1  0.708493  0.956941  0.041649  1
  Pb  Pb27  1  0.208612  0.542983  0.457389  1
  Pb  Pb28  1  0.438741  0.373202  0.750286  1
  Pb  Pb29  1  0.937352  0.125643  0.750952  1
  Pb  Pb30  1  0.562486  0.627831  0.249680  1
  Pb  Pb31  1  0.062299  0.872121  0.250177  1
  Pb  Pb32  1  0.662781  0.846970  0.748957  1
  Pb  Pb33  1  0.162932  0.653693  0.751537  1
  Pb  Pb34  1  0.336770  0.151753  0.249819  1
  Pb  Pb35  1  0.836537  0.348363  0.249852  1
