# generated using pymatgen
data_Dy2Y2Mg3ZrIr4
_symmetry_space_group_name_H-M   'P 1'
_cell_length_a   4.19940700
_cell_length_b   7.10360042
_cell_length_c   8.56429525
_cell_angle_alpha   88.20679054
_cell_angle_beta   90.00000000
_cell_angle_gamma   90.00000000
_symmetry_Int_Tables_number   1
_chemical_formula_structural   Dy2Y2Mg3ZrIr4
_chemical_formula_sum   'Dy2 Y2 Mg3 Zr1 Ir4'
_cell_volume   255.35559986
_cell_formula_units_Z   1
loop_
 _symmetry_equiv_pos_site_id
 _symmetry_equiv_pos_as_xyz
  1  'x, y, z'
loop_
 _atom_site_type_symbol
 _atom_site_label
 _atom_site_symmetry_multiplicity
 _atom_site_fract_x
 _atom_site_fract_y
 _atom_site_fract_z
 _atom_site_occupancy
  Dy  Dy0  1  0.250000  0.960893  0.330964  1
  Dy  Dy1  1  0.250000  0.477328  0.182892  1
  Y  Y2  1  0.750000  0.023317  0.669964  1
  Y  Y3  1  0.750000  0.540005  0.820557  1
  Mg  Mg4  1  0.250000  0.358509  0.561603  1
  Mg  Mg5  1  0.250000  0.857160  0.932152  1
  Mg  Mg6  1  0.750000  0.634996  0.438807  1
  Zr  Zr7  1  0.750000  0.134547  0.060607  1
  Ir  Ir8  1  0.250000  0.255150  0.891100  1
  Ir  Ir9  1  0.250000  0.741821  0.623992  1
  Ir  Ir10  1  0.750000  0.763234  0.122622  1
  Ir  Ir11  1  0.750000  0.253036  0.364740  1
