# generated using pymatgen
data_Ba2SrEuTa4O14
_symmetry_space_group_name_H-M   'P 1'
_cell_length_a   4.01805959
_cell_length_b   7.88822553
_cell_length_c   11.20834238
_cell_angle_alpha   110.60301272
_cell_angle_beta   100.32574129
_cell_angle_gamma   90.00000349
_symmetry_Int_Tables_number   1
_chemical_formula_structural   Ba2SrEuTa4O14
_chemical_formula_sum   'Ba2 Sr1 Eu1 Ta4 O14'
_cell_volume   326.37712009
_cell_formula_units_Z   1
loop_
 _symmetry_equiv_pos_site_id
 _symmetry_equiv_pos_as_xyz
  1  'x, y, z'
loop_
 _atom_site_type_symbol
 _atom_site_label
 _atom_site_symmetry_multiplicity
 _atom_site_fract_x
 _atom_site_fract_y
 _atom_site_fract_z
 _atom_site_occupancy
  Ba  Ba0  1  0.739349  0.239347  0.478696  1
  Ba  Ba1  1  0.260652  0.760653  0.521304  1
  Sr  Sr2  1  0.500001  0.000000  0.000000  1
  Eu  Eu3  1  0.500001  0.500001  0.000000  1
  Ta  Ta4  1  0.102510  0.351125  0.205020  1
  Ta  Ta5  1  0.102510  0.853895  0.205020  1
  Ta  Ta6  1  0.897492  0.146105  0.794981  1
  Ta  Ta7  1  0.897492  0.648876  0.794981  1
  O  O8  1  0.000000  0.296198  0.000000  1
  O  O9  1  0.000000  0.703802  0.000000  1
  O  O10  1  0.078371  0.078371  0.156742  1
  O  O11  1  0.590098  0.340080  0.180193  1
  O  O12  1  0.590098  0.840113  0.180193  1
  O  O13  1  0.114301  0.614302  0.228602  1
  O  O14  1  0.192041  0.393680  0.384082  1
  O  O15  1  0.192041  0.990401  0.384082  1
  O  O16  1  0.807961  0.009598  0.615918  1
  O  O17  1  0.807961  0.606321  0.615918  1
  O  O18  1  0.885700  0.385699  0.771397  1
  O  O19  1  0.409903  0.159886  0.819806  1
  O  O20  1  0.409903  0.659920  0.819806  1
  O  O21  1  0.921630  0.921629  0.843257  1
