# generated using pymatgen
data_Tb2Y2TcB12Os
_symmetry_space_group_name_H-M   'P 1'
_cell_length_a   3.68001100
_cell_length_b   9.17346837
_cell_length_c   11.57006300
_cell_angle_alpha   89.91809861
_cell_angle_beta   90.00000000
_cell_angle_gamma   90.00000000
_symmetry_Int_Tables_number   1
_chemical_formula_structural   Tb2Y2TcB12Os
_chemical_formula_sum   'Tb4 Y4 Tc2 B24 Os2'
_cell_volume   390.58716221
_cell_formula_units_Z   2
loop_
 _symmetry_equiv_pos_site_id
 _symmetry_equiv_pos_as_xyz
  1  'x, y, z'
loop_
 _atom_site_type_symbol
 _atom_site_label
 _atom_site_symmetry_multiplicity
 _atom_site_fract_x
 _atom_site_fract_y
 _atom_site_fract_z
 _atom_site_occupancy
  Tb  Tb0  1  0.000000  0.325005  0.415231  1
  Tb  Tb1  1  0.000000  0.674995  0.584769  1
  Tb  Tb2  1  0.000000  0.821464  0.087299  1
  Tb  Tb3  1  0.000000  0.178536  0.912701  1
  Y  Y4  1  0.000000  0.941805  0.371127  1
  Y  Y5  1  0.000000  0.058195  0.628873  1
  Y  Y6  1  0.000000  0.443819  0.129756  1
  Y  Y7  1  0.000000  0.556181  0.870244  1
  Tc  Tc8  1  0.000000  0.638417  0.320386  1
  Tc  Tc9  1  0.000000  0.361583  0.679614  1
  B  B10  1  0.500000  0.553236  0.432684  1
  B  B11  1  0.500000  0.446764  0.567316  1
  B  B12  1  0.500000  0.053815  0.067312  1
  B  B13  1  0.500000  0.946185  0.932688  1
  B  B14  1  0.500000  0.747820  0.418647  1
  B  B15  1  0.500000  0.252180  0.581353  1
  B  B16  1  0.500000  0.248289  0.081510  1
  B  B17  1  0.500000  0.751711  0.918490  1
  B  B18  1  0.500000  0.790999  0.265652  1
  B  B19  1  0.500000  0.209001  0.734348  1
  B  B20  1  0.500000  0.290306  0.234084  1
  B  B21  1  0.500000  0.709694  0.765916  1
  B  B22  1  0.500000  0.631466  0.185652  1
  B  B23  1  0.500000  0.368534  0.814348  1
  B  B24  1  0.500000  0.130960  0.313694  1
  B  B25  1  0.500000  0.869040  0.686306  1
  B  B26  1  0.500000  0.983135  0.212034  1
  B  B27  1  0.500000  0.016865  0.787966  1
  B  B28  1  0.500000  0.483075  0.287652  1
  B  B29  1  0.500000  0.516925  0.712348  1
  B  B30  1  0.500000  0.603927  0.028603  1
  B  B31  1  0.500000  0.396073  0.971397  1
  B  B32  1  0.500000  0.103860  0.470934  1
  B  B33  1  0.500000  0.896139  0.529066  1
  Os  Os34  1  0.000000  0.137397  0.178182  1
  Os  Os35  1  0.000000  0.862603  0.821818  1
