# generated using pymatgen
data_Tb8Hf10Zr2Si15Ge
_symmetry_space_group_name_H-M   'P 1'
_cell_length_a   7.30328608
_cell_length_b   7.30904881
_cell_length_c   13.42783264
_cell_angle_alpha   89.92940641
_cell_angle_beta   89.98648391
_cell_angle_gamma   89.94812876
_symmetry_Int_Tables_number   1
_chemical_formula_structural   Tb8Hf10Zr2Si15Ge
_chemical_formula_sum   'Tb8 Hf10 Zr2 Si15 Ge1'
_cell_volume   716.77784826
_cell_formula_units_Z   1
loop_
 _symmetry_equiv_pos_site_id
 _symmetry_equiv_pos_as_xyz
  1  'x, y, z'
loop_
 _atom_site_type_symbol
 _atom_site_label
 _atom_site_symmetry_multiplicity
 _atom_site_fract_x
 _atom_site_fract_y
 _atom_site_fract_z
 _atom_site_occupancy
  Tb  Tb0  1  0.995147  0.344057  0.214549  1
  Tb  Tb1  1  0.003679  0.656113  0.715046  1
  Tb  Tb2  1  0.154925  0.497506  0.465695  1
  Tb  Tb3  1  0.503786  0.843869  0.034919  1
  Tb  Tb4  1  0.844138  0.503738  0.964974  1
  Tb  Tb5  1  0.496776  0.155449  0.535600  1
  Tb  Tb6  1  0.343820  0.996310  0.785032  1
  Tb  Tb7  1  0.656917  0.002707  0.284791  1
  Hf  Hf8  1  0.325262  0.677039  0.249535  1
  Hf  Hf9  1  0.674735  0.325321  0.749964  1
  Hf  Hf10  1  0.147915  0.993600  0.374510  1
  Hf  Hf11  1  0.850941  0.004651  0.874486  1
  Hf  Hf12  1  0.504429  0.649576  0.624344  1
  Hf  Hf13  1  0.350359  0.495537  0.875690  1
  Hf  Hf14  1  0.495794  0.350490  0.123230  1
  Hf  Hf15  1  0.651833  0.506198  0.376182  1
  Hf  Hf16  1  0.995246  0.149136  0.625576  1
  Hf  Hf17  1  0.004435  0.850698  0.125443  1
  Zr  Zr18  1  0.174425  0.174565  0.999956  1
  Zr  Zr19  1  0.825528  0.825618  0.500117  1
  Si  Si20  1  0.636682  0.705022  0.816948  1
  Si  Si21  1  0.206149  0.863357  0.567111  1
  Si  Si22  1  0.136649  0.793866  0.932839  1
  Si  Si23  1  0.793804  0.136687  0.067082  1
  Si  Si24  1  0.863324  0.206017  0.432870  1
  Si  Si25  1  0.295154  0.363328  0.682999  1
  Si  Si26  1  0.704697  0.636539  0.183008  1
  Si  Si27  1  0.295164  0.045687  0.184970  1
  Si  Si28  1  0.704546  0.951587  0.686481  1
  Si  Si29  1  0.450110  0.794620  0.435444  1
  Si  Si30  1  0.205355  0.549809  0.064603  1
  Si  Si31  1  0.549979  0.205266  0.935348  1
  Si  Si32  1  0.794607  0.450043  0.564597  1
  Si  Si33  1  0.048319  0.295461  0.813531  1
  Si  Si34  1  0.951778  0.704250  0.313519  1
  Ge  Ge35  1  0.363591  0.296281  0.319011  1
