# generated using pymatgen
data_CeLu7BePd24
_symmetry_space_group_name_H-M   'P 1'
_cell_length_a   8.23571573
_cell_length_b   8.23571443
_cell_length_c   8.23571400
_cell_angle_alpha   89.90751374
_cell_angle_beta   90.09248625
_cell_angle_gamma   90.09249629
_symmetry_Int_Tables_number   1
_chemical_formula_structural   CeLu7BePd24
_chemical_formula_sum   'Ce1 Lu7 Be1 Pd24'
_cell_volume   558.60161587
_cell_formula_units_Z   1
loop_
 _symmetry_equiv_pos_site_id
 _symmetry_equiv_pos_as_xyz
  1  'x, y, z'
loop_
 _atom_site_type_symbol
 _atom_site_label
 _atom_site_symmetry_multiplicity
 _atom_site_fract_x
 _atom_site_fract_y
 _atom_site_fract_z
 _atom_site_occupancy
  Ce  Ce0  1  0.746517  0.253483  0.253483  1
  Lu  Lu1  1  0.250289  0.251349  0.251349  1
  Lu  Lu2  1  0.748957  0.749149  0.749149  1
  Lu  Lu3  1  0.748651  0.749711  0.251349  1
  Lu  Lu4  1  0.748651  0.251349  0.749711  1
  Lu  Lu5  1  0.250851  0.251043  0.749149  1
  Lu  Lu6  1  0.250851  0.749149  0.251043  1
  Lu  Lu7  1  0.251790  0.748210  0.748210  1
  Be  Be8  1  0.002775  0.997225  0.997225  1
  Pd  Pd9  1  0.253719  0.499135  0.000029  1
  Pd  Pd10  1  0.746023  0.500258  0.000844  1
  Pd  Pd11  1  0.999156  0.253977  0.500258  1
  Pd  Pd12  1  0.499742  0.253977  0.000844  1
  Pd  Pd13  1  0.999971  0.746281  0.499135  1
  Pd  Pd14  1  0.500865  0.746281  0.000029  1
  Pd  Pd15  1  0.499742  0.000844  0.253977  1
  Pd  Pd16  1  0.253719  0.000029  0.499135  1
  Pd  Pd17  1  0.500865  0.000029  0.746281  1
  Pd  Pd18  1  0.746023  0.000844  0.500258  1
  Pd  Pd19  1  0.999156  0.500258  0.253977  1
  Pd  Pd20  1  0.999971  0.499135  0.746281  1
  Pd  Pd21  1  0.250661  0.499602  0.499602  1
  Pd  Pd22  1  0.748531  0.501040  0.501040  1
  Pd  Pd23  1  0.498960  0.251469  0.501040  1
  Pd  Pd24  1  0.500398  0.749339  0.499602  1
  Pd  Pd25  1  0.498960  0.501040  0.251469  1
  Pd  Pd26  1  0.500398  0.499602  0.749339  1
  Pd  Pd27  1  0.269281  0.999522  0.999522  1
  Pd  Pd28  1  0.733787  0.000110  0.000110  1
  Pd  Pd29  1  0.999890  0.266213  0.000110  1
  Pd  Pd30  1  0.000478  0.730719  0.999522  1
  Pd  Pd31  1  0.999890  0.000110  0.266213  1
  Pd  Pd32  1  0.000478  0.999522  0.730719  1
