# generated using pymatgen
data_Ce(NdRu)2
_symmetry_space_group_name_H-M   'P 1'
_cell_length_a   6.06842582
_cell_length_b   6.06842545
_cell_length_c   6.06842617
_cell_angle_alpha   139.53918553
_cell_angle_beta   120.26581312
_cell_angle_gamma   74.64122050
_symmetry_Int_Tables_number   1
_chemical_formula_structural   Ce(NdRu)2
_chemical_formula_sum   'Ce1 Nd2 Ru2'
_cell_volume   122.41522756
_cell_formula_units_Z   1
loop_
 _symmetry_equiv_pos_site_id
 _symmetry_equiv_pos_as_xyz
  1  'x, y, z'
loop_
 _atom_site_type_symbol
 _atom_site_label
 _atom_site_symmetry_multiplicity
 _atom_site_fract_x
 _atom_site_fract_y
 _atom_site_fract_z
 _atom_site_occupancy
  Ce  Ce0  1  0.000000  0.000000  0.000000  1
  Nd  Nd1  1  0.689230  0.189230  0.500000  1
  Nd  Nd2  1  0.310770  0.810769  0.500000  1
  Ru  Ru3  1  0.751666  0.500000  0.251666  1
  Ru  Ru4  1  0.248334  0.500000  0.748333  1
