# generated using pymatgen
data_TmPaCo2Sn
_symmetry_space_group_name_H-M   'P 1'
_cell_length_a   7.35209408
_cell_length_b   7.35209479
_cell_length_c   3.49602200
_cell_angle_alpha   90.00000000
_cell_angle_beta   90.00000000
_cell_angle_gamma   95.34560047
_symmetry_Int_Tables_number   1
_chemical_formula_structural   TmPaCo2Sn
_chemical_formula_sum   'Tm2 Pa2 Co4 Sn2'
_cell_volume   188.14963792
_cell_formula_units_Z   2
loop_
 _symmetry_equiv_pos_site_id
 _symmetry_equiv_pos_as_xyz
  1  'x, y, z'
loop_
 _atom_site_type_symbol
 _atom_site_label
 _atom_site_symmetry_multiplicity
 _atom_site_fract_x
 _atom_site_fract_y
 _atom_site_fract_z
 _atom_site_occupancy
  Tm  Tm0  1  0.170884  0.329116  0.500000  1
  Tm  Tm1  1  0.829116  0.670884  0.500000  1
  Pa  Pa2  1  0.672524  0.172524  0.500000  1
  Pa  Pa3  1  0.327476  0.827476  0.500000  1
  Co  Co4  1  0.856257  0.356257  0.000000  1
  Co  Co5  1  0.143743  0.643743  0.000000  1
  Co  Co6  1  0.381826  0.118174  0.000000  1
  Co  Co7  1  0.618174  0.881826  0.000000  1
  Sn  Sn8  1  0.500000  0.500000  0.000000  1
  Sn  Sn9  1  0.000000  0.000000  0.000000  1
