# generated using pymatgen
data_La16Yb4(Ir3Ru)3
_symmetry_space_group_name_H-M   'P 1'
_cell_length_a   11.29247300
_cell_length_b   11.29247300
_cell_length_c   6.60518600
_cell_angle_alpha   90.00000000
_cell_angle_beta   90.00000000
_cell_angle_gamma   90.00000000
_symmetry_Int_Tables_number   1
_chemical_formula_structural   La16Yb4(Ir3Ru)3
_chemical_formula_sum   'La16 Yb4 Ir9 Ru3'
_cell_volume   842.29296505
_cell_formula_units_Z   1
loop_
 _symmetry_equiv_pos_site_id
 _symmetry_equiv_pos_as_xyz
  1  'x, y, z'
loop_
 _atom_site_type_symbol
 _atom_site_label
 _atom_site_symmetry_multiplicity
 _atom_site_fract_x
 _atom_site_fract_y
 _atom_site_fract_z
 _atom_site_occupancy
  La  La0  1  0.290742  0.088374  0.387750  1
  La  La1  1  0.290670  0.911765  0.888387  1
  La  La2  1  0.709330  0.088235  0.888387  1
  La  La3  1  0.709258  0.911626  0.387750  1
  La  La4  1  0.588235  0.790670  0.888387  1
  La  La5  1  0.588374  0.209258  0.387750  1
  La  La6  1  0.411626  0.790742  0.387750  1
  La  La7  1  0.411765  0.209330  0.888387  1
  La  La8  1  0.211309  0.410352  0.613367  1
  La  La9  1  0.210764  0.589494  0.110566  1
  La  La10  1  0.789236  0.410506  0.110566  1
  La  La11  1  0.788691  0.589648  0.613367  1
  La  La12  1  0.910506  0.710764  0.110566  1
  La  La13  1  0.910352  0.288691  0.613367  1
  La  La14  1  0.089648  0.711309  0.613367  1
  La  La15  1  0.089494  0.289236  0.110566  1
  Yb  Yb16  1  0.000000  0.000000  0.499898  1
  Yb  Yb17  1  0.000000  0.000000  0.000240  1
  Yb  Yb18  1  0.500000  0.500000  0.000240  1
  Yb  Yb19  1  0.500000  0.500000  0.499898  1
  Ir  Ir20  1  0.845303  0.155525  0.250278  1
  Ir  Ir21  1  0.845290  0.844409  0.749566  1
  Ir  Ir22  1  0.154710  0.155591  0.749566  1
  Ir  Ir23  1  0.154697  0.844475  0.250278  1
  Ir  Ir24  1  0.655591  0.345290  0.749566  1
  Ir  Ir25  1  0.655525  0.654697  0.250278  1
  Ir  Ir26  1  0.344475  0.345303  0.250278  1
  Ir  Ir27  1  0.344409  0.654710  0.749566  1
  Ir  Ir28  1  0.000000  0.500000  0.382036  1
  Ru  Ru29  1  0.500000  0.000000  0.116834  1
  Ru  Ru30  1  0.500000  0.000000  0.616689  1
  Ru  Ru31  1  0.000000  0.500000  0.884507  1
