# generated using pymatgen
data_YEr2Ta2Bi3O14
_symmetry_space_group_name_H-M   'P 1'
_cell_length_a   6.42870914
_cell_length_b   6.71935701
_cell_length_c   7.62345400
_cell_angle_alpha   106.69897690
_cell_angle_beta   89.51519063
_cell_angle_gamma   98.17622870
_symmetry_Int_Tables_number   1
_chemical_formula_structural   YEr2Ta2Bi3O14
_chemical_formula_sum   'Y1 Er2 Ta2 Bi3 O14'
_cell_volume   312.03245972
_cell_formula_units_Z   1
loop_
 _symmetry_equiv_pos_site_id
 _symmetry_equiv_pos_as_xyz
  1  'x, y, z'
loop_
 _atom_site_type_symbol
 _atom_site_label
 _atom_site_symmetry_multiplicity
 _atom_site_fract_x
 _atom_site_fract_y
 _atom_site_fract_z
 _atom_site_occupancy
  Y  Y0  1  0.548129  0.994289  0.755337  1
  Er  Er1  1  0.453999  0.003448  0.250416  1
  Er  Er2  1  0.253267  0.537447  0.883233  1
  Ta  Ta3  1  0.004380  0.009551  0.502333  1
  Ta  Ta4  1  0.006473  0.007981  0.000348  1
  Bi  Bi5  1  0.744667  0.489197  0.116021  1
  Bi  Bi6  1  0.724527  0.452559  0.610610  1
  Bi  Bi7  1  0.263637  0.540052  0.392170  1
  O  O8  1  0.444088  0.653504  0.165758  1
  O  O9  1  0.539058  0.342974  0.822599  1
  O  O10  1  0.295531  0.922024  0.952797  1
  O  O11  1  0.712872  0.039116  0.054530  1
  O  O12  1  0.290342  0.922717  0.512839  1
  O  O13  1  0.711153  0.080717  0.485659  1
  O  O14  1  0.521943  0.349531  0.346858  1
  O  O15  1  0.454917  0.644426  0.660229  1
  O  O16  1  0.937355  0.678449  0.955330  1
  O  O17  1  0.092147  0.304426  0.026332  1
  O  O18  1  0.094718  0.311939  0.626275  1
  O  O19  1  0.898044  0.706747  0.378185  1
  O  O20  1  0.911768  0.951987  0.738040  1
  O  O21  1  0.096985  0.056922  0.264099  1
