# generated using pymatgen
data_TbHoNb3P7Rh9
_symmetry_space_group_name_H-M   'P 1'
_cell_length_a   3.92433300
_cell_length_b   9.63806836
_cell_length_c   9.63414136
_cell_angle_alpha   120.01840972
_cell_angle_beta   89.99992756
_cell_angle_gamma   90.00046034
_symmetry_Int_Tables_number   1
_chemical_formula_structural   TbHoNb3P7Rh9
_chemical_formula_sum   'Tb1 Ho1 Nb3 P7 Rh9'
_cell_volume   315.51419700
_cell_formula_units_Z   1
loop_
 _symmetry_equiv_pos_site_id
 _symmetry_equiv_pos_as_xyz
  1  'x, y, z'
loop_
 _atom_site_type_symbol
 _atom_site_label
 _atom_site_symmetry_multiplicity
 _atom_site_fract_x
 _atom_site_fract_y
 _atom_site_fract_z
 _atom_site_occupancy
  Tb  Tb0  1  0.261400  0.666572  0.333301  1
  Ho  Ho1  1  0.762095  0.333473  0.666672  1
  Nb  Nb2  1  0.762006  0.095081  0.873640  1
  Nb  Nb3  1  0.762027  0.126264  0.221298  1
  Nb  Nb4  1  0.762009  0.778355  0.905001  1
  P  P5  1  0.262329  0.000106  0.000103  1
  P  P6  1  0.761659  0.876819  0.589874  1
  P  P7  1  0.761650  0.410063  0.286810  1
  P  P8  1  0.761659  0.713176  0.123009  1
  P  P9  1  0.262152  0.117022  0.416752  1
  P  P10  1  0.262158  0.583168  0.700363  1
  P  P11  1  0.262145  0.299757  0.883026  1
  Rh  Rh12  1  0.261900  0.883416  0.162385  1
  Rh  Rh13  1  0.261881  0.837419  0.721041  1
  Rh  Rh14  1  0.261893  0.279199  0.116625  1
  Rh  Rh15  1  0.761877  0.609888  0.556651  1
  Rh  Rh16  1  0.761858  0.443503  0.053407  1
  Rh  Rh17  1  0.761856  0.946930  0.390111  1
  Rh  Rh18  1  0.261845  0.367470  0.439552  1
  Rh  Rh19  1  0.261815  0.560360  0.928087  1
  Rh  Rh20  1  0.261786  0.071962  0.632289  1
