# generated using pymatgen
data_Nd4SiI5
_symmetry_space_group_name_H-M   'P 1'
_cell_length_a   10.04142180
_cell_length_b   10.04142189
_cell_length_c   9.04487300
_cell_angle_alpha   77.78109691
_cell_angle_beta   77.78109691
_cell_angle_gamma   24.97023007
_symmetry_Int_Tables_number   1
_chemical_formula_structural   Nd4SiI5
_chemical_formula_sum   'Nd4 Si1 I5'
_cell_volume   375.84214434
_cell_formula_units_Z   1
loop_
 _symmetry_equiv_pos_site_id
 _symmetry_equiv_pos_as_xyz
  1  'x, y, z'
loop_
 _atom_site_type_symbol
 _atom_site_label
 _atom_site_symmetry_multiplicity
 _atom_site_fract_x
 _atom_site_fract_y
 _atom_site_fract_z
 _atom_site_occupancy
  Nd  Nd0  1  0.853357  0.853357  0.075934  1
  Nd  Nd1  1  0.146643  0.146643  0.924066  1
  Nd  Nd2  1  0.501290  0.501290  0.213167  1
  Nd  Nd3  1  0.498710  0.498710  0.786833  1
  Si  Si4  1  0.000000  0.000000  0.000000  1
  I  I5  1  0.672174  0.672174  0.169996  1
  I  I6  1  0.327826  0.327826  0.830004  1
  I  I7  1  0.665387  0.665387  0.662186  1
  I  I8  1  0.334613  0.334613  0.337814  1
  I  I9  1  0.000000  0.000000  0.500000  1
