# generated using pymatgen
data_Ba4YPdO8
_symmetry_space_group_name_H-M   'P 1'
_cell_length_a   7.40684706
_cell_length_b   7.40684525
_cell_length_c   5.98255900
_cell_angle_alpha   90.00000000
_cell_angle_beta   90.00000000
_cell_angle_gamma   132.52130912
_symmetry_Int_Tables_number   1
_chemical_formula_structural   Ba4YPdO8
_chemical_formula_sum   'Ba4 Y1 Pd1 O8'
_cell_volume   241.90033051
_cell_formula_units_Z   1
loop_
 _symmetry_equiv_pos_site_id
 _symmetry_equiv_pos_as_xyz
  1  'x, y, z'
loop_
 _atom_site_type_symbol
 _atom_site_label
 _atom_site_symmetry_multiplicity
 _atom_site_fract_x
 _atom_site_fract_y
 _atom_site_fract_z
 _atom_site_occupancy
  Ba  Ba0  1  0.357190  0.642810  0.000000  1
  Ba  Ba1  1  0.855034  0.144966  0.500000  1
  Ba  Ba2  1  0.144966  0.855034  0.500000  1
  Ba  Ba3  1  0.642810  0.357190  0.000000  1
  Y  Y4  1  0.000000  0.000000  0.000000  1
  Pd  Pd5  1  0.500000  0.500000  0.500000  1
  O  O6  1  0.259797  0.259797  0.735963  1
  O  O7  1  0.740203  0.740203  0.264037  1
  O  O8  1  0.740203  0.740203  0.735963  1
  O  O9  1  0.259797  0.259797  0.264037  1
  O  O10  1  0.166496  0.833504  0.000000  1
  O  O11  1  0.653536  0.346464  0.500000  1
  O  O12  1  0.346464  0.653536  0.500000  1
  O  O13  1  0.833504  0.166496  0.000000  1
