# generated using pymatgen
data_Na4Al2Se5
_symmetry_space_group_name_H-M   'P 1'
_cell_length_a   6.48738000
_cell_length_b   8.45072856
_cell_length_c   21.11858800
_cell_angle_alpha   88.63116790
_cell_angle_beta   90.00000000
_cell_angle_gamma   90.00000000
_symmetry_Int_Tables_number   1
_chemical_formula_structural   Na4Al2Se5
_chemical_formula_sum   'Na16 Al8 Se20'
_cell_volume   1157.45580255
_cell_formula_units_Z   4
loop_
 _symmetry_equiv_pos_site_id
 _symmetry_equiv_pos_as_xyz
  1  'x, y, z'
loop_
 _atom_site_type_symbol
 _atom_site_label
 _atom_site_symmetry_multiplicity
 _atom_site_fract_x
 _atom_site_fract_y
 _atom_site_fract_z
 _atom_site_occupancy
  Na  Na0  1  0.743032  0.075466  0.956808  1
  Na  Na1  1  0.243032  0.924534  0.543192  1
  Na  Na2  1  0.256968  0.924534  0.043192  1
  Na  Na3  1  0.756968  0.075466  0.456808  1
  Na  Na4  1  0.458448  0.402702  0.897249  1
  Na  Na5  1  0.958448  0.597298  0.602751  1
  Na  Na6  1  0.541552  0.597298  0.102751  1
  Na  Na7  1  0.041552  0.402702  0.397249  1
  Na  Na8  1  0.475022  0.345192  0.716521  1
  Na  Na9  1  0.975022  0.654808  0.783479  1
  Na  Na10  1  0.524978  0.654808  0.283479  1
  Na  Na11  1  0.024978  0.345192  0.216521  1
  Na  Na12  1  0.499746  0.889941  0.701187  1
  Na  Na13  1  0.999746  0.110059  0.798813  1
  Na  Na14  1  0.500254  0.110059  0.298813  1
  Na  Na15  1  0.000254  0.889941  0.201187  1
  Al  Al16  1  0.083553  0.348931  0.035779  1
  Al  Al17  1  0.916447  0.651069  0.964221  1
  Al  Al18  1  0.416447  0.348931  0.535779  1
  Al  Al19  1  0.067888  0.832451  0.366325  1
  Al  Al20  1  0.567888  0.167549  0.133675  1
  Al  Al21  1  0.932112  0.167549  0.633675  1
  Al  Al22  1  0.432112  0.832451  0.866325  1
  Al  Al23  1  0.583553  0.651069  0.464221  1
  Se  Se24  1  0.523961  0.387490  0.425604  1
  Se  Se25  1  0.976039  0.387490  0.925604  1
  Se  Se26  1  0.476039  0.612510  0.574396  1
  Se  Se27  1  0.015227  0.632088  0.292488  1
  Se  Se28  1  0.515227  0.367912  0.207512  1
  Se  Se29  1  0.984773  0.367912  0.707512  1
  Se  Se30  1  0.023961  0.612510  0.074396  1
  Se  Se31  1  0.484773  0.632088  0.792488  1
  Se  Se32  1  0.571688  0.137540  0.597733  1
  Se  Se33  1  0.071688  0.862460  0.902267  1
  Se  Se34  1  0.428312  0.862460  0.402267  1
  Se  Se35  1  0.928312  0.137540  0.097733  1
  Se  Se36  1  0.566426  0.741536  0.970042  1
  Se  Se37  1  0.066426  0.258464  0.529958  1
  Se  Se38  1  0.433574  0.258464  0.029958  1
  Se  Se39  1  0.933574  0.741536  0.470042  1
  Se  Se40  1  0.523249  0.090455  0.828085  1
  Se  Se41  1  0.023249  0.909545  0.671915  1
  Se  Se42  1  0.476751  0.909545  0.171915  1
  Se  Se43  1  0.976751  0.090455  0.328085  1
