# generated using pymatgen
data_PrNd(Er2Rh9)2
_symmetry_space_group_name_H-M   'P 1'
_cell_length_a   5.28741011
_cell_length_b   5.28768055
_cell_length_c   17.45841000
_cell_angle_alpha   90.00000000
_cell_angle_beta   90.00000000
_cell_angle_gamma   119.97221684
_symmetry_Int_Tables_number   1
_chemical_formula_structural   PrNd(Er2Rh9)2
_chemical_formula_sum   'Pr1 Nd1 Er4 Rh18'
_cell_volume   422.82927187
_cell_formula_units_Z   1
loop_
 _symmetry_equiv_pos_site_id
 _symmetry_equiv_pos_as_xyz
  1  'x, y, z'
loop_
 _atom_site_type_symbol
 _atom_site_label
 _atom_site_symmetry_multiplicity
 _atom_site_fract_x
 _atom_site_fract_y
 _atom_site_fract_z
 _atom_site_occupancy
  Pr  Pr0  1  0.333911  0.667360  0.750000  1
  Nd  Nd1  1  0.666418  0.332886  0.250000  1
  Er  Er2  1  0.333315  0.666734  0.541076  1
  Er  Er3  1  0.666502  0.333148  0.041187  1
  Er  Er4  1  0.666502  0.333148  0.458813  1
  Er  Er5  1  0.333315  0.666734  0.958924  1
  Rh  Rh6  1  0.167305  0.334739  0.124643  1
  Rh  Rh7  1  0.832853  0.665378  0.624605  1
  Rh  Rh8  1  0.664587  0.832178  0.124543  1
  Rh  Rh9  1  0.167167  0.831932  0.124459  1
  Rh  Rh10  1  0.833027  0.168164  0.624346  1
  Rh  Rh11  1  0.335465  0.167842  0.624126  1
  Rh  Rh12  1  0.832853  0.665378  0.875395  1
  Rh  Rh13  1  0.833027  0.168164  0.875654  1
  Rh  Rh14  1  0.335465  0.167842  0.875874  1
  Rh  Rh15  1  0.664587  0.832178  0.375457  1
  Rh  Rh16  1  0.167167  0.831932  0.375541  1
  Rh  Rh17  1  0.167305  0.334739  0.375357  1
  Rh  Rh18  1  0.999869  0.999041  0.250000  1
  Rh  Rh19  1  0.001483  0.001938  0.750000  1
  Rh  Rh20  1  0.333173  0.666941  0.250000  1
  Rh  Rh21  1  0.665573  0.332222  0.750000  1
  Rh  Rh22  1  0.999566  0.999691  0.000047  1
  Rh  Rh23  1  0.999566  0.999691  0.499953  1
