# generated using pymatgen
data_VFeBr8
_symmetry_space_group_name_H-M   'P 1'
_cell_length_a   9.38659400
_cell_length_b   7.28198276
_cell_length_c   8.36430392
_cell_angle_alpha   73.20754306
_cell_angle_beta   101.58159113
_cell_angle_gamma   112.02649421
_symmetry_Int_Tables_number   1
_chemical_formula_structural   VFeBr8
_chemical_formula_sum   'V1 Fe1 Br8'
_cell_volume   504.63680151
_cell_formula_units_Z   1
loop_
 _symmetry_equiv_pos_site_id
 _symmetry_equiv_pos_as_xyz
  1  'x, y, z'
loop_
 _atom_site_type_symbol
 _atom_site_label
 _atom_site_symmetry_multiplicity
 _atom_site_fract_x
 _atom_site_fract_y
 _atom_site_fract_z
 _atom_site_occupancy
  V  V0  1  0.726948  0.751498  0.544554  1
  Fe  Fe1  1  0.095784  0.553332  0.093454  1
  Br  Br2  1  0.267041  0.395178  0.269309  1
  Br  Br3  1  0.928018  0.876390  0.392403  1
  Br  Br4  1  0.531685  0.846710  0.385487  1
  Br  Br5  1  0.642134  0.407180  0.605400  1
  Br  Br6  1  0.846748  0.383603  0.180809  1
  Br  Br7  1  0.790126  0.868397  0.780313  1
  Br  Br8  1  0.173929  0.893508  0.113219  1
  Br  Br9  1  0.094401  0.543810  0.816686  1
