# generated using pymatgen
data_Y4ErIr2Pt
_symmetry_space_group_name_H-M   'P 1'
_cell_length_a   11.00932000
_cell_length_b   11.00932000
_cell_length_c   6.34876900
_cell_angle_alpha   90.00000000
_cell_angle_beta   90.00000000
_cell_angle_gamma   90.00000000
_symmetry_Int_Tables_number   1
_chemical_formula_structural   Y4ErIr2Pt
_chemical_formula_sum   'Y16 Er4 Ir8 Pt4'
_cell_volume   769.50335207
_cell_formula_units_Z   4
loop_
 _symmetry_equiv_pos_site_id
 _symmetry_equiv_pos_as_xyz
  1  'x, y, z'
loop_
 _atom_site_type_symbol
 _atom_site_label
 _atom_site_symmetry_multiplicity
 _atom_site_fract_x
 _atom_site_fract_y
 _atom_site_fract_z
 _atom_site_occupancy
  Y  Y0  1  0.294944  0.089747  0.373063  1
  Y  Y1  1  0.294944  0.910253  0.873063  1
  Y  Y2  1  0.705056  0.089747  0.873063  1
  Y  Y3  1  0.705056  0.910253  0.373063  1
  Y  Y4  1  0.585490  0.790105  0.878558  1
  Y  Y5  1  0.585490  0.209895  0.378558  1
  Y  Y6  1  0.414510  0.790105  0.378558  1
  Y  Y7  1  0.414510  0.209895  0.878558  1
  Y  Y8  1  0.209895  0.414510  0.621442  1
  Y  Y9  1  0.209895  0.585490  0.121442  1
  Y  Y10  1  0.790105  0.414510  0.121442  1
  Y  Y11  1  0.790105  0.585490  0.621442  1
  Y  Y12  1  0.910253  0.705056  0.126937  1
  Y  Y13  1  0.910253  0.294944  0.626937  1
  Y  Y14  1  0.089747  0.705056  0.626937  1
  Y  Y15  1  0.089747  0.294944  0.126937  1
  Er  Er16  1  0.000000  0.000000  0.500000  1
  Er  Er17  1  0.000000  0.000000  0.000000  1
  Er  Er18  1  0.500000  0.500000  0.000000  1
  Er  Er19  1  0.500000  0.500000  0.500000  1
  Ir  Ir20  1  0.652840  0.347160  0.750000  1
  Ir  Ir21  1  0.652840  0.652840  0.250000  1
  Ir  Ir22  1  0.347160  0.347160  0.250000  1
  Ir  Ir23  1  0.347160  0.652840  0.750000  1
  Ir  Ir24  1  0.500000  0.000000  0.124408  1
  Ir  Ir25  1  0.500000  0.000000  0.624408  1
  Ir  Ir26  1  0.000000  0.500000  0.875592  1
  Ir  Ir27  1  0.000000  0.500000  0.375592  1
  Pt  Pt28  1  0.848975  0.151025  0.250000  1
  Pt  Pt29  1  0.848975  0.848975  0.750000  1
  Pt  Pt30  1  0.151025  0.151025  0.750000  1
  Pt  Pt31  1  0.151025  0.848975  0.250000  1
