# generated using pymatgen
data_Ba2HoPa3Se10
_symmetry_space_group_name_H-M   'P 1'
_cell_length_a   7.88750200
_cell_length_b   8.87942801
_cell_length_c   12.40728900
_cell_angle_alpha   89.61160599
_cell_angle_beta   90.00000000
_cell_angle_gamma   90.00000000
_symmetry_Int_Tables_number   1
_chemical_formula_structural   Ba2HoPa3Se10
_chemical_formula_sum   'Ba4 Ho2 Pa6 Se20'
_cell_volume   868.94320789
_cell_formula_units_Z   2
loop_
 _symmetry_equiv_pos_site_id
 _symmetry_equiv_pos_as_xyz
  1  'x, y, z'
loop_
 _atom_site_type_symbol
 _atom_site_label
 _atom_site_symmetry_multiplicity
 _atom_site_fract_x
 _atom_site_fract_y
 _atom_site_fract_z
 _atom_site_occupancy
  Ba  Ba0  1  0.057071  0.492883  0.332496  1
  Ba  Ba1  1  0.557071  0.507117  0.167504  1
  Ba  Ba2  1  0.946488  0.508779  0.669896  1
  Ba  Ba3  1  0.446488  0.491221  0.830104  1
  Ho  Ho4  1  0.928956  0.246143  0.992374  1
  Ho  Ho5  1  0.428956  0.753857  0.507626  1
  Pa  Pa6  1  0.024525  0.996758  0.318169  1
  Pa  Pa7  1  0.524525  0.003242  0.181831  1
  Pa  Pa8  1  0.974700  0.001295  0.684134  1
  Pa  Pa9  1  0.474700  0.998705  0.815866  1
  Pa  Pa10  1  0.067042  0.755491  0.007618  1
  Pa  Pa11  1  0.567042  0.244509  0.492382  1
  Se  Se12  1  0.664841  0.959820  0.400464  1
  Se  Se13  1  0.164841  0.040180  0.099536  1
  Se  Se14  1  0.335667  0.044657  0.596600  1
  Se  Se15  1  0.835667  0.955343  0.903400  1
  Se  Se16  1  0.450332  0.794060  0.000694  1
  Se  Se17  1  0.950332  0.205940  0.499306  1
  Se  Se18  1  0.546683  0.206664  0.996377  1
  Se  Se19  1  0.046683  0.793336  0.503623  1
  Se  Se20  1  0.837628  0.782920  0.186786  1
  Se  Se21  1  0.337628  0.217080  0.313214  1
  Se  Se22  1  0.161957  0.213599  0.812733  1
  Se  Se23  1  0.661957  0.786401  0.687267  1
  Se  Se24  1  0.312586  0.776593  0.284782  1
  Se  Se25  1  0.812586  0.223407  0.215218  1
  Se  Se26  1  0.688752  0.225338  0.713208  1
  Se  Se27  1  0.188752  0.774662  0.786792  1
  Se  Se28  1  0.179412  0.469734  0.072820  1
  Se  Se29  1  0.679412  0.530266  0.427180  1
  Se  Se30  1  0.823361  0.539993  0.928298  1
  Se  Se31  1  0.323361  0.460007  0.571702  1
