# generated using pymatgen
data_Yb2ZrO4
_symmetry_space_group_name_H-M   'P 1'
_cell_length_a   5.67977600
_cell_length_b   9.77234200
_cell_length_c   3.29513900
_cell_angle_alpha   90.00000000
_cell_angle_beta   90.00000000
_cell_angle_gamma   90.00000000
_symmetry_Int_Tables_number   1
_chemical_formula_structural   Yb2ZrO4
_chemical_formula_sum   'Yb4 Zr2 O8'
_cell_volume   182.89574632
_cell_formula_units_Z   2
loop_
 _symmetry_equiv_pos_site_id
 _symmetry_equiv_pos_as_xyz
  1  'x, y, z'
loop_
 _atom_site_type_symbol
 _atom_site_label
 _atom_site_symmetry_multiplicity
 _atom_site_fract_x
 _atom_site_fract_y
 _atom_site_fract_z
 _atom_site_occupancy
  Yb  Yb0  1  0.567407  0.180812  0.500001  1
  Yb  Yb1  1  0.067406  0.319188  0.500001  1
  Yb  Yb2  1  0.932594  0.680813  0.500001  1
  Yb  Yb3  1  0.432593  0.819187  0.500001  1
  Zr  Zr4  1  0.000000  0.000000  0.000000  1
  Zr  Zr5  1  0.500001  0.500000  0.000000  1
  O  O6  1  0.859002  0.197756  0.000000  1
  O  O7  1  0.359001  0.302244  0.000000  1
  O  O8  1  0.640999  0.697757  0.000000  1
  O  O9  1  0.140998  0.802244  0.000000  1
  O  O10  1  0.234980  0.044253  0.500001  1
  O  O11  1  0.734980  0.455748  0.500001  1
  O  O12  1  0.265021  0.544253  0.500001  1
  O  O13  1  0.765020  0.955747  0.500001  1
