# generated using pymatgen
data_Nd2Tm3S7
_symmetry_space_group_name_H-M   'P 1'
_cell_length_a   6.55807781
_cell_length_b   6.55807777
_cell_length_c   11.68558200
_cell_angle_alpha   75.82923238
_cell_angle_beta   75.82923247
_cell_angle_gamma   34.02150575
_symmetry_Int_Tables_number   1
_chemical_formula_structural   Nd2Tm3S7
_chemical_formula_sum   'Nd2 Tm3 S7'
_cell_volume   271.82312461
_cell_formula_units_Z   1
loop_
 _symmetry_equiv_pos_site_id
 _symmetry_equiv_pos_as_xyz
  1  'x, y, z'
loop_
 _atom_site_type_symbol
 _atom_site_label
 _atom_site_symmetry_multiplicity
 _atom_site_fract_x
 _atom_site_fract_y
 _atom_site_fract_z
 _atom_site_occupancy
  Nd  Nd0  1  0.302077  0.302077  0.805460  1
  Nd  Nd1  1  0.697923  0.697923  0.194540  1
  Tm  Tm2  1  0.112447  0.112447  0.575005  1
  Tm  Tm3  1  0.887553  0.887553  0.424995  1
  Tm  Tm4  1  0.000000  0.000000  0.000000  1
  S  S5  1  0.262477  0.262477  0.359003  1
  S  S6  1  0.737523  0.737523  0.640997  1
  S  S7  1  0.971729  0.971729  0.783595  1
  S  S8  1  0.028271  0.028271  0.216405  1
  S  S9  1  0.655381  0.655381  0.950750  1
  S  S10  1  0.500000  0.500000  0.500000  1
  S  S11  1  0.344619  0.344619  0.049250  1
