# generated using pymatgen
data_La16MgNi(HgOs)3
_symmetry_space_group_name_H-M   'P 1'
_cell_length_a   10.00447686
_cell_length_b   10.15530245
_cell_length_c   10.15530200
_cell_angle_alpha   60.00000148
_cell_angle_beta   59.50003197
_cell_angle_gamma   59.50003205
_symmetry_Int_Tables_number   1
_chemical_formula_structural   La16MgNi(HgOs)3
_chemical_formula_sum   'La16 Mg1 Ni1 Hg3 Os3'
_cell_volume   724.00481311
_cell_formula_units_Z   1
loop_
 _symmetry_equiv_pos_site_id
 _symmetry_equiv_pos_as_xyz
  1  'x, y, z'
loop_
 _atom_site_type_symbol
 _atom_site_label
 _atom_site_symmetry_multiplicity
 _atom_site_fract_x
 _atom_site_fract_y
 _atom_site_fract_z
 _atom_site_occupancy
  La  La0  1  0.808941  0.192034  0.192034  1
  La  La1  1  0.184656  0.813464  0.813464  1
  La  La2  1  0.184656  0.813464  0.188416  1
  La  La3  1  0.808941  0.192034  0.806992  1
  La  La4  1  0.184656  0.188416  0.813464  1
  La  La5  1  0.808941  0.806992  0.192034  1
  La  La6  1  0.940668  0.559235  0.559235  1
  La  La7  1  0.552036  0.941347  0.941347  1
  La  La8  1  0.552036  0.941347  0.565272  1
  La  La9  1  0.940668  0.559235  0.940864  1
  La  La10  1  0.552036  0.565272  0.941347  1
  La  La11  1  0.940668  0.940864  0.559235  1
  La  La12  1  0.348306  0.345631  0.345631  1
  La  La13  1  0.348306  0.345631  0.960435  1
  La  La14  1  0.348306  0.960435  0.345631  1
  La  La15  1  0.956914  0.347695  0.347695  1
  Mg  Mg16  1  0.289644  0.570119  0.570119  1
  Ni  Ni17  1  0.580968  0.139677  0.139677  1
  Hg  Hg18  1  0.580198  0.586202  0.586202  1
  Hg  Hg19  1  0.580198  0.586202  0.247398  1
  Hg  Hg20  1  0.580198  0.247398  0.586202  1
  Os  Os21  1  0.142688  0.137516  0.137516  1
  Os  Os22  1  0.142688  0.137516  0.582279  1
  Os  Os23  1  0.142688  0.582279  0.137516  1
