# generated using pymatgen
data_Sm4Ga4Co12B3C
_symmetry_space_group_name_H-M   'P 1'
_cell_length_a   5.21356900
_cell_length_b   5.21356821
_cell_length_c   13.27614600
_cell_angle_alpha   90.00000000
_cell_angle_beta   90.00000000
_cell_angle_gamma   120.00001134
_symmetry_Int_Tables_number   1
_chemical_formula_structural   Sm4Ga4Co12B3C
_chemical_formula_sum   'Sm4 Ga4 Co12 B3 C1'
_cell_volume   312.51638178
_cell_formula_units_Z   1
loop_
 _symmetry_equiv_pos_site_id
 _symmetry_equiv_pos_as_xyz
  1  'x, y, z'
loop_
 _atom_site_type_symbol
 _atom_site_label
 _atom_site_symmetry_multiplicity
 _atom_site_fract_x
 _atom_site_fract_y
 _atom_site_fract_z
 _atom_site_occupancy
  Sm  Sm0  1  0.666667  0.333333  0.250450  1
  Sm  Sm1  1  0.666667  0.333333  0.749550  1
  Sm  Sm2  1  0.666667  0.333333  0.000000  1
  Sm  Sm3  1  0.666667  0.333333  0.500000  1
  Ga  Ga4  1  0.000000  0.000000  0.750509  1
  Ga  Ga5  1  0.000000  0.000000  0.249491  1
  Ga  Ga6  1  0.333333  0.666667  0.247468  1
  Ga  Ga7  1  0.333333  0.666667  0.752532  1
  Co  Co8  1  0.671918  0.835960  0.099185  1
  Co  Co9  1  0.666166  0.833083  0.603117  1
  Co  Co10  1  0.164040  0.835960  0.099185  1
  Co  Co11  1  0.166917  0.833083  0.603117  1
  Co  Co12  1  0.164040  0.328082  0.099185  1
  Co  Co13  1  0.166917  0.333834  0.603117  1
  Co  Co14  1  0.671918  0.835960  0.900815  1
  Co  Co15  1  0.666166  0.833083  0.396883  1
  Co  Co16  1  0.164040  0.835960  0.900815  1
  Co  Co17  1  0.166917  0.833083  0.396883  1
  Co  Co18  1  0.164040  0.328082  0.900815  1
  Co  Co19  1  0.166917  0.333834  0.396883  1
  B  B20  1  0.000000  0.000000  0.500000  1
  B  B21  1  0.333333  0.666667  0.000000  1
  B  B22  1  0.333333  0.666667  0.500000  1
  C  C23  1  0.000000  0.000000  0.000000  1
