# generated using pymatgen
data_Hf8Ge6Mo2C
_symmetry_space_group_name_H-M   'P 1'
_cell_length_a   7.87897600
_cell_length_b   7.87897518
_cell_length_c   5.46017100
_cell_angle_alpha   90.00000000
_cell_angle_beta   90.00000000
_cell_angle_gamma   119.99999505
_symmetry_Int_Tables_number   1
_chemical_formula_structural   Hf8Ge6Mo2C
_chemical_formula_sum   'Hf8 Ge6 Mo2 C1'
_cell_volume   293.54616247
_cell_formula_units_Z   1
loop_
 _symmetry_equiv_pos_site_id
 _symmetry_equiv_pos_as_xyz
  1  'x, y, z'
loop_
 _atom_site_type_symbol
 _atom_site_label
 _atom_site_symmetry_multiplicity
 _atom_site_fract_x
 _atom_site_fract_y
 _atom_site_fract_z
 _atom_site_occupancy
  Hf  Hf0  1  0.000000  0.759241  0.257883  1
  Hf  Hf1  1  0.240759  0.240759  0.257883  1
  Hf  Hf2  1  0.759241  0.000000  0.257883  1
  Hf  Hf3  1  0.000000  0.240759  0.742117  1
  Hf  Hf4  1  0.759241  0.759241  0.742117  1
  Hf  Hf5  1  0.240759  0.000000  0.742117  1
  Hf  Hf6  1  0.333333  0.666667  0.000000  1
  Hf  Hf7  1  0.666667  0.333333  0.000000  1
  Ge  Ge8  1  0.000000  0.399764  0.257590  1
  Ge  Ge9  1  0.600236  0.600236  0.257590  1
  Ge  Ge10  1  0.399764  0.000000  0.257590  1
  Ge  Ge11  1  0.000000  0.600236  0.742410  1
  Ge  Ge12  1  0.399764  0.399764  0.742410  1
  Ge  Ge13  1  0.600236  0.000000  0.742410  1
  Mo  Mo14  1  0.666667  0.333333  0.500000  1
  Mo  Mo15  1  0.333333  0.666667  0.500000  1
  C  C16  1  0.000000  0.000000  0.500000  1
