# generated using pymatgen
data_CeDy5TcRu
_symmetry_space_group_name_H-M   'P 1'
_cell_length_a   6.32868500
_cell_length_b   7.23567800
_cell_length_c   9.38158000
_cell_angle_alpha   90.00000000
_cell_angle_beta   90.00000000
_cell_angle_gamma   90.00000000
_symmetry_Int_Tables_number   1
_chemical_formula_structural   CeDy5TcRu
_chemical_formula_sum   'Ce2 Dy10 Tc2 Ru2'
_cell_volume   429.60437748
_cell_formula_units_Z   2
loop_
 _symmetry_equiv_pos_site_id
 _symmetry_equiv_pos_as_xyz
  1  'x, y, z'
loop_
 _atom_site_type_symbol
 _atom_site_label
 _atom_site_symmetry_multiplicity
 _atom_site_fract_x
 _atom_site_fract_y
 _atom_site_fract_z
 _atom_site_occupancy
  Ce  Ce0  1  0.865123  0.556562  0.250000  1
  Ce  Ce1  1  0.634877  0.056562  0.250000  1
  Dy  Dy2  1  0.333895  0.678447  0.062958  1
  Dy  Dy3  1  0.166105  0.178447  0.437042  1
  Dy  Dy4  1  0.670716  0.324423  0.568516  1
  Dy  Dy5  1  0.829284  0.824423  0.931484  1
  Dy  Dy6  1  0.670716  0.324423  0.931484  1
  Dy  Dy7  1  0.829284  0.824423  0.568516  1
  Dy  Dy8  1  0.333895  0.678447  0.437042  1
  Dy  Dy9  1  0.166105  0.178447  0.062958  1
  Dy  Dy10  1  0.139393  0.458580  0.750000  1
  Dy  Dy11  1  0.360607  0.958580  0.750000  1
  Tc  Tc12  1  0.000131  0.863951  0.250000  1
  Tc  Tc13  1  0.499869  0.363951  0.250000  1
  Ru  Ru14  1  0.960271  0.115164  0.750000  1
  Ru  Ru15  1  0.539729  0.615164  0.750000  1
