# generated using pymatgen
data_Re8Si3P
_symmetry_space_group_name_H-M   'P 1'
_cell_length_a   2.94630100
_cell_length_b   5.70039742
_cell_length_c   10.04819738
_cell_angle_alpha   89.86781162
_cell_angle_beta   90.00000000
_cell_angle_gamma   90.00000000
_symmetry_Int_Tables_number   1
_chemical_formula_structural   Re8Si3P
_chemical_formula_sum   'Re8 Si3 P1'
_cell_volume   168.75989617
_cell_formula_units_Z   1
loop_
 _symmetry_equiv_pos_site_id
 _symmetry_equiv_pos_as_xyz
  1  'x, y, z'
loop_
 _atom_site_type_symbol
 _atom_site_label
 _atom_site_symmetry_multiplicity
 _atom_site_fract_x
 _atom_site_fract_y
 _atom_site_fract_z
 _atom_site_occupancy
  Re  Re0  1  0.250000  0.835632  0.933724  1
  Re  Re1  1  0.250000  0.334568  0.560470  1
  Re  Re2  1  0.750000  0.162191  0.064598  1
  Re  Re3  1  0.750000  0.676719  0.434251  1
  Re  Re4  1  0.250000  0.861021  0.218507  1
  Re  Re5  1  0.250000  0.357214  0.286274  1
  Re  Re6  1  0.750000  0.138239  0.780332  1
  Re  Re7  1  0.750000  0.631557  0.718274  1
  Si  Si8  1  0.250000  0.408414  0.900330  1
  Si  Si9  1  0.250000  0.910800  0.606294  1
  Si  Si10  1  0.750000  0.589326  0.098849  1
  P  P11  1  0.750000  0.094317  0.398096  1
