# generated using pymatgen
data_Nd6Ga4Pd3Pt10
_symmetry_space_group_name_H-M   'P 1'
_cell_length_a   8.41676817
_cell_length_b   8.41676912
_cell_length_c   8.41676942
_cell_angle_alpha   109.49970820
_cell_angle_beta   109.49970218
_cell_angle_gamma   109.49971552
_symmetry_Int_Tables_number   1
_chemical_formula_structural   Nd6Ga4Pd3Pt10
_chemical_formula_sum   'Nd6 Ga4 Pd3 Pt10'
_cell_volume   458.51695931
_cell_formula_units_Z   1
loop_
 _symmetry_equiv_pos_site_id
 _symmetry_equiv_pos_as_xyz
  1  'x, y, z'
loop_
 _atom_site_type_symbol
 _atom_site_label
 _atom_site_symmetry_multiplicity
 _atom_site_fract_x
 _atom_site_fract_y
 _atom_site_fract_z
 _atom_site_occupancy
  Nd  Nd0  1  0.698436  0.698436  0.001618  1
  Nd  Nd1  1  0.299701  0.999287  0.299701  1
  Nd  Nd2  1  0.999287  0.299701  0.299701  1
  Nd  Nd3  1  0.299701  0.299701  0.999287  1
  Nd  Nd4  1  0.698436  0.001618  0.698436  1
  Nd  Nd5  1  0.001618  0.698436  0.698436  1
  Ga  Ga6  1  0.999288  0.999288  0.499681  1
  Ga  Ga7  1  0.999288  0.499681  0.999288  1
  Ga  Ga8  1  0.499681  0.999288  0.999288  1
  Ga  Ga9  1  0.500008  0.500008  0.500008  1
  Pd  Pd10  1  0.676286  0.676286  0.351916  1
  Pd  Pd11  1  0.676286  0.351916  0.676286  1
  Pd  Pd12  1  0.351916  0.676286  0.676286  1
  Pt  Pt13  1  0.323025  0.323025  0.642768  1
  Pt  Pt14  1  0.680381  0.002880  0.324495  1
  Pt  Pt15  1  0.002880  0.680381  0.324495  1
  Pt  Pt16  1  0.680381  0.324495  0.002880  1
  Pt  Pt17  1  0.323025  0.642768  0.323025  1
  Pt  Pt18  1  0.002880  0.324495  0.680381  1
  Pt  Pt19  1  0.324495  0.680381  0.002880  1
  Pt  Pt20  1  0.324495  0.002880  0.680381  1
  Pt  Pt21  1  0.642768  0.323025  0.323025  1
  Pt  Pt22  1  0.995739  0.995739  0.995739  1
