# generated using pymatgen
data_Ce2B4IrOs3
_symmetry_space_group_name_H-M   'P 1'
_cell_length_a   6.80632263
_cell_length_b   6.03774507
_cell_length_c   5.57602904
_cell_angle_alpha   71.62980137
_cell_angle_beta   57.33847923
_cell_angle_gamma   51.49282137
_symmetry_Int_Tables_number   1
_chemical_formula_structural   Ce2B4IrOs3
_chemical_formula_sum   'Ce2 B4 Ir1 Os3'
_cell_volume   150.88377028
_cell_formula_units_Z   1
loop_
 _symmetry_equiv_pos_site_id
 _symmetry_equiv_pos_as_xyz
  1  'x, y, z'
loop_
 _atom_site_type_symbol
 _atom_site_label
 _atom_site_symmetry_multiplicity
 _atom_site_fract_x
 _atom_site_fract_y
 _atom_site_fract_z
 _atom_site_occupancy
  Ce  Ce0  1  0.001498  0.001498  0.998502  1
  Ce  Ce1  1  0.251990  0.251990  0.248010  1
  B  B2  1  0.312933  0.683058  0.313672  1
  B  B3  1  0.683058  0.312933  0.690336  1
  B  B4  1  0.568436  0.932372  0.568378  1
  B  B5  1  0.932372  0.568436  0.930814  1
  Ir  Ir6  1  0.636300  0.636300  0.363700  1
  Os  Os7  1  0.363003  0.363003  0.636997  1
  Os  Os8  1  0.612991  0.612991  0.887009  1
  Os  Os9  1  0.887418  0.887418  0.612582  1
