# generated using pymatgen
data_Tb6Ho10Tl5InIr2
_symmetry_space_group_name_H-M   'P 1'
_cell_length_a   10.37792524
_cell_length_b   10.37773082
_cell_length_c   7.16934917
_cell_angle_alpha   89.98154852
_cell_angle_beta   90.01787919
_cell_angle_gamma   119.93998621
_symmetry_Int_Tables_number   1
_chemical_formula_structural   Tb6Ho10Tl5InIr2
_chemical_formula_sum   'Tb6 Ho10 Tl5 In1 Ir2'
_cell_volume   669.09162224
_cell_formula_units_Z   1
loop_
 _symmetry_equiv_pos_site_id
 _symmetry_equiv_pos_as_xyz
  1  'x, y, z'
loop_
 _atom_site_type_symbol
 _atom_site_label
 _atom_site_symmetry_multiplicity
 _atom_site_fract_x
 _atom_site_fract_y
 _atom_site_fract_z
 _atom_site_occupancy
  Tb  Tb0  1  0.534010  0.069877  0.506404  1
  Tb  Tb1  1  0.930120  0.465997  0.506391  1
  Tb  Tb2  1  0.535286  0.464710  0.507695  1
  Tb  Tb3  1  0.464884  0.929454  0.007575  1
  Tb  Tb4  1  0.070547  0.535107  0.007563  1
  Tb  Tb5  1  0.464522  0.535468  0.007509  1
  Ho  Ho6  1  0.175719  0.351937  0.708628  1
  Ho  Ho7  1  0.648069  0.824290  0.708639  1
  Ho  Ho8  1  0.176044  0.823963  0.710211  1
  Ho  Ho9  1  0.823166  0.647439  0.208458  1
  Ho  Ho10  1  0.352544  0.176802  0.208476  1
  Ho  Ho11  1  0.824006  0.175993  0.209189  1
  Ho  Ho12  1  0.666856  0.333146  0.890493  1
  Ho  Ho13  1  0.333045  0.666960  0.390496  1
  Ho  Ho14  1  0.000971  0.999031  0.489029  1
  Ho  Ho15  1  0.000672  0.999337  0.990624  1
  Tl  Tl16  1  0.836796  0.673681  0.758207  1
  Tl  Tl17  1  0.326328  0.163210  0.758221  1
  Tl  Tl18  1  0.836812  0.163203  0.758098  1
  Tl  Tl19  1  0.163068  0.326329  0.258737  1
  Tl  Tl20  1  0.673670  0.836934  0.258739  1
  In  In21  1  0.162788  0.837222  0.256141  1
  Ir  Ir22  1  0.666677  0.333308  0.276424  1
  Ir  Ir23  1  0.333400  0.666606  0.776095  1
