# generated using pymatgen
data_SmDy4Co9(P6Ru5)2
_symmetry_space_group_name_H-M   'P 1'
_cell_length_a   12.33705906
_cell_length_b   12.29930602
_cell_length_c   3.76762400
_cell_angle_alpha   90.00000000
_cell_angle_beta   90.00000000
_cell_angle_gamma   119.81507602
_symmetry_Int_Tables_number   1
_chemical_formula_structural   SmDy4Co9(P6Ru5)2
_chemical_formula_sum   'Sm1 Dy4 Co9 P12 Ru10'
_cell_volume   496.01715483
_cell_formula_units_Z   1
loop_
 _symmetry_equiv_pos_site_id
 _symmetry_equiv_pos_as_xyz
  1  'x, y, z'
loop_
 _atom_site_type_symbol
 _atom_site_label
 _atom_site_symmetry_multiplicity
 _atom_site_fract_x
 _atom_site_fract_y
 _atom_site_fract_z
 _atom_site_occupancy
  Sm  Sm0  1  0.663998  0.333463  0.000000  1
  Dy  Dy1  1  0.333320  0.667216  0.000000  1
  Dy  Dy2  1  0.183158  0.181747  0.500000  1
  Dy  Dy3  1  0.818098  0.998294  0.500000  1
  Dy  Dy4  1  0.999378  0.818609  0.500000  1
  Co  Co5  1  0.802838  0.631168  0.000000  1
  Co  Co6  1  0.367452  0.170501  0.000000  1
  Co  Co7  1  0.195071  0.827731  0.000000  1
  Co  Co8  1  0.629367  0.800840  0.000000  1
  Co  Co9  1  0.176764  0.370487  0.000000  1
  Co  Co10  1  0.718790  0.719303  0.500000  1
  Co  Co11  1  0.278756  0.998952  0.500000  1
  Co  Co12  1  0.007629  0.285152  0.500000  1
  Co  Co13  1  0.999673  0.999149  0.000000  1
  P  P14  1  0.363093  0.363118  0.000000  1
  P  P15  1  0.633641  0.997218  0.000000  1
  P  P16  1  0.000674  0.637904  0.000000  1
  P  P17  1  0.839871  0.315837  0.500000  1
  P  P18  1  0.684867  0.525574  0.500000  1
  P  P19  1  0.471782  0.158046  0.500000  1
  P  P20  1  0.315500  0.840138  0.500000  1
  P  P21  1  0.524074  0.683694  0.500000  1
  P  P22  1  0.162472  0.478478  0.500000  1
  P  P23  1  0.820366  0.820930  0.000000  1
  P  P24  1  0.177708  0.999418  0.000000  1
  P  P25  1  0.006213  0.181028  0.000000  1
  Ru  Ru26  1  0.555501  0.554181  0.000000  1
  Ru  Ru27  1  0.440034  0.995366  0.000000  1
  Ru  Ru28  1  0.008343  0.450419  0.000000  1
  Ru  Ru29  1  0.827545  0.197221  0.000000  1
  Ru  Ru30  1  0.640195  0.123918  0.500000  1
  Ru  Ru31  1  0.873876  0.520679  0.500000  1
  Ru  Ru32  1  0.478635  0.351973  0.500000  1
  Ru  Ru33  1  0.129958  0.650065  0.500000  1
  Ru  Ru34  1  0.517844  0.869822  0.500000  1
  Ru  Ru35  1  0.353514  0.482363  0.500000  1
