# generated using pymatgen
data_Lu20IrOs3Pd8
_symmetry_space_group_name_H-M   'P 1'
_cell_length_a   10.87036300
_cell_length_b   10.87036300
_cell_length_c   6.23199300
_cell_angle_alpha   90.00000000
_cell_angle_beta   90.00000000
_cell_angle_gamma   90.00000000
_symmetry_Int_Tables_number   1
_chemical_formula_structural   Lu20IrOs3Pd8
_chemical_formula_sum   'Lu20 Ir1 Os3 Pd8'
_cell_volume   736.40215504
_cell_formula_units_Z   1
loop_
 _symmetry_equiv_pos_site_id
 _symmetry_equiv_pos_as_xyz
  1  'x, y, z'
loop_
 _atom_site_type_symbol
 _atom_site_label
 _atom_site_symmetry_multiplicity
 _atom_site_fract_x
 _atom_site_fract_y
 _atom_site_fract_z
 _atom_site_occupancy
  Lu  Lu0  1  0.298140  0.084335  0.362070  1
  Lu  Lu1  1  0.298261  0.916170  0.862393  1
  Lu  Lu2  1  0.701739  0.083830  0.862393  1
  Lu  Lu3  1  0.701860  0.915665  0.362070  1
  Lu  Lu4  1  0.583830  0.798261  0.862393  1
  Lu  Lu5  1  0.584335  0.201860  0.362070  1
  Lu  Lu6  1  0.415665  0.798140  0.362070  1
  Lu  Lu7  1  0.416170  0.201739  0.862393  1
  Lu  Lu8  1  0.203629  0.414861  0.640398  1
  Lu  Lu9  1  0.202910  0.585177  0.136426  1
  Lu  Lu10  1  0.797090  0.414823  0.136426  1
  Lu  Lu11  1  0.796371  0.585139  0.640398  1
  Lu  Lu12  1  0.914823  0.702910  0.136426  1
  Lu  Lu13  1  0.914861  0.296371  0.640398  1
  Lu  Lu14  1  0.085139  0.703629  0.640398  1
  Lu  Lu15  1  0.085177  0.297090  0.136426  1
  Lu  Lu16  1  0.000000  0.000000  0.498359  1
  Lu  Lu17  1  0.000000  0.000000  0.998585  1
  Lu  Lu18  1  0.500000  0.500000  0.998585  1
  Lu  Lu19  1  0.500000  0.500000  0.498359  1
  Ir  Ir20  1  0.000000  0.500000  0.390783  1
  Os  Os21  1  0.500000  0.000000  0.112955  1
  Os  Os22  1  0.500000  0.000000  0.612401  1
  Os  Os23  1  0.000000  0.500000  0.887513  1
  Pd  Pd24  1  0.847496  0.154605  0.249651  1
  Pd  Pd25  1  0.846846  0.845862  0.749678  1
  Pd  Pd26  1  0.153154  0.154138  0.749678  1
  Pd  Pd27  1  0.152504  0.845395  0.249651  1
  Pd  Pd28  1  0.654138  0.346846  0.749678  1
  Pd  Pd29  1  0.654605  0.652504  0.249651  1
  Pd  Pd30  1  0.345395  0.347496  0.249651  1
  Pd  Pd31  1  0.345862  0.653154  0.749678  1
