# generated using pymatgen
data_Tb4PrTe9
_symmetry_space_group_name_H-M   'P 1'
_cell_length_a   13.24115381
_cell_length_b   13.27274502
_cell_length_c   10.96796274
_cell_angle_alpha   79.96876343
_cell_angle_beta   79.97039384
_cell_angle_gamma   26.97220783
_symmetry_Int_Tables_number   1
_chemical_formula_structural   Tb4PrTe9
_chemical_formula_sum   'Tb8 Pr2 Te18'
_cell_volume   860.13235554
_cell_formula_units_Z   2
loop_
 _symmetry_equiv_pos_site_id
 _symmetry_equiv_pos_as_xyz
  1  'x, y, z'
loop_
 _atom_site_type_symbol
 _atom_site_label
 _atom_site_symmetry_multiplicity
 _atom_site_fract_x
 _atom_site_fract_y
 _atom_site_fract_z
 _atom_site_occupancy
  Tb  Tb0  1  0.947027  0.043664  0.240832  1
  Tb  Tb1  1  0.147341  0.247204  0.841749  1
  Tb  Tb2  1  0.345741  0.449949  0.435942  1
  Tb  Tb3  1  0.538464  0.653541  0.036109  1
  Tb  Tb4  1  0.755445  0.834182  0.638227  1
  Tb  Tb5  1  0.345118  0.462757  0.964321  1
  Tb  Tb6  1  0.548539  0.655514  0.563748  1
  Tb  Tb7  1  0.752465  0.853166  0.158216  1
  Pr  Pr8  1  0.951793  0.054687  0.759415  1
  Pr  Pr9  1  0.163324  0.246684  0.362127  1
  Te  Te10  1  0.473406  0.573121  0.823697  1
  Te  Te11  1  0.071130  0.179056  0.623067  1
  Te  Te12  1  0.869130  0.977204  0.024954  1
  Te  Te13  1  0.681149  0.764958  0.424722  1
  Te  Te14  1  0.274742  0.378226  0.219606  1
  Te  Te15  1  0.020915  0.131373  0.983419  1
  Te  Te16  1  0.623375  0.727018  0.777764  1
  Te  Te17  1  0.429155  0.525698  0.177417  1
  Te  Te18  1  0.238466  0.319504  0.580268  1
  Te  Te19  1  0.821178  0.928555  0.379670  1
  Te  Te20  1  0.698686  0.302031  0.495681  1
  Te  Te21  1  0.303611  0.895391  0.298608  1
  Te  Te22  1  0.102622  0.694754  0.699246  1
  Te  Te23  1  0.891794  0.494935  0.110031  1
  Te  Te24  1  0.507285  0.106716  0.886152  1
  Te  Te25  1  0.001265  0.602051  0.895995  1
  Te  Te26  1  0.198958  0.800163  0.497384  1
  Te  Te27  1  0.397872  0.997899  0.101631  1
