# generated using pymatgen
data_Ho10Er10FeCo3Bi8
_symmetry_space_group_name_H-M   'P 1'
_cell_length_a   7.92816935
_cell_length_b   8.86340900
_cell_length_c   12.33256226
_cell_angle_alpha   90.00000000
_cell_angle_beta   90.02165464
_cell_angle_gamma   90.00000000
_symmetry_Int_Tables_number   1
_chemical_formula_structural   Ho10Er10FeCo3Bi8
_chemical_formula_sum   'Ho10 Er10 Fe1 Co3 Bi8'
_cell_volume   866.61658040
_cell_formula_units_Z   1
loop_
 _symmetry_equiv_pos_site_id
 _symmetry_equiv_pos_as_xyz
  1  'x, y, z'
loop_
 _atom_site_type_symbol
 _atom_site_label
 _atom_site_symmetry_multiplicity
 _atom_site_fract_x
 _atom_site_fract_y
 _atom_site_fract_z
 _atom_site_occupancy
  Ho  Ho0  1  0.847652  0.250000  0.799774  1
  Ho  Ho1  1  0.151499  0.750000  0.199809  1
  Ho  Ho2  1  0.886068  0.750000  0.811913  1
  Ho  Ho3  1  0.114752  0.250000  0.188608  1
  Ho  Ho4  1  0.385031  0.250000  0.688184  1
  Ho  Ho5  1  0.614802  0.750000  0.312274  1
  Ho  Ho6  1  0.053441  0.750000  0.497224  1
  Ho  Ho7  1  0.946524  0.250000  0.502641  1
  Ho  Ho8  1  0.553867  0.250000  0.002744  1
  Ho  Ho9  1  0.445539  0.750000  0.996869  1
  Er  Er10  1  0.347660  0.750000  0.700023  1
  Er  Er11  1  0.651850  0.250000  0.300863  1
  Er  Er12  1  0.674834  0.537532  0.563323  1
  Er  Er13  1  0.325206  0.461606  0.436668  1
  Er  Er14  1  0.173970  0.463699  0.937262  1
  Er  Er15  1  0.325206  0.038394  0.436668  1
  Er  Er16  1  0.825211  0.537886  0.062969  1
  Er  Er17  1  0.674834  0.962468  0.563323  1
  Er  Er18  1  0.825211  0.962114  0.062969  1
  Er  Er19  1  0.173970  0.036301  0.937262  1
  Fe  Fe20  1  0.067443  0.750000  0.991729  1
  Co  Co21  1  0.934088  0.250000  0.007893  1
  Co  Co22  1  0.565150  0.250000  0.507859  1
  Co  Co23  1  0.434995  0.750000  0.492364  1
  Bi  Bi24  1  0.571324  0.509364  0.826423  1
  Bi  Bi25  1  0.429330  0.490693  0.173191  1
  Bi  Bi26  1  0.071912  0.491362  0.673151  1
  Bi  Bi27  1  0.429330  0.009307  0.173191  1
  Bi  Bi28  1  0.928033  0.508923  0.326628  1
  Bi  Bi29  1  0.571324  0.990636  0.826423  1
  Bi  Bi30  1  0.928033  0.991077  0.326628  1
  Bi  Bi31  1  0.071912  0.008638  0.673151  1
