# generated using pymatgen
data_La3Pr2Bi3Cl
_symmetry_space_group_name_H-M   'P 1'
_cell_length_a   9.70531100
_cell_length_b   9.70531172
_cell_length_c   6.74891200
_cell_angle_alpha   90.00000000
_cell_angle_beta   90.00000000
_cell_angle_gamma   119.99999413
_symmetry_Int_Tables_number   1
_chemical_formula_structural   La3Pr2Bi3Cl
_chemical_formula_sum   'La6 Pr4 Bi6 Cl2'
_cell_volume   550.53301488
_cell_formula_units_Z   2
loop_
 _symmetry_equiv_pos_site_id
 _symmetry_equiv_pos_as_xyz
  1  'x, y, z'
loop_
 _atom_site_type_symbol
 _atom_site_label
 _atom_site_symmetry_multiplicity
 _atom_site_fract_x
 _atom_site_fract_y
 _atom_site_fract_z
 _atom_site_occupancy
  La  La0  1  0.734870  0.000000  0.750000  1
  La  La1  1  0.734870  0.734870  0.250000  1
  La  La2  1  0.000000  0.265130  0.250000  1
  La  La3  1  0.000000  0.734870  0.750000  1
  La  La4  1  0.265130  0.265130  0.750000  1
  La  La5  1  0.265130  0.000000  0.250000  1
  Pr  Pr6  1  0.666667  0.333333  0.000000  1
  Pr  Pr7  1  0.333333  0.666667  0.500000  1
  Pr  Pr8  1  0.666667  0.333333  0.500000  1
  Pr  Pr9  1  0.333333  0.666667  0.000000  1
  Bi  Bi10  1  0.612753  0.612753  0.750000  1
  Bi  Bi11  1  0.000000  0.612753  0.250000  1
  Bi  Bi12  1  0.612753  0.000000  0.250000  1
  Bi  Bi13  1  0.387247  0.000000  0.750000  1
  Bi  Bi14  1  0.000000  0.387247  0.750000  1
  Bi  Bi15  1  0.387247  0.387247  0.250000  1
  Cl  Cl16  1  0.000000  0.000000  0.500000  1
  Cl  Cl17  1  0.000000  0.000000  0.000000  1
