# generated using pymatgen
data_Sm6Zr4Al12Os7
_symmetry_space_group_name_H-M   'P 1'
_cell_length_a   9.21468264
_cell_length_b   9.21455709
_cell_length_c   9.21468100
_cell_angle_alpha   60.00048571
_cell_angle_beta   60.00066213
_cell_angle_gamma   59.99979909
_symmetry_Int_Tables_number   1
_chemical_formula_structural   Sm6Zr4Al12Os7
_chemical_formula_sum   'Sm6 Zr4 Al12 Os7'
_cell_volume   553.25234411
_cell_formula_units_Z   1
loop_
 _symmetry_equiv_pos_site_id
 _symmetry_equiv_pos_as_xyz
  1  'x, y, z'
loop_
 _atom_site_type_symbol
 _atom_site_label
 _atom_site_symmetry_multiplicity
 _atom_site_fract_x
 _atom_site_fract_y
 _atom_site_fract_z
 _atom_site_occupancy
  Sm  Sm0  1  0.706268  0.706262  0.293732  1
  Sm  Sm1  1  0.293738  0.706262  0.293736  1
  Sm  Sm2  1  0.706263  0.293742  0.293735  1
  Sm  Sm3  1  0.293733  0.293738  0.706268  1
  Sm  Sm4  1  0.706261  0.293739  0.706264  1
  Sm  Sm5  1  0.293737  0.706257  0.706265  1
  Zr  Zr6  1  0.880442  0.880428  0.358679  1
  Zr  Zr7  1  0.880449  0.358685  0.880431  1
  Zr  Zr8  1  0.358680  0.880447  0.880443  1
  Zr  Zr9  1  0.880430  0.880433  0.880453  1
  Al  Al10  1  0.120270  0.120284  0.639185  1
  Al  Al11  1  0.120263  0.639180  0.120280  1
  Al  Al12  1  0.639183  0.120265  0.120269  1
  Al  Al13  1  0.120281  0.120278  0.120260  1
  Al  Al14  1  0.669157  0.669160  0.992544  1
  Al  Al15  1  0.669142  0.992542  0.669166  1
  Al  Al16  1  0.992543  0.669138  0.669159  1
  Al  Al17  1  0.669165  0.669149  0.669145  1
  Al  Al18  1  0.329455  0.329451  0.011614  1
  Al  Al19  1  0.329476  0.011618  0.329442  1
  Al  Al20  1  0.011615  0.329482  0.329452  1
  Al  Al21  1  0.329445  0.329466  0.329471  1
  Os  Os22  1  0.999999  0.000000  0.000000  1
  Os  Os23  1  0.000586  0.000586  0.499415  1
  Os  Os24  1  0.499412  0.000588  0.499412  1
  Os  Os25  1  0.000591  0.499408  0.499410  1
  Os  Os26  1  0.499414  0.499411  0.000587  1
  Os  Os27  1  0.000590  0.499409  0.000591  1
  Os  Os28  1  0.499410  0.000591  0.000591  1
