# generated using pymatgen
data_Ho11Zr(Si3Ir)4
_symmetry_space_group_name_H-M   'P 1'
_cell_length_a   4.19404900
_cell_length_b   10.60161775
_cell_length_c   12.18874007
_cell_angle_alpha   89.93292225
_cell_angle_beta   90.00000000
_cell_angle_gamma   90.00000000
_symmetry_Int_Tables_number   1
_chemical_formula_structural   Ho11Zr(Si3Ir)4
_chemical_formula_sum   'Ho11 Zr1 Si12 Ir4'
_cell_volume   541.95616299
_cell_formula_units_Z   1
loop_
 _symmetry_equiv_pos_site_id
 _symmetry_equiv_pos_as_xyz
  1  'x, y, z'
loop_
 _atom_site_type_symbol
 _atom_site_label
 _atom_site_symmetry_multiplicity
 _atom_site_fract_x
 _atom_site_fract_y
 _atom_site_fract_z
 _atom_site_occupancy
  Ho  Ho0  1  0.250000  0.880897  0.019324  1
  Ho  Ho1  1  0.250000  0.619272  0.520306  1
  Ho  Ho2  1  0.750000  0.120120  0.978155  1
  Ho  Ho3  1  0.750000  0.378822  0.480630  1
  Ho  Ho4  1  0.250000  0.920452  0.603104  1
  Ho  Ho5  1  0.250000  0.581558  0.102913  1
  Ho  Ho6  1  0.750000  0.080071  0.401442  1
  Ho  Ho7  1  0.750000  0.418230  0.895828  1
  Ho  Ho8  1  0.250000  0.659196  0.800563  1
  Ho  Ho9  1  0.250000  0.842246  0.301476  1
  Ho  Ho10  1  0.750000  0.339997  0.199080  1
  Zr  Zr11  1  0.750000  0.158803  0.699850  1
  Si  Si12  1  0.250000  0.013196  0.820041  1
  Si  Si13  1  0.250000  0.488756  0.320671  1
  Si  Si14  1  0.750000  0.990731  0.179080  1
  Si  Si15  1  0.750000  0.511312  0.679085  1
  Si  Si16  1  0.250000  0.244460  0.836332  1
  Si  Si17  1  0.250000  0.251913  0.342562  1
  Si  Si18  1  0.750000  0.753933  0.159657  1
  Si  Si19  1  0.750000  0.746060  0.658222  1
  Si  Si20  1  0.250000  0.199190  0.550966  1
  Si  Si21  1  0.250000  0.298479  0.041768  1
  Si  Si22  1  0.750000  0.798617  0.456001  1
  Si  Si23  1  0.750000  0.701534  0.955880  1
  Ir  Ir24  1  0.250000  0.388832  0.680476  1
  Ir  Ir25  1  0.250000  0.110942  0.180555  1
  Ir  Ir26  1  0.750000  0.609577  0.319506  1
  Ir  Ir27  1  0.750000  0.892801  0.816525  1
