# generated using pymatgen
data_Dy4TmMg2P12Ir17
_symmetry_space_group_name_H-M   'P 1'
_cell_length_a   12.66129702
_cell_length_b   12.82720455
_cell_length_c   3.97591800
_cell_angle_alpha   90.00000000
_cell_angle_beta   90.00000000
_cell_angle_gamma   119.56710612
_symmetry_Int_Tables_number   1
_chemical_formula_structural   Dy4TmMg2P12Ir17
_chemical_formula_sum   'Dy4 Tm1 Mg2 P12 Ir17'
_cell_volume   561.63767778
_cell_formula_units_Z   1
loop_
 _symmetry_equiv_pos_site_id
 _symmetry_equiv_pos_as_xyz
  1  'x, y, z'
loop_
 _atom_site_type_symbol
 _atom_site_label
 _atom_site_symmetry_multiplicity
 _atom_site_fract_x
 _atom_site_fract_y
 _atom_site_fract_z
 _atom_site_occupancy
  Dy  Dy0  1  0.668724  0.335874  0.500000  1
  Dy  Dy1  1  0.002314  0.813152  0.000000  1
  Dy  Dy2  1  0.189153  0.186803  0.000000  1
  Dy  Dy3  1  0.810085  0.000030  0.000000  1
  Tm  Tm4  1  0.333068  0.664054  0.500000  1
  Mg  Mg5  1  0.997627  0.444058  0.500000  1
  Mg  Mg6  1  0.553474  0.556003  0.500000  1
  P  P7  1  0.003098  0.643473  0.500000  1
  P  P8  1  0.359748  0.356378  0.500000  1
  P  P9  1  0.642803  0.000152  0.500000  1
  P  P10  1  0.513369  0.686126  0.000000  1
  P  P11  1  0.308088  0.823439  0.000000  1
  P  P12  1  0.169244  0.482048  0.000000  1
  P  P13  1  0.484086  0.175858  0.000000  1
  P  P14  1  0.687280  0.518641  0.000000  1
  P  P15  1  0.827997  0.313972  0.000000  1
  P  P16  1  0.998881  0.175899  0.500000  1
  P  P17  1  0.822893  0.824201  0.500000  1
  P  P18  1  0.178992  0.999900  0.500000  1
  Ir  Ir19  1  0.503845  0.864935  0.000000  1
  Ir  Ir20  1  0.129156  0.639657  0.000000  1
  Ir  Ir21  1  0.357586  0.493904  0.000000  1
  Ir  Ir22  1  0.488012  0.360417  0.000000  1
  Ir  Ir23  1  0.865245  0.507455  0.000000  1
  Ir  Ir24  1  0.638888  0.133900  0.000000  1
  Ir  Ir25  1  0.462084  0.999859  0.500000  1
  Ir  Ir26  1  0.996595  0.279393  0.000000  1
  Ir  Ir27  1  0.716936  0.720737  0.000000  1
  Ir  Ir28  1  0.287438  0.999838  0.000000  1
  Ir  Ir29  1  0.622426  0.807008  0.500000  1
  Ir  Ir30  1  0.201469  0.824549  0.500000  1
  Ir  Ir31  1  0.177081  0.367580  0.500000  1
  Ir  Ir32  1  0.376572  0.175228  0.500000  1
  Ir  Ir33  1  0.809401  0.632579  0.500000  1
  Ir  Ir34  1  0.815773  0.192901  0.500000  1
  Ir  Ir35  1  0.000567  0.999997  0.500000  1
