# generated using pymatgen
data_LiNdAl3Pt
_symmetry_space_group_name_H-M   'P 1'
_cell_length_a   5.46217600
_cell_length_b   5.46217635
_cell_length_c   4.24435700
_cell_angle_alpha   90.00000000
_cell_angle_beta   90.00000000
_cell_angle_gamma   120.00001001
_symmetry_Int_Tables_number   1
_chemical_formula_structural   LiNdAl3Pt
_chemical_formula_sum   'Li1 Nd1 Al3 Pt1'
_cell_volume   109.66647922
_cell_formula_units_Z   1
loop_
 _symmetry_equiv_pos_site_id
 _symmetry_equiv_pos_as_xyz
  1  'x, y, z'
loop_
 _atom_site_type_symbol
 _atom_site_label
 _atom_site_symmetry_multiplicity
 _atom_site_fract_x
 _atom_site_fract_y
 _atom_site_fract_z
 _atom_site_occupancy
  Li  Li0  1  0.666667  0.333333  0.000000  1
  Nd  Nd1  1  0.000000  0.000000  0.000000  1
  Al  Al2  1  0.498542  0.997082  0.500000  1
  Al  Al3  1  0.498542  0.501458  0.500000  1
  Al  Al4  1  0.002918  0.501458  0.500000  1
  Pt  Pt5  1  0.333333  0.666667  0.000000  1
