# generated using pymatgen
data_CsEr10(C2Br9)2
_symmetry_space_group_name_H-M   'P 1'
_cell_length_a   10.59369792
_cell_length_b   10.68007703
_cell_length_c   10.79956503
_cell_angle_alpha   113.44641329
_cell_angle_beta   87.53354976
_cell_angle_gamma   118.82552536
_symmetry_Int_Tables_number   1
_chemical_formula_structural   CsEr10(C2Br9)2
_chemical_formula_sum   'Cs1 Er10 C4 Br18'
_cell_volume   965.11377849
_cell_formula_units_Z   1
loop_
 _symmetry_equiv_pos_site_id
 _symmetry_equiv_pos_as_xyz
  1  'x, y, z'
loop_
 _atom_site_type_symbol
 _atom_site_label
 _atom_site_symmetry_multiplicity
 _atom_site_fract_x
 _atom_site_fract_y
 _atom_site_fract_z
 _atom_site_occupancy
  Cs  Cs0  1  0.500000  0.000000  0.500000  1
  Er  Er1  1  0.664079  0.718124  0.703595  1
  Er  Er2  1  0.281927  0.363568  0.011869  1
  Er  Er3  1  0.093121  0.405043  0.299695  1
  Er  Er4  1  0.959861  0.036202  0.332553  1
  Er  Er5  1  0.906879  0.594957  0.700305  1
  Er  Er6  1  0.111062  0.942143  0.001022  1
  Er  Er7  1  0.040139  0.963798  0.667447  1
  Er  Er8  1  0.335921  0.281876  0.296405  1
  Er  Er9  1  0.718073  0.636432  0.988131  1
  Er  Er10  1  0.888938  0.057857  0.998978  1
  C  C11  1  0.157390  0.227941  0.122881  1
  C  C12  1  0.842610  0.772059  0.877119  1
  C  C13  1  0.922598  0.852143  0.795671  1
  C  C14  1  0.077402  0.147857  0.204329  1
  Br  Br15  1  0.450819  0.530538  0.833162  1
  Br  Br16  1  0.383620  0.039279  0.159401  1
  Br  Br17  1  0.777587  0.857037  0.501495  1
  Br  Br18  1  0.837718  0.311172  0.154119  1
  Br  Br19  1  0.549181  0.469462  0.166838  1
  Br  Br20  1  0.222413  0.142963  0.498505  1
  Br  Br21  1  0.315426  0.099105  0.829207  1
  Br  Br22  1  0.684574  0.900895  0.170793  1
  Br  Br23  1  0.974787  0.760191  0.172641  1
  Br  Br24  1  0.932731  0.302017  0.501241  1
  Br  Br25  1  0.025213  0.239809  0.827359  1
  Br  Br26  1  0.067269  0.697983  0.498759  1
  Br  Br27  1  0.260305  0.622884  0.186361  1
  Br  Br28  1  0.739695  0.377116  0.813639  1
  Br  Br29  1  0.639203  0.433803  0.499672  1
  Br  Br30  1  0.162282  0.688828  0.845881  1
  Br  Br31  1  0.616380  0.960721  0.840599  1
  Br  Br32  1  0.360797  0.566197  0.500328  1
