# generated using pymatgen
data_Lu8Sc12Ga15Si
_symmetry_space_group_name_H-M   'P 1'
_cell_length_a   7.18535666
_cell_length_b   7.45521388
_cell_length_c   14.40082400
_cell_angle_alpha   90.00000000
_cell_angle_beta   90.00000000
_cell_angle_gamma   90.17257117
_symmetry_Int_Tables_number   1
_chemical_formula_structural   Lu8Sc12Ga15Si
_chemical_formula_sum   'Lu8 Sc12 Ga15 Si1'
_cell_volume   771.42517940
_cell_formula_units_Z   1
loop_
 _symmetry_equiv_pos_site_id
 _symmetry_equiv_pos_as_xyz
  1  'x, y, z'
loop_
 _atom_site_type_symbol
 _atom_site_label
 _atom_site_symmetry_multiplicity
 _atom_site_fract_x
 _atom_site_fract_y
 _atom_site_fract_z
 _atom_site_occupancy
  Lu  Lu0  1  0.009824  0.178473  0.094575  1
  Lu  Lu1  1  0.988934  0.819117  0.904130  1
  Lu  Lu2  1  0.489317  0.679382  0.904303  1
  Lu  Lu3  1  0.988934  0.819117  0.595870  1
  Lu  Lu4  1  0.510005  0.320228  0.094704  1
  Lu  Lu5  1  0.009824  0.178473  0.405425  1
  Lu  Lu6  1  0.510005  0.320228  0.405296  1
  Lu  Lu7  1  0.489317  0.679382  0.595697  1
  Sc  Sc8  1  0.160204  0.504353  0.750000  1
  Sc  Sc9  1  0.836176  0.495242  0.250000  1
  Sc  Sc10  1  0.338000  0.003169  0.250000  1
  Sc  Sc11  1  0.664174  0.995491  0.750000  1
  Sc  Sc12  1  0.333593  0.173822  0.623603  1
  Sc  Sc13  1  0.668627  0.826368  0.376251  1
  Sc  Sc14  1  0.170502  0.671046  0.374736  1
  Sc  Sc15  1  0.668627  0.826368  0.123749  1
  Sc  Sc16  1  0.827936  0.330241  0.624375  1
  Sc  Sc17  1  0.333593  0.173822  0.876397  1
  Sc  Sc18  1  0.827936  0.330241  0.875625  1
  Sc  Sc19  1  0.170502  0.671046  0.125264  1
  Ga  Ga20  1  0.032278  0.119365  0.750000  1
  Ga  Ga21  1  0.967708  0.883370  0.250000  1
  Ga  Ga22  1  0.468415  0.614209  0.250000  1
  Ga  Ga23  1  0.531678  0.391933  0.750000  1
  Ga  Ga24  1  0.284491  0.869493  0.750000  1
  Ga  Ga25  1  0.717167  0.130503  0.250000  1
  Ga  Ga26  1  0.216115  0.366057  0.250000  1
  Ga  Ga27  1  0.161632  0.465531  0.540534  1
  Ga  Ga28  1  0.837677  0.534182  0.460205  1
  Ga  Ga29  1  0.336937  0.963403  0.460244  1
  Ga  Ga30  1  0.837677  0.534182  0.039795  1
  Ga  Ga31  1  0.664526  0.036443  0.541057  1
  Ga  Ga32  1  0.161632  0.465531  0.959466  1
  Ga  Ga33  1  0.664526  0.036443  0.958943  1
  Ga  Ga34  1  0.336937  0.963403  0.039756  1
  Si  Si35  1  0.784578  0.630340  0.750000  1
