# generated using pymatgen
data_Li3Y3HoAlPt4
_symmetry_space_group_name_H-M   'P 1'
_cell_length_a   4.04161800
_cell_length_b   7.01333986
_cell_length_c   8.44766783
_cell_angle_alpha   90.85196620
_cell_angle_beta   90.00000000
_cell_angle_gamma   90.00000000
_symmetry_Int_Tables_number   1
_chemical_formula_structural   Li3Y3HoAlPt4
_chemical_formula_sum   'Li3 Y3 Ho1 Al1 Pt4'
_cell_volume   239.42470576
_cell_formula_units_Z   1
loop_
 _symmetry_equiv_pos_site_id
 _symmetry_equiv_pos_as_xyz
  1  'x, y, z'
loop_
 _atom_site_type_symbol
 _atom_site_label
 _atom_site_symmetry_multiplicity
 _atom_site_fract_x
 _atom_site_fract_y
 _atom_site_fract_z
 _atom_site_occupancy
  Li  Li0  1  0.250000  0.130375  0.060881  1
  Li  Li1  1  0.250000  0.629310  0.438871  1
  Li  Li2  1  0.750000  0.874018  0.942186  1
  Y  Y3  1  0.250000  0.043061  0.683982  1
  Y  Y4  1  0.750000  0.954794  0.319994  1
  Y  Y5  1  0.750000  0.454550  0.179630  1
  Ho  Ho6  1  0.250000  0.544946  0.818232  1
  Al  Al7  1  0.750000  0.371985  0.557771  1
  Pt  Pt8  1  0.250000  0.255251  0.390903  1
  Pt  Pt9  1  0.250000  0.744593  0.123219  1
  Pt  Pt10  1  0.750000  0.739703  0.619427  1
  Pt  Pt11  1  0.750000  0.257413  0.864904  1
