# generated using pymatgen
data_LiTm4P12Ir10Ru9
_symmetry_space_group_name_H-M   'P 1'
_cell_length_a   12.59256514
_cell_length_b   12.59256557
_cell_length_c   3.93804300
_cell_angle_alpha   90.00000000
_cell_angle_beta   90.00000000
_cell_angle_gamma   120.09292035
_symmetry_Int_Tables_number   1
_chemical_formula_structural   LiTm4P12Ir10Ru9
_chemical_formula_sum   'Li1 Tm4 P12 Ir10 Ru9'
_cell_volume   540.29644371
_cell_formula_units_Z   1
loop_
 _symmetry_equiv_pos_site_id
 _symmetry_equiv_pos_as_xyz
  1  'x, y, z'
loop_
 _atom_site_type_symbol
 _atom_site_label
 _atom_site_symmetry_multiplicity
 _atom_site_fract_x
 _atom_site_fract_y
 _atom_site_fract_z
 _atom_site_occupancy
  Li  Li0  1  0.187402  0.187402  0.000000  1
  Tm  Tm1  1  0.333115  0.666853  0.500000  1
  Tm  Tm2  1  0.666853  0.333115  0.500000  1
  Tm  Tm3  1  0.815315  0.000378  0.000000  1
  Tm  Tm4  1  0.000378  0.815315  0.000000  1
  P  P5  1  0.308194  0.828445  0.000000  1
  P  P6  1  0.172694  0.478938  0.000000  1
  P  P7  1  0.519220  0.691414  0.000000  1
  P  P8  1  0.828445  0.308194  0.000000  1
  P  P9  1  0.478938  0.172694  0.000000  1
  P  P10  1  0.691414  0.519220  0.000000  1
  P  P11  1  0.361424  0.361424  0.500000  1
  P  P12  1  0.637214  0.999877  0.500000  1
  P  P13  1  0.999877  0.637214  0.500000  1
  P  P14  1  0.819726  0.819726  0.500000  1
  P  P15  1  0.182295  0.002091  0.500000  1
  P  P16  1  0.002091  0.182295  0.500000  1
  Ir  Ir17  1  0.130590  0.635569  0.000000  1
  Ir  Ir18  1  0.364159  0.493650  0.000000  1
  Ir  Ir19  1  0.506105  0.869028  0.000000  1
  Ir  Ir20  1  0.635569  0.130590  0.000000  1
  Ir  Ir21  1  0.493650  0.364159  0.000000  1
  Ir  Ir22  1  0.869028  0.506105  0.000000  1
  Ir  Ir23  1  0.715007  0.715007  0.000000  1
  Ir  Ir24  1  0.283320  0.998745  0.000000  1
  Ir  Ir25  1  0.998745  0.283320  0.000000  1
  Ir  Ir26  1  0.000157  0.000157  0.500000  1
  Ru  Ru27  1  0.194244  0.817113  0.500000  1
  Ru  Ru28  1  0.183727  0.378316  0.500000  1
  Ru  Ru29  1  0.623620  0.805548  0.500000  1
  Ru  Ru30  1  0.817113  0.194244  0.500000  1
  Ru  Ru31  1  0.378316  0.183727  0.500000  1
  Ru  Ru32  1  0.805548  0.623620  0.500000  1
  Ru  Ru33  1  0.547266  0.547266  0.500000  1
  Ru  Ru34  1  0.452270  0.996972  0.500000  1
  Ru  Ru35  1  0.996972  0.452270  0.500000  1
