# generated using pymatgen
data_LiEr3Cd3Pd2
_symmetry_space_group_name_H-M   'P 1'
_cell_length_a   7.68889900
_cell_length_b   7.68889937
_cell_length_c   3.76912600
_cell_angle_alpha   90.00000000
_cell_angle_beta   90.00000000
_cell_angle_gamma   120.00000271
_symmetry_Int_Tables_number   1
_chemical_formula_structural   LiEr3Cd3Pd2
_chemical_formula_sum   'Li1 Er3 Cd3 Pd2'
_cell_volume   192.97435986
_cell_formula_units_Z   1
loop_
 _symmetry_equiv_pos_site_id
 _symmetry_equiv_pos_as_xyz
  1  'x, y, z'
loop_
 _atom_site_type_symbol
 _atom_site_label
 _atom_site_symmetry_multiplicity
 _atom_site_fract_x
 _atom_site_fract_y
 _atom_site_fract_z
 _atom_site_occupancy
  Li  Li0  1  0.000000  0.000000  0.500000  1
  Er  Er1  1  0.421723  0.421723  0.500000  1
  Er  Er2  1  0.578277  0.000000  0.500000  1
  Er  Er3  1  0.000000  0.578277  0.500000  1
  Cd  Cd4  1  0.752201  0.752201  0.000000  1
  Cd  Cd5  1  0.247799  0.000000  0.000000  1
  Cd  Cd6  1  0.000000  0.247799  0.000000  1
  Pd  Pd7  1  0.666667  0.333333  0.000000  1
  Pd  Pd8  1  0.333333  0.666667  0.000000  1
