# generated using pymatgen
data_NaLa4Nd2OsBr12
_symmetry_space_group_name_H-M   'P 1'
_cell_length_a   9.68161018
_cell_length_b   9.66985209
_cell_length_c   9.68135629
_cell_angle_alpha   107.45786819
_cell_angle_beta   107.17817535
_cell_angle_gamma   107.03798719
_symmetry_Int_Tables_number   1
_chemical_formula_structural   NaLa4Nd2OsBr12
_chemical_formula_sum   'Na1 La4 Nd2 Os1 Br12'
_cell_volume   750.14787001
_cell_formula_units_Z   1
loop_
 _symmetry_equiv_pos_site_id
 _symmetry_equiv_pos_as_xyz
  1  'x, y, z'
loop_
 _atom_site_type_symbol
 _atom_site_label
 _atom_site_symmetry_multiplicity
 _atom_site_fract_x
 _atom_site_fract_y
 _atom_site_fract_z
 _atom_site_occupancy
  Na  Na0  1  0.500033  0.500224  0.500539  1
  La  La1  1  0.112065  0.322091  0.031268  1
  La  La2  1  0.322173  0.030726  0.113060  1
  La  La3  1  0.030787  0.112411  0.319574  1
  La  La4  1  0.968738  0.885499  0.679563  1
  Nd  Nd5  1  0.682625  0.969145  0.887748  1
  Nd  Nd6  1  0.886444  0.682008  0.968034  1
  Os  Os7  1  0.003697  0.002449  0.000474  1
  Br  Br8  1  0.210968  0.681978  0.069378  1
  Br  Br9  1  0.455728  0.373836  0.158122  1
  Br  Br10  1  0.682910  0.069996  0.212810  1
  Br  Br11  1  0.927109  0.778110  0.310563  1
  Br  Br12  1  0.158032  0.456459  0.375198  1
  Br  Br13  1  0.373521  0.157962  0.456721  1
  Br  Br14  1  0.625519  0.844456  0.548996  1
  Br  Br15  1  0.841992  0.543263  0.631211  1
  Br  Br16  1  0.070826  0.217607  0.682812  1
  Br  Br17  1  0.317980  0.927771  0.781231  1
  Br  Br18  1  0.549926  0.631527  0.845353  1
  Br  Br19  1  0.778929  0.312485  0.927346  1
