# generated using pymatgen
data_Ca3Pr5(SiPd)8
_symmetry_space_group_name_H-M   'P 1'
_cell_length_a   10.81079855
_cell_length_b   5.89405659
_cell_length_c   7.84208189
_cell_angle_alpha   89.86475205
_cell_angle_beta   91.34813474
_cell_angle_gamma   90.24060704
_symmetry_Int_Tables_number   1
_chemical_formula_structural   Ca3Pr5(SiPd)8
_chemical_formula_sum   'Ca3 Pr5 Si8 Pd8'
_cell_volume   499.54921083
_cell_formula_units_Z   1
loop_
 _symmetry_equiv_pos_site_id
 _symmetry_equiv_pos_as_xyz
  1  'x, y, z'
loop_
 _atom_site_type_symbol
 _atom_site_label
 _atom_site_symmetry_multiplicity
 _atom_site_fract_x
 _atom_site_fract_y
 _atom_site_fract_z
 _atom_site_occupancy
  Ca  Ca0  1  0.139982  0.632800  0.032399  1
  Ca  Ca1  1  0.857624  0.136003  0.468430  1
  Ca  Ca2  1  0.859678  0.368629  0.968146  1
  Pr  Pr3  1  0.139194  0.867490  0.529659  1
  Pr  Pr4  1  0.367644  0.128127  0.174403  1
  Pr  Pr5  1  0.633462  0.628724  0.326618  1
  Pr  Pr6  1  0.633633  0.871298  0.825584  1
  Pr  Pr7  1  0.368902  0.369986  0.673224  1
  Si  Si8  1  0.577584  0.132495  0.462787  1
  Si  Si9  1  0.423678  0.629726  0.035965  1
  Si  Si10  1  0.423571  0.870641  0.535485  1
  Si  Si11  1  0.577052  0.368123  0.962928  1
  Si  Si12  1  0.142317  0.361787  0.371871  1
  Si  Si13  1  0.857606  0.865332  0.127433  1
  Si  Si14  1  0.858230  0.638464  0.628471  1
  Si  Si15  1  0.141483  0.134664  0.874445  1
  Pd  Pd16  1  0.670920  0.113192  0.177701  1
  Pd  Pd17  1  0.331180  0.610402  0.321415  1
  Pd  Pd18  1  0.329793  0.886500  0.823229  1
  Pd  Pd19  1  0.670875  0.388144  0.677938  1
  Pd  Pd20  1  0.051325  0.103294  0.158787  1
  Pd  Pd21  1  0.945606  0.601116  0.339060  1
  Pd  Pd22  1  0.947239  0.898344  0.842397  1
  Pd  Pd23  1  0.051417  0.394724  0.661624  1
