# generated using pymatgen
data_La2Th3Pb3Cl
_symmetry_space_group_name_H-M   'P 1'
_cell_length_a   9.71287307
_cell_length_b   9.70761968
_cell_length_c   6.68810000
_cell_angle_alpha   90.00000000
_cell_angle_beta   90.00000000
_cell_angle_gamma   120.00403610
_symmetry_Int_Tables_number   1
_chemical_formula_structural   La2Th3Pb3Cl
_chemical_formula_sum   'La4 Th6 Pb6 Cl2'
_cell_volume   546.10504948
_cell_formula_units_Z   2
loop_
 _symmetry_equiv_pos_site_id
 _symmetry_equiv_pos_as_xyz
  1  'x, y, z'
loop_
 _atom_site_type_symbol
 _atom_site_label
 _atom_site_symmetry_multiplicity
 _atom_site_fract_x
 _atom_site_fract_y
 _atom_site_fract_z
 _atom_site_occupancy
  La  La0  1  0.999423  0.265664  0.250000  1
  La  La1  1  0.000546  0.734158  0.750000  1
  La  La2  1  0.733717  0.734293  0.250000  1
  La  La3  1  0.266378  0.265888  0.750000  1
  Th  Th4  1  0.270136  0.999951  0.250000  1
  Th  Th5  1  0.729881  0.000015  0.750000  1
  Th  Th6  1  0.334757  0.669561  0.999817  1
  Th  Th7  1  0.665192  0.330438  0.999802  1
  Th  Th8  1  0.665192  0.330438  0.500198  1
  Th  Th9  1  0.334757  0.669561  0.500183  1
  Pb  Pb10  1  0.615075  0.000007  0.250000  1
  Pb  Pb11  1  0.384958  0.000040  0.750000  1
  Pb  Pb12  1  0.000849  0.616734  0.250000  1
  Pb  Pb13  1  0.999091  0.383252  0.750000  1
  Pb  Pb14  1  0.384094  0.383203  0.250000  1
  Pb  Pb15  1  0.615878  0.616804  0.750000  1
  Cl  Cl16  1  0.000038  0.999997  0.999990  1
  Cl  Cl17  1  0.000038  0.999997  0.500010  1
