# generated using pymatgen
data_Ho2CuAs3O
_symmetry_space_group_name_H-M   'P 1'
_cell_length_a   33.97613228
_cell_length_b   3.91743400
_cell_length_c   3.91318700
_cell_angle_alpha   90.00000000
_cell_angle_beta   89.99206643
_cell_angle_gamma   90.00000000
_symmetry_Int_Tables_number   1
_chemical_formula_structural   Ho2CuAs3O
_chemical_formula_sum   'Ho8 Cu4 As12 O4'
_cell_volume   520.84227252
_cell_formula_units_Z   4
loop_
 _symmetry_equiv_pos_site_id
 _symmetry_equiv_pos_as_xyz
  1  'x, y, z'
loop_
 _atom_site_type_symbol
 _atom_site_label
 _atom_site_symmetry_multiplicity
 _atom_site_fract_x
 _atom_site_fract_y
 _atom_site_fract_z
 _atom_site_occupancy
  Ho  Ho0  1  0.467960  0.750002  0.251341  1
  Ho  Ho1  1  0.032023  0.250002  0.750682  1
  Ho  Ho2  1  0.967977  0.750002  0.249319  1
  Ho  Ho3  1  0.532040  0.250002  0.748658  1
  Ho  Ho4  1  0.326126  0.250002  0.801548  1
  Ho  Ho5  1  0.173777  0.750002  0.301406  1
  Ho  Ho6  1  0.826223  0.250002  0.698596  1
  Ho  Ho7  1  0.673874  0.750002  0.198451  1
  Cu  Cu8  1  0.250065  0.250002  0.302707  1
  Cu  Cu9  1  0.249882  0.750002  0.804510  1
  Cu  Cu10  1  0.750118  0.250002  0.195489  1
  Cu  Cu11  1  0.749936  0.750002  0.697294  1
  As  As12  1  0.394911  0.250002  0.306806  1
  As  As13  1  0.105046  0.750002  0.807448  1
  As  As14  1  0.894954  0.250002  0.192554  1
  As  As15  1  0.605089  0.750002  0.693193  1
  As  As16  1  0.394748  0.750002  0.772419  1
  As  As17  1  0.105224  0.250002  0.272418  1
  As  As18  1  0.894776  0.750002  0.727581  1
  As  As19  1  0.605252  0.250002  0.227580  1
  As  As20  1  0.203279  0.250002  0.802345  1
  As  As21  1  0.296585  0.750002  0.303101  1
  As  As22  1  0.703415  0.250002  0.696901  1
  As  As23  1  0.796721  0.750002  0.197656  1
  O  O24  1  0.500051  0.750002  0.751378  1
  O  O25  1  0.999948  0.250002  0.251657  1
  O  O26  1  0.000051  0.750002  0.748342  1
  O  O27  1  0.499949  0.250002  0.248621  1
