# generated using pymatgen
data_Sr7Ho(In4Au3)4
_symmetry_space_group_name_H-M   'P 1'
_cell_length_a   15.58455500
_cell_length_b   15.27928232
_cell_length_c   4.50423700
_cell_angle_alpha   90.00000000
_cell_angle_beta   90.00000000
_cell_angle_gamma   120.66314974
_symmetry_Int_Tables_number   1
_chemical_formula_structural   Sr7Ho(In4Au3)4
_chemical_formula_sum   'Sr7 Ho1 In16 Au12'
_cell_volume   922.58877227
_cell_formula_units_Z   1
loop_
 _symmetry_equiv_pos_site_id
 _symmetry_equiv_pos_as_xyz
  1  'x, y, z'
loop_
 _atom_site_type_symbol
 _atom_site_label
 _atom_site_symmetry_multiplicity
 _atom_site_fract_x
 _atom_site_fract_y
 _atom_site_fract_z
 _atom_site_occupancy
  Sr  Sr0  1  0.000536  0.452825  0.000000  1
  Sr  Sr1  1  0.547712  0.547175  0.000000  1
  Sr  Sr2  1  0.334892  0.669985  0.000000  1
  Sr  Sr3  1  0.664908  0.330015  0.000000  1
  Sr  Sr4  1  0.816988  0.000000  0.500000  1
  Sr  Sr5  1  0.001617  0.819950  0.500000  1
  Sr  Sr6  1  0.181667  0.180050  0.500000  1
  Ho  Ho7  1  0.450136  0.000000  0.000000  1
  In  In8  1  0.183709  0.379962  0.000000  1
  In  In9  1  0.623694  0.806634  0.000000  1
  In  In10  1  0.377593  0.179013  0.000000  1
  In  In11  1  0.198579  0.820987  0.000000  1
  In  In12  1  0.803748  0.620038  0.000000  1
  In  In13  1  0.817061  0.193366  0.000000  1
  In  In14  1  0.281529  0.000000  0.500000  1
  In  In15  1  0.998504  0.281389  0.500000  1
  In  In16  1  0.717115  0.718611  0.500000  1
  In  In17  1  0.350972  0.472983  0.500000  1
  In  In18  1  0.524289  0.879354  0.500000  1
  In  In19  1  0.475057  0.346855  0.500000  1
  In  In20  1  0.128202  0.653145  0.500000  1
  In  In21  1  0.877989  0.527017  0.500000  1
  In  In22  1  0.644935  0.120646  0.500000  1
  In  In23  1  0.000734  0.000000  0.000000  1
  Au  Au24  1  0.176698  0.495368  0.500000  1
  Au  Au25  1  0.508266  0.683274  0.500000  1
  Au  Au26  1  0.487210  0.161132  0.500000  1
  Au  Au27  1  0.326078  0.838868  0.500000  1
  Au  Au28  1  0.681330  0.504632  0.500000  1
  Au  Au29  1  0.824992  0.316726  0.500000  1
  Au  Au30  1  0.175788  0.000000  0.000000  1
  Au  Au31  1  0.001644  0.176937  0.000000  1
  Au  Au32  1  0.824707  0.823063  0.000000  1
  Au  Au33  1  0.649139  0.000000  0.000000  1
  Au  Au34  1  0.001788  0.661592  0.000000  1
  Au  Au35  1  0.340197  0.338408  0.000000  1
