# generated using pymatgen
data_Hf7Zr3Sn8
_symmetry_space_group_name_H-M   'P 1'
_cell_length_a   8.79849600
_cell_length_b   8.79876999
_cell_length_c   5.93152100
_cell_angle_alpha   90.00000000
_cell_angle_beta   90.00000000
_cell_angle_gamma   119.99896241
_symmetry_Int_Tables_number   1
_chemical_formula_structural   Hf7Zr3Sn8
_chemical_formula_sum   'Hf7 Zr3 Sn8'
_cell_volume   397.67807726
_cell_formula_units_Z   1
loop_
 _symmetry_equiv_pos_site_id
 _symmetry_equiv_pos_as_xyz
  1  'x, y, z'
loop_
 _atom_site_type_symbol
 _atom_site_label
 _atom_site_symmetry_multiplicity
 _atom_site_fract_x
 _atom_site_fract_y
 _atom_site_fract_z
 _atom_site_occupancy
  Hf  Hf0  1  0.334143  0.666686  0.999980  1
  Hf  Hf1  1  0.667459  0.333314  0.500020  1
  Hf  Hf2  1  0.667459  0.333314  0.999980  1
  Hf  Hf3  1  0.334143  0.666686  0.500020  1
  Hf  Hf4  1  0.999736  0.282439  0.250000  1
  Hf  Hf5  1  0.717297  0.717561  0.250000  1
  Hf  Hf6  1  0.717917  0.000000  0.750000  1
  Zr  Zr7  1  0.281803  0.000000  0.250000  1
  Zr  Zr8  1  0.281170  0.281454  0.750000  1
  Zr  Zr9  1  0.999716  0.718546  0.750000  1
  Sn  Sn10  1  0.998669  0.000000  0.000741  1
  Sn  Sn11  1  0.998669  0.000000  0.499259  1
  Sn  Sn12  1  0.614819  0.000000  0.250000  1
  Sn  Sn13  1  0.613894  0.614360  0.750000  1
  Sn  Sn14  1  0.999534  0.385640  0.750000  1
  Sn  Sn15  1  0.999541  0.612950  0.250000  1
  Sn  Sn16  1  0.386591  0.387050  0.250000  1
  Sn  Sn17  1  0.387440  0.000000  0.750000  1
