# generated using pymatgen
data_Dy3(SnRu)2
_symmetry_space_group_name_H-M   'P 1'
_cell_length_a   5.73324200
_cell_length_b   8.18783900
_cell_length_c   13.88357200
_cell_angle_alpha   90.00000000
_cell_angle_beta   90.00000000
_cell_angle_gamma   90.00000000
_symmetry_Int_Tables_number   1
_chemical_formula_structural   Dy3(SnRu)2
_chemical_formula_sum   'Dy12 Sn8 Ru8'
_cell_volume   651.73461063
_cell_formula_units_Z   4
loop_
 _symmetry_equiv_pos_site_id
 _symmetry_equiv_pos_as_xyz
  1  'x, y, z'
loop_
 _atom_site_type_symbol
 _atom_site_label
 _atom_site_symmetry_multiplicity
 _atom_site_fract_x
 _atom_site_fract_y
 _atom_site_fract_z
 _atom_site_occupancy
  Dy  Dy0  1  0.161695  0.406152  0.592252  1
  Dy  Dy1  1  0.838305  0.593848  0.092252  1
  Dy  Dy2  1  0.161695  0.093848  0.407748  1
  Dy  Dy3  1  0.838305  0.906152  0.907748  1
  Dy  Dy4  1  0.838305  0.593848  0.407748  1
  Dy  Dy5  1  0.161695  0.406152  0.907748  1
  Dy  Dy6  1  0.838305  0.906152  0.592252  1
  Dy  Dy7  1  0.161695  0.093848  0.092252  1
  Dy  Dy8  1  0.616379  0.286528  0.750000  1
  Dy  Dy9  1  0.383621  0.713472  0.250000  1
  Dy  Dy10  1  0.616379  0.213472  0.250000  1
  Dy  Dy11  1  0.383621  0.786528  0.750000  1
  Sn  Sn12  1  0.105245  0.122944  0.750000  1
  Sn  Sn13  1  0.894755  0.877056  0.250000  1
  Sn  Sn14  1  0.105245  0.377056  0.250000  1
  Sn  Sn15  1  0.894755  0.622944  0.750000  1
  Sn  Sn16  1  0.646572  0.250000  0.500000  1
  Sn  Sn17  1  0.353428  0.750000  0.000000  1
  Sn  Sn18  1  0.353428  0.750000  0.500000  1
  Sn  Sn19  1  0.646572  0.250000  0.000000  1
  Ru  Ru20  1  0.349592  0.038634  0.591894  1
  Ru  Ru21  1  0.650408  0.961366  0.091894  1
  Ru  Ru22  1  0.349592  0.461366  0.408106  1
  Ru  Ru23  1  0.650408  0.538634  0.908106  1
  Ru  Ru24  1  0.650408  0.961366  0.408106  1
  Ru  Ru25  1  0.349592  0.038634  0.908106  1
  Ru  Ru26  1  0.650408  0.538634  0.591894  1
  Ru  Ru27  1  0.349592  0.461366  0.091894  1
