# generated using pymatgen
data_Li4Ac3YbPt4
_symmetry_space_group_name_H-M   'P 1'
_cell_length_a   4.26465100
_cell_length_b   7.42558643
_cell_length_c   8.79699400
_cell_angle_alpha   89.53989034
_cell_angle_beta   90.00000000
_cell_angle_gamma   90.00000000
_symmetry_Int_Tables_number   1
_chemical_formula_structural   Li4Ac3YbPt4
_chemical_formula_sum   'Li4 Ac3 Yb1 Pt4'
_cell_volume   278.57012934
_cell_formula_units_Z   1
loop_
 _symmetry_equiv_pos_site_id
 _symmetry_equiv_pos_as_xyz
  1  'x, y, z'
loop_
 _atom_site_type_symbol
 _atom_site_label
 _atom_site_symmetry_multiplicity
 _atom_site_fract_x
 _atom_site_fract_y
 _atom_site_fract_z
 _atom_site_occupancy
  Li  Li0  1  0.750000  0.379941  0.042024  1
  Li  Li1  1  0.250000  0.615529  0.937946  1
  Li  Li2  1  0.750000  0.873010  0.451252  1
  Li  Li3  1  0.250000  0.137596  0.556828  1
  Ac  Ac4  1  0.250000  0.043511  0.182782  1
  Ac  Ac5  1  0.750000  0.959845  0.807573  1
  Ac  Ac6  1  0.250000  0.538789  0.325095  1
  Yb  Yb7  1  0.750000  0.458608  0.684831  1
  Pt  Pt8  1  0.250000  0.749033  0.624349  1
  Pt  Pt9  1  0.750000  0.242345  0.390173  1
  Pt  Pt10  1  0.250000  0.256554  0.878291  1
  Pt  Pt11  1  0.750000  0.745242  0.118858  1
