# generated using pymatgen
data_K3Hf7MnCl20
_symmetry_space_group_name_H-M   'P 1'
_cell_length_a   13.81936625
_cell_length_b   13.81936623
_cell_length_c   13.81936600
_cell_angle_alpha   55.42994735
_cell_angle_beta   55.42994742
_cell_angle_gamma   55.42994670
_symmetry_Int_Tables_number   1
_chemical_formula_structural   K3Hf7MnCl20
_chemical_formula_sum   'K6 Hf14 Mn2 Cl40'
_cell_volume   1668.08712717
_cell_formula_units_Z   2
loop_
 _symmetry_equiv_pos_site_id
 _symmetry_equiv_pos_as_xyz
  1  'x, y, z'
loop_
 _atom_site_type_symbol
 _atom_site_label
 _atom_site_symmetry_multiplicity
 _atom_site_fract_x
 _atom_site_fract_y
 _atom_site_fract_z
 _atom_site_occupancy
  K  K0  1  0.000000  0.000000  0.500000  1
  K  K1  1  0.500000  0.000000  0.000000  1
  K  K2  1  0.000000  0.500000  0.000000  1
  K  K3  1  0.000000  0.500000  0.500000  1
  K  K4  1  0.500000  0.000000  0.500000  1
  K  K5  1  0.500000  0.500000  0.000000  1
  Hf  Hf6  1  0.454162  0.313174  0.614049  1
  Hf  Hf7  1  0.614049  0.454162  0.313174  1
  Hf  Hf8  1  0.313174  0.614049  0.454162  1
  Hf  Hf9  1  0.114049  0.813174  0.954162  1
  Hf  Hf10  1  0.954162  0.114049  0.813174  1
  Hf  Hf11  1  0.813174  0.954162  0.114049  1
  Hf  Hf12  1  0.545838  0.686826  0.385951  1
  Hf  Hf13  1  0.385951  0.545838  0.686826  1
  Hf  Hf14  1  0.686826  0.385951  0.545838  1
  Hf  Hf15  1  0.885951  0.186826  0.045838  1
  Hf  Hf16  1  0.045838  0.885951  0.186826  1
  Hf  Hf17  1  0.186826  0.045838  0.885951  1
  Hf  Hf18  1  0.250000  0.250000  0.250000  1
  Hf  Hf19  1  0.750000  0.750000  0.750000  1
  Mn  Mn20  1  0.500000  0.500000  0.500000  1
  Mn  Mn21  1  0.000000  0.000000  0.000000  1
  Cl  Cl22  1  0.249267  0.422505  0.573239  1
  Cl  Cl23  1  0.573239  0.249267  0.422505  1
  Cl  Cl24  1  0.422505  0.573239  0.249267  1
  Cl  Cl25  1  0.073239  0.922505  0.749267  1
  Cl  Cl26  1  0.749267  0.073239  0.922505  1
  Cl  Cl27  1  0.922505  0.749267  0.073239  1
  Cl  Cl28  1  0.750733  0.577495  0.426761  1
  Cl  Cl29  1  0.426761  0.750733  0.577495  1
  Cl  Cl30  1  0.577495  0.426761  0.750733  1
  Cl  Cl31  1  0.926761  0.077495  0.250733  1
  Cl  Cl32  1  0.250733  0.926761  0.077495  1
  Cl  Cl33  1  0.077495  0.250733  0.926761  1
  Cl  Cl34  1  0.173687  0.672925  0.653126  1
  Cl  Cl35  1  0.653126  0.173687  0.672925  1
  Cl  Cl36  1  0.672925  0.653126  0.173687  1
  Cl  Cl37  1  0.153126  0.172925  0.673687  1
  Cl  Cl38  1  0.673687  0.153126  0.172925  1
  Cl  Cl39  1  0.172925  0.673687  0.153126  1
  Cl  Cl40  1  0.826313  0.327075  0.346874  1
  Cl  Cl41  1  0.346874  0.826313  0.327075  1
  Cl  Cl42  1  0.327075  0.346874  0.826313  1
  Cl  Cl43  1  0.846874  0.827075  0.326313  1
  Cl  Cl44  1  0.326313  0.846874  0.827075  1
  Cl  Cl45  1  0.827075  0.326313  0.846874  1
  Cl  Cl46  1  0.596540  0.903460  0.250000  1
  Cl  Cl47  1  0.250000  0.596540  0.903460  1
  Cl  Cl48  1  0.903460  0.250000  0.596540  1
  Cl  Cl49  1  0.750000  0.403460  0.096540  1
  Cl  Cl50  1  0.096540  0.750000  0.403460  1
  Cl  Cl51  1  0.403460  0.096540  0.750000  1
  Cl  Cl52  1  0.066103  0.433897  0.250000  1
  Cl  Cl53  1  0.250000  0.066103  0.433897  1
  Cl  Cl54  1  0.433897  0.250000  0.066103  1
  Cl  Cl55  1  0.750000  0.933897  0.566103  1
  Cl  Cl56  1  0.566103  0.750000  0.933897  1
  Cl  Cl57  1  0.933897  0.566103  0.750000  1
  Cl  Cl58  1  0.319802  0.319802  0.319802  1
  Cl  Cl59  1  0.819802  0.819802  0.819802  1
  Cl  Cl60  1  0.680198  0.680198  0.680198  1
  Cl  Cl61  1  0.180198  0.180198  0.180198  1
