# generated using pymatgen
data_TaAlNi10(BO5)4
_symmetry_space_group_name_H-M   'P 1'
_cell_length_a   6.11235298
_cell_length_b   6.11235345
_cell_length_c   21.69122765
_cell_angle_alpha   79.82361098
_cell_angle_beta   79.82361135
_cell_angle_gamma   61.12621171
_symmetry_Int_Tables_number   1
_chemical_formula_structural   TaAlNi10(BO5)4
_chemical_formula_sum   'Ta2 Al2 Ni20 B8 O40'
_cell_volume   694.55879355
_cell_formula_units_Z   2
loop_
 _symmetry_equiv_pos_site_id
 _symmetry_equiv_pos_as_xyz
  1  'x, y, z'
loop_
 _atom_site_type_symbol
 _atom_site_label
 _atom_site_symmetry_multiplicity
 _atom_site_fract_x
 _atom_site_fract_y
 _atom_site_fract_z
 _atom_site_occupancy
  Ta  Ta0  1  0.714094  0.285906  0.750000  1
  Ta  Ta1  1  0.285906  0.714094  0.250000  1
  Al  Al2  1  0.000000  0.000000  0.500000  1
  Al  Al3  1  0.000000  0.000000  0.000000  1
  Ni  Ni4  1  0.580751  0.205410  0.607885  1
  Ni  Ni5  1  0.419249  0.794590  0.392115  1
  Ni  Ni6  1  0.794590  0.419249  0.892115  1
  Ni  Ni7  1  0.205410  0.580751  0.107885  1
  Ni  Ni8  1  0.187462  0.812538  0.750000  1
  Ni  Ni9  1  0.812538  0.187462  0.250000  1
  Ni  Ni10  1  0.678918  0.818800  0.750516  1
  Ni  Ni11  1  0.321082  0.181200  0.249484  1
  Ni  Ni12  1  0.181200  0.321082  0.749484  1
  Ni  Ni13  1  0.818800  0.678918  0.250516  1
  Ni  Ni14  1  0.511644  0.744122  0.000067  1
  Ni  Ni15  1  0.488356  0.255878  0.999933  1
  Ni  Ni16  1  0.255878  0.488356  0.499933  1
  Ni  Ni17  1  0.744122  0.511644  0.500067  1
  Ni  Ni18  1  0.500000  0.000000  0.500000  1
  Ni  Ni19  1  0.000000  0.500000  0.000000  1
  Ni  Ni20  1  0.796237  0.919319  0.894013  1
  Ni  Ni21  1  0.203763  0.080681  0.105987  1
  Ni  Ni22  1  0.080681  0.203763  0.605987  1
  Ni  Ni23  1  0.919319  0.796237  0.394013  1
  B  B24  1  0.568024  0.696533  0.630296  1
  B  B25  1  0.431976  0.303467  0.369704  1
  B  B26  1  0.303467  0.431976  0.869704  1
  B  B27  1  0.696533  0.568024  0.130296  1
  B  B28  1  0.309257  0.926688  0.870015  1
  B  B29  1  0.690743  0.073312  0.129985  1
  B  B30  1  0.073312  0.690743  0.629985  1
  B  B31  1  0.926688  0.309257  0.370015  1
  O  O32  1  0.329031  0.959443  0.803567  1
  O  O33  1  0.670969  0.040557  0.196433  1
  O  O34  1  0.040557  0.670969  0.696433  1
  O  O35  1  0.959443  0.329031  0.303567  1
  O  O36  1  0.645216  0.231736  0.513090  1
  O  O37  1  0.354784  0.768264  0.486910  1
  O  O38  1  0.768264  0.354784  0.986910  1
  O  O39  1  0.231736  0.645216  0.013090  1
  O  O40  1  0.524227  0.797272  0.900569  1
  O  O41  1  0.475773  0.202728  0.099431  1
  O  O42  1  0.202728  0.475773  0.599431  1
  O  O43  1  0.797272  0.524227  0.400569  1
  O  O44  1  0.513805  0.301817  0.901022  1
  O  O45  1  0.486195  0.698183  0.098978  1
  O  O46  1  0.698183  0.486195  0.598978  1
  O  O47  1  0.301817  0.513805  0.401022  1
  O  O48  1  0.465786  0.936338  0.600510  1
  O  O49  1  0.534214  0.063662  0.399490  1
  O  O50  1  0.063662  0.534214  0.899490  1
  O  O51  1  0.936338  0.465786  0.100510  1
  O  O52  1  0.829528  0.967494  0.800219  1
  O  O53  1  0.170472  0.032506  0.199781  1
  O  O54  1  0.032506  0.170472  0.699781  1
  O  O55  1  0.967494  0.829528  0.300219  1
  O  O56  1  0.537641  0.183398  0.702963  1
  O  O57  1  0.462359  0.816602  0.297037  1
  O  O58  1  0.816602  0.462359  0.797037  1
  O  O59  1  0.183398  0.537641  0.202963  1
  O  O60  1  0.926813  0.973995  0.095817  1
  O  O61  1  0.073187  0.026005  0.904183  1
  O  O62  1  0.026005  0.073187  0.404183  1
  O  O63  1  0.973995  0.926813  0.595817  1
  O  O64  1  0.766324  0.893357  0.987811  1
  O  O65  1  0.233676  0.106643  0.012189  1
  O  O66  1  0.106643  0.233676  0.512189  1
  O  O67  1  0.893357  0.766324  0.487811  1
  O  O68  1  0.541989  0.658691  0.697526  1
  O  O69  1  0.458011  0.341309  0.302474  1
  O  O70  1  0.341309  0.458011  0.802474  1
  O  O71  1  0.658691  0.541989  0.197526  1
