# generated using pymatgen
data_Hf4Zr(Re2Tc)8
_symmetry_space_group_name_H-M   'P 1'
_cell_length_a   8.46688740
_cell_length_b   8.46063724
_cell_length_c   8.45864700
_cell_angle_alpha   109.50406809
_cell_angle_beta   109.49181572
_cell_angle_gamma   109.54799605
_symmetry_Int_Tables_number   1
_chemical_formula_structural   Hf4Zr(Re2Tc)8
_chemical_formula_sum   'Hf4 Zr1 Re16 Tc8'
_cell_volume   465.69961163
_cell_formula_units_Z   1
loop_
 _symmetry_equiv_pos_site_id
 _symmetry_equiv_pos_as_xyz
  1  'x, y, z'
loop_
 _atom_site_type_symbol
 _atom_site_label
 _atom_site_symmetry_multiplicity
 _atom_site_fract_x
 _atom_site_fract_y
 _atom_site_fract_z
 _atom_site_occupancy
  Hf  Hf0  1  0.625844  0.999794  0.999431  1
  Hf  Hf1  1  0.999440  0.625952  0.999840  1
  Hf  Hf2  1  0.001428  0.999807  0.627206  1
  Hf  Hf3  1  0.371825  0.372010  0.372225  1
  Zr  Zr4  1  0.999033  0.999335  0.999408  1
  Re  Re5  1  0.676423  0.000753  0.396111  1
  Re  Re6  1  0.604495  0.603590  0.279324  1
  Re  Re7  1  0.280015  0.604726  0.604332  1
  Re  Re8  1  0.604579  0.279136  0.604118  1
  Re  Re9  1  0.376569  0.195022  0.000688  1
  Re  Re10  1  0.180637  0.805844  0.805942  1
  Re  Re11  1  0.375117  0.000496  0.194280  1
  Re  Re12  1  0.194776  0.376995  0.000885  1
  Re  Re13  1  0.000698  0.376725  0.194833  1
  Re  Re14  1  0.806508  0.180839  0.805677  1
  Re  Re15  1  0.806198  0.806222  0.181292  1
  Re  Re16  1  0.000573  0.194844  0.376904  1
  Re  Re17  1  0.194059  0.000609  0.376932  1
  Re  Re18  1  0.622651  0.622493  0.816080  1
  Re  Re19  1  0.815777  0.622232  0.622449  1
  Re  Re20  1  0.623204  0.816534  0.622441  1
  Tc  Tc21  1  0.396845  0.678172  0.000765  1
  Tc  Tc22  1  0.719613  0.322086  0.322038  1
  Tc  Tc23  1  0.396825  0.000905  0.678088  1
  Tc  Tc24  1  0.677683  0.396390  0.000595  1
  Tc  Tc25  1  0.001966  0.397530  0.678232  1
  Tc  Tc26  1  0.323249  0.720480  0.322867  1
  Tc  Tc27  1  0.323050  0.322948  0.720265  1
  Tc  Tc28  1  0.000923  0.677532  0.396754  1
