# generated using pymatgen
data_Cd3Ag(BrO3)8
_symmetry_space_group_name_H-M   'P 1'
_cell_length_a   5.86547670
_cell_length_b   10.85035622
_cell_length_c   11.26617018
_cell_angle_alpha   118.55200310
_cell_angle_beta   88.82543182
_cell_angle_gamma   89.78511401
_symmetry_Int_Tables_number   1
_chemical_formula_structural   Cd3Ag(BrO3)8
_chemical_formula_sum   'Cd3 Ag1 Br8 O24'
_cell_volume   629.60029370
_cell_formula_units_Z   1
loop_
 _symmetry_equiv_pos_site_id
 _symmetry_equiv_pos_as_xyz
  1  'x, y, z'
loop_
 _atom_site_type_symbol
 _atom_site_label
 _atom_site_symmetry_multiplicity
 _atom_site_fract_x
 _atom_site_fract_y
 _atom_site_fract_z
 _atom_site_occupancy
  Cd  Cd0  1  0.638960  0.231797  0.487875  1
  Cd  Cd1  1  0.142152  0.267852  0.009748  1
  Cd  Cd2  1  0.641235  0.731161  0.990054  1
  Ag  Ag3  1  0.141330  0.768451  0.512095  1
  Br  Br4  1  0.260250  0.423821  0.351822  1
  Br  Br5  1  0.771084  0.585719  0.649385  1
  Br  Br6  1  0.283718  0.916310  0.858740  1
  Br  Br7  1  0.764659  0.082760  0.151022  1
  Br  Br8  1  0.792762  0.084203  0.690482  1
  Br  Br9  1  0.275446  0.910858  0.311566  1
  Br  Br10  1  0.284517  0.412621  0.804926  1
  Br  Br11  1  0.777407  0.585857  0.186246  1
  O  O12  1  0.422581  0.900269  0.982081  1
  O  O13  1  0.917910  0.108849  0.037099  1
  O  O14  1  0.408309  0.802883  0.711769  1
  O  O15  1  0.871653  0.195503  0.304255  1
  O  O16  1  0.374992  0.313846  0.197415  1
  O  O17  1  0.879397  0.692059  0.802188  1
  O  O18  1  0.922020  0.222442  0.814958  1
  O  O19  1  0.406746  0.772619  0.182106  1
  O  O20  1  0.937168  0.938949  0.673126  1
  O  O21  1  0.415967  0.055074  0.330735  1
  O  O22  1  0.372014  0.076051  0.882217  1
  O  O23  1  0.862784  0.924539  0.125348  1
  O  O24  1  0.419367  0.272495  0.676855  1
  O  O25  1  0.900453  0.726819  0.307065  1
  O  O26  1  0.356802  0.401295  0.944237  1
  O  O27  1  0.848948  0.585306  0.037853  1
  O  O28  1  0.421605  0.556799  0.821995  1
  O  O29  1  0.924663  0.444371  0.173843  1
  O  O30  1  0.355020  0.584345  0.375984  1
  O  O31  1  0.862538  0.423918  0.617336  1
  O  O32  1  0.412987  0.396592  0.462283  1
  O  O33  1  0.930877  0.611757  0.535193  1
  O  O34  1  0.860086  0.092009  0.547228  1
  O  O35  1  0.351194  0.899803  0.452867  1
