# generated using pymatgen
data_CeDy(GaRh)2
_symmetry_space_group_name_H-M   'P 1'
_cell_length_a   4.19746000
_cell_length_b   7.01213700
_cell_length_c   15.82594200
_cell_angle_alpha   90.00000000
_cell_angle_beta   90.00000000
_cell_angle_gamma   90.00000000
_symmetry_Int_Tables_number   1
_chemical_formula_structural   CeDy(GaRh)2
_chemical_formula_sum   'Ce4 Dy4 Ga8 Rh8'
_cell_volume   465.80755539
_cell_formula_units_Z   4
loop_
 _symmetry_equiv_pos_site_id
 _symmetry_equiv_pos_as_xyz
  1  'x, y, z'
loop_
 _atom_site_type_symbol
 _atom_site_label
 _atom_site_symmetry_multiplicity
 _atom_site_fract_x
 _atom_site_fract_y
 _atom_site_fract_z
 _atom_site_occupancy
  Ce  Ce0  1  0.250000  0.036619  0.780104  1
  Ce  Ce1  1  0.750000  0.963381  0.219896  1
  Ce  Ce2  1  0.250000  0.536619  0.719896  1
  Ce  Ce3  1  0.750000  0.463381  0.280104  1
  Dy  Dy4  1  0.250000  0.163886  0.557905  1
  Dy  Dy5  1  0.750000  0.836114  0.442095  1
  Dy  Dy6  1  0.250000  0.663886  0.942095  1
  Dy  Dy7  1  0.750000  0.336114  0.057905  1
  Ga  Ga8  1  0.250000  0.125566  0.352246  1
  Ga  Ga9  1  0.750000  0.874434  0.647754  1
  Ga  Ga10  1  0.250000  0.625566  0.147754  1
  Ga  Ga11  1  0.750000  0.374434  0.852246  1
  Ga  Ga12  1  0.250000  0.005938  0.062056  1
  Ga  Ga13  1  0.750000  0.994062  0.937944  1
  Ga  Ga14  1  0.250000  0.505938  0.437944  1
  Ga  Ga15  1  0.750000  0.494062  0.562056  1
  Rh  Rh16  1  0.750000  0.265920  0.427869  1
  Rh  Rh17  1  0.250000  0.734080  0.572131  1
  Rh  Rh18  1  0.750000  0.765920  0.072131  1
  Rh  Rh19  1  0.250000  0.234080  0.927869  1
  Rh  Rh20  1  0.750000  0.750698  0.813067  1
  Rh  Rh21  1  0.250000  0.249302  0.186933  1
  Rh  Rh22  1  0.750000  0.250698  0.686933  1
  Rh  Rh23  1  0.250000  0.749302  0.313067  1
