# generated using pymatgen
data_CaTaAsF12
_symmetry_space_group_name_H-M   'P 1'
_cell_length_a   11.67014691
_cell_length_b   5.97054205
_cell_length_c   6.00814800
_cell_angle_alpha   57.29036955
_cell_angle_beta   55.91510245
_cell_angle_gamma   56.30552867
_symmetry_Int_Tables_number   1
_chemical_formula_structural   CaTaAsF12
_chemical_formula_sum   'Ca1 Ta1 As1 F12'
_cell_volume   272.00141541
_cell_formula_units_Z   1
loop_
 _symmetry_equiv_pos_site_id
 _symmetry_equiv_pos_as_xyz
  1  'x, y, z'
loop_
 _atom_site_type_symbol
 _atom_site_label
 _atom_site_symmetry_multiplicity
 _atom_site_fract_x
 _atom_site_fract_y
 _atom_site_fract_z
 _atom_site_occupancy
  Ca  Ca0  1  0.736332  0.508977  0.509988  1
  Ta  Ta1  1  0.007259  0.986718  0.002269  1
  As  As2  1  0.499007  0.011586  0.990359  1
  F  F3  1  0.157932  0.136204  0.763435  1
  F  F4  1  0.662000  0.114798  0.781673  1
  F  F5  1  0.059539  0.779800  0.322723  1
  F  F6  1  0.569559  0.797011  0.276774  1
  F  F7  1  0.110781  0.680812  0.867912  1
  F  F8  1  0.618374  0.703342  0.869217  1
  F  F9  1  0.454199  0.202407  0.688196  1
  F  F10  1  0.908401  0.235800  0.720571  1
  F  F11  1  0.355643  0.882786  0.200379  1
  F  F12  1  0.835658  0.851213  0.237023  1
  F  F13  1  0.402228  0.303554  0.104395  1
  F  F14  1  0.873089  0.304995  0.165087  1
