# generated using pymatgen
data_Tb14Y6Co3TcBi8
_symmetry_space_group_name_H-M   'P 1'
_cell_length_a   8.04715494
_cell_length_b   8.93632300
_cell_length_c   12.46768875
_cell_angle_alpha   90.00001283
_cell_angle_beta   90.21558366
_cell_angle_gamma   89.99998713
_symmetry_Int_Tables_number   1
_chemical_formula_structural   Tb14Y6Co3TcBi8
_chemical_formula_sum   'Tb14 Y6 Co3 Tc1 Bi8'
_cell_volume   896.56978523
_cell_formula_units_Z   1
loop_
 _symmetry_equiv_pos_site_id
 _symmetry_equiv_pos_as_xyz
  1  'x, y, z'
loop_
 _atom_site_type_symbol
 _atom_site_label
 _atom_site_symmetry_multiplicity
 _atom_site_fract_x
 _atom_site_fract_y
 _atom_site_fract_z
 _atom_site_occupancy
  Tb  Tb0  1  0.846579  0.750001  0.798450  1
  Tb  Tb1  1  0.651702  0.750000  0.294677  1
  Tb  Tb2  1  0.380705  0.750000  0.693923  1
  Tb  Tb3  1  0.117360  0.749999  0.188110  1
  Tb  Tb4  1  0.948265  0.750000  0.503760  1
  Tb  Tb5  1  0.548822  0.750000  0.003129  1
  Tb  Tb6  1  0.678542  0.043579  0.565025  1
  Tb  Tb7  1  0.324433  0.967078  0.437917  1
  Tb  Tb8  1  0.175891  0.966083  0.936948  1
  Tb  Tb9  1  0.324433  0.532922  0.437917  1
  Tb  Tb10  1  0.823041  0.036925  0.063030  1
  Tb  Tb11  1  0.678541  0.456421  0.565025  1
  Tb  Tb12  1  0.823040  0.463076  0.063030  1
  Tb  Tb13  1  0.175891  0.533918  0.936948  1
  Y  Y14  1  0.151141  0.250000  0.199384  1
  Y  Y15  1  0.347414  0.250000  0.700636  1
  Y  Y16  1  0.618865  0.249999  0.308045  1
  Y  Y17  1  0.880818  0.250000  0.809191  1
  Y  Y18  1  0.049594  0.250000  0.496357  1
  Y  Y19  1  0.452639  0.250000  0.997226  1
  Co  Co20  1  0.429390  0.249999  0.489074  1
  Co  Co21  1  0.060222  0.250000  0.991383  1
  Co  Co22  1  0.936992  0.750000  0.007128  1
  Tc  Tc23  1  0.576353  0.750000  0.512582  1
  Bi  Bi24  1  0.572233  0.491513  0.827222  1
  Bi  Bi25  1  0.425868  0.507022  0.173082  1
  Bi  Bi26  1  0.073698  0.507360  0.673829  1
  Bi  Bi27  1  0.425867  0.992978  0.173082  1
  Bi  Bi28  1  0.927866  0.491874  0.326416  1
  Bi  Bi29  1  0.572233  0.008487  0.827223  1
  Bi  Bi30  1  0.927866  0.008126  0.326416  1
  Bi  Bi31  1  0.073697  0.992641  0.673829  1
