# generated using pymatgen
data_Mg3Zr(SiRh2)8
_symmetry_space_group_name_H-M   'P 1'
_cell_length_a   4.02616200
_cell_length_b   9.02262594
_cell_length_c   11.05170164
_cell_angle_alpha   91.24866775
_cell_angle_beta   90.00000000
_cell_angle_gamma   90.00000000
_symmetry_Int_Tables_number   1
_chemical_formula_structural   Mg3Zr(SiRh2)8
_chemical_formula_sum   'Mg3 Zr1 Si8 Rh16'
_cell_volume   401.37489777
_cell_formula_units_Z   1
loop_
 _symmetry_equiv_pos_site_id
 _symmetry_equiv_pos_as_xyz
  1  'x, y, z'
loop_
 _atom_site_type_symbol
 _atom_site_label
 _atom_site_symmetry_multiplicity
 _atom_site_fract_x
 _atom_site_fract_y
 _atom_site_fract_z
 _atom_site_occupancy
  Mg  Mg0  1  0.250000  0.379618  0.316249  1
  Mg  Mg1  1  0.750000  0.870478  0.182369  1
  Mg  Mg2  1  0.750000  0.628075  0.680643  1
  Zr  Zr3  1  0.250000  0.137832  0.826651  1
  Si  Si4  1  0.250000  0.417360  0.627264  1
  Si  Si5  1  0.250000  0.089190  0.141296  1
  Si  Si6  1  0.750000  0.595225  0.361924  1
  Si  Si7  1  0.750000  0.902414  0.866955  1
  Si  Si8  1  0.250000  0.612736  0.058598  1
  Si  Si9  1  0.250000  0.884270  0.563314  1
  Si  Si10  1  0.750000  0.369738  0.934510  1
  Si  Si11  1  0.750000  0.119319  0.439254  1
  Rh  Rh12  1  0.250000  0.624041  0.503317  1
  Rh  Rh13  1  0.250000  0.876741  0.008422  1
  Rh  Rh14  1  0.750000  0.385144  0.487295  1
  Rh  Rh15  1  0.750000  0.107927  0.006186  1
  Rh  Rh16  1  0.250000  0.702248  0.264301  1
  Rh  Rh17  1  0.250000  0.799921  0.765415  1
  Rh  Rh18  1  0.750000  0.300218  0.722156  1
  Rh  Rh19  1  0.750000  0.205755  0.238453  1
  Rh  Rh20  1  0.250000  0.170512  0.562876  1
  Rh  Rh21  1  0.250000  0.325089  0.058488  1
  Rh  Rh22  1  0.750000  0.836830  0.442310  1
  Rh  Rh23  1  0.750000  0.661954  0.939658  1
  Rh  Rh24  1  0.250000  0.011831  0.341434  1
  Rh  Rh25  1  0.250000  0.479713  0.837820  1
  Rh  Rh26  1  0.750000  0.997265  0.665216  1
  Rh  Rh27  1  0.750000  0.508556  0.157626  1
