# generated using pymatgen
data_Cs4Na2ErInSb4
_symmetry_space_group_name_H-M   'P 1'
_cell_length_a   10.34181606
_cell_length_b   10.34181669
_cell_length_c   10.34187123
_cell_angle_alpha   137.23424613
_cell_angle_beta   138.52272016
_cell_angle_gamma   61.09478652
_symmetry_Int_Tables_number   1
_chemical_formula_structural   Cs4Na2ErInSb4
_chemical_formula_sum   'Cs4 Na2 Er1 In1 Sb4'
_cell_volume   491.93652071
_cell_formula_units_Z   1
loop_
 _symmetry_equiv_pos_site_id
 _symmetry_equiv_pos_as_xyz
  1  'x, y, z'
loop_
 _atom_site_type_symbol
 _atom_site_label
 _atom_site_symmetry_multiplicity
 _atom_site_fract_x
 _atom_site_fract_y
 _atom_site_fract_z
 _atom_site_occupancy
  Cs  Cs0  1  0.669284  0.401502  0.719648  1
  Cs  Cs1  1  0.830701  0.050341  0.232224  1
  Cs  Cs2  1  0.181854  0.949636  0.780352  1
  Cs  Cs3  1  0.318116  0.598477  0.267776  1
  Na  Na4  1  0.749963  0.999963  0.750000  1
  Na  Na5  1  0.249963  0.999963  0.250000  1
  Er  Er6  1  0.750004  0.500004  0.250000  1
  In  In7  1  0.250154  0.500154  0.750000  1
  Sb  Sb8  1  0.401485  0.184660  0.774993  1
  Sb  Sb9  1  0.590320  0.815344  0.216856  1
  Sb  Sb10  1  0.098488  0.373465  0.283144  1
  Sb  Sb11  1  0.909667  0.626491  0.725007  1
