# generated using pymatgen
data_PrEuHo5FeI12
_symmetry_space_group_name_H-M   'P 1'
_cell_length_a   9.85373593
_cell_length_b   9.74106065
_cell_length_c   9.85120426
_cell_angle_alpha   106.14344943
_cell_angle_beta   106.58001309
_cell_angle_gamma   106.91011076
_symmetry_Int_Tables_number   1
_chemical_formula_structural   PrEuHo5FeI12
_chemical_formula_sum   'Pr1 Eu1 Ho5 Fe1 I12'
_cell_volume   797.03891734
_cell_formula_units_Z   1
loop_
 _symmetry_equiv_pos_site_id
 _symmetry_equiv_pos_as_xyz
  1  'x, y, z'
loop_
 _atom_site_type_symbol
 _atom_site_label
 _atom_site_symmetry_multiplicity
 _atom_site_fract_x
 _atom_site_fract_y
 _atom_site_fract_z
 _atom_site_occupancy
  Pr  Pr0  1  0.411920  0.225425  0.479279  1
  Eu  Eu1  1  0.000032  0.000858  0.999014  1
  Ho  Ho2  1  0.797551  0.522157  0.595836  1
  Ho  Ho3  1  0.523048  0.595682  0.795706  1
  Ho  Ho4  1  0.202809  0.476515  0.404281  1
  Ho  Ho5  1  0.477546  0.406525  0.204381  1
  Ho  Ho6  1  0.585485  0.764039  0.520535  1
  Fe  Fe7  1  0.497729  0.493185  0.500131  1
  I  I8  1  0.734129  0.189785  0.578446  1
  I  I9  1  0.942857  0.868841  0.637243  1
  I  I10  1  0.576491  0.726794  0.190141  1
  I  I11  1  0.130064  0.363648  0.050856  1
  I  I12  1  0.638405  0.946486  0.863252  1
  I  I13  1  0.870006  0.639485  0.950452  1
  I  I14  1  0.040643  0.128893  0.353660  1
  I  I15  1  0.820174  0.429237  0.278990  1
  I  I16  1  0.359220  0.050914  0.120776  1
  I  I17  1  0.283302  0.813077  0.427058  1
  I  I18  1  0.181176  0.574846  0.721632  1
  I  I19  1  0.427412  0.283607  0.828333  1
