# generated using pymatgen
data_Sc10BeAu3
_symmetry_space_group_name_H-M   'P 1'
_cell_length_a   8.72289303
_cell_length_b   8.72466487
_cell_length_c   8.94222000
_cell_angle_alpha   90.00000000
_cell_angle_beta   90.00000000
_cell_angle_gamma   119.98338106
_symmetry_Int_Tables_number   1
_chemical_formula_structural   Sc10BeAu3
_chemical_formula_sum   'Sc20 Be2 Au6'
_cell_volume   589.46495012
_cell_formula_units_Z   2
loop_
 _symmetry_equiv_pos_site_id
 _symmetry_equiv_pos_as_xyz
  1  'x, y, z'
loop_
 _atom_site_type_symbol
 _atom_site_label
 _atom_site_symmetry_multiplicity
 _atom_site_fract_x
 _atom_site_fract_y
 _atom_site_fract_z
 _atom_site_occupancy
  Sc  Sc0  1  0.000000  0.000000  0.500000  1
  Sc  Sc1  1  0.000000  0.000000  0.000000  1
  Sc  Sc2  1  0.542463  0.457536  0.250000  1
  Sc  Sc3  1  0.542470  0.084945  0.250000  1
  Sc  Sc4  1  0.915061  0.457534  0.250000  1
  Sc  Sc5  1  0.457537  0.542464  0.750000  1
  Sc  Sc6  1  0.457530  0.915055  0.750000  1
  Sc  Sc7  1  0.084939  0.542466  0.750000  1
  Sc  Sc8  1  0.209904  0.790082  0.445369  1
  Sc  Sc9  1  0.209901  0.419795  0.445380  1
  Sc  Sc10  1  0.580190  0.790087  0.445370  1
  Sc  Sc11  1  0.790096  0.209918  0.554631  1
  Sc  Sc12  1  0.790099  0.580205  0.554620  1
  Sc  Sc13  1  0.419810  0.209913  0.554630  1
  Sc  Sc14  1  0.790096  0.209918  0.945369  1
  Sc  Sc15  1  0.790099  0.580205  0.945380  1
  Sc  Sc16  1  0.419810  0.209913  0.945370  1
  Sc  Sc17  1  0.209904  0.790082  0.054631  1
  Sc  Sc18  1  0.209901  0.419795  0.054620  1
  Sc  Sc19  1  0.580190  0.790087  0.054630  1
  Be  Be20  1  0.333317  0.666556  0.250000  1
  Be  Be21  1  0.666683  0.333444  0.750000  1
  Au  Au22  1  0.881124  0.118819  0.250000  1
  Au  Au23  1  0.881201  0.762373  0.250000  1
  Au  Au24  1  0.237669  0.118789  0.250000  1
  Au  Au25  1  0.118876  0.881181  0.750000  1
  Au  Au26  1  0.118799  0.237627  0.750000  1
  Au  Au27  1  0.762331  0.881211  0.750000  1
