# generated using pymatgen
data_TbY3Er2Ta2O14
_symmetry_space_group_name_H-M   'P 1'
_cell_length_a   6.48668659
_cell_length_b   6.48655935
_cell_length_c   7.47821648
_cell_angle_alpha   89.98102927
_cell_angle_beta   89.93881012
_cell_angle_gamma   108.69751383
_symmetry_Int_Tables_number   1
_chemical_formula_structural   TbY3Er2Ta2O14
_chemical_formula_sum   'Tb1 Y3 Er2 Ta2 O14'
_cell_volume   298.04906689
_cell_formula_units_Z   1
loop_
 _symmetry_equiv_pos_site_id
 _symmetry_equiv_pos_as_xyz
  1  'x, y, z'
loop_
 _atom_site_type_symbol
 _atom_site_label
 _atom_site_symmetry_multiplicity
 _atom_site_fract_x
 _atom_site_fract_y
 _atom_site_fract_z
 _atom_site_occupancy
  Tb  Tb0  1  0.465939  0.464683  0.001378  1
  Y  Y1  1  0.999773  0.465993  0.742350  1
  Y  Y2  1  0.533992  0.000046  0.757084  1
  Y  Y3  1  0.535599  0.534266  0.498727  1
  Er  Er4  1  0.464975  0.999358  0.258129  1
  Er  Er5  1  0.000684  0.535162  0.242324  1
  Ta  Ta6  1  0.002644  0.003053  0.498632  1
  Ta  Ta7  1  0.996839  0.997257  0.001388  1
  O  O8  1  0.069967  0.930033  0.249912  1
  O  O9  1  0.049233  0.308815  0.454287  1
  O  O10  1  0.080513  0.327496  0.027585  1
  O  O11  1  0.358294  0.641535  0.250407  1
  O  O12  1  0.370366  0.629640  0.749254  1
  O  O13  1  0.328106  0.081729  0.976872  1
  O  O14  1  0.310736  0.053970  0.540124  1
  O  O15  1  0.690957  0.950590  0.045673  1
  O  O16  1  0.672639  0.919780  0.472354  1
  O  O17  1  0.630997  0.369022  0.250727  1
  O  O18  1  0.639242  0.360588  0.749612  1
  O  O19  1  0.918597  0.672058  0.523193  1
  O  O20  1  0.945828  0.689026  0.959909  1
  O  O21  1  0.934080  0.065901  0.750083  1
