# generated using pymatgen
data_Hf3SiTc3Sn2
_symmetry_space_group_name_H-M   'P 1'
_cell_length_a   8.12288831
_cell_length_b   8.12289014
_cell_length_c   8.12288976
_cell_angle_alpha   126.18600700
_cell_angle_beta   129.74380081
_cell_angle_gamma   76.71679944
_symmetry_Int_Tables_number   1
_chemical_formula_structural   Hf3SiTc3Sn2
_chemical_formula_sum   'Hf6 Si2 Tc6 Sn4'
_cell_volume   323.05202884
_cell_formula_units_Z   2
loop_
 _symmetry_equiv_pos_site_id
 _symmetry_equiv_pos_as_xyz
  1  'x, y, z'
loop_
 _atom_site_type_symbol
 _atom_site_label
 _atom_site_symmetry_multiplicity
 _atom_site_fract_x
 _atom_site_fract_y
 _atom_site_fract_z
 _atom_site_occupancy
  Hf  Hf0  1  0.437133  0.627303  0.690170  1
  Hf  Hf1  1  0.562867  0.253037  0.190170  1
  Hf  Hf2  1  0.749868  0.879652  0.629783  1
  Hf  Hf3  1  0.250132  0.879916  0.129783  1
  Hf  Hf4  1  0.063288  0.253032  0.689745  1
  Hf  Hf5  1  0.936712  0.626456  0.189745  1
  Si  Si6  1  0.250181  0.253560  0.503381  1
  Si  Si7  1  0.749819  0.253200  0.003381  1
  Tc  Tc8  1  0.500000  0.494770  0.994770  1
  Tc  Tc9  1  0.000000  0.494770  0.494770  1
  Tc  Tc10  1  0.120675  0.253386  0.132560  1
  Tc  Tc11  1  0.879325  0.011885  0.132711  1
  Tc  Tc12  1  0.379173  0.011885  0.632560  1
  Tc  Tc13  1  0.620827  0.253386  0.632711  1
  Sn  Sn14  1  0.333181  0.586771  0.253092  1
  Sn  Sn15  1  0.666819  0.919912  0.253589  1
  Sn  Sn16  1  0.166323  0.919912  0.753092  1
  Sn  Sn17  1  0.833677  0.586771  0.753589  1
