# generated using pymatgen
data_Mg2TaNb3(SbIr)6
_symmetry_space_group_name_H-M   'P 1'
_cell_length_a   7.66027392
_cell_length_b   7.66010219
_cell_length_c   7.66775723
_cell_angle_alpha   99.62804454
_cell_angle_beta   99.61775086
_cell_angle_gamma   119.95939968
_symmetry_Int_Tables_number   1
_chemical_formula_structural   Mg2TaNb3(SbIr)6
_chemical_formula_sum   'Mg2 Ta1 Nb3 Sb6 Ir6'
_cell_volume   367.40978975
_cell_formula_units_Z   1
loop_
 _symmetry_equiv_pos_site_id
 _symmetry_equiv_pos_as_xyz
  1  'x, y, z'
loop_
 _atom_site_type_symbol
 _atom_site_label
 _atom_site_symmetry_multiplicity
 _atom_site_fract_x
 _atom_site_fract_y
 _atom_site_fract_z
 _atom_site_occupancy
  Mg  Mg0  1  0.837423  0.666939  0.003532  1
  Mg  Mg1  1  0.666909  0.837399  0.503551  1
  Ta  Ta2  1  0.331580  0.165309  0.499023  1
  Nb  Nb3  1  0.001215  0.498722  0.499345  1
  Nb  Nb4  1  0.165162  0.331308  0.998825  1
  Nb  Nb5  1  0.498423  0.000927  0.998820  1
  Sb  Sb6  1  0.254925  0.748624  0.246416  1
  Sb  Sb7  1  0.587916  0.432260  0.247362  1
  Sb  Sb8  1  0.906988  0.068030  0.255315  1
  Sb  Sb9  1  0.749296  0.254968  0.746687  1
  Sb  Sb10  1  0.432288  0.588189  0.747874  1
  Sb  Sb11  1  0.067899  0.907200  0.755584  1
  Ir  Ir12  1  0.619855  0.139088  0.368365  1
  Ir  Ir13  1  0.274696  0.439592  0.368993  1
  Ir  Ir14  1  0.981425  0.796530  0.388865  1
  Ir  Ir15  1  0.138951  0.621368  0.867258  1
  Ir  Ir16  1  0.440531  0.273849  0.865752  1
  Ir  Ir17  1  0.794518  0.979696  0.888434  1
