# generated using pymatgen
data_Na3Y(PuSe3)2
_symmetry_space_group_name_H-M   'P 1'
_cell_length_a   7.33408028
_cell_length_b   7.33407922
_cell_length_c   7.35559400
_cell_angle_alpha   80.34558050
_cell_angle_beta   80.34557400
_cell_angle_gamma   119.97977914
_symmetry_Int_Tables_number   1
_chemical_formula_structural   Na3Y(PuSe3)2
_chemical_formula_sum   'Na3 Y1 Pu2 Se6'
_cell_volume   322.87100740
_cell_formula_units_Z   1
loop_
 _symmetry_equiv_pos_site_id
 _symmetry_equiv_pos_as_xyz
  1  'x, y, z'
loop_
 _atom_site_type_symbol
 _atom_site_label
 _atom_site_symmetry_multiplicity
 _atom_site_fract_x
 _atom_site_fract_y
 _atom_site_fract_z
 _atom_site_occupancy
  Na  Na0  1  0.500000  0.500000  0.500000  1
  Na  Na1  1  0.837152  0.162848  0.500000  1
  Na  Na2  1  0.162848  0.837152  0.500000  1
  Y  Y3  1  0.000000  0.000000  0.000000  1
  Pu  Pu4  1  0.333262  0.666738  0.000000  1
  Pu  Pu5  1  0.666738  0.333262  0.000000  1
  Se  Se6  1  0.590809  0.922557  0.229699  1
  Se  Se7  1  0.745189  0.745189  0.769696  1
  Se  Se8  1  0.409191  0.077443  0.770301  1
  Se  Se9  1  0.077443  0.409191  0.770301  1
  Se  Se10  1  0.922557  0.590809  0.229699  1
  Se  Se11  1  0.254811  0.254811  0.230304  1
