# generated using pymatgen
data_Sc2Ta(Ni2Pt)3
_symmetry_space_group_name_H-M   'P 1'
_cell_length_a   3.84219500
_cell_length_b   3.73099300
_cell_length_c   11.55794500
_cell_angle_alpha   90.00000000
_cell_angle_beta   90.00000000
_cell_angle_gamma   90.00000000
_symmetry_Int_Tables_number   1
_chemical_formula_structural   Sc2Ta(Ni2Pt)3
_chemical_formula_sum   'Sc2 Ta1 Ni6 Pt3'
_cell_volume   165.68548379
_cell_formula_units_Z   1
loop_
 _symmetry_equiv_pos_site_id
 _symmetry_equiv_pos_as_xyz
  1  'x, y, z'
loop_
 _atom_site_type_symbol
 _atom_site_label
 _atom_site_symmetry_multiplicity
 _atom_site_fract_x
 _atom_site_fract_y
 _atom_site_fract_z
 _atom_site_occupancy
  Sc  Sc0  1  0.000000  0.000000  0.334841  1
  Sc  Sc1  1  0.000000  0.000000  0.665159  1
  Ta  Ta2  1  0.000000  0.000000  0.000000  1
  Ni  Ni3  1  0.500000  0.500000  0.000000  1
  Ni  Ni4  1  0.500000  0.500000  0.329286  1
  Ni  Ni5  1  0.500000  0.500000  0.670714  1
  Ni  Ni6  1  0.000000  0.500000  0.157842  1
  Ni  Ni7  1  0.000000  0.500000  0.500000  1
  Ni  Ni8  1  0.000000  0.500000  0.842158  1
  Pt  Pt9  1  0.500000  0.000000  0.163405  1
  Pt  Pt10  1  0.500000  0.000000  0.500000  1
  Pt  Pt11  1  0.500000  0.000000  0.836595  1
