# generated using pymatgen
data_SmY7Sc11Si16Ag
_symmetry_space_group_name_H-M   'P 1'
_cell_length_a   7.05697096
_cell_length_b   7.40946470
_cell_length_c   14.06173029
_cell_angle_alpha   90.04618293
_cell_angle_beta   89.93646176
_cell_angle_gamma   89.94915298
_symmetry_Int_Tables_number   1
_chemical_formula_structural   SmY7Sc11Si16Ag
_chemical_formula_sum   'Sm1 Y7 Sc11 Si16 Ag1'
_cell_volume   735.26407619
_cell_formula_units_Z   1
loop_
 _symmetry_equiv_pos_site_id
 _symmetry_equiv_pos_as_xyz
  1  'x, y, z'
loop_
 _atom_site_type_symbol
 _atom_site_label
 _atom_site_symmetry_multiplicity
 _atom_site_fract_x
 _atom_site_fract_y
 _atom_site_fract_z
 _atom_site_occupancy
  Sm  Sm0  1  0.482906  0.672569  0.598866  1
  Y  Y1  1  0.011571  0.174255  0.096848  1
  Y  Y2  1  0.990145  0.815818  0.900740  1
  Y  Y3  1  0.482717  0.673671  0.900346  1
  Y  Y4  1  0.989965  0.816040  0.599669  1
  Y  Y5  1  0.511334  0.323931  0.096842  1
  Y  Y6  1  0.011058  0.174347  0.402647  1
  Y  Y7  1  0.511104  0.324009  0.402620  1
  Sc  Sc8  1  0.838845  0.497548  0.250030  1
  Sc  Sc9  1  0.340475  0.002210  0.249927  1
  Sc  Sc10  1  0.658383  0.999144  0.750312  1
  Sc  Sc11  1  0.326032  0.183196  0.626023  1
  Sc  Sc12  1  0.671584  0.823711  0.375158  1
  Sc  Sc13  1  0.170791  0.678951  0.373819  1
  Sc  Sc14  1  0.671655  0.823084  0.124615  1
  Sc  Sc15  1  0.835709  0.326613  0.626131  1
  Sc  Sc16  1  0.326382  0.183409  0.874299  1
  Sc  Sc17  1  0.834879  0.326771  0.874733  1
  Sc  Sc18  1  0.171155  0.679066  0.125868  1
  Si  Si19  1  0.028873  0.104198  0.750330  1
  Si  Si20  1  0.968665  0.885441  0.249902  1
  Si  Si21  1  0.467764  0.618204  0.249821  1
  Si  Si22  1  0.539185  0.381743  0.750646  1
  Si  Si23  1  0.287441  0.888524  0.750664  1
  Si  Si24  1  0.713906  0.126132  0.249910  1
  Si  Si25  1  0.213364  0.373524  0.249879  1
  Si  Si26  1  0.777912  0.627205  0.751028  1
  Si  Si27  1  0.158010  0.458812  0.530683  1
  Si  Si28  1  0.843975  0.535439  0.461066  1
  Si  Si29  1  0.344677  0.966865  0.461716  1
  Si  Si30  1  0.844290  0.535370  0.038734  1
  Si  Si31  1  0.657868  0.035816  0.540037  1
  Si  Si32  1  0.160282  0.460233  0.968441  1
  Si  Si33  1  0.656887  0.033807  0.959543  1
  Si  Si34  1  0.345450  0.965002  0.037541  1
  Ag  Ag35  1  0.154760  0.505344  0.750565  1
