# generated using pymatgen
data_Ho4MnAl6Ir
_symmetry_space_group_name_H-M   'P 1'
_cell_length_a   5.51080300
_cell_length_b   5.51080204
_cell_length_c   8.73124800
_cell_angle_alpha   90.00000000
_cell_angle_beta   90.00000000
_cell_angle_gamma   120.00001174
_symmetry_Int_Tables_number   1
_chemical_formula_structural   Ho4MnAl6Ir
_chemical_formula_sum   'Ho4 Mn1 Al6 Ir1'
_cell_volume   229.63421697
_cell_formula_units_Z   1
loop_
 _symmetry_equiv_pos_site_id
 _symmetry_equiv_pos_as_xyz
  1  'x, y, z'
loop_
 _atom_site_type_symbol
 _atom_site_label
 _atom_site_symmetry_multiplicity
 _atom_site_fract_x
 _atom_site_fract_y
 _atom_site_fract_z
 _atom_site_occupancy
  Ho  Ho0  1  0.333333  0.666667  0.445299  1
  Ho  Ho1  1  0.666667  0.333333  0.944483  1
  Ho  Ho2  1  0.333333  0.666667  0.055517  1
  Ho  Ho3  1  0.666667  0.333333  0.554701  1
  Mn  Mn4  1  0.000000  0.000000  0.000000  1
  Al  Al5  1  0.836984  0.673969  0.250095  1
  Al  Al6  1  0.836984  0.163016  0.250095  1
  Al  Al7  1  0.163016  0.836984  0.749905  1
  Al  Al8  1  0.326031  0.163016  0.250095  1
  Al  Al9  1  0.673969  0.836984  0.749905  1
  Al  Al10  1  0.163016  0.326031  0.749905  1
  Ir  Ir11  1  0.000000  0.000000  0.500000  1
