# generated using pymatgen
data_Zr8In4Pd3Pt2Au3
_symmetry_space_group_name_H-M   'P 1'
_cell_length_a   7.55699064
_cell_length_b   7.56003129
_cell_length_c   7.04676929
_cell_angle_alpha   90.06537001
_cell_angle_beta   90.09361953
_cell_angle_gamma   90.10252832
_symmetry_Int_Tables_number   1
_chemical_formula_structural   Zr8In4Pd3Pt2Au3
_chemical_formula_sum   'Zr8 In4 Pd3 Pt2 Au3'
_cell_volume   402.58813423
_cell_formula_units_Z   1
loop_
 _symmetry_equiv_pos_site_id
 _symmetry_equiv_pos_as_xyz
  1  'x, y, z'
loop_
 _atom_site_type_symbol
 _atom_site_label
 _atom_site_symmetry_multiplicity
 _atom_site_fract_x
 _atom_site_fract_y
 _atom_site_fract_z
 _atom_site_occupancy
  Zr  Zr0  1  0.141675  0.152908  0.004603  1
  Zr  Zr1  1  0.842696  0.852939  0.997865  1
  Zr  Zr2  1  0.652171  0.351492  0.496298  1
  Zr  Zr3  1  0.360523  0.644027  0.495960  1
  Zr  Zr4  1  0.690843  0.312625  0.003393  1
  Zr  Zr5  1  0.317664  0.687159  0.002907  1
  Zr  Zr6  1  0.802551  0.808139  0.501841  1
  Zr  Zr7  1  0.189561  0.196346  0.494048  1
  In  In8  1  0.504176  0.000846  0.249574  1
  In  In9  1  0.503615  0.998878  0.750279  1
  In  In10  1  0.998426  0.497984  0.249603  1
  In  In11  1  0.995748  0.496922  0.749822  1
  Pd  Pd12  1  0.633605  0.631061  0.207328  1
  Pd  Pd13  1  0.868652  0.130544  0.711402  1
  Pd  Pd14  1  0.868682  0.130084  0.290623  1
  Pt  Pt15  1  0.371587  0.370449  0.213909  1
  Pt  Pt16  1  0.630583  0.629171  0.785551  1
  Au  Au17  1  0.369689  0.367481  0.793607  1
  Au  Au18  1  0.127877  0.870096  0.291510  1
  Au  Au19  1  0.129672  0.870849  0.709878  1
