# generated using pymatgen
data_Yb4Ho5ErIr4
_symmetry_space_group_name_H-M   'P 1'
_cell_length_a   6.50453195
_cell_length_b   7.25113383
_cell_length_c   8.46166200
_cell_angle_alpha   97.05011416
_cell_angle_beta   112.57842007
_cell_angle_gamma   89.96761391
_symmetry_Int_Tables_number   1
_chemical_formula_structural   Yb4Ho5ErIr4
_chemical_formula_sum   'Yb4 Ho5 Er1 Ir4'
_cell_volume   365.24889531
_cell_formula_units_Z   1
loop_
 _symmetry_equiv_pos_site_id
 _symmetry_equiv_pos_as_xyz
  1  'x, y, z'
loop_
 _atom_site_type_symbol
 _atom_site_label
 _atom_site_symmetry_multiplicity
 _atom_site_fract_x
 _atom_site_fract_y
 _atom_site_fract_z
 _atom_site_occupancy
  Yb  Yb0  1  0.973723  0.921142  0.183011  1
  Yb  Yb1  1  0.790772  0.578886  0.816942  1
  Yb  Yb2  1  0.026138  0.078750  0.816919  1
  Yb  Yb3  1  0.209322  0.421231  0.183051  1
  Ho  Ho4  1  0.210648  0.682310  0.560135  1
  Ho  Ho5  1  0.349516  0.182134  0.560120  1
  Ho  Ho6  1  0.789159  0.317748  0.439812  1
  Ho  Ho7  1  0.431089  0.750032  0.000220  1
  Ho  Ho8  1  0.568940  0.249977  0.000009  1
  Er  Er9  1  0.650388  0.817893  0.439653  1
  Ir  Ir10  1  0.815145  0.572518  0.226745  1
  Ir  Ir11  1  0.588783  0.927619  0.773200  1
  Ir  Ir12  1  0.184838  0.427715  0.773469  1
  Ir  Ir13  1  0.411539  0.072044  0.226714  1
