# generated using pymatgen
data_Li12Pr11Y(TeO6)8
_symmetry_space_group_name_H-M   'P 1'
_cell_length_a   11.01790134
_cell_length_b   11.03711727
_cell_length_c   11.03734909
_cell_angle_alpha   109.46100263
_cell_angle_beta   109.51229952
_cell_angle_gamma   109.51149522
_symmetry_Int_Tables_number   1
_chemical_formula_structural   Li12Pr11Y(TeO6)8
_chemical_formula_sum   'Li12 Pr11 Y1 Te8 O48'
_cell_volume   1032.32270964
_cell_formula_units_Z   1
loop_
 _symmetry_equiv_pos_site_id
 _symmetry_equiv_pos_as_xyz
  1  'x, y, z'
loop_
 _atom_site_type_symbol
 _atom_site_label
 _atom_site_symmetry_multiplicity
 _atom_site_fract_x
 _atom_site_fract_y
 _atom_site_fract_z
 _atom_site_occupancy
  Li  Li0  1  0.874661  0.749319  0.125039  1
  Li  Li1  1  0.249994  0.874976  0.124983  1
  Li  Li2  1  0.874662  0.125340  0.249622  1
  Li  Li3  1  0.374961  0.624905  0.249970  1
  Li  Li4  1  0.749985  0.623528  0.373544  1
  Li  Li5  1  0.625327  0.250381  0.374634  1
  Li  Li6  1  0.374960  0.750056  0.624989  1
  Li  Li7  1  0.249994  0.375018  0.625010  1
  Li  Li8  1  0.125032  0.875019  0.749923  1
  Li  Li9  1  0.625324  0.374947  0.750694  1
  Li  Li10  1  0.125033  0.250014  0.875109  1
  Li  Li11  1  0.749985  0.126458  0.876442  1
  Pr  Pr12  1  0.376348  0.250600  0.125348  1
  Pr  Pr13  1  0.624944  0.874986  0.249978  1
  Pr  Pr14  1  0.123664  0.374659  0.249396  1
  Pr  Pr15  1  0.250024  0.125012  0.375011  1
  Pr  Pr16  1  0.123666  0.749006  0.374270  1
  Pr  Pr17  1  0.750011  0.875005  0.625004  1
  Pr  Pr18  1  0.875106  0.250049  0.625039  1
  Pr  Pr19  1  0.376349  0.125748  0.750999  1
  Pr  Pr20  1  0.875105  0.625057  0.750067  1
  Pr  Pr21  1  0.250014  0.625006  0.875007  1
  Pr  Pr22  1  0.624945  0.749957  0.874964  1
  Y  Y23  1  0.749976  0.374990  0.124990  1
  Te  Te24  1  0.000106  0.000224  0.000137  1
  Te  Te25  1  0.502203  0.002637  0.001435  1
  Te  Te26  1  0.502202  0.499566  0.000767  1
  Te  Te27  1  0.997784  0.499228  0.000422  1
  Te  Te28  1  0.000107  0.999882  0.499968  1
  Te  Te29  1  0.499891  0.499873  0.499781  1
  Te  Te30  1  0.499891  0.000018  0.500109  1
  Te  Te31  1  0.997784  0.498556  0.497360  1
  O  O32  1  0.901584  0.330891  0.025448  1
  O  O33  1  0.115674  0.192948  0.022169  1
  O  O34  1  0.406830  0.885355  0.076896  1
  O  O35  1  0.671292  0.693252  0.077338  1
  O  O36  1  0.671290  0.978039  0.093953  1
  O  O37  1  0.424452  0.614779  0.094466  1
  O  O38  1  0.919450  0.590954  0.116070  1
  O  O39  1  0.193034  0.022280  0.115870  1
  O  O40  1  0.580579  0.196641  0.171490  1
  O  O41  1  0.598385  0.474572  0.169123  1
  O  O42  1  0.169855  0.576374  0.192331  1
  O  O43  1  0.022109  0.115875  0.192723  1
  O  O44  1  0.384328  0.477858  0.307069  1
  O  O45  1  0.919448  0.328497  0.303378  1
  O  O46  1  0.306972  0.922828  0.329242  1
  O  O47  1  0.022111  0.906235  0.329388  1
  O  O48  1  0.901585  0.570694  0.376136  1
  O  O49  1  0.477853  0.307271  0.384078  1
  O  O50  1  0.522072  0.829494  0.406263  1
  O  O51  1  0.884167  0.076883  0.406163  1
  O  O52  1  0.807003  0.829045  0.422921  1
  O  O53  1  0.615814  0.093836  0.423103  1
  O  O54  1  0.306971  0.384143  0.477730  1
  O  O55  1  0.169856  0.593482  0.477524  1
  O  O56  1  0.693007  0.615901  0.522040  1
  O  O57  1  0.828717  0.406051  0.521961  1
  O  O58  1  0.193035  0.170755  0.577164  1
  O  O59  1  0.384328  0.906471  0.577259  1
  O  O60  1  0.115675  0.922726  0.593506  1
  O  O61  1  0.477853  0.170582  0.593774  1
  O  O62  1  0.522071  0.692578  0.615809  1
  O  O63  1  0.093174  0.423122  0.614670  1
  O  O64  1  0.977966  0.093742  0.670519  1
  O  O65  1  0.693005  0.077104  0.670964  1
  O  O66  1  0.615813  0.521979  0.692712  1
  O  O67  1  0.075531  0.670017  0.690314  1
  O  O68  1  0.977966  0.884225  0.807444  1
  O  O69  1  0.828719  0.422668  0.806757  1
  O  O70  1  0.406828  0.521475  0.829933  1
  O  O71  1  0.424454  0.809672  0.829987  1
  O  O72  1  0.807002  0.977958  0.884081  1
  O  O73  1  0.075531  0.405514  0.885216  1
  O  O74  1  0.580581  0.383939  0.909089  1
  O  O75  1  0.330142  0.022471  0.906523  1
  O  O76  1  0.330139  0.307670  0.923617  1
  O  O77  1  0.598384  0.123813  0.929262  1
  O  O78  1  0.093176  0.670054  0.978504  1
  O  O79  1  0.884167  0.807283  0.978005  1
