# generated using pymatgen
data_SrYb3In8O16
_symmetry_space_group_name_H-M   'P 1'
_cell_length_a   3.26219100
_cell_length_b   9.74836541
_cell_length_c   11.45086847
_cell_angle_alpha   90.03305839
_cell_angle_beta   90.00000000
_cell_angle_gamma   90.00000000
_symmetry_Int_Tables_number   1
_chemical_formula_structural   SrYb3In8O16
_chemical_formula_sum   'Sr1 Yb3 In8 O16'
_cell_volume   364.14935009
_cell_formula_units_Z   1
loop_
 _symmetry_equiv_pos_site_id
 _symmetry_equiv_pos_as_xyz
  1  'x, y, z'
loop_
 _atom_site_type_symbol
 _atom_site_label
 _atom_site_symmetry_multiplicity
 _atom_site_fract_x
 _atom_site_fract_y
 _atom_site_fract_z
 _atom_site_occupancy
  Sr  Sr0  1  0.250000  0.244518  0.346844  1
  Yb  Yb1  1  0.750000  0.255066  0.848544  1
  Yb  Yb2  1  0.250000  0.743195  0.152254  1
  Yb  Yb3  1  0.750000  0.755088  0.653199  1
  In  In4  1  0.750000  0.914129  0.395353  1
  In  In5  1  0.250000  0.080201  0.609864  1
  In  In6  1  0.750000  0.419237  0.102894  1
  In  In7  1  0.250000  0.584234  0.894083  1
  In  In8  1  0.750000  0.928492  0.886640  1
  In  In9  1  0.250000  0.066382  0.109745  1
  In  In10  1  0.750000  0.432463  0.616158  1
  In  In11  1  0.250000  0.575409  0.388539  1
  O  O12  1  0.750000  0.708298  0.318198  1
  O  O13  1  0.250000  0.292438  0.681578  1
  O  O14  1  0.750000  0.205736  0.168705  1
  O  O15  1  0.250000  0.792046  0.818727  1
  O  O16  1  0.750000  0.629197  0.027567  1
  O  O17  1  0.250000  0.373528  0.970007  1
  O  O18  1  0.750000  0.120787  0.479224  1
  O  O19  1  0.250000  0.869391  0.528794  1
  O  O20  1  0.750000  0.022943  0.719085  1
  O  O21  1  0.250000  0.970442  0.281167  1
  O  O22  1  0.750000  0.525439  0.784346  1
  O  O23  1  0.250000  0.481150  0.214981  1
  O  O24  1  0.750000  0.908179  0.074248  1
  O  O25  1  0.250000  0.088882  0.922455  1
  O  O26  1  0.750000  0.421011  0.428402  1
  O  O27  1  0.250000  0.592118  0.578399  1
