# generated using pymatgen
data_TbTi2AlAu3
_symmetry_space_group_name_H-M   'P 1'
_cell_length_a   5.68081904
_cell_length_b   5.68081776
_cell_length_c   5.65176877
_cell_angle_alpha   101.58045535
_cell_angle_beta   101.58045360
_cell_angle_gamma   126.91042354
_symmetry_Int_Tables_number   1
_chemical_formula_structural   TbTi2AlAu3
_chemical_formula_sum   'Tb1 Ti2 Al1 Au3'
_cell_volume   130.29511250
_cell_formula_units_Z   1
loop_
 _symmetry_equiv_pos_site_id
 _symmetry_equiv_pos_as_xyz
  1  'x, y, z'
loop_
 _atom_site_type_symbol
 _atom_site_label
 _atom_site_symmetry_multiplicity
 _atom_site_fract_x
 _atom_site_fract_y
 _atom_site_fract_z
 _atom_site_occupancy
  Tb  Tb0  1  0.004190  0.995810  0.000000  1
  Ti  Ti1  1  0.246369  0.753631  0.500000  1
  Ti  Ti2  1  0.746369  0.253631  0.500000  1
  Al  Al3  1  0.307157  0.692843  0.000000  1
  Au  Au4  1  0.707921  0.292079  0.000000  1
  Au  Au5  1  0.679118  0.691124  0.370243  1
  Au  Au6  1  0.308876  0.320882  0.629757  1
