# generated using pymatgen
data_LaNd2Mg3RuAu2
_symmetry_space_group_name_H-M   'P 1'
_cell_length_a   7.70014700
_cell_length_b   7.63010075
_cell_length_c   4.24759800
_cell_angle_alpha   90.00000000
_cell_angle_beta   90.00000000
_cell_angle_gamma   120.30586420
_symmetry_Int_Tables_number   1
_chemical_formula_structural   LaNd2Mg3RuAu2
_chemical_formula_sum   'La1 Nd2 Mg3 Ru1 Au2'
_cell_volume   215.45497421
_cell_formula_units_Z   1
loop_
 _symmetry_equiv_pos_site_id
 _symmetry_equiv_pos_as_xyz
  1  'x, y, z'
loop_
 _atom_site_type_symbol
 _atom_site_label
 _atom_site_symmetry_multiplicity
 _atom_site_fract_x
 _atom_site_fract_y
 _atom_site_fract_z
 _atom_site_occupancy
  La  La0  1  0.567539  0.972161  0.000000  1
  Nd  Nd1  1  0.021357  0.596767  0.000000  1
  Nd  Nd2  1  0.401998  0.422679  0.000000  1
  Mg  Mg3  1  0.242414  0.998856  0.500000  1
  Mg  Mg4  1  0.002754  0.248724  0.500000  1
  Mg  Mg5  1  0.753472  0.752514  0.500000  1
  Ru  Ru6  1  0.339915  0.672947  0.500000  1
  Au  Au7  1  0.667967  0.335239  0.500000  1
  Au  Au8  1  0.002582  0.000114  0.000000  1
