# generated using pymatgen
data_Li2Sm3TiIr3
_symmetry_space_group_name_H-M   'P 1'
_cell_length_a   7.30242400
_cell_length_b   7.23120640
_cell_length_c   4.04255700
_cell_angle_alpha   90.00000000
_cell_angle_beta   90.00000000
_cell_angle_gamma   119.67791974
_symmetry_Int_Tables_number   1
_chemical_formula_structural   Li2Sm3TiIr3
_chemical_formula_sum   'Li2 Sm3 Ti1 Ir3'
_cell_volume   185.46627873
_cell_formula_units_Z   1
loop_
 _symmetry_equiv_pos_site_id
 _symmetry_equiv_pos_as_xyz
  1  'x, y, z'
loop_
 _atom_site_type_symbol
 _atom_site_label
 _atom_site_symmetry_multiplicity
 _atom_site_fract_x
 _atom_site_fract_y
 _atom_site_fract_z
 _atom_site_occupancy
  Li  Li0  1  0.241589  0.235135  0.000000  1
  Li  Li1  1  0.758411  0.993546  0.000000  1
  Sm  Sm2  1  0.000000  0.396323  0.500000  1
  Sm  Sm3  1  0.576291  0.586627  0.500000  1
  Sm  Sm4  1  0.423709  0.010336  0.500000  1
  Ti  Ti5  1  0.000000  0.758709  0.000000  1
  Ir  Ir6  1  0.306669  0.679892  0.000000  1
  Ir  Ir7  1  0.693331  0.373221  0.000000  1
  Ir  Ir8  1  0.000000  0.966211  0.500000  1
