# generated using pymatgen
data_Sc8Si15Tc12Ge
_symmetry_space_group_name_H-M   'P 1'
_cell_length_a   6.65772712
_cell_length_b   6.65109391
_cell_length_c   12.35117668
_cell_angle_alpha   90.09219885
_cell_angle_beta   89.88398969
_cell_angle_gamma   90.15807845
_symmetry_Int_Tables_number   1
_chemical_formula_structural   Sc8Si15Tc12Ge
_chemical_formula_sum   'Sc8 Si15 Tc12 Ge1'
_cell_volume   546.92062737
_cell_formula_units_Z   1
loop_
 _symmetry_equiv_pos_site_id
 _symmetry_equiv_pos_as_xyz
  1  'x, y, z'
loop_
 _atom_site_type_symbol
 _atom_site_label
 _atom_site_symmetry_multiplicity
 _atom_site_fract_x
 _atom_site_fract_y
 _atom_site_fract_z
 _atom_site_occupancy
  Sc  Sc0  1  0.003597  0.659523  0.030284  1
  Sc  Sc1  1  0.997269  0.340366  0.531944  1
  Sc  Sc2  1  0.342311  0.998162  0.469737  1
  Sc  Sc3  1  0.159304  0.496293  0.780611  1
  Sc  Sc4  1  0.839418  0.502818  0.278846  1
  Sc  Sc5  1  0.496120  0.160120  0.219630  1
  Sc  Sc6  1  0.505167  0.842120  0.719282  1
  Sc  Sc7  1  0.658575  0.003925  0.969137  1
  Si  Si8  1  0.622569  0.307888  0.433763  1
  Si  Si9  1  0.377385  0.693697  0.933671  1
  Si  Si10  1  0.194285  0.120946  0.683596  1
  Si  Si11  1  0.309288  0.620474  0.567633  1
  Si  Si12  1  0.693374  0.376573  0.066290  1
  Si  Si13  1  0.805547  0.876970  0.182317  1
  Si  Si14  1  0.121941  0.193960  0.316703  1
  Si  Si15  1  0.971159  0.282188  0.934764  1
  Si  Si16  1  0.723937  0.027280  0.563923  1
  Si  Si17  1  0.216235  0.470170  0.184106  1
  Si  Si18  1  0.781127  0.527481  0.686403  1
  Si  Si19  1  0.471264  0.218125  0.815060  1
  Si  Si20  1  0.528375  0.784566  0.314680  1
  Si  Si21  1  0.283131  0.971367  0.065244  1
  Si  Si22  1  0.876698  0.805483  0.818090  1
  Tc  Tc23  1  0.664603  0.672069  0.501628  1
  Tc  Tc24  1  0.170231  0.833128  0.247063  1
  Tc  Tc25  1  0.330881  0.331246  0.000001  1
  Tc  Tc26  1  0.024323  0.815321  0.634423  1
  Tc  Tc27  1  0.977589  0.178945  0.128288  1
  Tc  Tc28  1  0.813889  0.027737  0.367289  1
  Tc  Tc29  1  0.325602  0.478619  0.376460  1
  Tc  Tc30  1  0.678647  0.520195  0.880578  1
  Tc  Tc31  1  0.480510  0.318013  0.620853  1
  Tc  Tc32  1  0.519964  0.676449  0.120984  1
  Tc  Tc33  1  0.178397  0.978104  0.871872  1
  Tc  Tc34  1  0.831291  0.168897  0.750317  1
  Ge  Ge35  1  0.025994  0.720780  0.434531  1
