# generated using pymatgen
data_HoTm9(In2Ir)4
_symmetry_space_group_name_H-M   'P 1'
_cell_length_a   8.02353427
_cell_length_b   18.21587862
_cell_length_c   3.55007200
_cell_angle_alpha   90.00000000
_cell_angle_beta   90.00000000
_cell_angle_gamma   89.97027367
_symmetry_Int_Tables_number   1
_chemical_formula_structural   HoTm9(In2Ir)4
_chemical_formula_sum   'Ho1 Tm9 In8 Ir4'
_cell_volume   518.86328177
_cell_formula_units_Z   1
loop_
 _symmetry_equiv_pos_site_id
 _symmetry_equiv_pos_as_xyz
  1  'x, y, z'
loop_
 _atom_site_type_symbol
 _atom_site_label
 _atom_site_symmetry_multiplicity
 _atom_site_fract_x
 _atom_site_fract_y
 _atom_site_fract_z
 _atom_site_occupancy
  Ho  Ho0  1  0.000000  0.000000  0.000000  1
  Tm  Tm1  1  0.500000  0.500000  0.000000  1
  Tm  Tm2  1  0.752391  0.277725  0.000000  1
  Tm  Tm3  1  0.247609  0.722275  0.000000  1
  Tm  Tm4  1  0.747538  0.777536  0.000000  1
  Tm  Tm5  1  0.252462  0.222464  0.000000  1
  Tm  Tm6  1  0.621657  0.087763  0.000000  1
  Tm  Tm7  1  0.378343  0.912237  0.000000  1
  Tm  Tm8  1  0.878484  0.587591  0.000000  1
  Tm  Tm9  1  0.121516  0.412409  0.000000  1
  In  In10  1  0.702412  0.932955  0.500000  1
  In  In11  1  0.297588  0.067045  0.500000  1
  In  In12  1  0.796695  0.433227  0.500000  1
  In  In13  1  0.203305  0.566773  0.500000  1
  In  In14  1  0.562977  0.648320  0.500000  1
  In  In15  1  0.437023  0.351680  0.500000  1
  In  In16  1  0.936839  0.148870  0.500000  1
  In  In17  1  0.063161  0.851130  0.500000  1
  Ir  Ir18  1  0.529528  0.196631  0.500000  1
  Ir  Ir19  1  0.470472  0.803369  0.500000  1
  Ir  Ir20  1  0.970360  0.696510  0.500000  1
  Ir  Ir21  1  0.029640  0.303490  0.500000  1
