# generated using pymatgen
data_Lu4ScOs7
_symmetry_space_group_name_H-M   'P 1'
_cell_length_a   5.36178300
_cell_length_b   5.36178423
_cell_length_c   8.76572300
_cell_angle_alpha   90.00000000
_cell_angle_beta   90.00000000
_cell_angle_gamma   119.99998622
_symmetry_Int_Tables_number   1
_chemical_formula_structural   Lu4ScOs7
_chemical_formula_sum   'Lu4 Sc1 Os7'
_cell_volume   218.24133085
_cell_formula_units_Z   1
loop_
 _symmetry_equiv_pos_site_id
 _symmetry_equiv_pos_as_xyz
  1  'x, y, z'
loop_
 _atom_site_type_symbol
 _atom_site_label
 _atom_site_symmetry_multiplicity
 _atom_site_fract_x
 _atom_site_fract_y
 _atom_site_fract_z
 _atom_site_occupancy
  Lu  Lu0  1  0.333333  0.666667  0.439173  1
  Lu  Lu1  1  0.666667  0.333333  0.560827  1
  Lu  Lu2  1  0.666667  0.333333  0.924436  1
  Lu  Lu3  1  0.333333  0.666667  0.075564  1
  Sc  Sc4  1  0.000000  0.000000  0.000000  1
  Os  Os5  1  0.173025  0.346051  0.745282  1
  Os  Os6  1  0.173025  0.826975  0.745282  1
  Os  Os7  1  0.346051  0.173025  0.254718  1
  Os  Os8  1  0.826975  0.653949  0.254718  1
  Os  Os9  1  0.653949  0.826975  0.745282  1
  Os  Os10  1  0.826975  0.173025  0.254718  1
  Os  Os11  1  0.000000  0.000000  0.500000  1
