# generated using pymatgen
data_La6GeSe7
_symmetry_space_group_name_H-M   'P 1'
_cell_length_a   7.92589456
_cell_length_b   7.87844509
_cell_length_c   7.87844487
_cell_angle_alpha   109.34889635
_cell_angle_beta   109.59326850
_cell_angle_gamma   109.59327334
_symmetry_Int_Tables_number   1
_chemical_formula_structural   La6GeSe7
_chemical_formula_sum   'La6 Ge1 Se7'
_cell_volume   378.13861181
_cell_formula_units_Z   1
loop_
 _symmetry_equiv_pos_site_id
 _symmetry_equiv_pos_as_xyz
  1  'x, y, z'
loop_
 _atom_site_type_symbol
 _atom_site_label
 _atom_site_symmetry_multiplicity
 _atom_site_fract_x
 _atom_site_fract_y
 _atom_site_fract_z
 _atom_site_occupancy
  La  La0  1  0.870408  0.752453  0.122542  1
  La  La1  1  0.117955  0.370089  0.247547  1
  La  La2  1  0.625704  0.244290  0.368677  1
  La  La3  1  0.747866  0.877456  0.629909  1
  La  La4  1  0.381416  0.124390  0.755710  1
  La  La5  1  0.257026  0.631321  0.875610  1
  Ge  Ge6  1  0.655370  0.000000  0.000000  1
  Se  Se7  1  0.150596  0.000000  0.000000  1
  Se  Se8  1  0.498681  0.499860  0.151017  1
  Se  Se9  1  0.347664  0.848983  0.348843  1
  Se  Se10  1  0.000369  0.151343  0.501273  1
  Se  Se11  1  0.998821  0.651157  0.500140  1
  Se  Se12  1  0.499096  0.498727  0.650070  1
  Se  Se13  1  0.849026  0.349930  0.848657  1
