# generated using pymatgen
data_DyHo3B16MoW3
_symmetry_space_group_name_H-M   'P 1'
_cell_length_a   3.61876000
_cell_length_b   6.02547003
_cell_length_c   11.64795903
_cell_angle_alpha   89.98993646
_cell_angle_beta   90.00000000
_cell_angle_gamma   90.00000000
_symmetry_Int_Tables_number   1
_chemical_formula_structural   DyHo3B16MoW3
_chemical_formula_sum   'Dy1 Ho3 B16 Mo1 W3'
_cell_volume   253.98059701
_cell_formula_units_Z   1
loop_
 _symmetry_equiv_pos_site_id
 _symmetry_equiv_pos_as_xyz
  1  'x, y, z'
loop_
 _atom_site_type_symbol
 _atom_site_label
 _atom_site_symmetry_multiplicity
 _atom_site_fract_x
 _atom_site_fract_y
 _atom_site_fract_z
 _atom_site_occupancy
  Dy  Dy0  1  0.000000  0.627189  0.350523  1
  Ho  Ho1  1  0.000000  0.373150  0.649594  1
  Ho  Ho2  1  0.000000  0.126994  0.149458  1
  Ho  Ho3  1  0.000000  0.872932  0.850184  1
  B  B4  1  0.500000  0.787415  0.186358  1
  B  B5  1  0.500000  0.212455  0.813276  1
  B  B6  1  0.500000  0.287069  0.313380  1
  B  B7  1  0.500000  0.713301  0.686275  1
  B  B8  1  0.500000  0.866735  0.031923  1
  B  B9  1  0.500000  0.133231  0.967957  1
  B  B10  1  0.500000  0.366959  0.468459  1
  B  B11  1  0.500000  0.633515  0.532376  1
  B  B12  1  0.500000  0.885932  0.452842  1
  B  B13  1  0.500000  0.113893  0.547877  1
  B  B14  1  0.500000  0.385918  0.047418  1
  B  B15  1  0.500000  0.614088  0.952421  1
  B  B16  1  0.500000  0.976292  0.306434  1
  B  B17  1  0.500000  0.023076  0.693547  1
  B  B18  1  0.500000  0.476296  0.193284  1
  B  B19  1  0.500000  0.523858  0.806341  1
  Mo  Mo20  1  0.000000  0.869416  0.584421  1
  W  W21  1  0.000000  0.631044  0.084635  1
  W  W22  1  0.000000  0.368853  0.915185  1
  W  W23  1  0.000000  0.130390  0.415831  1
