# generated using pymatgen
data_Pr19LuSi15P
_symmetry_space_group_name_H-M   'P 1'
_cell_length_a   7.88576075
_cell_length_b   7.89107342
_cell_length_c   15.32673180
_cell_angle_alpha   89.92164679
_cell_angle_beta   89.86222840
_cell_angle_gamma   90.11862891
_symmetry_Int_Tables_number   1
_chemical_formula_structural   Pr19LuSi15P
_chemical_formula_sum   'Pr19 Lu1 Si15 P1'
_cell_volume   953.73263372
_cell_formula_units_Z   1
loop_
 _symmetry_equiv_pos_site_id
 _symmetry_equiv_pos_as_xyz
  1  'x, y, z'
loop_
 _atom_site_type_symbol
 _atom_site_label
 _atom_site_symmetry_multiplicity
 _atom_site_fract_x
 _atom_site_fract_y
 _atom_site_fract_z
 _atom_site_occupancy
  Pr  Pr0  1  0.189909  0.808854  0.249802  1
  Pr  Pr1  1  0.807852  0.191481  0.750494  1
  Pr  Pr2  1  0.690641  0.689826  0.499416  1
  Pr  Pr3  1  0.380886  0.008967  0.444269  1
  Pr  Pr4  1  0.487581  0.879380  0.697612  1
  Pr  Pr5  1  0.510363  0.122406  0.195309  1
  Pr  Pr6  1  0.877983  0.487692  0.302652  1
  Pr  Pr7  1  0.123914  0.508403  0.803538  1
  Pr  Pr8  1  0.622766  0.988204  0.946635  1
  Pr  Pr9  1  0.009896  0.376748  0.554154  1
  Pr  Pr10  1  0.988650  0.620846  0.052520  1
  Pr  Pr11  1  0.128979  0.983561  0.875887  1
  Pr  Pr12  1  0.518757  0.627660  0.125235  1
  Pr  Pr13  1  0.475382  0.368910  0.628816  1
  Pr  Pr14  1  0.627479  0.518589  0.873183  1
  Pr  Pr15  1  0.372051  0.479055  0.373550  1
  Pr  Pr16  1  0.874593  0.019480  0.377218  1
  Pr  Pr17  1  0.980661  0.127181  0.122375  1
  Pr  Pr18  1  0.023187  0.879124  0.624464  1
  Lu  Lu19  1  0.313021  0.311504  0.999859  1
  Si  Si20  1  0.328978  0.691598  0.953144  1
  Si  Si21  1  0.668223  0.305257  0.454186  1
  Si  Si22  1  0.691430  0.329948  0.045700  1
  Si  Si23  1  0.303969  0.667605  0.548579  1
  Si  Si24  1  0.805047  0.831137  0.202884  1
  Si  Si25  1  0.169030  0.195246  0.295035  1
  Si  Si26  1  0.833138  0.804629  0.796490  1
  Si  Si27  1  0.288673  0.925352  0.058410  1
  Si  Si28  1  0.578460  0.786527  0.309027  1
  Si  Si29  1  0.422219  0.213440  0.816044  1
  Si  Si30  1  0.788123  0.579792  0.689370  1
  Si  Si31  1  0.214287  0.419101  0.185708  1
  Si  Si32  1  0.709352  0.077243  0.560567  1
  Si  Si33  1  0.927076  0.289534  0.940764  1
  Si  Si34  1  0.078642  0.711157  0.441135  1
  P  P35  1  0.188805  0.174562  0.705972  1
