# generated using pymatgen
data_CsSc10(C2I9)2
_symmetry_space_group_name_H-M   'P 1'
_cell_length_a   11.35291957
_cell_length_b   11.26772502
_cell_length_c   11.13975278
_cell_angle_alpha   112.66629436
_cell_angle_beta   85.71322319
_cell_angle_gamma   121.23024285
_symmetry_Int_Tables_number   1
_chemical_formula_structural   CsSc10(C2I9)2
_chemical_formula_sum   'Cs1 Sc10 C4 I18'
_cell_volume   1110.19332912
_cell_formula_units_Z   1
loop_
 _symmetry_equiv_pos_site_id
 _symmetry_equiv_pos_as_xyz
  1  'x, y, z'
loop_
 _atom_site_type_symbol
 _atom_site_label
 _atom_site_symmetry_multiplicity
 _atom_site_fract_x
 _atom_site_fract_y
 _atom_site_fract_z
 _atom_site_occupancy
  Cs  Cs0  1  0.500000  0.000000  0.500000  1
  Sc  Sc1  1  0.699688  0.738507  0.727653  1
  Sc  Sc2  1  0.271878  0.345209  0.014295  1
  Sc  Sc3  1  0.089810  0.366777  0.276426  1
  Sc  Sc4  1  0.963481  0.033967  0.316824  1
  Sc  Sc5  1  0.910190  0.633223  0.723574  1
  Sc  Sc6  1  0.096522  0.946856  0.000998  1
  Sc  Sc7  1  0.036519  0.966033  0.683176  1
  Sc  Sc8  1  0.300312  0.261493  0.272347  1
  Sc  Sc9  1  0.728122  0.654791  0.985705  1
  Sc  Sc10  1  0.903478  0.053144  0.999002  1
  C  C11  1  0.146063  0.209964  0.110166  1
  C  C12  1  0.853937  0.790036  0.889834  1
  C  C13  1  0.932417  0.869160  0.811675  1
  C  C14  1  0.067583  0.130840  0.188325  1
  I  I15  1  0.463856  0.535419  0.836535  1
  I  I16  1  0.371110  0.045235  0.154573  1
  I  I17  1  0.788830  0.859460  0.510997  1
  I  I18  1  0.847113  0.300141  0.151645  1
  I  I19  1  0.536144  0.464581  0.163465  1
  I  I20  1  0.211170  0.140540  0.489003  1
  I  I21  1  0.312008  0.103728  0.826887  1
  I  I22  1  0.687992  0.896272  0.173113  1
  I  I23  1  0.962666  0.755446  0.170257  1
  I  I24  1  0.935037  0.284092  0.488788  1
  I  I25  1  0.037334  0.244554  0.829743  1
  I  I26  1  0.064963  0.715908  0.511212  1
  I  I27  1  0.252996  0.603931  0.173708  1
  I  I28  1  0.747004  0.396069  0.826292  1
  I  I29  1  0.660284  0.459797  0.522858  1
  I  I30  1  0.152887  0.699859  0.848355  1
  I  I31  1  0.628890  0.954765  0.845427  1
  I  I32  1  0.339716  0.540203  0.477142  1
