# generated using pymatgen
data_Sm2CO5
_symmetry_space_group_name_H-M   'P 1'
_cell_length_a   4.01198216
_cell_length_b   4.01198336
_cell_length_c   15.54415800
_cell_angle_alpha   90.00000000
_cell_angle_beta   90.00000000
_cell_angle_gamma   121.88286315
_symmetry_Int_Tables_number   1
_chemical_formula_structural   Sm2CO5
_chemical_formula_sum   'Sm4 C2 O10'
_cell_volume   212.45127940
_cell_formula_units_Z   2
loop_
 _symmetry_equiv_pos_site_id
 _symmetry_equiv_pos_as_xyz
  1  'x, y, z'
loop_
 _atom_site_type_symbol
 _atom_site_label
 _atom_site_symmetry_multiplicity
 _atom_site_fract_x
 _atom_site_fract_y
 _atom_site_fract_z
 _atom_site_occupancy
  Sm  Sm0  1  0.336553  0.663447  0.906037  1
  Sm  Sm1  1  0.663447  0.336553  0.093963  1
  Sm  Sm2  1  0.663447  0.336553  0.406037  1
  Sm  Sm3  1  0.336553  0.663447  0.593963  1
  C  C4  1  0.074541  0.925459  0.750000  1
  C  C5  1  0.925459  0.074541  0.250000  1
  O  O6  1  0.987259  0.012741  0.824057  1
  O  O7  1  0.012741  0.987259  0.175943  1
  O  O8  1  0.012741  0.987259  0.324057  1
  O  O9  1  0.987259  0.012741  0.675943  1
  O  O10  1  0.334759  0.665241  0.442389  1
  O  O11  1  0.665241  0.334759  0.557611  1
  O  O12  1  0.665241  0.334759  0.942389  1
  O  O13  1  0.334759  0.665241  0.057611  1
  O  O14  1  0.257352  0.742648  0.750000  1
  O  O15  1  0.742648  0.257352  0.250000  1
