# generated using pymatgen
data_Tb3NdHo12(CdPt)4
_symmetry_space_group_name_H-M   'P 1'
_cell_length_a   9.69125489
_cell_length_b   9.68212789
_cell_length_c   9.67051275
_cell_angle_alpha   60.10210908
_cell_angle_beta   60.00837833
_cell_angle_gamma   59.88247756
_symmetry_Int_Tables_number   1
_chemical_formula_structural   Tb3NdHo12(CdPt)4
_chemical_formula_sum   'Tb3 Nd1 Ho12 Cd4 Pt4'
_cell_volume   641.59213364
_cell_formula_units_Z   1
loop_
 _symmetry_equiv_pos_site_id
 _symmetry_equiv_pos_as_xyz
  1  'x, y, z'
loop_
 _atom_site_type_symbol
 _atom_site_label
 _atom_site_symmetry_multiplicity
 _atom_site_fract_x
 _atom_site_fract_y
 _atom_site_fract_z
 _atom_site_occupancy
  Tb  Tb0  1  0.563546  0.934847  0.565775  1
  Tb  Tb1  1  0.934847  0.563546  0.935831  1
  Tb  Tb2  1  0.565835  0.565835  0.934165  1
  Nd  Nd3  1  0.934353  0.934353  0.565647  1
  Ho  Ho4  1  0.352904  0.350866  0.349928  1
  Ho  Ho5  1  0.350866  0.352904  0.946304  1
  Ho  Ho6  1  0.352840  0.944388  0.352425  1
  Ho  Ho7  1  0.944388  0.352840  0.350348  1
  Ho  Ho8  1  0.810588  0.190180  0.188325  1
  Ho  Ho9  1  0.190180  0.810588  0.810907  1
  Ho  Ho10  1  0.190273  0.810426  0.188555  1
  Ho  Ho11  1  0.810426  0.190273  0.810746  1
  Ho  Ho12  1  0.189896  0.189896  0.810104  1
  Ho  Ho13  1  0.810860  0.810860  0.189140  1
  Ho  Ho14  1  0.938869  0.559684  0.561559  1
  Ho  Ho15  1  0.559684  0.938869  0.939888  1
  Cd  Cd16  1  0.582715  0.580430  0.580543  1
  Cd  Cd17  1  0.580430  0.582715  0.256311  1
  Cd  Cd18  1  0.578933  0.256899  0.583095  1
  Cd  Cd19  1  0.256899  0.578933  0.581073  1
  Pt  Pt20  1  0.144813  0.143016  0.141628  1
  Pt  Pt21  1  0.143016  0.144813  0.570544  1
  Pt  Pt22  1  0.141942  0.570899  0.144585  1
  Pt  Pt23  1  0.570899  0.141942  0.142575  1
