# generated using pymatgen
data_CeNiP2Rh
_symmetry_space_group_name_H-M   'P 1'
_cell_length_a   4.09427600
_cell_length_b   4.09432200
_cell_length_c   9.30649800
_cell_angle_alpha   90.00000000
_cell_angle_beta   90.00000000
_cell_angle_gamma   90.00000000
_symmetry_Int_Tables_number   1
_chemical_formula_structural   CeNiP2Rh
_chemical_formula_sum   'Ce2 Ni2 P4 Rh2'
_cell_volume   156.00747182
_cell_formula_units_Z   2
loop_
 _symmetry_equiv_pos_site_id
 _symmetry_equiv_pos_as_xyz
  1  'x, y, z'
loop_
 _atom_site_type_symbol
 _atom_site_label
 _atom_site_symmetry_multiplicity
 _atom_site_fract_x
 _atom_site_fract_y
 _atom_site_fract_z
 _atom_site_occupancy
  Ce  Ce0  1  0.500000  0.000000  0.737297  1
  Ce  Ce1  1  0.000000  0.500000  0.262699  1
  Ni  Ni2  1  0.000000  0.500000  0.611412  1
  Ni  Ni3  1  0.500000  0.000000  0.388585  1
  P  P4  1  0.500000  0.500000  0.500064  1
  P  P5  1  0.500000  0.000000  0.144700  1
  P  P6  1  0.000000  0.000000  0.500068  1
  P  P7  1  0.000000  0.500000  0.855195  1
  Rh  Rh8  1  0.000000  0.000000  0.999990  1
  Rh  Rh9  1  0.500000  0.500000  0.999992  1
