# generated using pymatgen
data_Hf4V4Si3As
_symmetry_space_group_name_H-M   'P 1'
_cell_length_a   3.53374700
_cell_length_b   6.76631563
_cell_length_c   8.07853463
_cell_angle_alpha   90.06247805
_cell_angle_beta   90.00000000
_cell_angle_gamma   90.00000000
_symmetry_Int_Tables_number   1
_chemical_formula_structural   Hf4V4Si3As
_chemical_formula_sum   'Hf4 V4 Si3 As1'
_cell_volume   193.16126378
_cell_formula_units_Z   1
loop_
 _symmetry_equiv_pos_site_id
 _symmetry_equiv_pos_as_xyz
  1  'x, y, z'
loop_
 _atom_site_type_symbol
 _atom_site_label
 _atom_site_symmetry_multiplicity
 _atom_site_fract_x
 _atom_site_fract_y
 _atom_site_fract_z
 _atom_site_occupancy
  Hf  Hf0  1  0.250000  0.051127  0.832914  1
  Hf  Hf1  1  0.250000  0.542567  0.664003  1
  Hf  Hf2  1  0.750000  0.956130  0.170500  1
  Hf  Hf3  1  0.750000  0.454207  0.333047  1
  V  V4  1  0.250000  0.124290  0.442453  1
  V  V5  1  0.250000  0.624065  0.059515  1
  V  V6  1  0.750000  0.874991  0.555929  1
  V  V7  1  0.750000  0.371799  0.943129  1
  Si  Si8  1  0.250000  0.756695  0.362359  1
  Si  Si9  1  0.250000  0.258139  0.137921  1
  Si  Si10  1  0.750000  0.242153  0.636448  1
  As  As11  1  0.750000  0.743838  0.861780  1
