# generated using pymatgen
data_La7ZnPd2
_symmetry_space_group_name_H-M   'P 1'
_cell_length_a   3.91546200
_cell_length_b   12.60247800
_cell_length_c   12.60247800
_cell_angle_alpha   90.00000000
_cell_angle_beta   90.00000000
_cell_angle_gamma   90.00000000
_symmetry_Int_Tables_number   1
_chemical_formula_structural   La7ZnPd2
_chemical_formula_sum   'La14 Zn2 Pd4'
_cell_volume   621.86327454
_cell_formula_units_Z   2
loop_
 _symmetry_equiv_pos_site_id
 _symmetry_equiv_pos_as_xyz
  1  'x, y, z'
loop_
 _atom_site_type_symbol
 _atom_site_label
 _atom_site_symmetry_multiplicity
 _atom_site_fract_x
 _atom_site_fract_y
 _atom_site_fract_z
 _atom_site_occupancy
  La  La0  1  0.500000  0.000000  0.500000  1
  La  La1  1  0.500000  0.500000  0.000000  1
  La  La2  1  0.000000  0.324073  0.824073  1
  La  La3  1  0.000000  0.675927  0.175927  1
  La  La4  1  0.000000  0.175927  0.324073  1
  La  La5  1  0.000000  0.824073  0.675927  1
  La  La6  1  0.500000  0.554857  0.699580  1
  La  La7  1  0.500000  0.445143  0.300420  1
  La  La8  1  0.500000  0.945143  0.199580  1
  La  La9  1  0.500000  0.054857  0.800420  1
  La  La10  1  0.500000  0.699580  0.445143  1
  La  La11  1  0.500000  0.300420  0.554857  1
  La  La12  1  0.500000  0.199580  0.054857  1
  La  La13  1  0.500000  0.800420  0.945143  1
  Zn  Zn14  1  0.000000  0.500000  0.500000  1
  Zn  Zn15  1  0.000000  0.000000  0.000000  1
  Pd  Pd16  1  0.000000  0.130898  0.630898  1
  Pd  Pd17  1  0.000000  0.869102  0.369102  1
  Pd  Pd18  1  0.000000  0.369102  0.130898  1
  Pd  Pd19  1  0.000000  0.630898  0.869102  1
