# generated using pymatgen
data_Tm4MnV(CrB8)2
_symmetry_space_group_name_H-M   'P 1'
_cell_length_a   3.42302000
_cell_length_b   5.89198541
_cell_length_c   11.38533500
_cell_angle_alpha   90.08449498
_cell_angle_beta   90.00000000
_cell_angle_gamma   90.00000000
_symmetry_Int_Tables_number   1
_chemical_formula_structural   Tm4MnV(CrB8)2
_chemical_formula_sum   'Tm4 Mn1 V1 Cr2 B16'
_cell_volume   229.62355728
_cell_formula_units_Z   1
loop_
 _symmetry_equiv_pos_site_id
 _symmetry_equiv_pos_as_xyz
  1  'x, y, z'
loop_
 _atom_site_type_symbol
 _atom_site_label
 _atom_site_symmetry_multiplicity
 _atom_site_fract_x
 _atom_site_fract_y
 _atom_site_fract_z
 _atom_site_occupancy
  Tm  Tm0  1  0.500000  0.375791  0.151273  1
  Tm  Tm1  1  0.500000  0.625902  0.849410  1
  Tm  Tm2  1  0.500000  0.124984  0.649935  1
  Tm  Tm3  1  0.500000  0.874409  0.349007  1
  Mn  Mn4  1  0.500000  0.875551  0.082011  1
  V  V5  1  0.500000  0.125592  0.919370  1
  Cr  Cr6  1  0.500000  0.374681  0.417850  1
  Cr  Cr7  1  0.500000  0.625149  0.580104  1
  B  B8  1  0.000000  0.110973  0.049688  1
  B  B9  1  0.000000  0.883403  0.955034  1
  B  B10  1  0.000000  0.385966  0.546723  1
  B  B11  1  0.000000  0.613413  0.452196  1
  B  B12  1  0.000000  0.135670  0.467438  1
  B  B13  1  0.000000  0.863661  0.531756  1
  B  B14  1  0.000000  0.366246  0.969231  1
  B  B15  1  0.000000  0.637599  0.033695  1
  B  B16  1  0.000000  0.022573  0.192506  1
  B  B17  1  0.000000  0.973959  0.807077  1
  B  B18  1  0.000000  0.476501  0.691719  1
  B  B19  1  0.000000  0.524508  0.307220  1
  B  B20  1  0.000000  0.216306  0.315035  1
  B  B21  1  0.000000  0.782491  0.683965  1
  B  B22  1  0.000000  0.285558  0.814071  1
  B  B23  1  0.000000  0.719116  0.183688  1
