# generated using pymatgen
data_Tb4Co3SiBr2
_symmetry_space_group_name_H-M   'P 1'
_cell_length_a   3.96485000
_cell_length_b   3.96485052
_cell_length_c   16.31331400
_cell_angle_alpha   90.00000000
_cell_angle_beta   90.00000000
_cell_angle_gamma   119.99997897
_symmetry_Int_Tables_number   1
_chemical_formula_structural   Tb4Co3SiBr2
_chemical_formula_sum   'Tb4 Co3 Si1 Br2'
_cell_volume   222.08871912
_cell_formula_units_Z   1
loop_
 _symmetry_equiv_pos_site_id
 _symmetry_equiv_pos_as_xyz
  1  'x, y, z'
loop_
 _atom_site_type_symbol
 _atom_site_label
 _atom_site_symmetry_multiplicity
 _atom_site_fract_x
 _atom_site_fract_y
 _atom_site_fract_z
 _atom_site_occupancy
  Tb  Tb0  1  0.000000  0.000000  0.107698  1
  Tb  Tb1  1  0.000000  0.000000  0.607260  1
  Tb  Tb2  1  0.000000  0.000000  0.392253  1
  Tb  Tb3  1  0.000000  0.000000  0.889705  1
  Co  Co4  1  0.333333  0.666667  0.005512  1
  Co  Co5  1  0.666667  0.333333  0.501832  1
  Co  Co6  1  0.333333  0.666667  0.498115  1
  Si  Si7  1  0.666667  0.333333  0.995682  1
  Br  Br8  1  0.666667  0.333333  0.248961  1
  Br  Br9  1  0.333333  0.666667  0.752983  1
