# generated using pymatgen
data_DyHo3(Hf3Ge4)2
_symmetry_space_group_name_H-M   'P 1'
_cell_length_a   7.38080320
_cell_length_b   7.38169207
_cell_length_c   13.53375600
_cell_angle_alpha   90.00000000
_cell_angle_beta   90.00000000
_cell_angle_gamma   90.02117601
_symmetry_Int_Tables_number   1
_chemical_formula_structural   DyHo3(Hf3Ge4)2
_chemical_formula_sum   'Dy2 Ho6 Hf12 Ge16'
_cell_volume   737.35709365
_cell_formula_units_Z   2
loop_
 _symmetry_equiv_pos_site_id
 _symmetry_equiv_pos_as_xyz
  1  'x, y, z'
loop_
 _atom_site_type_symbol
 _atom_site_label
 _atom_site_symmetry_multiplicity
 _atom_site_fract_x
 _atom_site_fract_y
 _atom_site_fract_z
 _atom_site_occupancy
  Dy  Dy0  1  0.996089  0.342347  0.217508  1
  Dy  Dy1  1  0.003911  0.657653  0.717508  1
  Ho  Ho2  1  0.157464  0.496428  0.467557  1
  Ho  Ho3  1  0.503591  0.842616  0.032435  1
  Ho  Ho4  1  0.842536  0.503572  0.967557  1
  Ho  Ho5  1  0.496409  0.157384  0.532435  1
  Ho  Ho6  1  0.342568  0.996405  0.782520  1
  Ho  Ho7  1  0.657432  0.003595  0.282520  1
  Hf  Hf8  1  0.173624  0.173613  0.000009  1
  Hf  Hf9  1  0.826376  0.826387  0.500009  1
  Hf  Hf10  1  0.326695  0.673567  0.249997  1
  Hf  Hf11  1  0.673305  0.326433  0.749997  1
  Hf  Hf12  1  0.154142  0.997120  0.375067  1
  Hf  Hf13  1  0.845858  0.002880  0.875067  1
  Hf  Hf14  1  0.503024  0.654072  0.625100  1
  Hf  Hf15  1  0.345936  0.496840  0.874896  1
  Hf  Hf16  1  0.496976  0.345928  0.125100  1
  Hf  Hf17  1  0.654064  0.503160  0.374896  1
  Hf  Hf18  1  0.997019  0.154107  0.624960  1
  Hf  Hf19  1  0.002981  0.845893  0.124960  1
  Ge  Ge20  1  0.364566  0.300781  0.322454  1
  Ge  Ge21  1  0.635434  0.699219  0.822454  1
  Ge  Ge22  1  0.199594  0.864863  0.572147  1
  Ge  Ge23  1  0.135632  0.800856  0.927805  1
  Ge  Ge24  1  0.800406  0.135137  0.072147  1
  Ge  Ge25  1  0.864368  0.199144  0.427805  1
  Ge  Ge26  1  0.300967  0.364103  0.677603  1
  Ge  Ge27  1  0.699033  0.635897  0.177603  1
  Ge  Ge28  1  0.297193  0.039107  0.181510  1
  Ge  Ge29  1  0.702807  0.960893  0.681510  1
  Ge  Ge30  1  0.460733  0.797111  0.431632  1
  Ge  Ge31  1  0.203195  0.539624  0.068294  1
  Ge  Ge32  1  0.539267  0.202889  0.931632  1
  Ge  Ge33  1  0.796805  0.460376  0.568294  1
  Ge  Ge34  1  0.039187  0.296769  0.818508  1
  Ge  Ge35  1  0.960813  0.703231  0.318508  1
