# generated using pymatgen
data_Lu7Pa(InCo)2
_symmetry_space_group_name_H-M   'P 1'
_cell_length_a   9.34220440
_cell_length_b   9.34220456
_cell_length_c   9.47094000
_cell_angle_alpha   59.54309804
_cell_angle_beta   59.54309748
_cell_angle_gamma   59.79715639
_symmetry_Int_Tables_number   1
_chemical_formula_structural   Lu7Pa(InCo)2
_chemical_formula_sum   'Lu14 Pa2 In4 Co4'
_cell_volume   579.53798997
_cell_formula_units_Z   2
loop_
 _symmetry_equiv_pos_site_id
 _symmetry_equiv_pos_as_xyz
  1  'x, y, z'
loop_
 _atom_site_type_symbol
 _atom_site_label
 _atom_site_symmetry_multiplicity
 _atom_site_fract_x
 _atom_site_fract_y
 _atom_site_fract_z
 _atom_site_occupancy
  Lu  Lu0  1  0.601648  0.201555  0.598399  1
  Lu  Lu1  1  0.201555  0.601648  0.598399  1
  Lu  Lu2  1  0.061637  0.439331  0.438215  1
  Lu  Lu3  1  0.439331  0.061637  0.060816  1
  Lu  Lu4  1  0.439331  0.061637  0.438215  1
  Lu  Lu5  1  0.061637  0.439331  0.060816  1
  Lu  Lu6  1  0.438625  0.438625  0.061375  1
  Lu  Lu7  1  0.064069  0.064069  0.435931  1
  Lu  Lu8  1  0.187602  0.810714  0.814409  1
  Lu  Lu9  1  0.810714  0.187602  0.187275  1
  Lu  Lu10  1  0.810714  0.187602  0.814409  1
  Lu  Lu11  1  0.187602  0.810714  0.187275  1
  Lu  Lu12  1  0.806956  0.806956  0.193044  1
  Lu  Lu13  1  0.185975  0.185975  0.814025  1
  Pa  Pa14  1  0.583808  0.583808  0.598205  1
  Pa  Pa15  1  0.583808  0.583808  0.234181  1
  In  In16  1  0.832368  0.832368  0.836703  1
  In  In17  1  0.832368  0.832368  0.498561  1
  In  In18  1  0.832299  0.499689  0.834006  1
  In  In19  1  0.499689  0.832299  0.834006  1
  Co  Co20  1  0.405009  0.405009  0.375486  1
  Co  Co21  1  0.405009  0.405009  0.814495  1
  Co  Co22  1  0.415779  0.812468  0.385876  1
  Co  Co23  1  0.812468  0.415779  0.385876  1
