# generated using pymatgen
data_Tm8Ga12Ag3Pt
_symmetry_space_group_name_H-M   'P 1'
_cell_length_a   7.06372900
_cell_length_b   8.91359550
_cell_length_c   8.91359600
_cell_angle_alpha   120.00000185
_cell_angle_beta   90.00000000
_cell_angle_gamma   90.00000000
_symmetry_Int_Tables_number   1
_chemical_formula_structural   Tm8Ga12Ag3Pt
_chemical_formula_sum   'Tm8 Ga12 Ag3 Pt1'
_cell_volume   486.03833110
_cell_formula_units_Z   1
loop_
 _symmetry_equiv_pos_site_id
 _symmetry_equiv_pos_as_xyz
  1  'x, y, z'
loop_
 _atom_site_type_symbol
 _atom_site_label
 _atom_site_symmetry_multiplicity
 _atom_site_fract_x
 _atom_site_fract_y
 _atom_site_fract_z
 _atom_site_occupancy
  Tm  Tm0  1  0.746647  0.000000  0.000000  1
  Tm  Tm1  1  0.252146  0.000000  0.000000  1
  Tm  Tm2  1  0.747245  0.489985  0.510015  1
  Tm  Tm3  1  0.253491  0.518407  0.481593  1
  Tm  Tm4  1  0.747245  0.020028  0.510015  1
  Tm  Tm5  1  0.253491  0.963187  0.481593  1
  Tm  Tm6  1  0.747245  0.489985  0.979972  1
  Tm  Tm7  1  0.253491  0.518407  0.036813  1
  Ga  Ga8  1  0.967107  0.836562  0.163438  1
  Ga  Ga9  1  0.038973  0.165449  0.834551  1
  Ga  Ga10  1  0.967107  0.326877  0.163438  1
  Ga  Ga11  1  0.463802  0.165262  0.834738  1
  Ga  Ga12  1  0.038973  0.669101  0.834551  1
  Ga  Ga13  1  0.538360  0.833448  0.166552  1
  Ga  Ga14  1  0.967107  0.836562  0.673123  1
  Ga  Ga15  1  0.463802  0.669476  0.834738  1
  Ga  Ga16  1  0.038973  0.165449  0.330899  1
  Ga  Ga17  1  0.538360  0.333105  0.166552  1
  Ga  Ga18  1  0.463802  0.165262  0.330524  1
  Ga  Ga19  1  0.538360  0.833448  0.666895  1
  Ag  Ag20  1  0.953024  0.666667  0.333333  1
  Ag  Ag21  1  0.029125  0.333333  0.666667  1
  Ag  Ag22  1  0.471276  0.333333  0.666667  1
  Pt  Pt23  1  0.520854  0.666667  0.333333  1
