# generated using pymatgen
data_TbAlSiAu2
_symmetry_space_group_name_H-M   'P 1'
_cell_length_a   4.25083200
_cell_length_b   4.25083200
_cell_length_c   10.70362500
_cell_angle_alpha   90.00000000
_cell_angle_beta   90.00000000
_cell_angle_gamma   90.00000000
_symmetry_Int_Tables_number   1
_chemical_formula_structural   TbAlSiAu2
_chemical_formula_sum   'Tb2 Al2 Si2 Au4'
_cell_volume   193.40993001
_cell_formula_units_Z   2
loop_
 _symmetry_equiv_pos_site_id
 _symmetry_equiv_pos_as_xyz
  1  'x, y, z'
loop_
 _atom_site_type_symbol
 _atom_site_label
 _atom_site_symmetry_multiplicity
 _atom_site_fract_x
 _atom_site_fract_y
 _atom_site_fract_z
 _atom_site_occupancy
  Tb  Tb0  1  0.000000  0.500000  0.236686  1
  Tb  Tb1  1  0.500000  0.000000  0.763314  1
  Al  Al2  1  0.000000  0.000000  0.500000  1
  Al  Al3  1  0.500000  0.500000  0.500000  1
  Si  Si4  1  0.000000  0.500000  0.863247  1
  Si  Si5  1  0.500000  0.000000  0.136753  1
  Au  Au6  1  0.000000  0.000000  0.000000  1
  Au  Au7  1  0.500000  0.500000  0.000000  1
  Au  Au8  1  0.000000  0.500000  0.637959  1
  Au  Au9  1  0.500000  0.000000  0.362041  1
