# generated using pymatgen
data_HoTaNb2B4(Ru5W)2
_symmetry_space_group_name_H-M   'P 1'
_cell_length_a   9.51372900
_cell_length_b   9.51372833
_cell_length_c   3.05044300
_cell_angle_alpha   90.00000000
_cell_angle_beta   90.00000000
_cell_angle_gamma   90.14937454
_symmetry_Int_Tables_number   1
_chemical_formula_structural   HoTaNb2B4(Ru5W)2
_chemical_formula_sum   'Ho1 Ta1 Nb2 B4 Ru10 W2'
_cell_volume   276.09780913
_cell_formula_units_Z   1
loop_
 _symmetry_equiv_pos_site_id
 _symmetry_equiv_pos_as_xyz
  1  'x, y, z'
loop_
 _atom_site_type_symbol
 _atom_site_label
 _atom_site_symmetry_multiplicity
 _atom_site_fract_x
 _atom_site_fract_y
 _atom_site_fract_z
 _atom_site_occupancy
  Ho  Ho0  1  0.824738  0.675262  0.000000  1
  Ta  Ta1  1  0.177389  0.322611  0.000000  1
  Nb  Nb2  1  0.324360  0.823170  0.000000  1
  Nb  Nb3  1  0.676830  0.175640  0.000000  1
  B  B4  1  0.617900  0.882100  0.000000  1
  B  B5  1  0.377280  0.122720  0.000000  1
  B  B6  1  0.123182  0.619247  0.000000  1
  B  B7  1  0.880753  0.376818  0.000000  1
  Ru  Ru8  1  0.560299  0.723433  0.500000  1
  Ru  Ru9  1  0.426258  0.284419  0.500000  1
  Ru  Ru10  1  0.080631  0.783251  0.500000  1
  Ru  Ru11  1  0.931189  0.214932  0.500000  1
  Ru  Ru12  1  0.285068  0.568811  0.500000  1
  Ru  Ru13  1  0.716749  0.419369  0.500000  1
  Ru  Ru14  1  0.215581  0.073742  0.500000  1
  Ru  Ru15  1  0.776567  0.939701  0.500000  1
  Ru  Ru16  1  0.495930  0.004070  0.500000  1
  Ru  Ru17  1  0.008213  0.491787  0.500000  1
  W  W18  1  0.502152  0.501071  0.000000  1
  W  W19  1  0.998929  0.997848  0.000000  1
