# generated using pymatgen
data_Yb3CrCoO6
_symmetry_space_group_name_H-M   'P 1'
_cell_length_a   6.21182347
_cell_length_b   6.21182294
_cell_length_c   6.21182258
_cell_angle_alpha   91.77975425
_cell_angle_beta   91.77974841
_cell_angle_gamma   91.77973195
_symmetry_Int_Tables_number   1
_chemical_formula_structural   Yb3CrCoO6
_chemical_formula_sum   'Yb6 Cr2 Co2 O12'
_cell_volume   239.33978709
_cell_formula_units_Z   2
loop_
 _symmetry_equiv_pos_site_id
 _symmetry_equiv_pos_as_xyz
  1  'x, y, z'
loop_
 _atom_site_type_symbol
 _atom_site_label
 _atom_site_symmetry_multiplicity
 _atom_site_fract_x
 _atom_site_fract_y
 _atom_site_fract_z
 _atom_site_occupancy
  Yb  Yb0  1  0.378115  0.121884  0.750000  1
  Yb  Yb1  1  0.750000  0.378116  0.121885  1
  Yb  Yb2  1  0.249999  0.621885  0.878116  1
  Yb  Yb3  1  0.621884  0.878115  0.250001  1
  Yb  Yb4  1  0.121885  0.750000  0.378116  1
  Yb  Yb5  1  0.878115  0.250000  0.621885  1
  Cr  Cr6  1  0.750000  0.750001  0.750000  1
  Cr  Cr7  1  0.250001  0.250000  0.250000  1
  Co  Co8  1  0.500000  0.500000  0.500000  1
  Co  Co9  1  0.000000  0.000000  0.000000  1
  O  O10  1  0.794981  0.587520  0.462050  1
  O  O11  1  0.587521  0.462049  0.794981  1
  O  O12  1  0.462049  0.794981  0.587521  1
  O  O13  1  0.037950  0.912480  0.705020  1
  O  O14  1  0.912479  0.705019  0.037950  1
  O  O15  1  0.705020  0.037950  0.912479  1
  O  O16  1  0.205020  0.412479  0.537951  1
  O  O17  1  0.412479  0.537950  0.205020  1
  O  O18  1  0.537950  0.205020  0.412478  1
  O  O19  1  0.962050  0.087521  0.294981  1
  O  O20  1  0.294981  0.962049  0.087520  1
  O  O21  1  0.087520  0.294980  0.962049  1
