# generated using pymatgen
data_Ca3(Al3Rh)4
_symmetry_space_group_name_H-M   'P 1'
_cell_length_a   8.85614800
_cell_length_b   8.85614874
_cell_length_c   9.58760300
_cell_angle_alpha   90.00000000
_cell_angle_beta   90.00000000
_cell_angle_gamma   119.99999724
_symmetry_Int_Tables_number   1
_chemical_formula_structural   Ca3(Al3Rh)4
_chemical_formula_sum   'Ca6 Al24 Rh8'
_cell_volume   651.22408456
_cell_formula_units_Z   2
loop_
 _symmetry_equiv_pos_site_id
 _symmetry_equiv_pos_as_xyz
  1  'x, y, z'
loop_
 _atom_site_type_symbol
 _atom_site_label
 _atom_site_symmetry_multiplicity
 _atom_site_fract_x
 _atom_site_fract_y
 _atom_site_fract_z
 _atom_site_occupancy
  Ca  Ca0  1  0.192888  0.385777  0.250000  1
  Ca  Ca1  1  0.807112  0.614223  0.750000  1
  Ca  Ca2  1  0.614223  0.807112  0.250000  1
  Ca  Ca3  1  0.385777  0.192888  0.750000  1
  Ca  Ca4  1  0.192888  0.807112  0.250000  1
  Ca  Ca5  1  0.807112  0.192888  0.750000  1
  Al  Al6  1  0.333333  0.666667  0.000391  1
  Al  Al7  1  0.666667  0.333333  0.999609  1
  Al  Al8  1  0.666667  0.333333  0.500391  1
  Al  Al9  1  0.333333  0.666667  0.499609  1
  Al  Al10  1  0.161843  0.323685  0.579771  1
  Al  Al11  1  0.838157  0.676315  0.420229  1
  Al  Al12  1  0.676315  0.838157  0.579771  1
  Al  Al13  1  0.838157  0.676315  0.079771  1
  Al  Al14  1  0.323685  0.161843  0.420229  1
  Al  Al15  1  0.161843  0.323685  0.920229  1
  Al  Al16  1  0.161843  0.838157  0.579771  1
  Al  Al17  1  0.323685  0.161843  0.079771  1
  Al  Al18  1  0.838157  0.161843  0.420229  1
  Al  Al19  1  0.676315  0.838157  0.920229  1
  Al  Al20  1  0.838157  0.161843  0.079771  1
  Al  Al21  1  0.161843  0.838157  0.920229  1
  Al  Al22  1  0.562091  0.124181  0.250000  1
  Al  Al23  1  0.437909  0.875819  0.750000  1
  Al  Al24  1  0.875819  0.437909  0.250000  1
  Al  Al25  1  0.124181  0.562091  0.750000  1
  Al  Al26  1  0.562091  0.437909  0.250000  1
  Al  Al27  1  0.437909  0.562091  0.750000  1
  Al  Al28  1  0.000000  0.000000  0.250000  1
  Al  Al29  1  0.000000  0.000000  0.750000  1
  Rh  Rh30  1  0.500000  0.000000  0.000000  1
  Rh  Rh31  1  0.000000  0.500000  0.000000  1
  Rh  Rh32  1  0.500000  0.000000  0.500000  1
  Rh  Rh33  1  0.500000  0.500000  0.000000  1
  Rh  Rh34  1  0.000000  0.500000  0.500000  1
  Rh  Rh35  1  0.500000  0.500000  0.500000  1
  Rh  Rh36  1  0.000000  0.000000  0.000000  1
  Rh  Rh37  1  0.000000  0.000000  0.500000  1
