# generated using pymatgen
data_Er4AlRh
_symmetry_space_group_name_H-M   'P 1'
_cell_length_a   9.43092735
_cell_length_b   9.43084641
_cell_length_c   9.43112679
_cell_angle_alpha   60.14702382
_cell_angle_beta   60.14715041
_cell_angle_gamma   60.14764843
_symmetry_Int_Tables_number   1
_chemical_formula_structural   Er4AlRh
_chemical_formula_sum   'Er16 Al4 Rh4'
_cell_volume   595.11381959
_cell_formula_units_Z   4
loop_
 _symmetry_equiv_pos_site_id
 _symmetry_equiv_pos_as_xyz
  1  'x, y, z'
loop_
 _atom_site_type_symbol
 _atom_site_label
 _atom_site_symmetry_multiplicity
 _atom_site_fract_x
 _atom_site_fract_y
 _atom_site_fract_z
 _atom_site_occupancy
  Er  Er0  1  0.192376  0.192376  0.808100  1
  Er  Er1  1  0.436485  0.062663  0.062652  1
  Er  Er2  1  0.436130  0.063591  0.436133  1
  Er  Er3  1  0.062647  0.436493  0.062647  1
  Er  Er4  1  0.645397  0.059622  0.645397  1
  Er  Er5  1  0.193687  0.807131  0.807133  1
  Er  Er6  1  0.062654  0.062657  0.436483  1
  Er  Er7  1  0.808093  0.192382  0.192373  1
  Er  Er8  1  0.807133  0.807133  0.193688  1
  Er  Er9  1  0.645391  0.645399  0.059621  1
  Er  Er10  1  0.649394  0.649372  0.649397  1
  Er  Er11  1  0.063594  0.436127  0.436136  1
  Er  Er12  1  0.059624  0.645393  0.645394  1
  Er  Er13  1  0.807133  0.193694  0.807131  1
  Er  Er14  1  0.436128  0.436133  0.063598  1
  Er  Er15  1  0.192374  0.808102  0.192369  1
  Al  Al16  1  0.422926  0.732498  0.422930  1
  Al  Al17  1  0.422929  0.422921  0.732503  1
  Al  Al18  1  0.732500  0.422923  0.422931  1
  Al  Al19  1  0.421741  0.421741  0.421744  1
  Rh  Rh20  1  0.858516  0.427970  0.858518  1
  Rh  Rh21  1  0.858515  0.858512  0.427943  1
  Rh  Rh22  1  0.427949  0.858515  0.858501  1
  Rh  Rh23  1  0.856681  0.856653  0.856678  1
