# generated using pymatgen
data_Ce2YHo5(Si3Rh)4
_symmetry_space_group_name_H-M   'P 1'
_cell_length_a   8.17264291
_cell_length_b   8.17264347
_cell_length_c   7.96340000
_cell_angle_alpha   90.00000000
_cell_angle_beta   90.00000000
_cell_angle_gamma   120.05415153
_symmetry_Int_Tables_number   1
_chemical_formula_structural   Ce2YHo5(Si3Rh)4
_chemical_formula_sum   'Ce2 Y1 Ho5 Si12 Rh4'
_cell_volume   460.38058555
_cell_formula_units_Z   1
loop_
 _symmetry_equiv_pos_site_id
 _symmetry_equiv_pos_as_xyz
  1  'x, y, z'
loop_
 _atom_site_type_symbol
 _atom_site_label
 _atom_site_symmetry_multiplicity
 _atom_site_fract_x
 _atom_site_fract_y
 _atom_site_fract_z
 _atom_site_occupancy
  Ce  Ce0  1  0.999973  0.000027  0.250000  1
  Ce  Ce1  1  0.999974  0.000026  0.750000  1
  Y  Y2  1  0.509051  0.490949  0.250000  1
  Ho  Ho3  1  0.508688  0.017334  0.250000  1
  Ho  Ho4  1  0.982666  0.491312  0.250000  1
  Ho  Ho5  1  0.491225  0.508775  0.750000  1
  Ho  Ho6  1  0.491211  0.982504  0.750000  1
  Ho  Ho7  1  0.017496  0.508789  0.750000  1
  Si  Si8  1  0.167320  0.832680  0.500372  1
  Si  Si9  1  0.167287  0.334829  0.500559  1
  Si  Si10  1  0.665171  0.832713  0.500559  1
  Si  Si11  1  0.832700  0.167300  0.499446  1
  Si  Si12  1  0.832726  0.665263  0.499859  1
  Si  Si13  1  0.334737  0.167274  0.499859  1
  Si  Si14  1  0.832700  0.167300  0.000554  1
  Si  Si15  1  0.832726  0.665263  0.000141  1
  Si  Si16  1  0.334737  0.167274  0.000141  1
  Si  Si17  1  0.167320  0.832680  0.999628  1
  Si  Si18  1  0.167287  0.334829  0.999441  1
  Si  Si19  1  0.665171  0.832713  0.999441  1
  Rh  Rh20  1  0.332992  0.667008  0.467127  1
  Rh  Rh21  1  0.666925  0.333075  0.532928  1
  Rh  Rh22  1  0.666925  0.333075  0.967072  1
  Rh  Rh23  1  0.332992  0.667008  0.032873  1
