# generated using pymatgen
data_Er4Al17GaRh6
_symmetry_space_group_name_H-M   'P 1'
_cell_length_a   7.52845130
_cell_length_b   7.52845094
_cell_length_c   9.45370800
_cell_angle_alpha   90.00000000
_cell_angle_beta   90.00000000
_cell_angle_gamma   119.17542496
_symmetry_Int_Tables_number   1
_chemical_formula_structural   Er4Al17GaRh6
_chemical_formula_sum   'Er4 Al17 Ga1 Rh6'
_cell_volume   467.83529689
_cell_formula_units_Z   1
loop_
 _symmetry_equiv_pos_site_id
 _symmetry_equiv_pos_as_xyz
  1  'x, y, z'
loop_
 _atom_site_type_symbol
 _atom_site_label
 _atom_site_symmetry_multiplicity
 _atom_site_fract_x
 _atom_site_fract_y
 _atom_site_fract_z
 _atom_site_occupancy
  Er  Er0  1  0.993599  0.675940  0.750000  1
  Er  Er1  1  0.004764  0.326520  0.250000  1
  Er  Er2  1  0.675940  0.993599  0.750000  1
  Er  Er3  1  0.326520  0.004764  0.250000  1
  Al  Al4  1  0.870393  0.870393  0.250000  1
  Al  Al5  1  0.001474  0.336991  0.575225  1
  Al  Al6  1  0.998973  0.663614  0.424559  1
  Al  Al7  1  0.998973  0.663614  0.075441  1
  Al  Al8  1  0.336991  0.001474  0.924775  1
  Al  Al9  1  0.001474  0.336991  0.924775  1
  Al  Al10  1  0.663614  0.998973  0.075441  1
  Al  Al11  1  0.663614  0.998973  0.424559  1
  Al  Al12  1  0.336991  0.001474  0.575225  1
  Al  Al13  1  0.332255  0.332255  0.052894  1
  Al  Al14  1  0.666025  0.666025  0.951665  1
  Al  Al15  1  0.666025  0.666025  0.548335  1
  Al  Al16  1  0.332255  0.332255  0.447106  1
  Al  Al17  1  0.339424  0.552504  0.750000  1
  Al  Al18  1  0.660457  0.448450  0.250000  1
  Al  Al19  1  0.552504  0.339424  0.750000  1
  Al  Al20  1  0.448450  0.660457  0.250000  1
  Ga  Ga21  1  0.133064  0.133064  0.750000  1
  Rh  Rh22  1  0.671936  0.327074  0.500053  1
  Rh  Rh23  1  0.327074  0.671936  0.500053  1
  Rh  Rh24  1  0.327074  0.671936  0.999947  1
  Rh  Rh25  1  0.671936  0.327074  0.999947  1
  Rh  Rh26  1  0.999101  0.999101  0.497662  1
  Rh  Rh27  1  0.999101  0.999101  0.002338  1
