# generated using pymatgen
data_Tm4MnTc3B8
_symmetry_space_group_name_H-M   'P 1'
_cell_length_a   5.87152716
_cell_length_b   5.22025700
_cell_length_c   6.34873952
_cell_angle_alpha   90.00000000
_cell_angle_beta   90.58966952
_cell_angle_gamma   90.00000000
_symmetry_Int_Tables_number   1
_chemical_formula_structural   Tm4MnTc3B8
_chemical_formula_sum   'Tm4 Mn1 Tc3 B8'
_cell_volume   194.58415243
_cell_formula_units_Z   1
loop_
 _symmetry_equiv_pos_site_id
 _symmetry_equiv_pos_as_xyz
  1  'x, y, z'
loop_
 _atom_site_type_symbol
 _atom_site_label
 _atom_site_symmetry_multiplicity
 _atom_site_fract_x
 _atom_site_fract_y
 _atom_site_fract_z
 _atom_site_occupancy
  Tm  Tm0  1  0.014240  0.250000  0.338609  1
  Tm  Tm1  1  0.512853  0.250000  0.162241  1
  Tm  Tm2  1  0.986848  0.750000  0.660332  1
  Tm  Tm3  1  0.487502  0.750000  0.839642  1
  Mn  Mn4  1  0.321600  0.750000  0.316041  1
  Tc  Tc5  1  0.183495  0.250000  0.814525  1
  Tc  Tc6  1  0.679886  0.250000  0.683438  1
  Tc  Tc7  1  0.818861  0.750000  0.187007  1
  B  B8  1  0.365383  0.073468  0.531210  1
  B  B9  1  0.870553  0.423237  0.965502  1
  B  B10  1  0.624401  0.579516  0.460725  1
  B  B11  1  0.137020  0.920492  0.041645  1
  B  B12  1  0.624401  0.920484  0.460725  1
  B  B13  1  0.137020  0.579508  0.041645  1
  B  B14  1  0.365383  0.426532  0.531210  1
  B  B15  1  0.870553  0.076763  0.965502  1
