# generated using pymatgen
data_NaPr4Er5Sn8
_symmetry_space_group_name_H-M   'P 1'
_cell_length_a   7.99336900
_cell_length_b   8.36343800
_cell_length_c   15.66073600
_cell_angle_alpha   90.00000000
_cell_angle_beta   90.00000000
_cell_angle_gamma   90.00000000
_symmetry_Int_Tables_number   1
_chemical_formula_structural   NaPr4Er5Sn8
_chemical_formula_sum   'Na2 Pr8 Er10 Sn16'
_cell_volume   1046.95224413
_cell_formula_units_Z   2
loop_
 _symmetry_equiv_pos_site_id
 _symmetry_equiv_pos_as_xyz
  1  'x, y, z'
loop_
 _atom_site_type_symbol
 _atom_site_label
 _atom_site_symmetry_multiplicity
 _atom_site_fract_x
 _atom_site_fract_y
 _atom_site_fract_z
 _atom_site_occupancy
  Na  Na0  1  0.164863  0.496432  0.250000  1
  Na  Na1  1  0.664863  0.003568  0.250000  1
  Pr  Pr2  1  0.503748  0.677272  0.597157  1
  Pr  Pr3  1  0.003748  0.822728  0.902843  1
  Pr  Pr4  1  0.492898  0.318392  0.095407  1
  Pr  Pr5  1  0.992898  0.181608  0.404593  1
  Pr  Pr6  1  0.492898  0.318392  0.404593  1
  Pr  Pr7  1  0.992898  0.181608  0.095407  1
  Pr  Pr8  1  0.503748  0.677272  0.902843  1
  Pr  Pr9  1  0.003748  0.822728  0.597157  1
  Er  Er10  1  0.670663  0.165565  0.626596  1
  Er  Er11  1  0.170663  0.334435  0.873404  1
  Er  Er12  1  0.333179  0.831054  0.123813  1
  Er  Er13  1  0.833179  0.668946  0.376187  1
  Er  Er14  1  0.333179  0.831054  0.376187  1
  Er  Er15  1  0.833179  0.668946  0.123813  1
  Er  Er16  1  0.670663  0.165565  0.873404  1
  Er  Er17  1  0.170663  0.334435  0.626596  1
  Er  Er18  1  0.836616  0.500284  0.750000  1
  Er  Er19  1  0.336616  0.999716  0.750000  1
  Sn  Sn20  1  0.672563  0.959179  0.462164  1
  Sn  Sn21  1  0.172563  0.540821  0.037836  1
  Sn  Sn22  1  0.327589  0.038765  0.958125  1
  Sn  Sn23  1  0.827589  0.461235  0.541875  1
  Sn  Sn24  1  0.327589  0.038765  0.541875  1
  Sn  Sn25  1  0.827589  0.461235  0.958125  1
  Sn  Sn26  1  0.672563  0.959179  0.037836  1
  Sn  Sn27  1  0.172563  0.540821  0.462164  1
  Sn  Sn28  1  0.475144  0.376794  0.750000  1
  Sn  Sn29  1  0.975144  0.123206  0.750000  1
  Sn  Sn30  1  0.532164  0.618677  0.250000  1
  Sn  Sn31  1  0.032164  0.881323  0.250000  1
  Sn  Sn32  1  0.699286  0.856114  0.750000  1
  Sn  Sn33  1  0.199286  0.643886  0.750000  1
  Sn  Sn34  1  0.290644  0.131935  0.250000  1
  Sn  Sn35  1  0.790644  0.368065  0.250000  1
