# generated using pymatgen
data_La4GeBr5
_symmetry_space_group_name_H-M   'P 1'
_cell_length_a   9.78982815
_cell_length_b   9.78982815
_cell_length_c   8.78308888
_cell_angle_alpha   78.06832425
_cell_angle_beta   78.06832423
_cell_angle_gamma   25.47923554
_symmetry_Int_Tables_number   1
_chemical_formula_structural   La4GeBr5
_chemical_formula_sum   'La4 Ge1 Br5'
_cell_volume   353.89106750
_cell_formula_units_Z   1
loop_
 _symmetry_equiv_pos_site_id
 _symmetry_equiv_pos_as_xyz
  1  'x, y, z'
loop_
 _atom_site_type_symbol
 _atom_site_label
 _atom_site_symmetry_multiplicity
 _atom_site_fract_x
 _atom_site_fract_y
 _atom_site_fract_z
 _atom_site_occupancy
  La  La0  1  0.845480  0.845480  0.081319  1
  La  La1  1  0.154520  0.154520  0.918681  1
  La  La2  1  0.501608  0.501608  0.229668  1
  La  La3  1  0.498392  0.498392  0.770332  1
  Ge  Ge4  1  0.000000  0.000000  0.000000  1
  Br  Br5  1  0.671076  0.671076  0.164096  1
  Br  Br6  1  0.328924  0.328924  0.835904  1
  Br  Br7  1  0.663897  0.663897  0.669898  1
  Br  Br8  1  0.336103  0.336103  0.330102  1
  Br  Br9  1  0.000000  0.000000  0.500000  1
