# generated using pymatgen
data_Ca4TmIr2
_symmetry_space_group_name_H-M   'P 1'
_cell_length_a   6.60587192
_cell_length_b   7.38041404
_cell_length_c   8.63887055
_cell_angle_alpha   97.39074057
_cell_angle_beta   112.47834145
_cell_angle_gamma   89.99999576
_symmetry_Int_Tables_number   1
_chemical_formula_structural   Ca4TmIr2
_chemical_formula_sum   'Ca8 Tm2 Ir4'
_cell_volume   385.39096244
_cell_formula_units_Z   2
loop_
 _symmetry_equiv_pos_site_id
 _symmetry_equiv_pos_as_xyz
  1  'x, y, z'
loop_
 _atom_site_type_symbol
 _atom_site_label
 _atom_site_symmetry_multiplicity
 _atom_site_fract_x
 _atom_site_fract_y
 _atom_site_fract_z
 _atom_site_occupancy
  Ca  Ca0  1  0.975805  0.920340  0.172752  1
  Ca  Ca1  1  0.803054  0.579660  0.827248  1
  Ca  Ca2  1  0.024195  0.079660  0.827248  1
  Ca  Ca3  1  0.196946  0.420340  0.172752  1
  Ca  Ca4  1  0.640993  0.819814  0.435738  1
  Ca  Ca5  1  0.205255  0.680186  0.564262  1
  Ca  Ca6  1  0.359007  0.180186  0.564262  1
  Ca  Ca7  1  0.794745  0.319814  0.435738  1
  Tm  Tm8  1  0.439120  0.750000  0.000000  1
  Tm  Tm9  1  0.560880  0.250000  0.000000  1
  Ir  Ir10  1  0.805134  0.573207  0.206675  1
  Ir  Ir11  1  0.598460  0.926793  0.793325  1
  Ir  Ir12  1  0.194866  0.426793  0.793325  1
  Ir  Ir13  1  0.401540  0.073207  0.206675  1
