# generated using pymatgen
data_YbEr(B4Os)2
_symmetry_space_group_name_H-M   'P 1'
_cell_length_a   3.54605400
_cell_length_b   5.95273702
_cell_length_c   11.50605769
_cell_angle_alpha   89.83684764
_cell_angle_beta   90.00000000
_cell_angle_gamma   90.00000000
_symmetry_Int_Tables_number   1
_chemical_formula_structural   YbEr(B4Os)2
_chemical_formula_sum   'Yb2 Er2 B16 Os4'
_cell_volume   242.87724498
_cell_formula_units_Z   2
loop_
 _symmetry_equiv_pos_site_id
 _symmetry_equiv_pos_as_xyz
  1  'x, y, z'
loop_
 _atom_site_type_symbol
 _atom_site_label
 _atom_site_symmetry_multiplicity
 _atom_site_fract_x
 _atom_site_fract_y
 _atom_site_fract_z
 _atom_site_occupancy
  Yb  Yb0  1  0.000000  0.628752  0.850997  1
  Yb  Yb1  1  0.000000  0.371248  0.149003  1
  Er  Er2  1  0.000000  0.128634  0.650712  1
  Er  Er3  1  0.000000  0.871366  0.349288  1
  B  B4  1  0.500000  0.474455  0.692112  1
  B  B5  1  0.500000  0.525545  0.307888  1
  B  B6  1  0.500000  0.975329  0.808664  1
  B  B7  1  0.500000  0.024671  0.191336  1
  B  B8  1  0.500000  0.288902  0.815260  1
  B  B9  1  0.500000  0.711098  0.184740  1
  B  B10  1  0.500000  0.787809  0.686203  1
  B  B11  1  0.500000  0.212191  0.313797  1
  B  B12  1  0.500000  0.363941  0.969514  1
  B  B13  1  0.500000  0.636059  0.030486  1
  B  B14  1  0.500000  0.863869  0.530239  1
  B  B15  1  0.500000  0.136131  0.469761  1
  B  B16  1  0.500000  0.387396  0.547596  1
  B  B17  1  0.500000  0.612604  0.452404  1
  B  B18  1  0.500000  0.886019  0.953232  1
  B  B19  1  0.500000  0.113981  0.046768  1
  Os  Os20  1  0.000000  0.136906  0.908998  1
  Os  Os21  1  0.000000  0.863094  0.091002  1
  Os  Os22  1  0.000000  0.641732  0.591579  1
  Os  Os23  1  0.000000  0.358268  0.408421  1
