# generated using pymatgen
data_Tm4ZnIn2CuAu2
_symmetry_space_group_name_H-M   'P 1'
_cell_length_a   7.79678856
_cell_length_b   7.77459453
_cell_length_c   3.65605000
_cell_angle_alpha   90.00000000
_cell_angle_beta   90.00000000
_cell_angle_gamma   90.08458983
_symmetry_Int_Tables_number   1
_chemical_formula_structural   Tm4ZnIn2CuAu2
_chemical_formula_sum   'Tm4 Zn1 In2 Cu1 Au2'
_cell_volume   221.61806494
_cell_formula_units_Z   1
loop_
 _symmetry_equiv_pos_site_id
 _symmetry_equiv_pos_as_xyz
  1  'x, y, z'
loop_
 _atom_site_type_symbol
 _atom_site_label
 _atom_site_symmetry_multiplicity
 _atom_site_fract_x
 _atom_site_fract_y
 _atom_site_fract_z
 _atom_site_occupancy
  Tm  Tm0  1  0.161109  0.330067  0.000000  1
  Tm  Tm1  1  0.825737  0.664668  0.000000  1
  Tm  Tm2  1  0.681165  0.176080  0.000000  1
  Tm  Tm3  1  0.330406  0.825707  0.000000  1
  Zn  Zn4  1  0.376751  0.128428  0.500000  1
  In  In5  1  0.002256  0.006239  0.500000  1
  In  In6  1  0.504394  0.492631  0.500000  1
  Cu  Cu7  1  0.873211  0.373155  0.500000  1
  Au  Au8  1  0.623436  0.879945  0.500000  1
  Au  Au9  1  0.121535  0.623078  0.500000  1
