# generated using pymatgen
data_Pr9Zr(IrRh2)2
_symmetry_space_group_name_H-M   'P 1'
_cell_length_a   11.30074100
_cell_length_b   11.30074100
_cell_length_c   6.52329500
_cell_angle_alpha   90.00000000
_cell_angle_beta   90.00000000
_cell_angle_gamma   90.00000000
_symmetry_Int_Tables_number   1
_chemical_formula_structural   Pr9Zr(IrRh2)2
_chemical_formula_sum   'Pr18 Zr2 Ir4 Rh8'
_cell_volume   833.06878514
_cell_formula_units_Z   2
loop_
 _symmetry_equiv_pos_site_id
 _symmetry_equiv_pos_as_xyz
  1  'x, y, z'
loop_
 _atom_site_type_symbol
 _atom_site_label
 _atom_site_symmetry_multiplicity
 _atom_site_fract_x
 _atom_site_fract_y
 _atom_site_fract_z
 _atom_site_occupancy
  Pr  Pr0  1  0.283816  0.086527  0.380164  1
  Pr  Pr1  1  0.283816  0.913473  0.880164  1
  Pr  Pr2  1  0.716184  0.086527  0.880164  1
  Pr  Pr3  1  0.716184  0.913473  0.380164  1
  Pr  Pr4  1  0.590451  0.793600  0.879865  1
  Pr  Pr5  1  0.590451  0.206400  0.379865  1
  Pr  Pr6  1  0.409549  0.793600  0.379865  1
  Pr  Pr7  1  0.409549  0.206400  0.879865  1
  Pr  Pr8  1  0.206400  0.409549  0.620135  1
  Pr  Pr9  1  0.206400  0.590451  0.120135  1
  Pr  Pr10  1  0.793600  0.409549  0.120135  1
  Pr  Pr11  1  0.793600  0.590451  0.620135  1
  Pr  Pr12  1  0.913473  0.716184  0.119836  1
  Pr  Pr13  1  0.913473  0.283816  0.619836  1
  Pr  Pr14  1  0.086527  0.716184  0.619836  1
  Pr  Pr15  1  0.086527  0.283816  0.119836  1
  Pr  Pr16  1  0.500000  0.500000  0.000000  1
  Pr  Pr17  1  0.500000  0.500000  0.500000  1
  Zr  Zr18  1  0.000000  0.000000  0.500000  1
  Zr  Zr19  1  0.000000  0.000000  0.000000  1
  Ir  Ir20  1  0.863050  0.136950  0.250000  1
  Ir  Ir21  1  0.863050  0.863050  0.750000  1
  Ir  Ir22  1  0.136950  0.136950  0.750000  1
  Ir  Ir23  1  0.136950  0.863050  0.250000  1
  Rh  Rh24  1  0.655636  0.344364  0.750000  1
  Rh  Rh25  1  0.655636  0.655636  0.250000  1
  Rh  Rh26  1  0.344364  0.344364  0.250000  1
  Rh  Rh27  1  0.344364  0.655636  0.750000  1
  Rh  Rh28  1  0.500000  0.000000  0.116671  1
  Rh  Rh29  1  0.500000  0.000000  0.616671  1
  Rh  Rh30  1  0.000000  0.500000  0.883329  1
  Rh  Rh31  1  0.000000  0.500000  0.383329  1
