# generated using pymatgen
data_Tb2NdMn2Co9B4
_symmetry_space_group_name_H-M   'P 1'
_cell_length_a   5.11932600
_cell_length_b   5.12176980
_cell_length_c   9.72455400
_cell_angle_alpha   89.99995762
_cell_angle_beta   90.00005123
_cell_angle_gamma   119.98421759
_symmetry_Int_Tables_number   1
_chemical_formula_structural   Tb2NdMn2Co9B4
_chemical_formula_sum   'Tb2 Nd1 Mn2 Co9 B4'
_cell_volume   220.85244476
_cell_formula_units_Z   1
loop_
 _symmetry_equiv_pos_site_id
 _symmetry_equiv_pos_as_xyz
  1  'x, y, z'
loop_
 _atom_site_type_symbol
 _atom_site_label
 _atom_site_symmetry_multiplicity
 _atom_site_fract_x
 _atom_site_fract_y
 _atom_site_fract_z
 _atom_site_occupancy
  Tb  Tb0  1  0.999995  0.000000  0.342291  1
  Tb  Tb1  1  0.000001  0.000000  0.658140  1
  Nd  Nd2  1  0.999979  0.000000  0.999816  1
  Mn  Mn3  1  0.333302  0.666631  0.999801  1
  Mn  Mn4  1  0.666671  0.333369  0.999801  1
  Co  Co5  1  0.499998  0.000000  0.500159  1
  Co  Co6  1  0.499997  0.500000  0.500154  1
  Co  Co7  1  0.999998  0.500000  0.500154  1
  Co  Co8  1  0.499993  0.000000  0.207906  1
  Co  Co9  1  0.499993  0.500000  0.207931  1
  Co  Co10  1  0.999993  0.500000  0.207931  1
  Co  Co11  1  0.499999  0.000000  0.791888  1
  Co  Co12  1  0.499999  0.500000  0.791847  1
  Co  Co13  1  0.999997  0.500000  0.791847  1
  B  B14  1  0.333350  0.666710  0.351039  1
  B  B15  1  0.666640  0.333290  0.351039  1
  B  B16  1  0.666650  0.333304  0.649131  1
  B  B17  1  0.333345  0.666696  0.649131  1
