# generated using pymatgen
data_Ce4P(PtRh3)3
_symmetry_space_group_name_H-M   'P 1'
_cell_length_a   7.22970948
_cell_length_b   7.22970972
_cell_length_c   7.22845000
_cell_angle_alpha   109.46768823
_cell_angle_beta   109.46768890
_cell_angle_gamma   109.47475146
_symmetry_Int_Tables_number   1
_chemical_formula_structural   Ce4P(PtRh3)3
_chemical_formula_sum   'Ce4 P1 Pt3 Rh9'
_cell_volume   290.85995418
_cell_formula_units_Z   1
loop_
 _symmetry_equiv_pos_site_id
 _symmetry_equiv_pos_as_xyz
  1  'x, y, z'
loop_
 _atom_site_type_symbol
 _atom_site_label
 _atom_site_symmetry_multiplicity
 _atom_site_fract_x
 _atom_site_fract_y
 _atom_site_fract_z
 _atom_site_occupancy
  Ce  Ce0  1  0.000000  0.000000  0.500000  1
  Ce  Ce1  1  0.012151  0.506076  0.006076  1
  Ce  Ce2  1  0.493924  0.987849  0.993924  1
  Ce  Ce3  1  0.493924  0.506076  0.500000  1
  P  P4  1  0.000000  0.000000  0.000000  1
  Pt  Pt5  1  0.749767  0.250233  0.500000  1
  Pt  Pt6  1  0.749767  0.499533  0.249767  1
  Pt  Pt7  1  0.500467  0.250233  0.750233  1
  Rh  Rh8  1  0.249796  0.499591  0.749796  1
  Rh  Rh9  1  0.249796  0.750204  0.500000  1
  Rh  Rh10  1  0.500409  0.750204  0.250204  1
  Rh  Rh11  1  0.728894  0.727646  0.999960  1
  Rh  Rh12  1  0.272354  0.001248  0.272314  1
  Rh  Rh13  1  0.998752  0.271106  0.271066  1
  Rh  Rh14  1  0.272354  0.271106  0.000040  1
  Rh  Rh15  1  0.728894  0.001248  0.728934  1
  Rh  Rh16  1  0.998752  0.727646  0.727686  1
