# generated using pymatgen
data_Ta5Be3SiMo
_symmetry_space_group_name_H-M   'P 1'
_cell_length_a   6.51390131
_cell_length_b   6.53161428
_cell_length_c   3.36272900
_cell_angle_alpha   90.00000000
_cell_angle_beta   90.00000000
_cell_angle_gamma   89.76007375
_symmetry_Int_Tables_number   1
_chemical_formula_structural   Ta5Be3SiMo
_chemical_formula_sum   'Ta5 Be3 Si1 Mo1'
_cell_volume   143.07039167
_cell_formula_units_Z   1
loop_
 _symmetry_equiv_pos_site_id
 _symmetry_equiv_pos_as_xyz
  1  'x, y, z'
loop_
 _atom_site_type_symbol
 _atom_site_label
 _atom_site_symmetry_multiplicity
 _atom_site_fract_x
 _atom_site_fract_y
 _atom_site_fract_z
 _atom_site_occupancy
  Ta  Ta0  1  0.998251  0.003806  0.000000  1
  Ta  Ta1  1  0.674052  0.182011  0.500000  1
  Ta  Ta2  1  0.332813  0.827030  0.500000  1
  Ta  Ta3  1  0.184481  0.315449  0.500000  1
  Ta  Ta4  1  0.809009  0.675962  0.500000  1
  Be  Be5  1  0.878590  0.379350  0.000000  1
  Be  Be6  1  0.615858  0.885974  0.000000  1
  Be  Be7  1  0.386172  0.115666  0.000000  1
  Si  Si8  1  0.117257  0.616646  0.000000  1
  Mo  Mo9  1  0.503517  0.498106  0.000000  1
