# generated using pymatgen
data_Lu6Ti4Al12Ru7
_symmetry_space_group_name_H-M   'P 1'
_cell_length_a   8.93638525
_cell_length_b   8.93638598
_cell_length_c   8.93638500
_cell_angle_alpha   60.00000732
_cell_angle_beta   60.00000461
_cell_angle_gamma   60.00000151
_symmetry_Int_Tables_number   1
_chemical_formula_structural   Lu6Ti4Al12Ru7
_chemical_formula_sum   'Lu6 Ti4 Al12 Ru7'
_cell_volume   504.62727290
_cell_formula_units_Z   1
loop_
 _symmetry_equiv_pos_site_id
 _symmetry_equiv_pos_as_xyz
  1  'x, y, z'
loop_
 _atom_site_type_symbol
 _atom_site_label
 _atom_site_symmetry_multiplicity
 _atom_site_fract_x
 _atom_site_fract_y
 _atom_site_fract_z
 _atom_site_occupancy
  Lu  Lu0  1  0.707154  0.707154  0.292846  1
  Lu  Lu1  1  0.292846  0.707154  0.292846  1
  Lu  Lu2  1  0.707154  0.292846  0.292846  1
  Lu  Lu3  1  0.292846  0.292846  0.707154  1
  Lu  Lu4  1  0.707154  0.292846  0.707154  1
  Lu  Lu5  1  0.292846  0.707154  0.707154  1
  Ti  Ti6  1  0.880420  0.880420  0.358741  1
  Ti  Ti7  1  0.880420  0.358741  0.880420  1
  Ti  Ti8  1  0.358741  0.880420  0.880420  1
  Ti  Ti9  1  0.880420  0.880420  0.880420  1
  Al  Al10  1  0.119216  0.119216  0.642350  1
  Al  Al11  1  0.119216  0.642350  0.119216  1
  Al  Al12  1  0.642350  0.119216  0.119216  1
  Al  Al13  1  0.119216  0.119216  0.119216  1
  Al  Al14  1  0.669176  0.669176  0.992471  1
  Al  Al15  1  0.669176  0.992471  0.669176  1
  Al  Al16  1  0.992471  0.669176  0.669176  1
  Al  Al17  1  0.669176  0.669176  0.669176  1
  Al  Al18  1  0.331431  0.331431  0.005707  1
  Al  Al19  1  0.331431  0.005707  0.331431  1
  Al  Al20  1  0.005707  0.331431  0.331431  1
  Al  Al21  1  0.331431  0.331431  0.331431  1
  Ru  Ru22  1  0.000000  0.000000  0.000000  1
  Ru  Ru23  1  0.998386  0.998386  0.501614  1
  Ru  Ru24  1  0.501614  0.998386  0.501614  1
  Ru  Ru25  1  0.998386  0.501614  0.501614  1
  Ru  Ru26  1  0.501614  0.501614  0.998386  1
  Ru  Ru27  1  0.998386  0.501614  0.998386  1
  Ru  Ru28  1  0.501614  0.998386  0.998386  1
