# generated using pymatgen
data_Th(Sb3Ru)4
_symmetry_space_group_name_H-M   'P 1'
_cell_length_a   8.10599864
_cell_length_b   8.10599894
_cell_length_c   8.10599900
_cell_angle_alpha   109.47121578
_cell_angle_beta   109.47121654
_cell_angle_gamma   109.47122044
_symmetry_Int_Tables_number   1
_chemical_formula_structural   Th(Sb3Ru)4
_chemical_formula_sum   'Th1 Sb12 Ru4'
_cell_volume   410.01313819
_cell_formula_units_Z   1
loop_
 _symmetry_equiv_pos_site_id
 _symmetry_equiv_pos_as_xyz
  1  'x, y, z'
loop_
 _atom_site_type_symbol
 _atom_site_label
 _atom_site_symmetry_multiplicity
 _atom_site_fract_x
 _atom_site_fract_y
 _atom_site_fract_z
 _atom_site_occupancy
  Th  Th0  1  0.000000  0.000000  0.000000  1
  Sb  Sb1  1  0.338163  0.180255  0.842091  1
  Sb  Sb2  1  0.661836  0.819745  0.157909  1
  Sb  Sb3  1  0.661836  0.503928  0.842091  1
  Sb  Sb4  1  0.338164  0.496072  0.157909  1
  Sb  Sb5  1  0.180255  0.842091  0.338164  1
  Sb  Sb6  1  0.819745  0.157909  0.661837  1
  Sb  Sb7  1  0.503928  0.842091  0.661837  1
  Sb  Sb8  1  0.496072  0.157909  0.338164  1
  Sb  Sb9  1  0.842091  0.338163  0.180255  1
  Sb  Sb10  1  0.157909  0.661836  0.819745  1
  Sb  Sb11  1  0.842091  0.661836  0.503928  1
  Sb  Sb12  1  0.157909  0.338164  0.496072  1
  Ru  Ru13  1  0.000000  0.000000  0.500000  1
  Ru  Ru14  1  0.500000  0.000000  0.000000  1
  Ru  Ru15  1  0.000000  0.500000  0.000000  1
  Ru  Ru16  1  0.500000  0.500000  0.500000  1
