# generated using pymatgen
data_Ce2Nd13Ho(CdIr)4
_symmetry_space_group_name_H-M   'P 1'
_cell_length_a   9.90291233
_cell_length_b   9.90291241
_cell_length_c   9.97419400
_cell_angle_alpha   59.76161030
_cell_angle_beta   59.76161004
_cell_angle_gamma   59.74254087
_symmetry_Int_Tables_number   1
_chemical_formula_structural   Ce2Nd13Ho(CdIr)4
_chemical_formula_sum   'Ce2 Nd13 Ho1 Cd4 Ir4'
_cell_volume   687.80975922
_cell_formula_units_Z   1
loop_
 _symmetry_equiv_pos_site_id
 _symmetry_equiv_pos_as_xyz
  1  'x, y, z'
loop_
 _atom_site_type_symbol
 _atom_site_label
 _atom_site_symmetry_multiplicity
 _atom_site_fract_x
 _atom_site_fract_y
 _atom_site_fract_z
 _atom_site_occupancy
  Ce  Ce0  1  0.593194  0.593194  0.596463  1
  Ce  Ce1  1  0.593194  0.593194  0.217151  1
  Nd  Nd2  1  0.599768  0.200049  0.600092  1
  Nd  Nd3  1  0.200049  0.599768  0.600092  1
  Nd  Nd4  1  0.059504  0.439483  0.442995  1
  Nd  Nd5  1  0.439483  0.059504  0.058018  1
  Nd  Nd6  1  0.439483  0.059504  0.442995  1
  Nd  Nd7  1  0.059504  0.439483  0.058018  1
  Nd  Nd8  1  0.440479  0.440479  0.059521  1
  Nd  Nd9  1  0.059567  0.059567  0.440433  1
  Nd  Nd10  1  0.191704  0.812842  0.812278  1
  Nd  Nd11  1  0.812842  0.191704  0.183176  1
  Nd  Nd12  1  0.812842  0.191704  0.812278  1
  Nd  Nd13  1  0.191704  0.812842  0.183176  1
  Nd  Nd14  1  0.809724  0.809724  0.190276  1
  Ho  Ho15  1  0.189540  0.189540  0.810460  1
  Cd  Cd16  1  0.828011  0.828011  0.833141  1
  Cd  Cd17  1  0.828011  0.828011  0.510836  1
  Cd  Cd18  1  0.829640  0.508300  0.831030  1
  Cd  Cd19  1  0.508300  0.829640  0.831030  1
  Ir  Ir20  1  0.396172  0.396172  0.387502  1
  Ir  Ir21  1  0.396172  0.396172  0.820155  1
  Ir  Ir22  1  0.402605  0.818510  0.389443  1
  Ir  Ir23  1  0.818510  0.402605  0.389443  1
