# generated using pymatgen
data_Dy6Al24Fe4RuAu3
_symmetry_space_group_name_H-M   'P 1'
_cell_length_a   8.80682296
_cell_length_b   8.85587815
_cell_length_c   9.43946578
_cell_angle_alpha   89.95147868
_cell_angle_beta   90.00481169
_cell_angle_gamma   119.71824156
_symmetry_Int_Tables_number   1
_chemical_formula_structural   Dy6Al24Fe4RuAu3
_chemical_formula_sum   'Dy6 Al24 Fe4 Ru1 Au3'
_cell_volume   639.37376421
_cell_formula_units_Z   1
loop_
 _symmetry_equiv_pos_site_id
 _symmetry_equiv_pos_as_xyz
  1  'x, y, z'
loop_
 _atom_site_type_symbol
 _atom_site_label
 _atom_site_symmetry_multiplicity
 _atom_site_fract_x
 _atom_site_fract_y
 _atom_site_fract_z
 _atom_site_occupancy
  Dy  Dy0  1  0.192903  0.807989  0.250637  1
  Dy  Dy1  1  0.190680  0.383304  0.251819  1
  Dy  Dy2  1  0.615725  0.809439  0.245241  1
  Dy  Dy3  1  0.807097  0.192011  0.749363  1
  Dy  Dy4  1  0.809320  0.616696  0.748181  1
  Dy  Dy5  1  0.384275  0.190561  0.754759  1
  Al  Al6  1  0.567283  0.430851  0.249933  1
  Al  Al7  1  0.559096  0.117341  0.254152  1
  Al  Al8  1  0.875956  0.436679  0.237021  1
  Al  Al9  1  0.432717  0.569149  0.750067  1
  Al  Al10  1  0.440904  0.882659  0.745848  1
  Al  Al11  1  0.124044  0.563321  0.762979  1
  Al  Al12  1  0.317593  0.146412  0.422810  1
  Al  Al13  1  0.829043  0.148247  0.420148  1
  Al  Al14  1  0.844768  0.689775  0.419154  1
  Al  Al15  1  0.682407  0.853588  0.577190  1
  Al  Al16  1  0.170957  0.851753  0.579852  1
  Al  Al17  1  0.155232  0.310225  0.580846  1
  Al  Al18  1  0.682990  0.851443  0.923070  1
  Al  Al19  1  0.160094  0.837681  0.924350  1
  Al  Al20  1  0.145606  0.317742  0.927169  1
  Al  Al21  1  0.317010  0.148557  0.076930  1
  Al  Al22  1  0.839906  0.162319  0.075650  1
  Al  Al23  1  0.854394  0.682258  0.072831  1
  Al  Al24  1  0.656540  0.313641  0.528248  1
  Al  Al25  1  0.343460  0.686359  0.471752  1
  Al  Al26  1  0.320888  0.668427  0.027056  1
  Al  Al27  1  0.679112  0.331573  0.972944  1
  Al  Al28  1  0.000708  0.003015  0.248920  1
  Al  Al29  1  0.999292  0.996985  0.751080  1
  Fe  Fe30  1  0.000000  0.000000  0.500000  1
  Fe  Fe31  1  0.000000  0.000000  0.000000  1
  Fe  Fe32  1  0.500000  0.000000  0.500000  1
  Fe  Fe33  1  0.000000  0.500000  0.000000  1
  Ru  Ru34  1  0.500000  0.000000  0.000000  1
  Au  Au35  1  0.500000  0.500000  0.500000  1
  Au  Au36  1  0.000000  0.500000  0.500000  1
  Au  Au37  1  0.500000  0.500000  0.000000  1
