# generated using pymatgen
data_Hf8Fe2Co5Si14Tc
_symmetry_space_group_name_H-M   'P 1'
_cell_length_a   9.47566021
_cell_length_b   9.48112261
_cell_length_c   9.47918255
_cell_angle_alpha   94.22649125
_cell_angle_beta   94.20939594
_cell_angle_gamma   148.62111662
_symmetry_Int_Tables_number   1
_chemical_formula_structural   Hf8Fe2Co5Si14Tc
_chemical_formula_sum   'Hf8 Fe2 Co5 Si14 Tc1'
_cell_volume   426.71207399
_cell_formula_units_Z   1
loop_
 _symmetry_equiv_pos_site_id
 _symmetry_equiv_pos_as_xyz
  1  'x, y, z'
loop_
 _atom_site_type_symbol
 _atom_site_label
 _atom_site_symmetry_multiplicity
 _atom_site_fract_x
 _atom_site_fract_y
 _atom_site_fract_z
 _atom_site_occupancy
  Hf  Hf0  1  0.136844  0.136751  0.274530  1
  Hf  Hf1  1  0.862126  0.862042  0.723931  1
  Hf  Hf2  1  0.136647  0.860505  0.999082  1
  Hf  Hf3  1  0.862147  0.138363  0.999225  1
  Hf  Hf4  1  0.303385  0.498376  0.801907  1
  Hf  Hf5  1  0.696856  0.500736  0.195552  1
  Hf  Hf6  1  0.499488  0.696001  0.196692  1
  Hf  Hf7  1  0.499584  0.305048  0.803366  1
  Fe  Fe8  1  0.394966  0.893390  0.791464  1
  Fe  Fe9  1  0.899319  0.101892  0.503019  1
  Co  Co10  1  0.604000  0.401748  0.502264  1
  Co  Co11  1  0.600789  0.102220  0.201724  1
  Co  Co12  1  0.898307  0.399325  0.798998  1
  Co  Co13  1  0.102958  0.899241  0.500007  1
  Co  Co14  1  0.397160  0.600444  0.499504  1
  Si  Si15  1  0.289597  0.289651  0.579565  1
  Si  Si16  1  0.710753  0.711079  0.419645  1
  Si  Si17  1  0.300370  0.717918  0.994813  1
  Si  Si18  1  0.694201  0.276407  0.994758  1
  Si  Si19  1  0.086872  0.493990  0.591542  1
  Si  Si20  1  0.892835  0.486811  0.412755  1
  Si  Si21  1  0.527275  0.933726  0.414529  1
  Si  Si22  1  0.498692  0.091570  0.593510  1
  Si  Si23  1  0.248923  0.249762  0.999123  1
  Si  Si24  1  0.750171  0.749653  0.999372  1
  Si  Si25  1  0.308007  0.013850  0.301602  1
  Si  Si26  1  0.700256  0.000668  0.699127  1
  Si  Si27  1  0.001147  0.700391  0.699698  1
  Si  Si28  1  0.991200  0.285004  0.302171  1
  Tc  Tc29  1  0.105128  0.603435  0.206524  1
