# generated using pymatgen
data_Pr8Er2InSi4Ge
_symmetry_space_group_name_H-M   'P 1'
_cell_length_a   7.70449400
_cell_length_b   9.26843769
_cell_length_c   7.70449400
_cell_angle_alpha   114.55904607
_cell_angle_beta   90.00000000
_cell_angle_gamma   114.55904607
_symmetry_Int_Tables_number   1
_chemical_formula_structural   Pr8Er2InSi4Ge
_chemical_formula_sum   'Pr8 Er2 In1 Si4 Ge1'
_cell_volume   445.09252611
_cell_formula_units_Z   1
loop_
 _symmetry_equiv_pos_site_id
 _symmetry_equiv_pos_as_xyz
  1  'x, y, z'
loop_
 _atom_site_type_symbol
 _atom_site_label
 _atom_site_symmetry_multiplicity
 _atom_site_fract_x
 _atom_site_fract_y
 _atom_site_fract_z
 _atom_site_occupancy
  Pr  Pr0  1  0.524730  0.721316  0.673856  1
  Pr  Pr1  1  0.196587  0.721316  0.047461  1
  Pr  Pr2  1  0.673856  0.721316  0.196587  1
  Pr  Pr3  1  0.047461  0.721316  0.524730  1
  Pr  Pr4  1  0.452539  0.278684  0.303413  1
  Pr  Pr5  1  0.826144  0.278684  0.975270  1
  Pr  Pr6  1  0.303413  0.278684  0.826144  1
  Pr  Pr7  1  0.975270  0.278684  0.452539  1
  Er  Er8  1  0.980318  0.960636  0.980318  1
  Er  Er9  1  0.519682  0.039364  0.519682  1
  In  In10  1  0.750000  0.500000  0.750000  1
  Si  Si11  1  0.880477  0.000000  0.619523  1
  Si  Si12  1  0.119523  0.000000  0.380477  1
  Si  Si13  1  0.619523  0.000000  0.119523  1
  Si  Si14  1  0.380477  0.000000  0.880477  1
  Ge  Ge15  1  0.250000  0.500000  0.250000  1
