# generated using pymatgen
data_DyTh(ZnCo)2
_symmetry_space_group_name_H-M   'P 1'
_cell_length_a   3.81476900
_cell_length_b   6.88163327
_cell_length_c   8.25800504
_cell_angle_alpha   91.61017335
_cell_angle_beta   90.00000000
_cell_angle_gamma   90.00000000
_symmetry_Int_Tables_number   1
_chemical_formula_structural   DyTh(ZnCo)2
_chemical_formula_sum   'Dy2 Th2 Zn4 Co4'
_cell_volume   216.70223698
_cell_formula_units_Z   2
loop_
 _symmetry_equiv_pos_site_id
 _symmetry_equiv_pos_as_xyz
  1  'x, y, z'
loop_
 _atom_site_type_symbol
 _atom_site_label
 _atom_site_symmetry_multiplicity
 _atom_site_fract_x
 _atom_site_fract_y
 _atom_site_fract_z
 _atom_site_occupancy
  Dy  Dy0  1  0.250000  0.041494  0.318250  1
  Dy  Dy1  1  0.750000  0.958506  0.681750  1
  Th  Th2  1  0.250000  0.538010  0.188546  1
  Th  Th3  1  0.750000  0.461990  0.811454  1
  Zn  Zn4  1  0.250000  0.122013  0.942519  1
  Zn  Zn5  1  0.750000  0.877987  0.057481  1
  Zn  Zn6  1  0.250000  0.643271  0.553662  1
  Zn  Zn7  1  0.750000  0.356729  0.446338  1
  Co  Co8  1  0.750000  0.739675  0.356794  1
  Co  Co9  1  0.250000  0.260325  0.643206  1
  Co  Co10  1  0.750000  0.259728  0.130650  1
  Co  Co11  1  0.250000  0.740272  0.869350  1
