# generated using pymatgen
data_Hf3Zr7(Sn3P)2
_symmetry_space_group_name_H-M   'P 1'
_cell_length_a   8.61110700
_cell_length_b   8.61110676
_cell_length_c   5.94247800
_cell_angle_alpha   90.00000000
_cell_angle_beta   90.00000000
_cell_angle_gamma   119.99998942
_symmetry_Int_Tables_number   1
_chemical_formula_structural   Hf3Zr7(Sn3P)2
_chemical_formula_sum   'Hf3 Zr7 Sn6 P2'
_cell_volume   381.60690081
_cell_formula_units_Z   1
loop_
 _symmetry_equiv_pos_site_id
 _symmetry_equiv_pos_as_xyz
  1  'x, y, z'
loop_
 _atom_site_type_symbol
 _atom_site_label
 _atom_site_symmetry_multiplicity
 _atom_site_fract_x
 _atom_site_fract_y
 _atom_site_fract_z
 _atom_site_occupancy
  Hf  Hf0  1  0.666667  0.333333  0.000000  1
  Hf  Hf1  1  0.333333  0.666667  0.000000  1
  Hf  Hf2  1  0.333333  0.666667  0.500000  1
  Zr  Zr3  1  0.666667  0.333333  0.500000  1
  Zr  Zr4  1  0.750360  0.750532  0.749986  1
  Zr  Zr5  1  0.249468  0.999828  0.749986  1
  Zr  Zr6  1  0.000172  0.249640  0.749986  1
  Zr  Zr7  1  0.249468  0.249640  0.250014  1
  Zr  Zr8  1  0.750360  0.999828  0.250014  1
  Zr  Zr9  1  0.000172  0.750532  0.250014  1
  Sn  Sn10  1  0.399851  0.400237  0.750395  1
  Sn  Sn11  1  0.599763  0.999615  0.750395  1
  Sn  Sn12  1  0.000385  0.600149  0.750395  1
  Sn  Sn13  1  0.599763  0.600149  0.249605  1
  Sn  Sn14  1  0.399851  0.999615  0.249605  1
  Sn  Sn15  1  0.000385  0.400237  0.249605  1
  P  P16  1  0.000000  0.000000  0.000000  1
  P  P17  1  0.000000  0.000000  0.500000  1
