# generated using pymatgen
data_KSiGe2P3
_symmetry_space_group_name_H-M   'P 1'
_cell_length_a   3.63179600
_cell_length_b   9.27396200
_cell_length_c   10.61141600
_cell_angle_alpha   90.00000000
_cell_angle_beta   90.00000000
_cell_angle_gamma   90.00000000
_symmetry_Int_Tables_number   1
_chemical_formula_structural   KSiGe2P3
_chemical_formula_sum   'K2 Si2 Ge4 P6'
_cell_volume   357.40456769
_cell_formula_units_Z   2
loop_
 _symmetry_equiv_pos_site_id
 _symmetry_equiv_pos_as_xyz
  1  'x, y, z'
loop_
 _atom_site_type_symbol
 _atom_site_label
 _atom_site_symmetry_multiplicity
 _atom_site_fract_x
 _atom_site_fract_y
 _atom_site_fract_z
 _atom_site_occupancy
  K  K0  1  0.000000  0.628431  0.509327  1
  K  K1  1  0.000000  0.371569  0.009327  1
  Si  Si2  1  0.500000  0.839438  0.917549  1
  Si  Si3  1  0.500000  0.160562  0.417549  1
  Ge  Ge4  1  0.000000  0.274880  0.704240  1
  Ge  Ge5  1  0.000000  0.725120  0.204240  1
  Ge  Ge6  1  0.000000  0.005608  0.649158  1
  Ge  Ge7  1  0.000000  0.994392  0.149158  1
  P  P8  1  0.000000  0.802567  0.789231  1
  P  P9  1  0.000000  0.197433  0.289231  1
  P  P10  1  0.500000  0.941816  0.512921  1
  P  P11  1  0.500000  0.058184  0.012921  1
  P  P12  1  0.500000  0.336318  0.564005  1
  P  P13  1  0.500000  0.663682  0.064005  1
