# generated using pymatgen
data_Ce4Tc2B6Pb
_symmetry_space_group_name_H-M   'P 1'
_cell_length_a   5.42392470
_cell_length_b   5.42392475
_cell_length_c   8.73788187
_cell_angle_alpha   71.91856675
_cell_angle_beta   71.91856773
_cell_angle_gamma   59.99999938
_symmetry_Int_Tables_number   1
_chemical_formula_structural   Ce4Tc2B6Pb
_chemical_formula_sum   'Ce4 Tc2 B6 Pb1'
_cell_volume   207.83239222
_cell_formula_units_Z   1
loop_
 _symmetry_equiv_pos_site_id
 _symmetry_equiv_pos_as_xyz
  1  'x, y, z'
loop_
 _atom_site_type_symbol
 _atom_site_label
 _atom_site_symmetry_multiplicity
 _atom_site_fract_x
 _atom_site_fract_y
 _atom_site_fract_z
 _atom_site_occupancy
  Ce  Ce0  1  0.749155  0.749155  0.752533  1
  Ce  Ce1  1  0.250845  0.250845  0.247467  1
  Ce  Ce2  1  0.584481  0.584481  0.246555  1
  Ce  Ce3  1  0.415519  0.415519  0.753445  1
  Tc  Tc4  1  0.886084  0.886084  0.341749  1
  Tc  Tc5  1  0.113916  0.113916  0.658252  1
  B  B6  1  0.500000  0.171134  0.500000  1
  B  B7  1  0.828866  0.500000  0.500000  1
  B  B8  1  0.171134  0.828866  0.500000  1
  B  B9  1  0.171134  0.500000  0.500000  1
  B  B10  1  0.828866  0.171134  0.500000  1
  B  B11  1  0.500000  0.828866  0.500000  1
  Pb  Pb12  1  0.000000  0.000000  0.000000  1
