# generated using pymatgen
data_Tb3ErAl2(B2Rh5)2
_symmetry_space_group_name_H-M   'P 1'
_cell_length_a   9.54202864
_cell_length_b   9.54202864
_cell_length_c   3.17741100
_cell_angle_alpha   90.00000000
_cell_angle_beta   90.00000000
_cell_angle_gamma   90.17899631
_symmetry_Int_Tables_number   1
_chemical_formula_structural   Tb3ErAl2(B2Rh5)2
_chemical_formula_sum   'Tb3 Er1 Al2 B4 Rh10'
_cell_volume   289.30284663
_cell_formula_units_Z   1
loop_
 _symmetry_equiv_pos_site_id
 _symmetry_equiv_pos_as_xyz
  1  'x, y, z'
loop_
 _atom_site_type_symbol
 _atom_site_label
 _atom_site_symmetry_multiplicity
 _atom_site_fract_x
 _atom_site_fract_y
 _atom_site_fract_z
 _atom_site_occupancy
  Tb  Tb0  1  0.825242  0.325242  0.000000  1
  Tb  Tb1  1  0.324558  0.174978  0.000000  1
  Tb  Tb2  1  0.674978  0.824558  0.000000  1
  Er  Er3  1  0.175053  0.675053  0.000000  1
  Al  Al4  1  0.000050  0.000131  0.000000  1
  Al  Al5  1  0.500131  0.500050  0.000000  1
  B  B6  1  0.621381  0.121381  0.000000  1
  B  B7  1  0.122198  0.379539  0.000000  1
  B  B8  1  0.879539  0.622198  0.000000  1
  B  B9  1  0.377206  0.877206  0.000000  1
  Rh  Rh10  1  0.070609  0.219417  0.500000  1
  Rh  Rh11  1  0.218060  0.927894  0.500000  1
  Rh  Rh12  1  0.780793  0.070360  0.500000  1
  Rh  Rh13  1  0.930843  0.781173  0.500000  1
  Rh  Rh14  1  0.427894  0.718060  0.500000  1
  Rh  Rh15  1  0.570360  0.280793  0.500000  1
  Rh  Rh16  1  0.719417  0.570609  0.500000  1
  Rh  Rh17  1  0.281173  0.430843  0.500000  1
  Rh  Rh18  1  0.499311  0.999311  0.500000  1
  Rh  Rh19  1  0.001205  0.501205  0.500000  1
