# generated using pymatgen
data_Mg4ZrNb7N12
_symmetry_space_group_name_H-M   'P 1'
_cell_length_a   5.30553900
_cell_length_b   5.30553964
_cell_length_c   10.56880400
_cell_angle_alpha   90.00000000
_cell_angle_beta   90.00000000
_cell_angle_gamma   120.00000227
_symmetry_Int_Tables_number   1
_chemical_formula_structural   Mg4ZrNb7N12
_chemical_formula_sum   'Mg4 Zr1 Nb7 N12'
_cell_volume   257.64133468
_cell_formula_units_Z   1
loop_
 _symmetry_equiv_pos_site_id
 _symmetry_equiv_pos_as_xyz
  1  'x, y, z'
loop_
 _atom_site_type_symbol
 _atom_site_label
 _atom_site_symmetry_multiplicity
 _atom_site_fract_x
 _atom_site_fract_y
 _atom_site_fract_z
 _atom_site_occupancy
  Mg  Mg0  1  0.333333  0.666667  0.000000  1
  Mg  Mg1  1  0.333333  0.666667  0.500000  1
  Mg  Mg2  1  0.666667  0.333333  0.500000  1
  Mg  Mg3  1  0.666667  0.333333  0.000000  1
  Zr  Zr4  1  0.000000  0.000000  0.000000  1
  Nb  Nb5  1  0.000000  0.336925  0.252220  1
  Nb  Nb6  1  0.663075  0.000000  0.747780  1
  Nb  Nb7  1  0.336925  0.336925  0.747780  1
  Nb  Nb8  1  0.000000  0.000000  0.500000  1
  Nb  Nb9  1  0.663075  0.663075  0.252220  1
  Nb  Nb10  1  0.336925  0.000000  0.252220  1
  Nb  Nb11  1  0.000000  0.663075  0.747780  1
  N  N12  1  0.669251  0.669251  0.619962  1
  N  N13  1  0.663678  0.663678  0.874619  1
  N  N14  1  0.336322  0.336322  0.125381  1
  N  N15  1  0.330749  0.330749  0.380038  1
  N  N16  1  0.336322  0.000000  0.874619  1
  N  N17  1  0.330749  0.000000  0.619962  1
  N  N18  1  0.000000  0.669251  0.380038  1
  N  N19  1  0.000000  0.663678  0.125381  1
  N  N20  1  0.663678  0.000000  0.125381  1
  N  N21  1  0.669251  0.000000  0.380038  1
  N  N22  1  0.000000  0.336322  0.874619  1
  N  N23  1  0.000000  0.330749  0.619962  1
