# generated using pymatgen
data_Lu2Co9As6Rh
_symmetry_space_group_name_H-M   'P 1'
_cell_length_a   3.76638300
_cell_length_b   10.70331400
_cell_length_c   12.18838900
_cell_angle_alpha   90.00000000
_cell_angle_beta   90.00000000
_cell_angle_gamma   90.00000000
_symmetry_Int_Tables_number   1
_chemical_formula_structural   Lu2Co9As6Rh
_chemical_formula_sum   'Lu4 Co18 As12 Rh2'
_cell_volume   491.34784301
_cell_formula_units_Z   2
loop_
 _symmetry_equiv_pos_site_id
 _symmetry_equiv_pos_as_xyz
  1  'x, y, z'
loop_
 _atom_site_type_symbol
 _atom_site_label
 _atom_site_symmetry_multiplicity
 _atom_site_fract_x
 _atom_site_fract_y
 _atom_site_fract_z
 _atom_site_occupancy
  Lu  Lu0  1  0.250000  0.577973  0.700519  1
  Lu  Lu1  1  0.250000  0.922027  0.200519  1
  Lu  Lu2  1  0.750000  0.414590  0.295442  1
  Lu  Lu3  1  0.750000  0.085410  0.795442  1
  Co  Co4  1  0.750000  0.285923  0.006797  1
  Co  Co5  1  0.750000  0.214077  0.506797  1
  Co  Co6  1  0.250000  0.404944  0.486546  1
  Co  Co7  1  0.250000  0.095056  0.986546  1
  Co  Co8  1  0.750000  0.589767  0.514349  1
  Co  Co9  1  0.750000  0.910233  0.014349  1
  Co  Co10  1  0.250000  0.216103  0.177791  1
  Co  Co11  1  0.250000  0.283897  0.677791  1
  Co  Co12  1  0.750000  0.785541  0.824451  1
  Co  Co13  1  0.750000  0.714459  0.324451  1
  Co  Co14  1  0.250000  0.888811  0.699673  1
  Co  Co15  1  0.250000  0.611189  0.199673  1
  Co  Co16  1  0.750000  0.115903  0.301896  1
  Co  Co17  1  0.750000  0.384097  0.801896  1
  Co  Co18  1  0.250000  0.467629  0.930292  1
  Co  Co19  1  0.250000  0.032371  0.430292  1
  Co  Co20  1  0.750000  0.531612  0.069408  1
  Co  Co21  1  0.750000  0.968388  0.569408  1
  As  As22  1  0.250000  0.413729  0.112782  1
  As  As23  1  0.250000  0.086271  0.612782  1
  As  As24  1  0.750000  0.583173  0.884125  1
  As  As25  1  0.750000  0.916827  0.384125  1
  As  As26  1  0.250000  0.268348  0.869721  1
  As  As27  1  0.250000  0.231652  0.369721  1
  As  As28  1  0.750000  0.732346  0.134920  1
  As  As29  1  0.750000  0.767654  0.634920  1
  As  As30  1  0.250000  0.591164  0.388334  1
  As  As31  1  0.250000  0.908836  0.888334  1
  As  As32  1  0.750000  0.398421  0.609925  1
  As  As33  1  0.750000  0.101579  0.109925  1
  Rh  Rh34  1  0.250000  0.716053  0.993031  1
  Rh  Rh35  1  0.250000  0.783947  0.493031  1
