# generated using pymatgen
data_Cd2TcH10
_symmetry_space_group_name_H-M   'P 1'
_cell_length_a   5.39332010
_cell_length_b   6.53415397
_cell_length_c   8.04384508
_cell_angle_alpha   77.73445388
_cell_angle_beta   90.80521610
_cell_angle_gamma   52.63194372
_symmetry_Int_Tables_number   1
_chemical_formula_structural   Cd2TcH10
_chemical_formula_sum   'Cd2 Tc1 H10'
_cell_volume   216.38341607
_cell_formula_units_Z   1
loop_
 _symmetry_equiv_pos_site_id
 _symmetry_equiv_pos_as_xyz
  1  'x, y, z'
loop_
 _atom_site_type_symbol
 _atom_site_label
 _atom_site_symmetry_multiplicity
 _atom_site_fract_x
 _atom_site_fract_y
 _atom_site_fract_z
 _atom_site_occupancy
  Cd  Cd0  1  0.440999  0.480719  0.519394  1
  Cd  Cd1  1  0.447202  0.959981  0.587892  1
  Tc  Tc2  1  0.951359  0.471027  0.568380  1
  H  H3  1  0.816740  0.530308  0.752209  1
  H  H4  1  0.057632  0.148404  0.173238  1
  H  H5  1  0.227866  0.275431  0.747485  1
  H  H6  1  0.029123  0.658849  0.636736  1
  H  H7  1  0.059261  0.123086  0.086337  1
  H  H8  1  0.912990  0.238969  0.674216  1
  H  H9  1  0.233914  0.544959  0.008739  1
  H  H10  1  0.786627  0.456638  0.386164  1
  H  H11  1  0.377755  0.537583  0.019899  1
  H  H12  1  0.998896  0.610822  0.373452  1
