# generated using pymatgen
data_Hf9Re3MoIr
_symmetry_space_group_name_H-M   'P 1'
_cell_length_a   8.48804000
_cell_length_b   8.69255031
_cell_length_c   8.69255000
_cell_angle_alpha   120.00270095
_cell_angle_beta   90.00000000
_cell_angle_gamma   90.00000000
_symmetry_Int_Tables_number   1
_chemical_formula_structural   Hf9Re3MoIr
_chemical_formula_sum   'Hf18 Re6 Mo2 Ir2'
_cell_volume   555.41888071
_cell_formula_units_Z   2
loop_
 _symmetry_equiv_pos_site_id
 _symmetry_equiv_pos_as_xyz
  1  'x, y, z'
loop_
 _atom_site_type_symbol
 _atom_site_label
 _atom_site_symmetry_multiplicity
 _atom_site_fract_x
 _atom_site_fract_y
 _atom_site_fract_z
 _atom_site_occupancy
  Hf  Hf0  1  0.554562  0.803603  0.607206  1
  Hf  Hf1  1  0.554544  0.803606  0.196394  1
  Hf  Hf2  1  0.554562  0.392794  0.196397  1
  Hf  Hf3  1  0.445438  0.196397  0.392794  1
  Hf  Hf4  1  0.445456  0.196394  0.803606  1
  Hf  Hf5  1  0.445438  0.607206  0.803603  1
  Hf  Hf6  1  0.054562  0.196397  0.392794  1
  Hf  Hf7  1  0.054544  0.196394  0.803606  1
  Hf  Hf8  1  0.054562  0.607206  0.803603  1
  Hf  Hf9  1  0.945438  0.803603  0.607206  1
  Hf  Hf10  1  0.945456  0.803606  0.196394  1
  Hf  Hf11  1  0.945438  0.392794  0.196397  1
  Hf  Hf12  1  0.750000  0.458416  0.916825  1
  Hf  Hf13  1  0.750000  0.458408  0.541592  1
  Hf  Hf14  1  0.750000  0.083175  0.541584  1
  Hf  Hf15  1  0.250000  0.541584  0.083175  1
  Hf  Hf16  1  0.250000  0.541592  0.458408  1
  Hf  Hf17  1  0.250000  0.916825  0.458416  1
  Re  Re18  1  0.750000  0.111274  0.222517  1
  Re  Re19  1  0.750000  0.111271  0.888729  1
  Re  Re20  1  0.750000  0.777483  0.888726  1
  Re  Re21  1  0.250000  0.888726  0.777483  1
  Re  Re22  1  0.250000  0.888729  0.111271  1
  Re  Re23  1  0.250000  0.222517  0.111274  1
  Mo  Mo24  1  0.500000  0.000000  0.000000  1
  Mo  Mo25  1  0.000000  0.000000  0.000000  1
  Ir  Ir26  1  0.750000  0.666672  0.333328  1
  Ir  Ir27  1  0.250000  0.333328  0.666672  1
