# generated using pymatgen
data_GdCdCu2PdPt
_symmetry_space_group_name_H-M   'P 1'
_cell_length_a   5.22153416
_cell_length_b   5.51827694
_cell_length_c   5.22153466
_cell_angle_alpha   58.01867623
_cell_angle_beta   58.16260780
_cell_angle_gamma   58.01867368
_symmetry_Int_Tables_number   1
_chemical_formula_structural   GdCdCu2PdPt
_chemical_formula_sum   'Gd1 Cd1 Cu2 Pd1 Pt1'
_cell_volume   101.66922595
_cell_formula_units_Z   1
loop_
 _symmetry_equiv_pos_site_id
 _symmetry_equiv_pos_as_xyz
  1  'x, y, z'
loop_
 _atom_site_type_symbol
 _atom_site_label
 _atom_site_symmetry_multiplicity
 _atom_site_fract_x
 _atom_site_fract_y
 _atom_site_fract_z
 _atom_site_occupancy
  Gd  Gd0  1  0.750108  0.751034  0.750108  1
  Cd  Cd1  1  0.996461  0.003142  0.996461  1
  Cu  Cu2  1  0.875614  0.373084  0.378113  1
  Cu  Cu3  1  0.378113  0.373084  0.875614  1
  Pd  Pd4  1  0.374704  0.373982  0.374704  1
  Pt  Pt5  1  0.375001  0.875675  0.375001  1
