# generated using pymatgen
data_Ti3Nb5Cr2(B2P)2
_symmetry_space_group_name_H-M   'P 1'
_cell_length_a   5.99243048
_cell_length_b   5.99243022
_cell_length_c   7.12296273
_cell_angle_alpha   114.88556862
_cell_angle_beta   115.04204008
_cell_angle_gamma   89.80882455
_symmetry_Int_Tables_number   1
_chemical_formula_structural   Ti3Nb5Cr2(B2P)2
_chemical_formula_sum   'Ti3 Nb5 Cr2 B4 P2'
_cell_volume   205.41066034
_cell_formula_units_Z   1
loop_
 _symmetry_equiv_pos_site_id
 _symmetry_equiv_pos_as_xyz
  1  'x, y, z'
loop_
 _atom_site_type_symbol
 _atom_site_label
 _atom_site_symmetry_multiplicity
 _atom_site_fract_x
 _atom_site_fract_y
 _atom_site_fract_z
 _atom_site_occupancy
  Ti  Ti0  1  0.034054  0.533647  0.727371  1
  Ti  Ti1  1  0.693724  0.193317  0.727371  1
  Ti  Ti2  1  0.192262  0.037092  0.729354  1
  Nb  Nb3  1  0.533254  0.692385  0.725639  1
  Nb  Nb4  1  0.964496  0.463558  0.273662  1
  Nb  Nb5  1  0.310104  0.809166  0.273662  1
  Nb  Nb6  1  0.809703  0.964008  0.273711  1
  Nb  Nb7  1  0.463975  0.309642  0.273617  1
  Cr  Cr8  1  0.496590  0.496577  0.994543  1
  Cr  Cr9  1  0.997965  0.997953  0.994543  1
  B  B10  1  0.377746  0.880711  0.995787  1
  B  B11  1  0.615076  0.118042  0.995787  1
  B  B12  1  0.112347  0.381363  0.993710  1
  B  B13  1  0.883397  0.612162  0.995559  1
  P  P14  1  0.254901  0.252437  0.512842  1
  P  P15  1  0.760405  0.757940  0.512842  1
