# generated using pymatgen
data_YNi3HgPt
_symmetry_space_group_name_H-M   'P 1'
_cell_length_a   5.04535267
_cell_length_b   5.04535304
_cell_length_c   5.14315718
_cell_angle_alpha   60.62710117
_cell_angle_beta   60.62710912
_cell_angle_gamma   59.99999959
_symmetry_Int_Tables_number   1
_chemical_formula_structural   YNi3HgPt
_chemical_formula_sum   'Y1 Ni3 Hg1 Pt1'
_cell_volume   93.44370407
_cell_formula_units_Z   1
loop_
 _symmetry_equiv_pos_site_id
 _symmetry_equiv_pos_as_xyz
  1  'x, y, z'
loop_
 _atom_site_type_symbol
 _atom_site_label
 _atom_site_symmetry_multiplicity
 _atom_site_fract_x
 _atom_site_fract_y
 _atom_site_fract_z
 _atom_site_occupancy
  Y  Y0  1  0.001228  0.001228  0.996317  1
  Ni  Ni1  1  0.624809  0.128136  0.622247  1
  Ni  Ni2  1  0.128136  0.624809  0.622247  1
  Ni  Ni3  1  0.624809  0.624809  0.622247  1
  Hg  Hg4  1  0.245679  0.245679  0.262964  1
  Pt  Pt5  1  0.625340  0.625340  0.123981  1
