# generated using pymatgen
data_Ho3Al2ZnCu3
_symmetry_space_group_name_H-M   'P 1'
_cell_length_a   7.07533177
_cell_length_b   7.07533194
_cell_length_c   3.88464400
_cell_angle_alpha   90.00000000
_cell_angle_beta   90.00000000
_cell_angle_gamma   119.55324444
_symmetry_Int_Tables_number   1
_chemical_formula_structural   Ho3Al2ZnCu3
_chemical_formula_sum   'Ho3 Al2 Zn1 Cu3'
_cell_volume   169.16598588
_cell_formula_units_Z   1
loop_
 _symmetry_equiv_pos_site_id
 _symmetry_equiv_pos_as_xyz
  1  'x, y, z'
loop_
 _atom_site_type_symbol
 _atom_site_label
 _atom_site_symmetry_multiplicity
 _atom_site_fract_x
 _atom_site_fract_y
 _atom_site_fract_z
 _atom_site_occupancy
  Ho  Ho0  1  0.419383  0.419383  0.500000  1
  Ho  Ho1  1  0.586122  0.995489  0.500000  1
  Ho  Ho2  1  0.995489  0.586122  0.500000  1
  Al  Al3  1  0.239348  0.002694  0.000000  1
  Al  Al4  1  0.002694  0.239348  0.000000  1
  Zn  Zn5  1  0.758114  0.758114  0.000000  1
  Cu  Cu6  1  0.006170  0.006170  0.500000  1
  Cu  Cu7  1  0.666515  0.326163  0.000000  1
  Cu  Cu8  1  0.326163  0.666515  0.000000  1
