# generated using pymatgen
data_Er20Cd3Ni2Au3
_symmetry_space_group_name_H-M   'P 1'
_cell_length_a   9.51217500
_cell_length_b   9.51224426
_cell_length_c   9.43645800
_cell_angle_alpha   90.00000000
_cell_angle_beta   90.00000000
_cell_angle_gamma   120.00064052
_symmetry_Int_Tables_number   1
_chemical_formula_structural   Er20Cd3Ni2Au3
_chemical_formula_sum   'Er20 Cd3 Ni2 Au3'
_cell_volume   739.43442408
_cell_formula_units_Z   1
loop_
 _symmetry_equiv_pos_site_id
 _symmetry_equiv_pos_as_xyz
  1  'x, y, z'
loop_
 _atom_site_type_symbol
 _atom_site_label
 _atom_site_symmetry_multiplicity
 _atom_site_fract_x
 _atom_site_fract_y
 _atom_site_fract_z
 _atom_site_occupancy
  Er  Er0  1  0.000019  0.999988  0.459374  1
  Er  Er1  1  0.000019  0.999988  0.040626  1
  Er  Er2  1  0.541859  0.458075  0.250000  1
  Er  Er3  1  0.541918  0.083788  0.250000  1
  Er  Er4  1  0.916202  0.458145  0.250000  1
  Er  Er5  1  0.456849  0.543118  0.750000  1
  Er  Er6  1  0.456911  0.913766  0.750000  1
  Er  Er7  1  0.086228  0.543116  0.750000  1
  Er  Er8  1  0.210016  0.790021  0.437603  1
  Er  Er9  1  0.209961  0.419972  0.437585  1
  Er  Er10  1  0.580027  0.789997  0.437588  1
  Er  Er11  1  0.790555  0.209451  0.559841  1
  Er  Er12  1  0.790535  0.581102  0.559848  1
  Er  Er13  1  0.418907  0.209461  0.559845  1
  Er  Er14  1  0.790555  0.209451  0.940159  1
  Er  Er15  1  0.790535  0.581102  0.940152  1
  Er  Er16  1  0.418907  0.209461  0.940155  1
  Er  Er17  1  0.210016  0.790021  0.062397  1
  Er  Er18  1  0.209961  0.419972  0.062415  1
  Er  Er19  1  0.580027  0.789997  0.062412  1
  Cd  Cd20  1  0.109890  0.890119  0.750000  1
  Cd  Cd21  1  0.109890  0.219761  0.750000  1
  Cd  Cd22  1  0.780239  0.890100  0.750000  1
  Ni  Ni23  1  0.333335  0.666671  0.250000  1
  Ni  Ni24  1  0.666673  0.333334  0.750000  1
  Au  Au25  1  0.869388  0.130636  0.250000  1
  Au  Au26  1  0.869324  0.738749  0.250000  1
  Au  Au27  1  0.261254  0.130640  0.250000  1
