# generated using pymatgen
data_Hf4Zr6Ga12Ir7
_symmetry_space_group_name_H-M   'P 1'
_cell_length_a   8.92825023
_cell_length_b   8.92825061
_cell_length_c   8.92825100
_cell_angle_alpha   59.99999483
_cell_angle_beta   59.99999344
_cell_angle_gamma   60.00000130
_symmetry_Int_Tables_number   1
_chemical_formula_structural   Hf4Zr6Ga12Ir7
_chemical_formula_sum   'Hf4 Zr6 Ga12 Ir7'
_cell_volume   503.25034881
_cell_formula_units_Z   1
loop_
 _symmetry_equiv_pos_site_id
 _symmetry_equiv_pos_as_xyz
  1  'x, y, z'
loop_
 _atom_site_type_symbol
 _atom_site_label
 _atom_site_symmetry_multiplicity
 _atom_site_fract_x
 _atom_site_fract_y
 _atom_site_fract_z
 _atom_site_occupancy
  Hf  Hf0  1  0.878102  0.878102  0.365693  1
  Hf  Hf1  1  0.878102  0.365693  0.878102  1
  Hf  Hf2  1  0.365693  0.878102  0.878102  1
  Hf  Hf3  1  0.878102  0.878102  0.878102  1
  Zr  Zr4  1  0.689129  0.689129  0.310871  1
  Zr  Zr5  1  0.310871  0.689129  0.310871  1
  Zr  Zr6  1  0.689129  0.310871  0.310871  1
  Zr  Zr7  1  0.310871  0.310871  0.689129  1
  Zr  Zr8  1  0.689129  0.310871  0.689129  1
  Zr  Zr9  1  0.310871  0.689129  0.689129  1
  Ga  Ga10  1  0.121036  0.121036  0.636892  1
  Ga  Ga11  1  0.121036  0.636892  0.121036  1
  Ga  Ga12  1  0.636892  0.121036  0.121036  1
  Ga  Ga13  1  0.121036  0.121036  0.121036  1
  Ga  Ga14  1  0.656308  0.656308  0.031077  1
  Ga  Ga15  1  0.656308  0.031077  0.656308  1
  Ga  Ga16  1  0.031077  0.656308  0.656308  1
  Ga  Ga17  1  0.656308  0.656308  0.656308  1
  Ga  Ga18  1  0.340957  0.340957  0.977131  1
  Ga  Ga19  1  0.340957  0.977131  0.340957  1
  Ga  Ga20  1  0.977131  0.340957  0.340957  1
  Ga  Ga21  1  0.340957  0.340957  0.340957  1
  Ir  Ir22  1  0.000000  0.000000  0.000000  1
  Ir  Ir23  1  0.998479  0.998479  0.501521  1
  Ir  Ir24  1  0.501521  0.998479  0.501521  1
  Ir  Ir25  1  0.998479  0.501521  0.501521  1
  Ir  Ir26  1  0.501521  0.501521  0.998479  1
  Ir  Ir27  1  0.998479  0.501521  0.998479  1
  Ir  Ir28  1  0.501521  0.998479  0.998479  1
