# generated using pymatgen
data_Tm6Sc4Si5Sn
_symmetry_space_group_name_H-M   'P 1'
_cell_length_a   8.27393700
_cell_length_b   8.28685323
_cell_length_c   6.02643700
_cell_angle_alpha   90.00000000
_cell_angle_beta   90.00000000
_cell_angle_gamma   119.94844198
_symmetry_Int_Tables_number   1
_chemical_formula_structural   Tm6Sc4Si5Sn
_chemical_formula_sum   'Tm6 Sc4 Si5 Sn1'
_cell_volume   358.02924701
_cell_formula_units_Z   1
loop_
 _symmetry_equiv_pos_site_id
 _symmetry_equiv_pos_as_xyz
  1  'x, y, z'
loop_
 _atom_site_type_symbol
 _atom_site_label
 _atom_site_symmetry_multiplicity
 _atom_site_fract_x
 _atom_site_fract_y
 _atom_site_fract_z
 _atom_site_occupancy
  Tm  Tm0  1  0.989244  0.747518  0.750000  1
  Tm  Tm1  1  0.998649  0.244591  0.250000  1
  Tm  Tm2  1  0.754057  0.755409  0.250000  1
  Tm  Tm3  1  0.765355  0.000000  0.750000  1
  Tm  Tm4  1  0.241726  0.252482  0.750000  1
  Tm  Tm5  1  0.241079  0.000000  0.250000  1
  Sc  Sc6  1  0.331392  0.657197  0.496688  1
  Sc  Sc7  1  0.674196  0.342803  0.003312  1
  Sc  Sc8  1  0.674196  0.342803  0.496688  1
  Sc  Sc9  1  0.331392  0.657197  0.003312  1
  Si  Si10  1  0.397198  0.395893  0.250000  1
  Si  Si11  1  0.001306  0.604107  0.250000  1
  Si  Si12  1  0.997960  0.397773  0.750000  1
  Si  Si13  1  0.600187  0.602227  0.750000  1
  Si  Si14  1  0.602041  0.000000  0.250000  1
  Sn  Sn15  1  0.400021  0.000000  0.750000  1
