# generated using pymatgen
data_Sr7Yb3Al(InSb4)3
_symmetry_space_group_name_H-M   'P 1'
_cell_length_a   4.68813200
_cell_length_b   12.55168523
_cell_length_c   14.61027604
_cell_angle_alpha   89.84877018
_cell_angle_beta   90.00000000
_cell_angle_gamma   90.00000000
_symmetry_Int_Tables_number   1
_chemical_formula_structural   Sr7Yb3Al(InSb4)3
_chemical_formula_sum   'Sr7 Yb3 Al1 In3 Sb12'
_cell_volume   859.72346283
_cell_formula_units_Z   1
loop_
 _symmetry_equiv_pos_site_id
 _symmetry_equiv_pos_as_xyz
  1  'x, y, z'
loop_
 _atom_site_type_symbol
 _atom_site_label
 _atom_site_symmetry_multiplicity
 _atom_site_fract_x
 _atom_site_fract_y
 _atom_site_fract_z
 _atom_site_occupancy
  Sr  Sr0  1  0.500000  0.175314  0.014361  1
  Sr  Sr1  1  0.500000  0.412221  0.248721  1
  Sr  Sr2  1  0.500000  0.827314  0.979304  1
  Sr  Sr3  1  0.500000  0.325604  0.525129  1
  Sr  Sr4  1  0.500000  0.590251  0.752269  1
  Sr  Sr5  1  0.500000  0.912688  0.251382  1
  Sr  Sr6  1  0.500000  0.673450  0.483112  1
  Yb  Yb7  1  0.500000  0.088449  0.748764  1
  Yb  Yb8  1  0.500000  0.002690  0.502598  1
  Yb  Yb9  1  0.500000  0.496315  0.997003  1
  Al  Al10  1  0.000000  0.323547  0.712801  1
  In  In11  1  0.000000  0.171187  0.214344  1
  In  In12  1  0.000000  0.672651  0.285502  1
  In  In13  1  0.000000  0.829848  0.785405  1
  Sb  Sb14  1  0.000000  0.647055  0.910569  1
  Sb  Sb15  1  0.500000  0.662269  0.169551  1
  Sb  Sb16  1  0.000000  0.030534  0.897391  1
  Sb  Sb17  1  0.000000  0.473953  0.405805  1
  Sb  Sb18  1  0.500000  0.334169  0.816090  1
  Sb  Sb19  1  0.500000  0.162887  0.330161  1
  Sb  Sb20  1  0.000000  0.353180  0.089634  1
  Sb  Sb21  1  0.000000  0.146507  0.603878  1
  Sb  Sb22  1  0.000000  0.976492  0.092059  1
  Sb  Sb23  1  0.500000  0.842291  0.671755  1
  Sb  Sb24  1  0.000000  0.515437  0.601075  1
  Sb  Sb25  1  0.000000  0.853696  0.411339  1
