# generated using pymatgen
data_HoTlBi4(SbO7)2
_symmetry_space_group_name_H-M   'P 1'
_cell_length_a   6.55379790
_cell_length_b   6.70730014
_cell_length_c   7.72053575
_cell_angle_alpha   106.79752106
_cell_angle_beta   89.56582006
_cell_angle_gamma   98.77151122
_symmetry_Int_Tables_number   1
_chemical_formula_structural   HoTlBi4(SbO7)2
_chemical_formula_sum   'Ho1 Tl1 Bi4 Sb2 O14'
_cell_volume   320.86196102
_cell_formula_units_Z   1
loop_
 _symmetry_equiv_pos_site_id
 _symmetry_equiv_pos_as_xyz
  1  'x, y, z'
loop_
 _atom_site_type_symbol
 _atom_site_label
 _atom_site_symmetry_multiplicity
 _atom_site_fract_x
 _atom_site_fract_y
 _atom_site_fract_z
 _atom_site_occupancy
  Ho  Ho0  1  0.454397  0.004052  0.247979  1
  Tl  Tl1  1  0.535144  0.997968  0.752145  1
  Bi  Bi2  1  0.251929  0.517150  0.881418  1
  Bi  Bi3  1  0.742129  0.481920  0.121117  1
  Bi  Bi4  1  0.736038  0.463556  0.606566  1
  Bi  Bi5  1  0.268821  0.539660  0.390167  1
  Sb  Sb6  1  0.998326  0.000342  0.499426  1
  Sb  Sb7  1  0.998170  0.999741  0.000344  1
  O  O8  1  0.456953  0.655460  0.177695  1
  O  O9  1  0.544975  0.338598  0.817437  1
  O  O10  1  0.290729  0.946700  0.962000  1
  O  O11  1  0.710617  0.051515  0.054391  1
  O  O12  1  0.285164  0.922690  0.503539  1
  O  O13  1  0.717252  0.078531  0.480107  1
  O  O14  1  0.530192  0.352706  0.351954  1
  O  O15  1  0.470410  0.656088  0.654586  1
  O  O16  1  0.918920  0.683277  0.954126  1
  O  O17  1  0.082262  0.314515  0.045963  1
  O  O18  1  0.098366  0.310816  0.613685  1
  O  O19  1  0.900236  0.689082  0.386656  1
  O  O20  1  0.910423  0.948709  0.736807  1
  O  O21  1  0.098548  0.046926  0.261890  1
