# generated using pymatgen
data_TbDy3Er16(CoBi2)4
_symmetry_space_group_name_H-M   'P 1'
_cell_length_a   7.94469930
_cell_length_b   8.87512800
_cell_length_c   12.36457621
_cell_angle_alpha   90.00000000
_cell_angle_beta   90.05555748
_cell_angle_gamma   90.00000000
_symmetry_Int_Tables_number   1
_chemical_formula_structural   TbDy3Er16(CoBi2)4
_chemical_formula_sum   'Tb1 Dy3 Er16 Co4 Bi8'
_cell_volume   871.82861880
_cell_formula_units_Z   1
loop_
 _symmetry_equiv_pos_site_id
 _symmetry_equiv_pos_as_xyz
  1  'x, y, z'
loop_
 _atom_site_type_symbol
 _atom_site_label
 _atom_site_symmetry_multiplicity
 _atom_site_fract_x
 _atom_site_fract_y
 _atom_site_fract_z
 _atom_site_occupancy
  Tb  Tb0  1  0.653799  0.750000  0.700204  1
  Dy  Dy1  1  0.846910  0.750000  0.199028  1
  Dy  Dy2  1  0.118814  0.750000  0.812180  1
  Dy  Dy3  1  0.382171  0.750000  0.312341  1
  Er  Er4  1  0.346547  0.250000  0.300767  1
  Er  Er5  1  0.152830  0.250000  0.801265  1
  Er  Er6  1  0.882221  0.250000  0.187429  1
  Er  Er7  1  0.617646  0.250000  0.687341  1
  Er  Er8  1  0.551964  0.750000  0.997804  1
  Er  Er9  1  0.446753  0.250000  0.003026  1
  Er  Er10  1  0.052568  0.250000  0.502007  1
  Er  Er11  1  0.948151  0.750000  0.497393  1
  Er  Er12  1  0.825426  0.462962  0.936482  1
  Er  Er13  1  0.174416  0.536737  0.063661  1
  Er  Er14  1  0.325347  0.536091  0.563098  1
  Er  Er15  1  0.174416  0.963263  0.063661  1
  Er  Er16  1  0.674678  0.462581  0.436248  1
  Er  Er17  1  0.825426  0.037038  0.936482  1
  Er  Er18  1  0.674678  0.037419  0.436248  1
  Er  Er19  1  0.325347  0.963909  0.563098  1
  Co  Co20  1  0.935704  0.750000  0.992136  1
  Co  Co21  1  0.063510  0.250000  0.007841  1
  Co  Co22  1  0.436054  0.250000  0.507441  1
  Co  Co23  1  0.564066  0.750000  0.492365  1
  Bi  Bi24  1  0.931653  0.009272  0.672928  1
  Bi  Bi25  1  0.069250  0.992016  0.326639  1
  Bi  Bi26  1  0.430037  0.992862  0.827254  1
  Bi  Bi27  1  0.069250  0.507984  0.326639  1
  Bi  Bi28  1  0.569340  0.008774  0.173408  1
  Bi  Bi29  1  0.931653  0.490728  0.672928  1
  Bi  Bi30  1  0.569340  0.491226  0.173408  1
  Bi  Bi31  1  0.430037  0.507138  0.827254  1
