# generated using pymatgen
data_Dy3Si2OsRh
_symmetry_space_group_name_H-M   'P 1'
_cell_length_a   5.58474748
_cell_length_b   7.78668526
_cell_length_c   13.15403906
_cell_angle_alpha   90.08875066
_cell_angle_beta   90.00298376
_cell_angle_gamma   90.30877751
_symmetry_Int_Tables_number   1
_chemical_formula_structural   Dy3Si2OsRh
_chemical_formula_sum   'Dy12 Si8 Os4 Rh4'
_cell_volume   572.01637336
_cell_formula_units_Z   4
loop_
 _symmetry_equiv_pos_site_id
 _symmetry_equiv_pos_as_xyz
  1  'x, y, z'
loop_
 _atom_site_type_symbol
 _atom_site_label
 _atom_site_symmetry_multiplicity
 _atom_site_fract_x
 _atom_site_fract_y
 _atom_site_fract_z
 _atom_site_occupancy
  Dy  Dy0  1  0.627506  0.252517  0.251173  1
  Dy  Dy1  1  0.371132  0.751239  0.749407  1
  Dy  Dy2  1  0.371907  0.755866  0.249551  1
  Dy  Dy3  1  0.626041  0.241118  0.750582  1
  Dy  Dy4  1  0.143537  0.393012  0.102855  1
  Dy  Dy5  1  0.853976  0.607825  0.896571  1
  Dy  Dy6  1  0.859982  0.608365  0.601813  1
  Dy  Dy7  1  0.860574  0.890938  0.398131  1
  Dy  Dy8  1  0.142585  0.398189  0.396809  1
  Dy  Dy9  1  0.143649  0.101936  0.603310  1
  Dy  Dy10  1  0.137347  0.103558  0.898147  1
  Dy  Dy11  1  0.859947  0.896896  0.102270  1
  Si  Si12  1  0.136624  0.106228  0.250137  1
  Si  Si13  1  0.858471  0.896558  0.748696  1
  Si  Si14  1  0.858866  0.603832  0.249317  1
  Si  Si15  1  0.136772  0.393683  0.750879  1
  Si  Si16  1  0.599246  0.246206  0.997784  1
  Si  Si17  1  0.398318  0.752808  0.003266  1
  Si  Si18  1  0.408699  0.748907  0.499778  1
  Si  Si19  1  0.605999  0.250794  0.500523  1
  Os  Os20  1  0.351377  0.029982  0.091541  1
  Os  Os21  1  0.647479  0.968433  0.909309  1
  Os  Os22  1  0.651528  0.976914  0.587932  1
  Os  Os23  1  0.649217  0.521001  0.409705  1
  Rh  Rh24  1  0.349311  0.027500  0.409432  1
  Rh  Rh25  1  0.350453  0.474912  0.591967  1
  Rh  Rh26  1  0.348958  0.480886  0.910185  1
  Rh  Rh27  1  0.650499  0.519896  0.088930  1
