# generated using pymatgen
data_Li3Eu8Si12Ge
_symmetry_space_group_name_H-M   'P 1'
_cell_length_a   11.35093542
_cell_length_b   9.63012468
_cell_length_c   8.49318100
_cell_angle_alpha   77.27591668
_cell_angle_beta   55.78960058
_cell_angle_gamma   46.87474656
_symmetry_Int_Tables_number   1
_chemical_formula_structural   Li3Eu8Si12Ge
_chemical_formula_sum   'Li3 Eu8 Si12 Ge1'
_cell_volume   539.25792000
_cell_formula_units_Z   1
loop_
 _symmetry_equiv_pos_site_id
 _symmetry_equiv_pos_as_xyz
  1  'x, y, z'
loop_
 _atom_site_type_symbol
 _atom_site_label
 _atom_site_symmetry_multiplicity
 _atom_site_fract_x
 _atom_site_fract_y
 _atom_site_fract_z
 _atom_site_occupancy
  Li  Li0  1  0.833199  0.166633  0.833503  1
  Li  Li1  1  0.167325  0.832659  0.167295  1
  Li  Li2  1  0.416659  0.083182  0.416995  1
  Eu  Eu3  1  0.372925  0.379792  0.630184  1
  Eu  Eu4  1  0.629921  0.617345  0.373141  1
  Eu  Eu5  1  0.873433  0.875372  0.626211  1
  Eu  Eu6  1  0.626167  0.625197  0.873382  1
  Eu  Eu7  1  0.883147  0.870574  0.120101  1
  Eu  Eu8  1  0.120303  0.126057  0.883100  1
  Eu  Eu9  1  0.371692  0.378153  0.122100  1
  Eu  Eu10  1  0.121983  0.127971  0.371844  1
  Si  Si11  1  0.662774  0.337405  0.662346  1
  Si  Si12  1  0.337560  0.662195  0.337997  1
  Si  Si13  1  0.584497  0.915231  0.584708  1
  Si  Si14  1  0.910045  0.589909  0.910333  1
  Si  Si15  1  0.337459  0.661177  0.824606  1
  Si  Si16  1  0.179412  0.826501  0.658690  1
  Si  Si17  1  0.824866  0.176895  0.337184  1
  Si  Si18  1  0.658873  0.335083  0.179357  1
  Si  Si19  1  0.913766  0.595979  0.425872  1
  Si  Si20  1  0.074724  0.416168  0.589994  1
  Si  Si21  1  0.426298  0.064426  0.913134  1
  Si  Si22  1  0.590240  0.919046  0.074806  1
  Ge  Ge23  1  0.082731  0.417052  0.083116  1
