# generated using pymatgen
data_TlRhCl6
_symmetry_space_group_name_H-M   'P 1'
_cell_length_a   6.53361542
_cell_length_b   6.53361388
_cell_length_c   6.71753993
_cell_angle_alpha   80.64318420
_cell_angle_beta   80.64319263
_cell_angle_gamma   119.90649894
_symmetry_Int_Tables_number   1
_chemical_formula_structural   TlRhCl6
_chemical_formula_sum   'Tl1 Rh1 Cl6'
_cell_volume   235.10538352
_cell_formula_units_Z   1
loop_
 _symmetry_equiv_pos_site_id
 _symmetry_equiv_pos_as_xyz
  1  'x, y, z'
loop_
 _atom_site_type_symbol
 _atom_site_label
 _atom_site_symmetry_multiplicity
 _atom_site_fract_x
 _atom_site_fract_y
 _atom_site_fract_z
 _atom_site_occupancy
  Tl  Tl0  1  0.166899  0.833101  0.000000  1
  Rh  Rh1  1  0.833316  0.166684  0.000000  1
  Cl  Cl2  1  0.466413  0.092079  0.214518  1
  Cl  Cl3  1  0.907921  0.533587  0.785482  1
  Cl  Cl4  1  0.196391  0.234048  0.785354  1
  Cl  Cl5  1  0.765952  0.803609  0.214646  1
  Cl  Cl6  1  0.054083  0.390976  0.213604  1
  Cl  Cl7  1  0.609024  0.945917  0.786396  1
