# generated using pymatgen
data_LiZr3SbS8
_symmetry_space_group_name_H-M   'P 1'
_cell_length_a   7.74173102
_cell_length_b   7.49555673
_cell_length_c   7.49555700
_cell_angle_alpha   59.99999440
_cell_angle_beta   61.04641701
_cell_angle_gamma   61.04641904
_symmetry_Int_Tables_number   1
_chemical_formula_structural   LiZr3SbS8
_chemical_formula_sum   'Li1 Zr3 Sb1 S8'
_cell_volume   312.33584634
_cell_formula_units_Z   1
loop_
 _symmetry_equiv_pos_site_id
 _symmetry_equiv_pos_as_xyz
  1  'x, y, z'
loop_
 _atom_site_type_symbol
 _atom_site_label
 _atom_site_symmetry_multiplicity
 _atom_site_fract_x
 _atom_site_fract_y
 _atom_site_fract_z
 _atom_site_occupancy
  Li  Li0  1  0.747072  0.750976  0.750976  1
  Zr  Zr1  1  0.127684  0.618273  0.127022  1
  Zr  Zr2  1  0.127684  0.127022  0.618273  1
  Zr  Zr3  1  0.127684  0.127022  0.127022  1
  Sb  Sb4  1  0.615012  0.128330  0.128330  1
  S  S5  1  0.351717  0.882761  0.882761  1
  S  S6  1  0.896025  0.353288  0.875343  1
  S  S7  1  0.896025  0.875343  0.353288  1
  S  S8  1  0.896025  0.875343  0.875343  1
  S  S9  1  0.900105  0.366632  0.366632  1
  S  S10  1  0.354989  0.892263  0.376374  1
  S  S11  1  0.354989  0.376374  0.892263  1
  S  S12  1  0.354989  0.376374  0.376374  1
