# generated using pymatgen
data_EuSc6Co6Sn23
_symmetry_space_group_name_H-M   'P 1'
_cell_length_a   9.60490600
_cell_length_b   9.60490548
_cell_length_c   9.82462200
_cell_angle_alpha   90.00000000
_cell_angle_beta   90.00000000
_cell_angle_gamma   120.00000178
_symmetry_Int_Tables_number   1
_chemical_formula_structural   EuSc6Co6Sn23
_chemical_formula_sum   'Eu1 Sc6 Co6 Sn23'
_cell_volume   784.93318142
_cell_formula_units_Z   1
loop_
 _symmetry_equiv_pos_site_id
 _symmetry_equiv_pos_as_xyz
  1  'x, y, z'
loop_
 _atom_site_type_symbol
 _atom_site_label
 _atom_site_symmetry_multiplicity
 _atom_site_fract_x
 _atom_site_fract_y
 _atom_site_fract_z
 _atom_site_occupancy
  Eu  Eu0  1  0.000000  0.000000  0.000000  1
  Sc  Sc1  1  0.517482  0.482518  0.691983  1
  Sc  Sc2  1  0.517482  0.034962  0.691983  1
  Sc  Sc3  1  0.965038  0.482518  0.691983  1
  Sc  Sc4  1  0.034962  0.517482  0.308017  1
  Sc  Sc5  1  0.482518  0.965038  0.308017  1
  Sc  Sc6  1  0.482518  0.517482  0.308017  1
  Co  Co7  1  0.170374  0.829626  0.799679  1
  Co  Co8  1  0.170374  0.340749  0.799679  1
  Co  Co9  1  0.659251  0.829626  0.799679  1
  Co  Co10  1  0.340749  0.170374  0.200321  1
  Co  Co11  1  0.829626  0.659251  0.200321  1
  Co  Co12  1  0.829626  0.170374  0.200321  1
  Sn  Sn13  1  0.666667  0.333333  0.177779  1
  Sn  Sn14  1  0.666667  0.333333  0.863886  1
  Sn  Sn15  1  0.333333  0.666667  0.136114  1
  Sn  Sn16  1  0.348155  0.348155  0.000000  1
  Sn  Sn17  1  0.000000  0.651845  0.000000  1
  Sn  Sn18  1  0.651845  0.000000  0.000000  1
  Sn  Sn19  1  0.651845  0.651845  0.000000  1
  Sn  Sn20  1  0.333333  0.666667  0.822221  1
  Sn  Sn21  1  0.441598  0.220799  0.453540  1
  Sn  Sn22  1  0.220799  0.779201  0.546460  1
  Sn  Sn23  1  0.220799  0.441598  0.546460  1
  Sn  Sn24  1  0.558402  0.779201  0.546460  1
  Sn  Sn25  1  0.121821  0.878179  0.277009  1
  Sn  Sn26  1  0.779201  0.558402  0.453540  1
  Sn  Sn27  1  0.779201  0.220799  0.453540  1
  Sn  Sn28  1  0.348155  0.000000  0.000000  1
  Sn  Sn29  1  0.121821  0.243641  0.277009  1
  Sn  Sn30  1  0.756359  0.878179  0.277009  1
  Sn  Sn31  1  0.243641  0.121821  0.722991  1
  Sn  Sn32  1  0.878179  0.756359  0.722991  1
  Sn  Sn33  1  0.878179  0.121821  0.722991  1
  Sn  Sn34  1  0.000000  0.000000  0.500000  1
  Sn  Sn35  1  0.000000  0.348155  0.000000  1
