# generated using pymatgen
data_Pr3ThSe6
_symmetry_space_group_name_H-M   'P 1'
_cell_length_a   11.56512200
_cell_length_b   4.16156300
_cell_length_c   11.33571200
_cell_angle_alpha   90.00000000
_cell_angle_beta   90.00000000
_cell_angle_gamma   90.00000000
_symmetry_Int_Tables_number   1
_chemical_formula_structural   Pr3ThSe6
_chemical_formula_sum   'Pr6 Th2 Se12'
_cell_volume   545.57629927
_cell_formula_units_Z   2
loop_
 _symmetry_equiv_pos_site_id
 _symmetry_equiv_pos_as_xyz
  1  'x, y, z'
loop_
 _atom_site_type_symbol
 _atom_site_label
 _atom_site_symmetry_multiplicity
 _atom_site_fract_x
 _atom_site_fract_y
 _atom_site_fract_z
 _atom_site_occupancy
  Pr  Pr0  1  0.484961  0.250000  0.186758  1
  Pr  Pr1  1  0.984961  0.250000  0.313242  1
  Pr  Pr2  1  0.514114  0.750000  0.813971  1
  Pr  Pr3  1  0.014114  0.750000  0.686029  1
  Pr  Pr4  1  0.693539  0.750000  0.492511  1
  Pr  Pr5  1  0.193539  0.750000  0.007489  1
  Th  Th6  1  0.308604  0.250000  0.499820  1
  Th  Th7  1  0.808604  0.250000  0.000180  1
  Se  Se8  1  0.544580  0.250000  0.623770  1
  Se  Se9  1  0.044580  0.250000  0.876230  1
  Se  Se10  1  0.449414  0.750000  0.375305  1
  Se  Se11  1  0.949414  0.750000  0.124695  1
  Se  Se12  1  0.624247  0.750000  0.053924  1
  Se  Se13  1  0.124247  0.750000  0.446076  1
  Se  Se14  1  0.377744  0.250000  0.945926  1
  Se  Se15  1  0.877744  0.250000  0.554074  1
  Se  Se16  1  0.725728  0.250000  0.294032  1
  Se  Se17  1  0.225728  0.250000  0.205968  1
  Se  Se18  1  0.277068  0.750000  0.694733  1
  Se  Se19  1  0.777068  0.750000  0.805267  1
