# generated using pymatgen
data_LaHgPd3Au
_symmetry_space_group_name_H-M   'P 1'
_cell_length_a   5.55067563
_cell_length_b   5.55067598
_cell_length_c   5.49814707
_cell_angle_alpha   59.68345623
_cell_angle_beta   59.68345371
_cell_angle_gamma   60.00000060
_symmetry_Int_Tables_number   1
_chemical_formula_structural   LaHgPd3Au
_chemical_formula_sum   'La1 Hg1 Pd3 Au1'
_cell_volume   119.20610866
_cell_formula_units_Z   1
loop_
 _symmetry_equiv_pos_site_id
 _symmetry_equiv_pos_as_xyz
  1  'x, y, z'
loop_
 _atom_site_type_symbol
 _atom_site_label
 _atom_site_symmetry_multiplicity
 _atom_site_fract_x
 _atom_site_fract_y
 _atom_site_fract_z
 _atom_site_occupancy
  La  La0  1  0.249608  0.249608  0.251177  1
  Hg  Hg1  1  0.000147  0.000147  0.999560  1
  Pd  Pd2  1  0.625681  0.123525  0.625112  1
  Pd  Pd3  1  0.123525  0.625681  0.625112  1
  Pd  Pd4  1  0.625681  0.625681  0.625112  1
  Au  Au5  1  0.625358  0.625358  0.123926  1
