# generated using pymatgen
data_NaZr6N7
_symmetry_space_group_name_H-M   'P 1'
_cell_length_a   5.56122626
_cell_length_b   5.56122547
_cell_length_c   7.84663100
_cell_angle_alpha   118.05493542
_cell_angle_beta   118.05493109
_cell_angle_gamma   99.68327843
_symmetry_Int_Tables_number   1
_chemical_formula_structural   NaZr6N7
_chemical_formula_sum   'Na1 Zr6 N7'
_cell_volume   163.67466140
_cell_formula_units_Z   1
loop_
 _symmetry_equiv_pos_site_id
 _symmetry_equiv_pos_as_xyz
  1  'x, y, z'
loop_
 _atom_site_type_symbol
 _atom_site_label
 _atom_site_symmetry_multiplicity
 _atom_site_fract_x
 _atom_site_fract_y
 _atom_site_fract_z
 _atom_site_occupancy
  Na  Na0  1  0.500000  0.000000  0.607323  1
  Zr  Zr1  1  0.923196  0.290832  0.175499  1
  Zr  Zr2  1  0.076765  0.709077  0.038695  1
  Zr  Zr3  1  0.367636  0.576804  0.752303  1
  Zr  Zr4  1  0.209168  0.132364  0.884667  1
  Zr  Zr5  1  0.632311  0.423235  0.461930  1
  Zr  Zr6  1  0.790923  0.867689  0.329618  1
  N  N7  1  0.355435  0.558337  0.242750  1
  N  N8  1  0.202901  0.144565  0.387315  1
  N  N9  1  0.941663  0.297099  0.684415  1
  N  N10  1  0.797169  0.855359  0.826974  1
  N  N11  1  0.058192  0.702831  0.529805  1
  N  N12  1  0.500000  0.000000  0.107091  1
  N  N13  1  0.644641  0.441808  0.971615  1
