# generated using pymatgen
data_Tb2Ta3P7IrRh8
_symmetry_space_group_name_H-M   'P 1'
_cell_length_a   3.93929200
_cell_length_b   9.63149107
_cell_length_c   9.63420176
_cell_angle_alpha   119.91062205
_cell_angle_beta   89.99909191
_cell_angle_gamma   90.00097554
_symmetry_Int_Tables_number   1
_chemical_formula_structural   Tb2Ta3P7IrRh8
_chemical_formula_sum   'Tb2 Ta3 P7 Ir1 Rh8'
_cell_volume   316.84620096
_cell_formula_units_Z   1
loop_
 _symmetry_equiv_pos_site_id
 _symmetry_equiv_pos_as_xyz
  1  'x, y, z'
loop_
 _atom_site_type_symbol
 _atom_site_label
 _atom_site_symmetry_multiplicity
 _atom_site_fract_x
 _atom_site_fract_y
 _atom_site_fract_z
 _atom_site_occupancy
  Tb  Tb0  1  0.261534  0.666859  0.333258  1
  Tb  Tb1  1  0.762065  0.333554  0.666780  1
  Ta  Ta2  1  0.761991  0.094715  0.872951  1
  Ta  Ta3  1  0.761953  0.127161  0.222194  1
  Ta  Ta4  1  0.761948  0.776844  0.904991  1
  P  P5  1  0.262104  0.000801  0.998734  1
  P  P6  1  0.761787  0.877498  0.589973  1
  P  P7  1  0.761770  0.411211  0.288435  1
  P  P8  1  0.761771  0.711463  0.123120  1
  P  P9  1  0.261977  0.118104  0.416668  1
  P  P10  1  0.261955  0.584010  0.700944  1
  P  P11  1  0.261948  0.298217  0.882508  1
  Ir  Ir12  1  0.261883  0.886475  0.160531  1
  Rh  Rh13  1  0.261904  0.838949  0.724751  1
  Rh  Rh14  1  0.261885  0.275697  0.114562  1
  Rh  Rh15  1  0.761920  0.611824  0.558215  1
  Rh  Rh16  1  0.761909  0.442386  0.054270  1
  Rh  Rh17  1  0.761928  0.945103  0.388277  1
  Rh  Rh18  1  0.261906  0.367627  0.438322  1
  Rh  Rh19  1  0.261920  0.560808  0.928222  1
  Rh  Rh20  1  0.261942  0.070695  0.632293  1
