# generated using pymatgen
data_TaI10Br
_symmetry_space_group_name_H-M   'P 1'
_cell_length_a   8.42858078
_cell_length_b   8.97087077
_cell_length_c   9.18955314
_cell_angle_alpha   93.69776659
_cell_angle_beta   89.91599679
_cell_angle_gamma   108.13992103
_symmetry_Int_Tables_number   1
_chemical_formula_structural   TaI10Br
_chemical_formula_sum   'Ta1 I10 Br1'
_cell_volume   658.80210842
_cell_formula_units_Z   1
loop_
 _symmetry_equiv_pos_site_id
 _symmetry_equiv_pos_as_xyz
  1  'x, y, z'
loop_
 _atom_site_type_symbol
 _atom_site_label
 _atom_site_symmetry_multiplicity
 _atom_site_fract_x
 _atom_site_fract_y
 _atom_site_fract_z
 _atom_site_occupancy
  Ta  Ta0  1  0.018457  0.510105  0.520854  1
  I  I1  1  0.022120  0.994650  0.983857  1
  I  I2  1  0.696955  0.764364  0.858320  1
  I  I3  1  0.325466  0.211735  0.101516  1
  I  I4  1  0.672534  0.283730  0.541119  1
  I  I5  1  0.306953  0.731023  0.474335  1
  I  I6  1  0.517278  0.745466  0.119335  1
  I  I7  1  0.523074  0.250575  0.825838  1
  I  I8  1  0.853353  0.752210  0.546200  1
  I  I9  1  0.138321  0.266256  0.499949  1
  I  I10  1  0.901521  0.465103  0.239768  1
  Br  Br11  1  0.023966  0.524781  0.788909  1
