# generated using pymatgen
data_YEr3Ga18(PdRu2)2
_symmetry_space_group_name_H-M   'P 1'
_cell_length_a   7.53756445
_cell_length_b   7.53740689
_cell_length_c   9.62371600
_cell_angle_alpha   90.00000000
_cell_angle_beta   90.00000000
_cell_angle_gamma   119.51093586
_symmetry_Int_Tables_number   1
_chemical_formula_structural   YEr3Ga18(PdRu2)2
_chemical_formula_sum   'Y1 Er3 Ga18 Pd2 Ru4'
_cell_volume   475.82325606
_cell_formula_units_Z   1
loop_
 _symmetry_equiv_pos_site_id
 _symmetry_equiv_pos_as_xyz
  1  'x, y, z'
loop_
 _atom_site_type_symbol
 _atom_site_label
 _atom_site_symmetry_multiplicity
 _atom_site_fract_x
 _atom_site_fract_y
 _atom_site_fract_z
 _atom_site_occupancy
  Y  Y0  1  0.996926  0.672991  0.250000  1
  Er  Er1  1  0.002768  0.327212  0.750000  1
  Er  Er2  1  0.672770  0.997515  0.250000  1
  Er  Er3  1  0.327233  0.002523  0.750000  1
  Ga  Ga4  1  0.132729  0.133388  0.250000  1
  Ga  Ga5  1  0.867968  0.867971  0.750000  1
  Ga  Ga6  1  0.003696  0.339168  0.079694  1
  Ga  Ga7  1  0.996082  0.660110  0.918872  1
  Ga  Ga8  1  0.996082  0.660110  0.581128  1
  Ga  Ga9  1  0.340572  0.004343  0.420437  1
  Ga  Ga10  1  0.003696  0.339168  0.420306  1
  Ga  Ga11  1  0.660260  0.996371  0.580640  1
  Ga  Ga12  1  0.660260  0.996371  0.919360  1
  Ga  Ga13  1  0.340572  0.004343  0.079563  1
  Ga  Ga14  1  0.341454  0.341321  0.566227  1
  Ga  Ga15  1  0.657929  0.658451  0.434673  1
  Ga  Ga16  1  0.657929  0.658451  0.065327  1
  Ga  Ga17  1  0.341454  0.341321  0.933773  1
  Ga  Ga18  1  0.336315  0.551484  0.250000  1
  Ga  Ga19  1  0.663924  0.448376  0.750000  1
  Ga  Ga20  1  0.550608  0.335104  0.250000  1
  Ga  Ga21  1  0.448647  0.664268  0.750000  1
  Pd  Pd22  1  0.000282  0.000039  0.000156  1
  Pd  Pd23  1  0.000282  0.000039  0.499844  1
  Ru  Ru24  1  0.674188  0.325481  0.999624  1
  Ru  Ru25  1  0.325593  0.674301  0.999518  1
  Ru  Ru26  1  0.325593  0.674301  0.500482  1
  Ru  Ru27  1  0.674188  0.325481  0.500376  1
