# generated using pymatgen
data_Li12Si4Ag
_symmetry_space_group_name_H-M   'P 1'
_cell_length_a   4.41383000
_cell_length_b   7.94923700
_cell_length_c   14.95445000
_cell_angle_alpha   90.00000000
_cell_angle_beta   90.00000000
_cell_angle_gamma   90.00000000
_symmetry_Int_Tables_number   1
_chemical_formula_structural   Li12Si4Ag
_chemical_formula_sum   'Li24 Si8 Ag2'
_cell_volume   524.70051746
_cell_formula_units_Z   2
loop_
 _symmetry_equiv_pos_site_id
 _symmetry_equiv_pos_as_xyz
  1  'x, y, z'
loop_
 _atom_site_type_symbol
 _atom_site_label
 _atom_site_symmetry_multiplicity
 _atom_site_fract_x
 _atom_site_fract_y
 _atom_site_fract_z
 _atom_site_occupancy
  Li  Li0  1  0.000000  0.767932  0.150776  1
  Li  Li1  1  0.000000  0.347711  0.523360  1
  Li  Li2  1  0.000000  0.152289  0.023360  1
  Li  Li3  1  0.500000  0.765076  0.410413  1
  Li  Li4  1  0.000000  0.232068  0.849224  1
  Li  Li5  1  0.000000  0.405160  0.692042  1
  Li  Li6  1  0.000000  0.905160  0.807958  1
  Li  Li7  1  0.500000  0.592360  0.745901  1
  Li  Li8  1  0.500000  0.900736  0.601465  1
  Li  Li9  1  0.000000  0.732068  0.650776  1
  Li  Li10  1  0.500000  0.234924  0.589587  1
  Li  Li11  1  0.500000  0.265076  0.089587  1
  Li  Li12  1  0.500000  0.099264  0.398535  1
  Li  Li13  1  0.500000  0.734924  0.910413  1
  Li  Li14  1  0.500000  0.092360  0.754099  1
  Li  Li15  1  0.000000  0.267932  0.349224  1
  Li  Li16  1  0.500000  0.407640  0.254099  1
  Li  Li17  1  0.000000  0.094840  0.192042  1
  Li  Li18  1  0.500000  0.400736  0.898535  1
  Li  Li19  1  0.000000  0.652289  0.476640  1
  Li  Li20  1  0.000000  0.847711  0.976640  1
  Li  Li21  1  0.500000  0.907640  0.245901  1
  Li  Li22  1  0.500000  0.599264  0.101465  1
  Li  Li23  1  0.000000  0.594840  0.307958  1
  Si  Si24  1  0.500000  0.932854  0.070882  1
  Si  Si25  1  0.000000  0.582188  0.838449  1
  Si  Si26  1  0.000000  0.417812  0.161551  1
  Si  Si27  1  0.500000  0.567146  0.570882  1
  Si  Si28  1  0.000000  0.082188  0.661551  1
  Si  Si29  1  0.500000  0.432854  0.429118  1
  Si  Si30  1  0.500000  0.067146  0.929118  1
  Si  Si31  1  0.000000  0.917812  0.338449  1
  Ag  Ag32  1  0.000000  0.000000  0.500000  1
  Ag  Ag33  1  0.000000  0.500000  0.000000  1
