# generated using pymatgen
data_KYTa6Cl18
_symmetry_space_group_name_H-M   'P 1'
_cell_length_a   10.18819573
_cell_length_b   10.18819580
_cell_length_c   10.18819554
_cell_angle_alpha   55.72781924
_cell_angle_beta   55.72781575
_cell_angle_gamma   55.72781796
_symmetry_Int_Tables_number   1
_chemical_formula_structural   KYTa6Cl18
_chemical_formula_sum   'K1 Y1 Ta6 Cl18'
_cell_volume   673.68405213
_cell_formula_units_Z   1
loop_
 _symmetry_equiv_pos_site_id
 _symmetry_equiv_pos_as_xyz
  1  'x, y, z'
loop_
 _atom_site_type_symbol
 _atom_site_label
 _atom_site_symmetry_multiplicity
 _atom_site_fract_x
 _atom_site_fract_y
 _atom_site_fract_z
 _atom_site_occupancy
  K  K0  1  0.221152  0.221152  0.221152  1
  Y  Y1  1  0.498854  0.498854  0.498854  1
  Ta  Ta2  1  0.804448  0.146899  0.911603  1
  Ta  Ta3  1  0.911603  0.804448  0.146899  1
  Ta  Ta4  1  0.146899  0.911603  0.804448  1
  Ta  Ta5  1  0.196372  0.853372  0.087608  1
  Ta  Ta6  1  0.087608  0.196372  0.853372  1
  Ta  Ta7  1  0.853372  0.087608  0.196372  1
  Cl  Cl8  1  0.867413  0.410679  0.725172  1
  Cl  Cl9  1  0.725172  0.867413  0.410679  1
  Cl  Cl10  1  0.410679  0.725172  0.867413  1
  Cl  Cl11  1  0.132536  0.588305  0.276055  1
  Cl  Cl12  1  0.276055  0.132536  0.588305  1
  Cl  Cl13  1  0.588305  0.276055  0.132536  1
  Cl  Cl14  1  0.542044  0.337824  0.799486  1
  Cl  Cl15  1  0.799486  0.542044  0.337824  1
  Cl  Cl16  1  0.337824  0.799486  0.542044  1
  Cl  Cl17  1  0.452362  0.663620  0.204948  1
  Cl  Cl18  1  0.204948  0.452362  0.663620  1
  Cl  Cl19  1  0.663620  0.204948  0.452362  1
  Cl  Cl20  1  0.660715  0.940810  0.070221  1
  Cl  Cl21  1  0.070221  0.660715  0.940810  1
  Cl  Cl22  1  0.940810  0.070221  0.660715  1
  Cl  Cl23  1  0.339647  0.059126  0.929868  1
  Cl  Cl24  1  0.929868  0.339647  0.059126  1
  Cl  Cl25  1  0.059126  0.929868  0.339647  1
