# generated using pymatgen
data_Y2Ga9Ir2Pt
_symmetry_space_group_name_H-M   'P 1'
_cell_length_a   7.61975351
_cell_length_b   7.61975352
_cell_length_c   9.48090300
_cell_angle_alpha   90.00000000
_cell_angle_beta   90.00000000
_cell_angle_gamma   119.89442662
_symmetry_Int_Tables_number   1
_chemical_formula_structural   Y2Ga9Ir2Pt
_chemical_formula_sum   'Y4 Ga18 Ir4 Pt2'
_cell_volume   477.22502855
_cell_formula_units_Z   2
loop_
 _symmetry_equiv_pos_site_id
 _symmetry_equiv_pos_as_xyz
  1  'x, y, z'
loop_
 _atom_site_type_symbol
 _atom_site_label
 _atom_site_symmetry_multiplicity
 _atom_site_fract_x
 _atom_site_fract_y
 _atom_site_fract_z
 _atom_site_occupancy
  Y  Y0  1  0.996494  0.669683  0.250000  1
  Y  Y1  1  0.003506  0.330317  0.750000  1
  Y  Y2  1  0.669683  0.996494  0.250000  1
  Y  Y3  1  0.330317  0.003506  0.750000  1
  Ga  Ga4  1  0.131426  0.131426  0.250000  1
  Ga  Ga5  1  0.868574  0.868574  0.750000  1
  Ga  Ga6  1  0.998555  0.337551  0.081143  1
  Ga  Ga7  1  0.001445  0.662449  0.918857  1
  Ga  Ga8  1  0.001445  0.662449  0.581143  1
  Ga  Ga9  1  0.337551  0.998555  0.418857  1
  Ga  Ga10  1  0.998555  0.337551  0.418857  1
  Ga  Ga11  1  0.662449  0.001445  0.581143  1
  Ga  Ga12  1  0.662449  0.001445  0.918857  1
  Ga  Ga13  1  0.337551  0.998555  0.081143  1
  Ga  Ga14  1  0.335682  0.335682  0.567172  1
  Ga  Ga15  1  0.664318  0.664318  0.432828  1
  Ga  Ga16  1  0.664318  0.664318  0.067172  1
  Ga  Ga17  1  0.335682  0.335682  0.932828  1
  Ga  Ga18  1  0.337697  0.546506  0.250000  1
  Ga  Ga19  1  0.662303  0.453494  0.750000  1
  Ga  Ga20  1  0.546506  0.337697  0.250000  1
  Ga  Ga21  1  0.453494  0.662303  0.750000  1
  Ir  Ir22  1  0.671200  0.328800  0.000000  1
  Ir  Ir23  1  0.328800  0.671200  0.000000  1
  Ir  Ir24  1  0.328800  0.671200  0.500000  1
  Ir  Ir25  1  0.671200  0.328800  0.500000  1
  Pt  Pt26  1  0.000000  0.000000  0.000000  1
  Pt  Pt27  1  0.000000  0.000000  0.500000  1
