# generated using pymatgen
data_Ho10Er6MgTl3Ni4
_symmetry_space_group_name_H-M   'P 1'
_cell_length_a   9.54969696
_cell_length_b   9.52500593
_cell_length_c   9.52500500
_cell_angle_alpha   59.99999976
_cell_angle_beta   60.08549161
_cell_angle_gamma   60.08548610
_symmetry_Int_Tables_number   1
_chemical_formula_structural   Ho10Er6MgTl3Ni4
_chemical_formula_sum   'Ho10 Er6 Mg1 Tl3 Ni4'
_cell_volume   613.43002807
_cell_formula_units_Z   1
loop_
 _symmetry_equiv_pos_site_id
 _symmetry_equiv_pos_as_xyz
  1  'x, y, z'
loop_
 _atom_site_type_symbol
 _atom_site_label
 _atom_site_symmetry_multiplicity
 _atom_site_fract_x
 _atom_site_fract_y
 _atom_site_fract_z
 _atom_site_occupancy
  Ho  Ho0  1  0.189598  0.813382  0.813382  1
  Ho  Ho1  1  0.812370  0.187871  0.187871  1
  Ho  Ho2  1  0.812370  0.187871  0.811886  1
  Ho  Ho3  1  0.189598  0.813382  0.183636  1
  Ho  Ho4  1  0.812370  0.811886  0.187871  1
  Ho  Ho5  1  0.189598  0.183636  0.813382  1
  Ho  Ho6  1  0.597316  0.596086  0.596086  1
  Ho  Ho7  1  0.597316  0.596086  0.210514  1
  Ho  Ho8  1  0.597316  0.210514  0.596086  1
  Ho  Ho9  1  0.203610  0.598797  0.598797  1
  Er  Er10  1  0.060418  0.438018  0.438018  1
  Er  Er11  1  0.433200  0.065108  0.065108  1
  Er  Er12  1  0.433200  0.065108  0.436585  1
  Er  Er13  1  0.060418  0.438018  0.063546  1
  Er  Er14  1  0.433200  0.436585  0.065108  1
  Er  Er15  1  0.060418  0.063546  0.438018  1
  Mg  Mg16  1  0.523362  0.825546  0.825546  1
  Tl  Tl17  1  0.833415  0.836350  0.836350  1
  Tl  Tl18  1  0.833415  0.836350  0.493883  1
  Tl  Tl19  1  0.833415  0.493883  0.836350  1
  Ni  Ni20  1  0.390406  0.392398  0.392398  1
  Ni  Ni21  1  0.390406  0.392398  0.824798  1
  Ni  Ni22  1  0.390406  0.824798  0.392398  1
  Ni  Ni23  1  0.822859  0.392380  0.392380  1
