# generated using pymatgen
data_TbEr4(Cd2Pd)2
_symmetry_space_group_name_H-M   'P 1'
_cell_length_a   3.63236300
_cell_length_b   7.93750700
_cell_length_c   18.33972100
_cell_angle_alpha   90.00000000
_cell_angle_beta   90.00000000
_cell_angle_gamma   90.00000000
_symmetry_Int_Tables_number   1
_chemical_formula_structural   TbEr4(Cd2Pd)2
_chemical_formula_sum   'Tb2 Er8 Cd8 Pd4'
_cell_volume   528.76912549
_cell_formula_units_Z   2
loop_
 _symmetry_equiv_pos_site_id
 _symmetry_equiv_pos_as_xyz
  1  'x, y, z'
loop_
 _atom_site_type_symbol
 _atom_site_label
 _atom_site_symmetry_multiplicity
 _atom_site_fract_x
 _atom_site_fract_y
 _atom_site_fract_z
 _atom_site_occupancy
  Tb  Tb0  1  0.000000  0.500000  0.500000  1
  Tb  Tb1  1  0.000000  0.000000  0.000000  1
  Er  Er2  1  0.000000  0.739094  0.281241  1
  Er  Er3  1  0.000000  0.260906  0.718759  1
  Er  Er4  1  0.000000  0.760906  0.781241  1
  Er  Er5  1  0.000000  0.239094  0.218759  1
  Er  Er6  1  0.000000  0.614395  0.084068  1
  Er  Er7  1  0.000000  0.385605  0.915932  1
  Er  Er8  1  0.000000  0.885605  0.584068  1
  Er  Er9  1  0.000000  0.114395  0.415932  1
  Cd  Cd10  1  0.500000  0.712498  0.932037  1
  Cd  Cd11  1  0.500000  0.287502  0.067963  1
  Cd  Cd12  1  0.500000  0.787502  0.432037  1
  Cd  Cd13  1  0.500000  0.212498  0.567963  1
  Cd  Cd14  1  0.500000  0.577845  0.648905  1
  Cd  Cd15  1  0.500000  0.422155  0.351095  1
  Cd  Cd16  1  0.500000  0.922155  0.148905  1
  Cd  Cd17  1  0.500000  0.077845  0.851095  1
  Pd  Pd18  1  0.500000  0.525141  0.195463  1
  Pd  Pd19  1  0.500000  0.474859  0.804537  1
  Pd  Pd20  1  0.500000  0.974859  0.695463  1
  Pd  Pd21  1  0.500000  0.025141  0.304537  1
