# generated using pymatgen
data_NaU4(SeN)4
_symmetry_space_group_name_H-M   'P 1'
_cell_length_a   3.83750700
_cell_length_b   6.61760906
_cell_length_c   10.72605800
_cell_angle_alpha   78.08577773
_cell_angle_beta   90.00000000
_cell_angle_gamma   90.00000000
_symmetry_Int_Tables_number   1
_chemical_formula_structural   NaU4(SeN)4
_chemical_formula_sum   'Na1 U4 Se4 N4'
_cell_volume   266.52166343
_cell_formula_units_Z   1
loop_
 _symmetry_equiv_pos_site_id
 _symmetry_equiv_pos_as_xyz
  1  'x, y, z'
loop_
 _atom_site_type_symbol
 _atom_site_label
 _atom_site_symmetry_multiplicity
 _atom_site_fract_x
 _atom_site_fract_y
 _atom_site_fract_z
 _atom_site_occupancy
  Na  Na0  1  0.000000  0.000000  0.000000  1
  U  U1  1  0.500000  0.711601  0.363708  1
  U  U2  1  0.000000  0.212215  0.365113  1
  U  U3  1  0.500000  0.288399  0.636292  1
  U  U4  1  0.000000  0.787785  0.634887  1
  Se  Se5  1  0.000000  0.399947  0.808668  1
  Se  Se6  1  0.500000  0.892714  0.810780  1
  Se  Se7  1  0.000000  0.600053  0.191332  1
  Se  Se8  1  0.500000  0.107286  0.189220  1
  N  N9  1  0.500000  0.640468  0.579292  1
  N  N10  1  0.000000  0.139743  0.580671  1
  N  N11  1  0.500000  0.359532  0.420708  1
  N  N12  1  0.000000  0.860257  0.419329  1
