# generated using pymatgen
data_CaCe3(Rh2Pb)2
_symmetry_space_group_name_H-M   'P 1'
_cell_length_a   7.77297400
_cell_length_b   7.77297368
_cell_length_c   3.69377800
_cell_angle_alpha   90.00000000
_cell_angle_beta   90.00000000
_cell_angle_gamma   88.35930353
_symmetry_Int_Tables_number   1
_chemical_formula_structural   CaCe3(Rh2Pb)2
_chemical_formula_sum   'Ca1 Ce3 Rh4 Pb2'
_cell_volume   223.08332998
_cell_formula_units_Z   1
loop_
 _symmetry_equiv_pos_site_id
 _symmetry_equiv_pos_as_xyz
  1  'x, y, z'
loop_
 _atom_site_type_symbol
 _atom_site_label
 _atom_site_symmetry_multiplicity
 _atom_site_fract_x
 _atom_site_fract_y
 _atom_site_fract_z
 _atom_site_occupancy
  Ca  Ca0  1  0.669612  0.169612  0.500000  1
  Ce  Ce1  1  0.330679  0.830679  0.500000  1
  Ce  Ce2  1  0.167996  0.325732  0.500000  1
  Ce  Ce3  1  0.825732  0.667996  0.500000  1
  Rh  Rh4  1  0.146297  0.646297  0.000000  1
  Rh  Rh5  1  0.891593  0.391593  0.000000  1
  Rh  Rh6  1  0.626303  0.849720  0.000000  1
  Rh  Rh7  1  0.349720  0.126303  0.000000  1
  Pb  Pb8  1  0.991869  0.000201  0.000000  1
  Pb  Pb9  1  0.500201  0.491869  0.000000  1
