# generated using pymatgen
data_CaTh3(Zn5Sn)2
_symmetry_space_group_name_H-M   'P 1'
_cell_length_a   8.57550852
_cell_length_b   8.57550758
_cell_length_c   9.10944833
_cell_angle_alpha   90.78912844
_cell_angle_beta   89.21087279
_cell_angle_gamma   149.61108730
_symmetry_Int_Tables_number   1
_chemical_formula_structural   CaTh3(Zn5Sn)2
_chemical_formula_sum   'Ca1 Th3 Zn10 Sn2'
_cell_volume   338.84710834
_cell_formula_units_Z   1
loop_
 _symmetry_equiv_pos_site_id
 _symmetry_equiv_pos_as_xyz
  1  'x, y, z'
loop_
 _atom_site_type_symbol
 _atom_site_label
 _atom_site_symmetry_multiplicity
 _atom_site_fract_x
 _atom_site_fract_y
 _atom_site_fract_z
 _atom_site_occupancy
  Ca  Ca0  1  0.000000  0.000000  0.500000  1
  Th  Th1  1  0.204354  0.795646  0.249731  1
  Th  Th2  1  0.795646  0.204354  0.750269  1
  Th  Th3  1  0.000000  0.000000  0.000000  1
  Zn  Zn4  1  0.815778  0.184222  0.390899  1
  Zn  Zn5  1  0.184222  0.815778  0.609101  1
  Zn  Zn6  1  0.814016  0.185984  0.109036  1
  Zn  Zn7  1  0.185984  0.814016  0.890964  1
  Zn  Zn8  1  0.657402  0.342598  0.483826  1
  Zn  Zn9  1  0.342598  0.657402  0.516174  1
  Zn  Zn10  1  0.657824  0.342176  0.017369  1
  Zn  Zn11  1  0.342176  0.657824  0.982631  1
  Zn  Zn12  1  0.394857  0.605143  0.245244  1
  Zn  Zn13  1  0.605143  0.394857  0.754756  1
  Sn  Sn14  1  0.555780  0.444220  0.248609  1
  Sn  Sn15  1  0.444220  0.555780  0.751391  1
