# generated using pymatgen
data_LiIn(PS3)2
_symmetry_space_group_name_H-M   'P 1'
_cell_length_a   6.15070000
_cell_length_b   6.15069998
_cell_length_c   14.19439800
_cell_angle_alpha   90.00000000
_cell_angle_beta   90.00000000
_cell_angle_gamma   119.99998938
_symmetry_Int_Tables_number   1
_chemical_formula_structural   LiIn(PS3)2
_chemical_formula_sum   'Li2 In2 P4 S12'
_cell_volume   465.04689014
_cell_formula_units_Z   2
loop_
 _symmetry_equiv_pos_site_id
 _symmetry_equiv_pos_as_xyz
  1  'x, y, z'
loop_
 _atom_site_type_symbol
 _atom_site_label
 _atom_site_symmetry_multiplicity
 _atom_site_fract_x
 _atom_site_fract_y
 _atom_site_fract_z
 _atom_site_occupancy
  Li  Li0  1  0.666667  0.333333  0.250000  1
  Li  Li1  1  0.333333  0.666667  0.750000  1
  In  In2  1  0.000000  0.000000  0.250000  1
  In  In3  1  0.000000  0.000000  0.750000  1
  P  P4  1  0.666667  0.333333  0.671382  1
  P  P5  1  0.666667  0.333333  0.828618  1
  P  P6  1  0.333333  0.666667  0.328618  1
  P  P7  1  0.333333  0.666667  0.171382  1
  S  S8  1  0.986322  0.333398  0.867525  1
  S  S9  1  0.347075  0.333398  0.632475  1
  S  S10  1  0.986322  0.652925  0.632475  1
  S  S11  1  0.666602  0.013678  0.632475  1
  S  S12  1  0.333398  0.347075  0.132475  1
  S  S13  1  0.652925  0.986322  0.132475  1
  S  S14  1  0.013678  0.666602  0.132475  1
  S  S15  1  0.652925  0.666602  0.367525  1
  S  S16  1  0.013678  0.347075  0.367525  1
  S  S17  1  0.333398  0.986322  0.367525  1
  S  S18  1  0.666602  0.652925  0.867525  1
  S  S19  1  0.347075  0.013678  0.867525  1
