# generated using pymatgen
data_Zr10In3Cu2Bi3
_symmetry_space_group_name_H-M   'P 1'
_cell_length_a   8.78526500
_cell_length_b   8.78526554
_cell_length_c   5.92402900
_cell_angle_alpha   90.00000000
_cell_angle_beta   90.00000000
_cell_angle_gamma   120.00000174
_symmetry_Int_Tables_number   1
_chemical_formula_structural   Zr10In3Cu2Bi3
_chemical_formula_sum   'Zr10 In3 Cu2 Bi3'
_cell_volume   395.96569214
_cell_formula_units_Z   1
loop_
 _symmetry_equiv_pos_site_id
 _symmetry_equiv_pos_as_xyz
  1  'x, y, z'
loop_
 _atom_site_type_symbol
 _atom_site_label
 _atom_site_symmetry_multiplicity
 _atom_site_fract_x
 _atom_site_fract_y
 _atom_site_fract_z
 _atom_site_occupancy
  Zr  Zr0  1  0.730286  0.000000  0.250000  1
  Zr  Zr1  1  0.000000  0.730286  0.250000  1
  Zr  Zr2  1  0.269714  0.269714  0.250000  1
  Zr  Zr3  1  0.250890  0.000000  0.750000  1
  Zr  Zr4  1  0.000000  0.250890  0.750000  1
  Zr  Zr5  1  0.749110  0.749110  0.750000  1
  Zr  Zr6  1  0.333333  0.666667  0.493490  1
  Zr  Zr7  1  0.666667  0.333333  0.493490  1
  Zr  Zr8  1  0.666667  0.333333  0.006510  1
  Zr  Zr9  1  0.333333  0.666667  0.006510  1
  In  In10  1  0.379537  0.000000  0.250000  1
  In  In11  1  0.000000  0.379537  0.250000  1
  In  In12  1  0.620463  0.620463  0.250000  1
  Cu  Cu13  1  0.000000  0.000000  0.474273  1
  Cu  Cu14  1  0.000000  0.000000  0.025727  1
  Bi  Bi15  1  0.608319  0.000000  0.750000  1
  Bi  Bi16  1  0.000000  0.608319  0.750000  1
  Bi  Bi17  1  0.391681  0.391681  0.750000  1
