# generated using pymatgen
data_Y3ErSb10
_symmetry_space_group_name_H-M   'P 1'
_cell_length_a   4.21165400
_cell_length_b   13.21834559
_cell_length_c   14.69878480
_cell_angle_alpha   78.14441137
_cell_angle_beta   90.00000000
_cell_angle_gamma   90.00000000
_symmetry_Int_Tables_number   1
_chemical_formula_structural   Y3ErSb10
_chemical_formula_sum   'Y6 Er2 Sb20'
_cell_volume   800.84199785
_cell_formula_units_Z   2
loop_
 _symmetry_equiv_pos_site_id
 _symmetry_equiv_pos_as_xyz
  1  'x, y, z'
loop_
 _atom_site_type_symbol
 _atom_site_label
 _atom_site_symmetry_multiplicity
 _atom_site_fract_x
 _atom_site_fract_y
 _atom_site_fract_z
 _atom_site_occupancy
  Y  Y0  1  0.250000  0.662796  0.856270  1
  Y  Y1  1  0.750000  0.337204  0.143730  1
  Y  Y2  1  0.250000  0.668986  0.576275  1
  Y  Y3  1  0.750000  0.331014  0.423725  1
  Y  Y4  1  0.250000  0.952658  0.359591  1
  Y  Y5  1  0.750000  0.047342  0.640409  1
  Er  Er6  1  0.250000  0.394226  0.770981  1
  Er  Er7  1  0.750000  0.605774  0.229019  1
  Sb  Sb8  1  0.250000  0.144133  0.779245  1
  Sb  Sb9  1  0.750000  0.855867  0.220755  1
  Sb  Sb10  1  0.250000  0.143548  0.481573  1
  Sb  Sb11  1  0.750000  0.856452  0.518427  1
  Sb  Sb12  1  0.250000  0.150191  0.171246  1
  Sb  Sb13  1  0.750000  0.849809  0.828754  1
  Sb  Sb14  1  0.250000  0.420292  0.975016  1
  Sb  Sb15  1  0.750000  0.579708  0.024984  1
  Sb  Sb16  1  0.750000  0.030083  0.910737  1
  Sb  Sb17  1  0.250000  0.969917  0.089263  1
  Sb  Sb18  1  0.750000  0.138900  0.321884  1
  Sb  Sb19  1  0.250000  0.861100  0.678116  1
  Sb  Sb20  1  0.750000  0.279489  0.936472  1
  Sb  Sb21  1  0.250000  0.720511  0.063528  1
  Sb  Sb22  1  0.750000  0.285065  0.653604  1
  Sb  Sb23  1  0.250000  0.714935  0.346396  1
  Sb  Sb24  1  0.750000  0.574367  0.734672  1
  Sb  Sb25  1  0.250000  0.425633  0.265328  1
  Sb  Sb26  1  0.750000  0.572136  0.446735  1
  Sb  Sb27  1  0.250000  0.427864  0.553265  1
