# generated using pymatgen
data_HoFeB6Mo
_symmetry_space_group_name_H-M   'P 1'
_cell_length_a   3.30891900
_cell_length_b   8.86000600
_cell_length_c   11.18698000
_cell_angle_alpha   90.00000000
_cell_angle_beta   90.00000000
_cell_angle_gamma   90.00000000
_symmetry_Int_Tables_number   1
_chemical_formula_structural   HoFeB6Mo
_chemical_formula_sum   'Ho4 Fe4 B24 Mo4'
_cell_volume   327.96916468
_cell_formula_units_Z   4
loop_
 _symmetry_equiv_pos_site_id
 _symmetry_equiv_pos_as_xyz
  1  'x, y, z'
loop_
 _atom_site_type_symbol
 _atom_site_label
 _atom_site_symmetry_multiplicity
 _atom_site_fract_x
 _atom_site_fract_y
 _atom_site_fract_z
 _atom_site_occupancy
  Ho  Ho0  1  0.000000  0.821328  0.086437  1
  Ho  Ho1  1  0.000000  0.178672  0.913563  1
  Ho  Ho2  1  0.000000  0.321328  0.413563  1
  Ho  Ho3  1  0.000000  0.678672  0.586437  1
  Fe  Fe4  1  0.000000  0.142784  0.183255  1
  Fe  Fe5  1  0.000000  0.857216  0.816745  1
  Fe  Fe6  1  0.000000  0.642784  0.316745  1
  Fe  Fe7  1  0.000000  0.357216  0.683255  1
  B  B8  1  0.500000  0.055113  0.067222  1
  B  B9  1  0.500000  0.944887  0.932778  1
  B  B10  1  0.500000  0.555113  0.432778  1
  B  B11  1  0.500000  0.444887  0.567222  1
  B  B12  1  0.500000  0.252855  0.082712  1
  B  B13  1  0.500000  0.747145  0.917288  1
  B  B14  1  0.500000  0.752855  0.417288  1
  B  B15  1  0.500000  0.247145  0.582712  1
  B  B16  1  0.500000  0.297140  0.235806  1
  B  B17  1  0.500000  0.702860  0.764194  1
  B  B18  1  0.500000  0.797140  0.264194  1
  B  B19  1  0.500000  0.202860  0.735806  1
  B  B20  1  0.500000  0.129026  0.317887  1
  B  B21  1  0.500000  0.870974  0.682113  1
  B  B22  1  0.500000  0.629026  0.182113  1
  B  B23  1  0.500000  0.370974  0.817887  1
  B  B24  1  0.500000  0.482294  0.286451  1
  B  B25  1  0.500000  0.517706  0.713549  1
  B  B26  1  0.500000  0.982294  0.213549  1
  B  B27  1  0.500000  0.017706  0.786451  1
  B  B28  1  0.500000  0.099907  0.473808  1
  B  B29  1  0.500000  0.900093  0.526192  1
  B  B30  1  0.500000  0.599907  0.026192  1
  B  B31  1  0.500000  0.400093  0.973808  1
  Mo  Mo32  1  0.000000  0.445164  0.127499  1
  Mo  Mo33  1  0.000000  0.554836  0.872501  1
  Mo  Mo34  1  0.000000  0.945164  0.372501  1
  Mo  Mo35  1  0.000000  0.054836  0.627499  1
