# generated using pymatgen
data_UAl(Co7B2)3
_symmetry_space_group_name_H-M   'P 1'
_cell_length_a   7.44007000
_cell_length_b   7.44007004
_cell_length_c   7.44007000
_cell_angle_alpha   119.99999984
_cell_angle_beta   90.00000000
_cell_angle_gamma   119.99999984
_symmetry_Int_Tables_number   1
_chemical_formula_structural   UAl(Co7B2)3
_chemical_formula_sum   'U1 Al1 Co21 B6'
_cell_volume   291.21656253
_cell_formula_units_Z   1
loop_
 _symmetry_equiv_pos_site_id
 _symmetry_equiv_pos_as_xyz
  1  'x, y, z'
loop_
 _atom_site_type_symbol
 _atom_site_label
 _atom_site_symmetry_multiplicity
 _atom_site_fract_x
 _atom_site_fract_y
 _atom_site_fract_z
 _atom_site_occupancy
  U  U0  1  0.250000  0.499999  0.749999  1
  Al  Al1  1  0.749999  0.499999  0.250000  1
  Co  Co2  1  0.000000  0.000000  0.000000  1
  Co  Co3  1  0.338787  0.004674  0.002337  1
  Co  Co4  1  0.665885  0.004674  0.002337  1
  Co  Co5  1  0.997663  0.336450  0.002337  1
  Co  Co6  1  0.338787  0.336450  0.002337  1
  Co  Co7  1  0.997663  0.663548  0.002337  1
  Co  Co8  1  0.665885  0.663548  0.002337  1
  Co  Co9  1  0.383689  0.767376  0.151064  1
  Co  Co10  1  0.997663  0.995326  0.334113  1
  Co  Co11  1  0.997663  0.336450  0.334113  1
  Co  Co12  1  0.338787  0.336450  0.334113  1
  Co  Co13  1  0.618650  0.237299  0.381351  1
  Co  Co14  1  0.144052  0.762701  0.381351  1
  Co  Co15  1  0.618650  0.762701  0.381351  1
  Co  Co16  1  0.383689  0.232624  0.616312  1
  Co  Co17  1  0.848936  0.232624  0.616312  1
  Co  Co18  1  0.383689  0.767376  0.616312  1
  Co  Co19  1  0.997663  0.995326  0.661211  1
  Co  Co20  1  0.997663  0.663548  0.661211  1
  Co  Co21  1  0.665885  0.663548  0.661211  1
  Co  Co22  1  0.618650  0.237299  0.855948  1
  B  B23  1  0.275336  0.000000  0.275336  1
  B  B24  1  0.275336  0.550672  0.275336  1
  B  B25  1  0.724664  0.000000  0.275336  1
  B  B26  1  0.275336  0.000000  0.724664  1
  B  B27  1  0.724664  0.000000  0.724664  1
  B  B28  1  0.724664  0.449329  0.724664  1
