# generated using pymatgen
data_NdTh7(ZnRh)8
_symmetry_space_group_name_H-M   'P 1'
_cell_length_a   3.93639600
_cell_length_b   7.53037846
_cell_length_c   16.58097210
_cell_angle_alpha   89.59450668
_cell_angle_beta   90.00000000
_cell_angle_gamma   90.00000000
_symmetry_Int_Tables_number   1
_chemical_formula_structural   NdTh7(ZnRh)8
_chemical_formula_sum   'Nd1 Th7 Zn8 Rh8'
_cell_volume   491.49001322
_cell_formula_units_Z   1
loop_
 _symmetry_equiv_pos_site_id
 _symmetry_equiv_pos_as_xyz
  1  'x, y, z'
loop_
 _atom_site_type_symbol
 _atom_site_label
 _atom_site_symmetry_multiplicity
 _atom_site_fract_x
 _atom_site_fract_y
 _atom_site_fract_z
 _atom_site_occupancy
  Nd  Nd0  1  0.750000  0.939188  0.286087  1
  Th  Th1  1  0.750000  0.327990  0.439393  1
  Th  Th2  1  0.250000  0.064570  0.715150  1
  Th  Th3  1  0.250000  0.562767  0.785091  1
  Th  Th4  1  0.250000  0.676688  0.560388  1
  Th  Th5  1  0.750000  0.821614  0.061344  1
  Th  Th6  1  0.250000  0.171321  0.939940  1
  Th  Th7  1  0.750000  0.438585  0.215051  1
  Zn  Zn8  1  0.250000  0.107925  0.155511  1
  Zn  Zn9  1  0.250000  0.997357  0.438183  1
  Zn  Zn10  1  0.750000  0.888362  0.846917  1
  Zn  Zn11  1  0.750000  0.006451  0.559267  1
  Zn  Zn12  1  0.250000  0.489585  0.058172  1
  Zn  Zn13  1  0.750000  0.389941  0.653020  1
  Zn  Zn14  1  0.750000  0.502670  0.940777  1
  Zn  Zn15  1  0.250000  0.618172  0.346864  1
  Rh  Rh16  1  0.750000  0.260003  0.814905  1
  Rh  Rh17  1  0.250000  0.258161  0.315432  1
  Rh  Rh18  1  0.250000  0.754581  0.937271  1
  Rh  Rh19  1  0.250000  0.256518  0.561898  1
  Rh  Rh20  1  0.250000  0.726815  0.180192  1
  Rh  Rh21  1  0.750000  0.741885  0.440952  1
  Rh  Rh22  1  0.750000  0.237711  0.062478  1
  Rh  Rh23  1  0.750000  0.761140  0.685717  1
