# generated using pymatgen
data_Zr5FePt2
_symmetry_space_group_name_H-M   'P 1'
_cell_length_a   5.54142150
_cell_length_b   8.01410385
_cell_length_c   8.01410487
_cell_angle_alpha   82.93805084
_cell_angle_beta   69.63042070
_cell_angle_gamma   69.63042774
_symmetry_Int_Tables_number   1
_chemical_formula_structural   Zr5FePt2
_chemical_formula_sum   'Zr10 Fe2 Pt4'
_cell_volume   312.78232732
_cell_formula_units_Z   2
loop_
 _symmetry_equiv_pos_site_id
 _symmetry_equiv_pos_as_xyz
  1  'x, y, z'
loop_
 _atom_site_type_symbol
 _atom_site_label
 _atom_site_symmetry_multiplicity
 _atom_site_fract_x
 _atom_site_fract_y
 _atom_site_fract_z
 _atom_site_occupancy
  Zr  Zr0  1  0.077932  0.125772  0.719811  1
  Zr  Zr1  1  0.922068  0.874228  0.280189  1
  Zr  Zr2  1  0.794728  0.281965  0.125811  1
  Zr  Zr3  1  0.422068  0.280189  0.874228  1
  Zr  Zr4  1  0.205272  0.718035  0.874189  1
  Zr  Zr5  1  0.577932  0.719811  0.125772  1
  Zr  Zr6  1  0.705272  0.874189  0.718035  1
  Zr  Zr7  1  0.294728  0.125811  0.281965  1
  Zr  Zr8  1  0.250000  0.498359  0.501641  1
  Zr  Zr9  1  0.750000  0.501641  0.498359  1
  Fe  Fe10  1  0.250000  0.000437  0.999563  1
  Fe  Fe11  1  0.750000  0.999563  0.000437  1
  Pt  Pt12  1  0.165066  0.499832  0.172779  1
  Pt  Pt13  1  0.834934  0.500168  0.827221  1
  Pt  Pt14  1  0.334934  0.827221  0.500168  1
  Pt  Pt15  1  0.665066  0.172779  0.499832  1
