# generated using pymatgen
data_Ho3Tm5Cd2IrPt
_symmetry_space_group_name_H-M   'P 1'
_cell_length_a   9.57493637
_cell_length_b   9.56866924
_cell_length_c   9.55133574
_cell_angle_alpha   59.89487146
_cell_angle_beta   59.94815176
_cell_angle_gamma   60.06487231
_symmetry_Int_Tables_number   1
_chemical_formula_structural   Ho3Tm5Cd2IrPt
_chemical_formula_sum   'Ho6 Tm10 Cd4 Ir2 Pt2'
_cell_volume   618.34674873
_cell_formula_units_Z   2
loop_
 _symmetry_equiv_pos_site_id
 _symmetry_equiv_pos_as_xyz
  1  'x, y, z'
loop_
 _atom_site_type_symbol
 _atom_site_label
 _atom_site_symmetry_multiplicity
 _atom_site_fract_x
 _atom_site_fract_y
 _atom_site_fract_z
 _atom_site_occupancy
  Ho  Ho0  1  0.187506  0.814974  0.811708  1
  Ho  Ho1  1  0.812404  0.187814  0.188038  1
  Ho  Ho2  1  0.814873  0.187487  0.811698  1
  Ho  Ho3  1  0.187790  0.812590  0.187919  1
  Ho  Ho4  1  0.812563  0.812672  0.187925  1
  Ho  Ho5  1  0.187251  0.187251  0.811414  1
  Tm  Tm6  1  0.599978  0.600239  0.596769  1
  Tm  Tm7  1  0.601931  0.601529  0.200119  1
  Tm  Tm8  1  0.605493  0.195936  0.600881  1
  Tm  Tm9  1  0.195390  0.605570  0.601181  1
  Tm  Tm10  1  0.057246  0.440478  0.439868  1
  Tm  Tm11  1  0.437944  0.057436  0.063415  1
  Tm  Tm12  1  0.440479  0.057293  0.439481  1
  Tm  Tm13  1  0.057626  0.437739  0.063444  1
  Tm  Tm14  1  0.440950  0.440536  0.059291  1
  Tm  Tm15  1  0.061615  0.061346  0.436586  1
  Cd  Cd16  1  0.830725  0.830749  0.829866  1
  Cd  Cd17  1  0.831112  0.831104  0.505192  1
  Cd  Cd18  1  0.830810  0.506081  0.830793  1
  Cd  Cd19  1  0.505928  0.830866  0.830821  1
  Ir  Ir20  1  0.391822  0.823485  0.392978  1
  Ir  Ir21  1  0.823857  0.391893  0.392929  1
  Pt  Pt22  1  0.392617  0.392571  0.394379  1
  Pt  Pt23  1  0.392091  0.392363  0.823305  1
