# generated using pymatgen
data_Tb3Dy3Al24Os5Pt3
_symmetry_space_group_name_H-M   'P 1'
_cell_length_a   8.81988660
_cell_length_b   8.83870625
_cell_length_c   9.56844194
_cell_angle_alpha   90.16628919
_cell_angle_beta   89.77443032
_cell_angle_gamma   119.46751721
_symmetry_Int_Tables_number   1
_chemical_formula_structural   Tb3Dy3Al24Os5Pt3
_chemical_formula_sum   'Tb3 Dy3 Al24 Os5 Pt3'
_cell_volume   649.41943320
_cell_formula_units_Z   1
loop_
 _symmetry_equiv_pos_site_id
 _symmetry_equiv_pos_as_xyz
  1  'x, y, z'
loop_
 _atom_site_type_symbol
 _atom_site_label
 _atom_site_symmetry_multiplicity
 _atom_site_fract_x
 _atom_site_fract_y
 _atom_site_fract_z
 _atom_site_occupancy
  Tb  Tb0  1  0.187426  0.382483  0.250839  1
  Tb  Tb1  1  0.812523  0.617537  0.749167  1
  Tb  Tb2  1  0.614385  0.813966  0.252268  1
  Dy  Dy3  1  0.386438  0.186047  0.747694  1
  Dy  Dy4  1  0.195183  0.808769  0.251473  1
  Dy  Dy5  1  0.804641  0.191212  0.748516  1
  Al  Al6  1  0.334987  0.671275  0.028710  1
  Al  Al7  1  0.664819  0.328671  0.971011  1
  Al  Al8  1  0.668922  0.331047  0.527387  1
  Al  Al9  1  0.330934  0.668939  0.472866  1
  Al  Al10  1  0.158143  0.325558  0.575118  1
  Al  Al11  1  0.841923  0.674339  0.425064  1
  Al  Al12  1  0.672987  0.840670  0.575750  1
  Al  Al13  1  0.836925  0.675932  0.077796  1
  Al  Al14  1  0.326977  0.159342  0.424559  1
  Al  Al15  1  0.163155  0.323958  0.922003  1
  Al  Al16  1  0.163897  0.835153  0.576059  1
  Al  Al17  1  0.325699  0.158830  0.076089  1
  Al  Al18  1  0.836118  0.165017  0.424127  1
  Al  Al19  1  0.674260  0.841165  0.923616  1
  Al  Al20  1  0.831692  0.159534  0.077472  1
  Al  Al21  1  0.168340  0.840687  0.922322  1
  Al  Al22  1  0.560737  0.124800  0.249867  1
  Al  Al23  1  0.439113  0.875298  0.750155  1
  Al  Al24  1  0.874130  0.437684  0.252632  1
  Al  Al25  1  0.125860  0.562300  0.747409  1
  Al  Al26  1  0.562581  0.436227  0.249831  1
  Al  Al27  1  0.437298  0.563493  0.750168  1
  Al  Al28  1  0.998917  0.002753  0.250151  1
  Al  Al29  1  0.001616  0.997560  0.749834  1
  Os  Os30  1  0.499920  0.000110  0.999858  1
  Os  Os31  1  0.499898  0.000116  0.500174  1
  Os  Os32  1  0.999938  0.499961  0.500033  1
  Os  Os33  1  0.999983  0.999990  0.000002  1
  Os  Os34  1  0.999973  0.999974  0.499988  1
  Pt  Pt35  1  0.999898  0.499958  0.999981  1
  Pt  Pt36  1  0.499887  0.499827  0.999904  1
  Pt  Pt37  1  0.499879  0.499817  0.500109  1
