# generated using pymatgen
data_Ca12Y8Si15Ag
_symmetry_space_group_name_H-M   'P 1'
_cell_length_a   7.49048038
_cell_length_b   7.81824049
_cell_length_c   15.28281100
_cell_angle_alpha   90.42567105
_cell_angle_beta   89.23115359
_cell_angle_gamma   90.28622910
_symmetry_Int_Tables_number   1
_chemical_formula_structural   Ca12Y8Si15Ag
_chemical_formula_sum   'Ca12 Y8 Si15 Ag1'
_cell_volume   894.88173540
_cell_formula_units_Z   1
loop_
 _symmetry_equiv_pos_site_id
 _symmetry_equiv_pos_as_xyz
  1  'x, y, z'
loop_
 _atom_site_type_symbol
 _atom_site_label
 _atom_site_symmetry_multiplicity
 _atom_site_fract_x
 _atom_site_fract_y
 _atom_site_fract_z
 _atom_site_occupancy
  Ca  Ca0  1  0.649814  0.978581  0.250542  1
  Ca  Ca1  1  0.153012  0.518115  0.250055  1
  Ca  Ca2  1  0.847288  0.484014  0.748302  1
  Ca  Ca3  1  0.347868  0.021017  0.747285  1
  Ca  Ca4  1  0.984030  0.819503  0.098208  1
  Ca  Ca5  1  0.473130  0.682869  0.404768  1
  Ca  Ca6  1  0.508739  0.320947  0.903515  1
  Ca  Ca7  1  0.026350  0.184273  0.594678  1
  Ca  Ca8  1  0.024435  0.177314  0.904708  1
  Ca  Ca9  1  0.526905  0.318246  0.594935  1
  Ca  Ca10  1  0.475280  0.678315  0.094391  1
  Ca  Ca11  1  0.973539  0.816144  0.404454  1
  Y  Y12  1  0.671682  0.829023  0.873389  1
  Y  Y13  1  0.182693  0.678720  0.620321  1
  Y  Y14  1  0.824553  0.318006  0.126253  1
  Y  Y15  1  0.317701  0.175877  0.379501  1
  Y  Y16  1  0.322557  0.178841  0.122934  1
  Y  Y17  1  0.816863  0.322313  0.379475  1
  Y  Y18  1  0.185940  0.677352  0.879457  1
  Y  Y19  1  0.684180  0.824186  0.620391  1
  Si  Si20  1  0.755746  0.603766  0.250128  1
  Si  Si21  1  0.256044  0.893834  0.251017  1
  Si  Si22  1  0.746126  0.108247  0.748778  1
  Si  Si23  1  0.241475  0.396238  0.748547  1
  Si  Si24  1  0.028177  0.114251  0.250681  1
  Si  Si25  1  0.529160  0.380879  0.253506  1
  Si  Si26  1  0.470243  0.618453  0.746757  1
  Si  Si27  1  0.972783  0.883274  0.750835  1
  Si  Si28  1  0.359692  0.966260  0.537798  1
  Si  Si29  1  0.648016  0.033571  0.035018  1
  Si  Si30  1  0.140558  0.466101  0.461402  1
  Si  Si31  1  0.153267  0.461701  0.039107  1
  Si  Si32  1  0.641434  0.033775  0.461839  1
  Si  Si33  1  0.358578  0.966646  0.963978  1
  Si  Si34  1  0.859411  0.534084  0.537874  1
  Ag  Ag35  1  0.842729  0.535262  0.965171  1
