# generated using pymatgen
data_Tm6Zn23Ge
_symmetry_space_group_name_H-M   'P 1'
_cell_length_a   9.02389138
_cell_length_b   9.02389114
_cell_length_c   9.02389200
_cell_angle_alpha   59.99999686
_cell_angle_beta   59.99999774
_cell_angle_gamma   59.99999762
_symmetry_Int_Tables_number   1
_chemical_formula_structural   Tm6Zn23Ge
_chemical_formula_sum   'Tm6 Zn23 Ge1'
_cell_volume   519.59692531
_cell_formula_units_Z   1
loop_
 _symmetry_equiv_pos_site_id
 _symmetry_equiv_pos_as_xyz
  1  'x, y, z'
loop_
 _atom_site_type_symbol
 _atom_site_label
 _atom_site_symmetry_multiplicity
 _atom_site_fract_x
 _atom_site_fract_y
 _atom_site_fract_z
 _atom_site_occupancy
  Tm  Tm0  1  0.716259  0.283741  0.283741  1
  Tm  Tm1  1  0.716259  0.283741  0.716259  1
  Tm  Tm2  1  0.716259  0.716259  0.283741  1
  Tm  Tm3  1  0.283741  0.716259  0.716259  1
  Tm  Tm4  1  0.283741  0.716259  0.283741  1
  Tm  Tm5  1  0.283741  0.283741  0.716259  1
  Zn  Zn6  1  0.623063  0.125646  0.125646  1
  Zn  Zn7  1  0.125646  0.623063  0.125646  1
  Zn  Zn8  1  0.125646  0.125646  0.623063  1
  Zn  Zn9  1  0.125646  0.125646  0.125646  1
  Zn  Zn10  1  0.376937  0.874354  0.874354  1
  Zn  Zn11  1  0.874354  0.376937  0.874354  1
  Zn  Zn12  1  0.874354  0.874354  0.376937  1
  Zn  Zn13  1  0.874354  0.874354  0.874354  1
  Zn  Zn14  1  0.500000  0.000000  0.000000  1
  Zn  Zn15  1  0.500000  0.000000  0.500000  1
  Zn  Zn16  1  0.500000  0.500000  0.000000  1
  Zn  Zn17  1  0.000000  0.500000  0.500000  1
  Zn  Zn18  1  0.000000  0.500000  0.000000  1
  Zn  Zn19  1  0.000000  0.000000  0.500000  1
  Zn  Zn20  1  0.000000  0.000000  0.000000  1
  Zn  Zn21  1  0.005642  0.331452  0.331452  1
  Zn  Zn22  1  0.331452  0.005642  0.331452  1
  Zn  Zn23  1  0.331452  0.331452  0.005642  1
  Zn  Zn24  1  0.331452  0.331452  0.331452  1
  Zn  Zn25  1  0.994358  0.668548  0.668548  1
  Zn  Zn26  1  0.668548  0.994358  0.668548  1
  Zn  Zn27  1  0.668548  0.668548  0.994358  1
  Zn  Zn28  1  0.668548  0.668548  0.668548  1
  Ge  Ge29  1  0.500000  0.500000  0.500000  1
