# generated using pymatgen
data_Yb2Co2Cl
_symmetry_space_group_name_H-M   'P 1'
_cell_length_a   3.84833800
_cell_length_b   3.84833709
_cell_length_c   16.04058600
_cell_angle_alpha   90.00000000
_cell_angle_beta   90.00000000
_cell_angle_gamma   119.99999061
_symmetry_Int_Tables_number   1
_chemical_formula_structural   Yb2Co2Cl
_chemical_formula_sum   'Yb4 Co4 Cl2'
_cell_volume   205.72980706
_cell_formula_units_Z   2
loop_
 _symmetry_equiv_pos_site_id
 _symmetry_equiv_pos_as_xyz
  1  'x, y, z'
loop_
 _atom_site_type_symbol
 _atom_site_label
 _atom_site_symmetry_multiplicity
 _atom_site_fract_x
 _atom_site_fract_y
 _atom_site_fract_z
 _atom_site_occupancy
  Yb  Yb0  1  0.000000  0.000000  0.119518  1
  Yb  Yb1  1  0.000000  0.000000  0.380482  1
  Yb  Yb2  1  0.000000  0.000000  0.619518  1
  Yb  Yb3  1  0.000000  0.000000  0.880482  1
  Co  Co4  1  0.666666  0.333334  0.998101  1
  Co  Co5  1  0.333334  0.666667  0.001899  1
  Co  Co6  1  0.666666  0.333334  0.501899  1
  Co  Co7  1  0.333334  0.666667  0.498101  1
  Cl  Cl8  1  0.666666  0.333334  0.250000  1
  Cl  Cl9  1  0.333334  0.666667  0.750000  1
