# generated using pymatgen
data_Dy20GaCo4Bi7
_symmetry_space_group_name_H-M   'P 1'
_cell_length_a   8.03009003
_cell_length_b   8.87482213
_cell_length_c   12.36730150
_cell_angle_alpha   90.12130063
_cell_angle_beta   90.10798176
_cell_angle_gamma   90.13444650
_symmetry_Int_Tables_number   1
_chemical_formula_structural   Dy20GaCo4Bi7
_chemical_formula_sum   'Dy20 Ga1 Co4 Bi7'
_cell_volume   881.35744201
_cell_formula_units_Z   1
loop_
 _symmetry_equiv_pos_site_id
 _symmetry_equiv_pos_as_xyz
  1  'x, y, z'
loop_
 _atom_site_type_symbol
 _atom_site_label
 _atom_site_symmetry_multiplicity
 _atom_site_fract_x
 _atom_site_fract_y
 _atom_site_fract_z
 _atom_site_occupancy
  Dy  Dy0  1  0.839070  0.741426  0.798241  1
  Dy  Dy1  1  0.152105  0.250042  0.195222  1
  Dy  Dy2  1  0.354708  0.259010  0.703500  1
  Dy  Dy3  1  0.650722  0.751639  0.300855  1
  Dy  Dy4  1  0.390637  0.739827  0.695480  1
  Dy  Dy5  1  0.617214  0.249675  0.311937  1
  Dy  Dy6  1  0.868396  0.257774  0.812603  1
  Dy  Dy7  1  0.118111  0.749966  0.188532  1
  Dy  Dy8  1  0.952039  0.751921  0.503068  1
  Dy  Dy9  1  0.051433  0.248499  0.497799  1
  Dy  Dy10  1  0.461373  0.262042  0.989848  1
  Dy  Dy11  1  0.548552  0.738068  0.995698  1
  Dy  Dy12  1  0.676796  0.035346  0.564592  1
  Dy  Dy13  1  0.324725  0.963224  0.437505  1
  Dy  Dy14  1  0.175148  0.967174  0.934953  1
  Dy  Dy15  1  0.325111  0.533766  0.436392  1
  Dy  Dy16  1  0.821352  0.031512  0.063154  1
  Dy  Dy17  1  0.673234  0.467460  0.571862  1
  Dy  Dy18  1  0.824512  0.464880  0.061940  1
  Dy  Dy19  1  0.180159  0.534407  0.933518  1
  Ga  Ga20  1  0.568572  0.495297  0.829414  1
  Co  Co21  1  0.564600  0.749174  0.509437  1
  Co  Co22  1  0.436789  0.249747  0.493376  1
  Co  Co23  1  0.057425  0.249993  0.990915  1
  Co  Co24  1  0.937898  0.749129  0.006460  1
  Bi  Bi25  1  0.428230  0.508042  0.175103  1
  Bi  Bi26  1  0.072056  0.507256  0.672901  1
  Bi  Bi27  1  0.428518  0.992522  0.169016  1
  Bi  Bi28  1  0.928480  0.491769  0.327226  1
  Bi  Bi29  1  0.571011  0.006843  0.827346  1
  Bi  Bi30  1  0.929487  0.008807  0.325355  1
  Bi  Bi31  1  0.071539  0.993764  0.676751  1
