# generated using pymatgen
data_LiTm(NiPt)2
_symmetry_space_group_name_H-M   'P 1'
_cell_length_a   4.91131700
_cell_length_b   5.09316843
_cell_length_c   5.09316856
_cell_angle_alpha   63.57129309
_cell_angle_beta   61.17423128
_cell_angle_gamma   61.17422988
_symmetry_Int_Tables_number   1
_chemical_formula_structural   LiTm(NiPt)2
_chemical_formula_sum   'Li1 Tm1 Ni2 Pt2'
_cell_volume   93.95809600
_cell_formula_units_Z   1
loop_
 _symmetry_equiv_pos_site_id
 _symmetry_equiv_pos_as_xyz
  1  'x, y, z'
loop_
 _atom_site_type_symbol
 _atom_site_label
 _atom_site_symmetry_multiplicity
 _atom_site_fract_x
 _atom_site_fract_y
 _atom_site_fract_z
 _atom_site_occupancy
  Li  Li0  1  0.507687  0.492313  0.492313  1
  Tm  Tm1  1  0.750052  0.749948  0.749948  1
  Ni  Ni2  1  0.623399  0.127721  0.127721  1
  Ni  Ni3  1  0.121159  0.127721  0.127721  1
  Pt  Pt4  1  0.123851  0.127959  0.624339  1
  Pt  Pt5  1  0.123851  0.624339  0.127959  1
