# generated using pymatgen
data_HfZr2CoN
_symmetry_space_group_name_H-M   'P 1'
_cell_length_a   5.79954278
_cell_length_b   5.79954341
_cell_length_c   8.77965000
_cell_angle_alpha   90.00000000
_cell_angle_beta   90.00000000
_cell_angle_gamma   147.40233972
_symmetry_Int_Tables_number   1
_chemical_formula_structural   HfZr2CoN
_chemical_formula_sum   'Hf2 Zr4 Co2 N2'
_cell_volume   159.08933565
_cell_formula_units_Z   2
loop_
 _symmetry_equiv_pos_site_id
 _symmetry_equiv_pos_as_xyz
  1  'x, y, z'
loop_
 _atom_site_type_symbol
 _atom_site_label
 _atom_site_symmetry_multiplicity
 _atom_site_fract_x
 _atom_site_fract_y
 _atom_site_fract_z
 _atom_site_occupancy
  Hf  Hf0  1  0.367989  0.632010  0.065058  1
  Hf  Hf1  1  0.367989  0.632010  0.434941  1
  Zr  Zr2  1  0.065680  0.934319  0.250000  1
  Zr  Zr3  1  0.633963  0.366036  0.562408  1
  Zr  Zr4  1  0.933799  0.066200  0.750000  1
  Zr  Zr5  1  0.633963  0.366036  0.937592  1
  Co  Co6  1  0.751619  0.248380  0.250000  1
  Co  Co7  1  0.250930  0.749069  0.750000  1
  N  N8  1  0.997031  0.002969  0.001022  1
  N  N9  1  0.997031  0.002969  0.498978  1
