# generated using pymatgen
data_Pr16Y4Si15Tc
_symmetry_space_group_name_H-M   'P 1'
_cell_length_a   7.88042458
_cell_length_b   7.84021293
_cell_length_c   15.24307196
_cell_angle_alpha   90.24432981
_cell_angle_beta   89.89245951
_cell_angle_gamma   90.02999267
_symmetry_Int_Tables_number   1
_chemical_formula_structural   Pr16Y4Si15Tc
_chemical_formula_sum   'Pr16 Y4 Si15 Tc1'
_cell_volume   941.77076190
_cell_formula_units_Z   1
loop_
 _symmetry_equiv_pos_site_id
 _symmetry_equiv_pos_as_xyz
  1  'x, y, z'
loop_
 _atom_site_type_symbol
 _atom_site_label
 _atom_site_symmetry_multiplicity
 _atom_site_fract_x
 _atom_site_fract_y
 _atom_site_fract_z
 _atom_site_occupancy
  Pr  Pr0  1  0.373379  0.014744  0.450348  1
  Pr  Pr1  1  0.482440  0.882813  0.695799  1
  Pr  Pr2  1  0.513058  0.121978  0.197673  1
  Pr  Pr3  1  0.878582  0.486233  0.303198  1
  Pr  Pr4  1  0.126466  0.501865  0.799053  1
  Pr  Pr5  1  0.623429  0.986159  0.946773  1
  Pr  Pr6  1  0.009670  0.381529  0.553289  1
  Pr  Pr7  1  0.986435  0.622773  0.052765  1
  Pr  Pr8  1  0.130519  0.980297  0.871883  1
  Pr  Pr9  1  0.522359  0.628147  0.127668  1
  Pr  Pr10  1  0.468518  0.363239  0.631299  1
  Pr  Pr11  1  0.626953  0.520257  0.873858  1
  Pr  Pr12  1  0.376676  0.478408  0.372301  1
  Pr  Pr13  1  0.874778  0.025727  0.377858  1
  Pr  Pr14  1  0.976983  0.125793  0.123063  1
  Pr  Pr15  1  0.028877  0.882610  0.626303  1
  Y  Y16  1  0.308315  0.306943  0.998780  1
  Y  Y17  1  0.190524  0.808677  0.250935  1
  Y  Y18  1  0.820667  0.190734  0.748434  1
  Y  Y19  1  0.693340  0.691740  0.502079  1
  Si  Si20  1  0.328350  0.687660  0.956220  1
  Si  Si21  1  0.667762  0.308592  0.457070  1
  Si  Si22  1  0.690358  0.328877  0.044799  1
  Si  Si23  1  0.310075  0.671335  0.542326  1
  Si  Si24  1  0.812436  0.827791  0.208486  1
  Si  Si25  1  0.172432  0.189754  0.292779  1
  Si  Si26  1  0.827469  0.808550  0.794500  1
  Si  Si27  1  0.286145  0.921260  0.062007  1
  Si  Si28  1  0.580618  0.785532  0.314293  1
  Si  Si29  1  0.422095  0.212649  0.815739  1
  Si  Si30  1  0.775526  0.584661  0.687557  1
  Si  Si31  1  0.212993  0.421754  0.186528  1
  Si  Si32  1  0.708247  0.074995  0.561642  1
  Si  Si33  1  0.920655  0.285208  0.937516  1
  Si  Si34  1  0.080600  0.717671  0.437103  1
  Tc  Tc35  1  0.192275  0.173045  0.698077  1
