# generated using pymatgen
data_Ho16MgIn3Pd3Rh
_symmetry_space_group_name_H-M   'P 1'
_cell_length_a   9.66013434
_cell_length_b   9.66013408
_cell_length_c   9.65940984
_cell_angle_alpha   60.20803528
_cell_angle_beta   60.20803665
_cell_angle_gamma   60.12891203
_symmetry_Int_Tables_number   1
_chemical_formula_structural   Ho16MgIn3Pd3Rh
_chemical_formula_sum   'Ho16 Mg1 In3 Pd3 Rh1'
_cell_volume   640.00649012
_cell_formula_units_Z   1
loop_
 _symmetry_equiv_pos_site_id
 _symmetry_equiv_pos_as_xyz
  1  'x, y, z'
loop_
 _atom_site_type_symbol
 _atom_site_label
 _atom_site_symmetry_multiplicity
 _atom_site_fract_x
 _atom_site_fract_y
 _atom_site_fract_z
 _atom_site_occupancy
  Ho  Ho0  1  0.186742  0.186742  0.814766  1
  Ho  Ho1  1  0.603216  0.603216  0.189440  1
  Ho  Ho2  1  0.440776  0.059524  0.441065  1
  Ho  Ho3  1  0.440096  0.440096  0.056248  1
  Ho  Ho4  1  0.814082  0.185151  0.816829  1
  Ho  Ho5  1  0.185836  0.812804  0.187629  1
  Ho  Ho6  1  0.439328  0.065798  0.057851  1
  Ho  Ho7  1  0.185151  0.814082  0.816829  1
  Ho  Ho8  1  0.065798  0.439328  0.057851  1
  Ho  Ho9  1  0.815169  0.815169  0.185618  1
  Ho  Ho10  1  0.195789  0.599304  0.605622  1
  Ho  Ho11  1  0.059524  0.440776  0.441065  1
  Ho  Ho12  1  0.061074  0.061074  0.440077  1
  Ho  Ho13  1  0.812804  0.185836  0.187629  1
  Ho  Ho14  1  0.599304  0.195789  0.605622  1
  Ho  Ho15  1  0.598530  0.598530  0.604481  1
  Mg  Mg16  1  0.828354  0.828354  0.827358  1
  In  In17  1  0.832860  0.832860  0.502013  1
  In  In18  1  0.501578  0.833409  0.832489  1
  In  In19  1  0.833409  0.501578  0.832489  1
  Pd  Pd20  1  0.393911  0.819171  0.391937  1
  Pd  Pd21  1  0.394756  0.394756  0.392773  1
  Pd  Pd22  1  0.819171  0.393911  0.391937  1
  Rh  Rh23  1  0.392744  0.392744  0.820381  1
