# generated using pymatgen
data_Gd3Y(SeO4)6
_symmetry_space_group_name_H-M   'P 1'
_cell_length_a   10.10179536
_cell_length_b   10.10179531
_cell_length_c   10.10179410
_cell_angle_alpha   57.72962039
_cell_angle_beta   57.72961693
_cell_angle_gamma   57.72961734
_symmetry_Int_Tables_number   1
_chemical_formula_structural   Gd3Y(SeO4)6
_chemical_formula_sum   'Gd3 Y1 Se6 O24'
_cell_volume   690.90437892
_cell_formula_units_Z   1
loop_
 _symmetry_equiv_pos_site_id
 _symmetry_equiv_pos_as_xyz
  1  'x, y, z'
loop_
 _atom_site_type_symbol
 _atom_site_label
 _atom_site_symmetry_multiplicity
 _atom_site_fract_x
 _atom_site_fract_y
 _atom_site_fract_z
 _atom_site_occupancy
  Gd  Gd0  1  0.855903  0.855903  0.855903  1
  Gd  Gd1  1  0.355987  0.355987  0.355987  1
  Gd  Gd2  1  0.644108  0.644108  0.644108  1
  Y  Y3  1  0.144342  0.144342  0.144342  1
  Se  Se4  1  0.036628  0.462434  0.751609  1
  Se  Se5  1  0.462434  0.751609  0.036628  1
  Se  Se6  1  0.751609  0.036628  0.462434  1
  Se  Se7  1  0.964310  0.534911  0.249749  1
  Se  Se8  1  0.249749  0.964310  0.534911  1
  Se  Se9  1  0.534911  0.249749  0.964310  1
  O  O10  1  0.226863  0.993262  0.368923  1
  O  O11  1  0.368923  0.226863  0.993262  1
  O  O12  1  0.993262  0.368923  0.226863  1
  O  O13  1  0.772978  0.008223  0.629046  1
  O  O14  1  0.629046  0.772978  0.008223  1
  O  O15  1  0.008223  0.629046  0.772978  1
  O  O16  1  0.272367  0.129672  0.507644  1
  O  O17  1  0.507644  0.272367  0.129672  1
  O  O18  1  0.129672  0.507644  0.272367  1
  O  O19  1  0.728610  0.870812  0.490908  1
  O  O20  1  0.064610  0.294002  0.919019  1
  O  O21  1  0.294002  0.919019  0.064610  1
  O  O22  1  0.919019  0.064610  0.294002  1
  O  O23  1  0.936425  0.704232  0.083026  1
  O  O24  1  0.704232  0.083026  0.936425  1
  O  O25  1  0.083026  0.936425  0.704232  1
  O  O26  1  0.205043  0.435433  0.583949  1
  O  O27  1  0.435433  0.583949  0.205043  1
  O  O28  1  0.583949  0.205043  0.435433  1
  O  O29  1  0.795342  0.562768  0.416861  1
  O  O30  1  0.562768  0.416861  0.795342  1
  O  O31  1  0.416861  0.795342  0.562768  1
  O  O32  1  0.870812  0.490908  0.728610  1
  O  O33  1  0.490908  0.728610  0.870812  1
