# generated using pymatgen
data_Yb2Dy2(Al8Pt3)3
_symmetry_space_group_name_H-M   'P 1'
_cell_length_a   7.53534529
_cell_length_b   7.53036301
_cell_length_c   13.23489062
_cell_angle_alpha   84.58757290
_cell_angle_beta   100.87436419
_cell_angle_gamma   119.83102907
_symmetry_Int_Tables_number   1
_chemical_formula_structural   Yb2Dy2(Al8Pt3)3
_chemical_formula_sum   'Yb2 Dy2 Al24 Pt9'
_cell_volume   639.79012674
_cell_formula_units_Z   1
loop_
 _symmetry_equiv_pos_site_id
 _symmetry_equiv_pos_as_xyz
  1  'x, y, z'
loop_
 _atom_site_type_symbol
 _atom_site_label
 _atom_site_symmetry_multiplicity
 _atom_site_fract_x
 _atom_site_fract_y
 _atom_site_fract_z
 _atom_site_occupancy
  Yb  Yb0  1  0.767714  0.501093  0.807710  1
  Yb  Yb1  1  0.232286  0.498907  0.192290  1
  Dy  Dy2  1  0.437160  0.831355  0.808199  1
  Dy  Dy3  1  0.562840  0.168645  0.191801  1
  Al  Al4  1  0.482247  0.166501  0.944569  1
  Al  Al5  1  0.517753  0.833499  0.055431  1
  Al  Al6  1  0.020731  0.168363  0.560735  1
  Al  Al7  1  0.979269  0.831637  0.439265  1
  Al  Al8  1  0.353469  0.833739  0.558887  1
  Al  Al9  1  0.646531  0.166261  0.441113  1
  Al  Al10  1  0.616918  0.833851  0.329233  1
  Al  Al11  1  0.383082  0.166149  0.670767  1
  Al  Al12  1  0.055674  0.493189  0.671065  1
  Al  Al13  1  0.944326  0.506811  0.328935  1
  Al  Al14  1  0.730247  0.839382  0.669090  1
  Al  Al15  1  0.269753  0.160618  0.330910  1
  Al  Al16  1  0.147774  0.499908  0.945859  1
  Al  Al17  1  0.852226  0.500092  0.054141  1
  Al  Al18  1  0.817108  0.832303  0.954746  1
  Al  Al19  1  0.182892  0.167697  0.045254  1
  Al  Al20  1  0.314328  0.500402  0.441082  1
  Al  Al21  1  0.685672  0.499598  0.558918  1
  Al  Al22  1  0.103559  0.838672  0.183210  1
  Al  Al23  1  0.896441  0.161328  0.816790  1
  Al  Al24  1  0.306304  0.371050  0.815768  1
  Al  Al25  1  0.693696  0.628950  0.184232  1
  Al  Al26  1  0.106549  0.960360  0.816405  1
  Al  Al27  1  0.893451  0.039640  0.183595  1
  Pt  Pt28  1  0.387112  0.508193  0.637836  1
  Pt  Pt29  1  0.612888  0.491807  0.362164  1
  Pt  Pt30  1  0.171987  0.829456  0.999905  1
  Pt  Pt31  1  0.828013  0.170544  0.000095  1
  Pt  Pt32  1  0.295459  0.833064  0.362037  1
  Pt  Pt33  1  0.704541  0.166936  0.637963  1
  Pt  Pt34  1  0.045806  0.825794  0.636956  1
  Pt  Pt35  1  0.954194  0.174206  0.363044  1
  Pt  Pt36  1  0.500000  0.500000  0.000000  1
