# generated using pymatgen
data_Zr4AlV4As3
_symmetry_space_group_name_H-M   'P 1'
_cell_length_a   3.57092900
_cell_length_b   6.92257045
_cell_length_c   8.25456289
_cell_angle_alpha   89.68406515
_cell_angle_beta   90.00000000
_cell_angle_gamma   90.00000000
_symmetry_Int_Tables_number   1
_chemical_formula_structural   Zr4AlV4As3
_chemical_formula_sum   'Zr4 Al1 V4 As3'
_cell_volume   204.04975509
_cell_formula_units_Z   1
loop_
 _symmetry_equiv_pos_site_id
 _symmetry_equiv_pos_as_xyz
  1  'x, y, z'
loop_
 _atom_site_type_symbol
 _atom_site_label
 _atom_site_symmetry_multiplicity
 _atom_site_fract_x
 _atom_site_fract_y
 _atom_site_fract_z
 _atom_site_occupancy
  Zr  Zr0  1  0.250000  0.045914  0.830797  1
  Zr  Zr1  1  0.250000  0.546896  0.669228  1
  Zr  Zr2  1  0.750000  0.955592  0.163695  1
  Zr  Zr3  1  0.750000  0.447754  0.331866  1
  Al  Al4  1  0.250000  0.755799  0.363106  1
  V  V5  1  0.250000  0.125055  0.444140  1
  V  V6  1  0.250000  0.619843  0.054407  1
  V  V7  1  0.750000  0.883247  0.561262  1
  V  V8  1  0.750000  0.374202  0.941883  1
  As  As9  1  0.250000  0.256075  0.137633  1
  As  As10  1  0.750000  0.247315  0.638569  1
  As  As11  1  0.750000  0.742308  0.863416  1
