# generated using pymatgen
data_Ac3PdI3
_symmetry_space_group_name_H-M   'P 1'
_cell_length_a   11.46709018
_cell_length_b   11.46805090
_cell_length_c   11.46949901
_cell_angle_alpha   109.47639168
_cell_angle_beta   109.47424259
_cell_angle_gamma   109.46920103
_symmetry_Int_Tables_number   1
_chemical_formula_structural   Ac3PdI3
_chemical_formula_sum   'Ac12 Pd4 I12'
_cell_volume   1161.00022252
_cell_formula_units_Z   4
loop_
 _symmetry_equiv_pos_site_id
 _symmetry_equiv_pos_as_xyz
  1  'x, y, z'
loop_
 _atom_site_type_symbol
 _atom_site_label
 _atom_site_symmetry_multiplicity
 _atom_site_fract_x
 _atom_site_fract_y
 _atom_site_fract_z
 _atom_site_occupancy
  Ac  Ac0  1  0.268738  0.750010  0.231272  1
  Ac  Ac1  1  0.481275  0.750016  0.018742  1
  Ac  Ac2  1  0.231268  0.462540  0.481269  1
  Ac  Ac3  1  0.018720  0.037447  0.268727  1
  Ac  Ac4  1  0.231268  0.268728  0.749999  1
  Ac  Ac5  1  0.018719  0.481272  0.749992  1
  Ac  Ac6  1  0.481275  0.231259  0.462533  1
  Ac  Ac7  1  0.268737  0.018727  0.037466  1
  Ac  Ac8  1  0.749994  0.231259  0.268736  1
  Ac  Ac9  1  0.749993  0.018734  0.481257  1
  Ac  Ac10  1  0.462563  0.481281  0.231281  1
  Ac  Ac11  1  0.037450  0.268725  0.018726  1
  Pd  Pd12  1  0.500001  0.000000  0.250000  1
  Pd  Pd13  1  0.250008  0.500014  0.000007  1
  Pd  Pd14  1  0.999984  0.249992  0.499992  1
  Pd  Pd15  1  0.250008  0.249994  0.250001  1
  I  I16  1  0.249999  0.988901  0.511100  1
  I  I17  1  0.522203  0.511101  0.761101  1
  I  I18  1  0.249999  0.761098  0.738898  1
  I  I19  1  0.977799  0.738900  0.988900  1
  I  I20  1  0.988899  0.511101  0.250000  1
  I  I21  1  0.738901  0.988899  0.977797  1
  I  I22  1  0.761104  0.738898  0.250000  1
  I  I23  1  0.511099  0.761097  0.522199  1
  I  I24  1  0.511099  0.250002  0.988900  1
  I  I25  1  0.761104  0.522206  0.511103  1
  I  I26  1  0.738901  0.250002  0.761104  1
  I  I27  1  0.988899  0.977798  0.738899  1
