# generated using pymatgen
data_Y5Co16(Si4Ru)3
_symmetry_space_group_name_H-M   'P 1'
_cell_length_a   12.22674900
_cell_length_b   12.22674818
_cell_length_c   3.78040600
_cell_angle_alpha   90.00000000
_cell_angle_beta   90.00000000
_cell_angle_gamma   120.00000493
_symmetry_Int_Tables_number   1
_chemical_formula_structural   Y5Co16(Si4Ru)3
_chemical_formula_sum   'Y5 Co16 Si12 Ru3'
_cell_volume   489.43048674
_cell_formula_units_Z   1
loop_
 _symmetry_equiv_pos_site_id
 _symmetry_equiv_pos_as_xyz
  1  'x, y, z'
loop_
 _atom_site_type_symbol
 _atom_site_label
 _atom_site_symmetry_multiplicity
 _atom_site_fract_x
 _atom_site_fract_y
 _atom_site_fract_z
 _atom_site_occupancy
  Y  Y0  1  0.185207  0.185207  0.500000  1
  Y  Y1  1  0.814793  0.000000  0.500000  1
  Y  Y2  1  0.000000  0.814793  0.500000  1
  Y  Y3  1  0.333333  0.666667  0.000000  1
  Y  Y4  1  0.666667  0.333333  0.000000  1
  Co  Co5  1  0.719867  0.719867  0.500000  1
  Co  Co6  1  0.280133  0.000000  0.500000  1
  Co  Co7  1  0.000000  0.280133  0.500000  1
  Co  Co8  1  0.181082  0.377251  0.000000  1
  Co  Co9  1  0.622749  0.803830  0.000000  1
  Co  Co10  1  0.196170  0.818918  0.000000  1
  Co  Co11  1  0.803830  0.622749  0.000000  1
  Co  Co12  1  0.818918  0.196170  0.000000  1
  Co  Co13  1  0.377251  0.181082  0.000000  1
  Co  Co14  1  0.355760  0.478984  0.500000  1
  Co  Co15  1  0.521016  0.876777  0.500000  1
  Co  Co16  1  0.123223  0.644240  0.500000  1
  Co  Co17  1  0.876777  0.521016  0.500000  1
  Co  Co18  1  0.644240  0.123223  0.500000  1
  Co  Co19  1  0.478984  0.355760  0.500000  1
  Co  Co20  1  0.000000  0.000000  0.000000  1
  Si  Si21  1  0.815001  0.815001  0.000000  1
  Si  Si22  1  0.184999  0.000000  0.000000  1
  Si  Si23  1  0.000000  0.184999  0.000000  1
  Si  Si24  1  0.161802  0.477207  0.500000  1
  Si  Si25  1  0.522793  0.684596  0.500000  1
  Si  Si26  1  0.315404  0.838198  0.500000  1
  Si  Si27  1  0.684596  0.522793  0.500000  1
  Si  Si28  1  0.838198  0.315404  0.500000  1
  Si  Si29  1  0.477207  0.161802  0.500000  1
  Si  Si30  1  0.368375  0.368375  0.000000  1
  Si  Si31  1  0.631625  0.000000  0.000000  1
  Si  Si32  1  0.000000  0.631625  0.000000  1
  Ru  Ru33  1  0.559732  0.559732  0.000000  1
  Ru  Ru34  1  0.440268  0.000000  0.000000  1
  Ru  Ru35  1  0.000000  0.440268  0.000000  1
