# generated using pymatgen
data_NdDy4Mn2O12
_symmetry_space_group_name_H-M   'P 1'
_cell_length_a   6.86948316
_cell_length_b   6.86950141
_cell_length_c   7.31812341
_cell_angle_alpha   74.63624814
_cell_angle_beta   74.63632396
_cell_angle_gamma   49.66375281
_symmetry_Int_Tables_number   1
_chemical_formula_structural   NdDy4Mn2O12
_chemical_formula_sum   'Nd1 Dy4 Mn2 O12'
_cell_volume   251.77245395
_cell_formula_units_Z   1
loop_
 _symmetry_equiv_pos_site_id
 _symmetry_equiv_pos_as_xyz
  1  'x, y, z'
loop_
 _atom_site_type_symbol
 _atom_site_label
 _atom_site_symmetry_multiplicity
 _atom_site_fract_x
 _atom_site_fract_y
 _atom_site_fract_z
 _atom_site_occupancy
  Nd  Nd0  1  0.000000  0.000000  0.500000  1
  Dy  Dy1  1  0.306070  0.306068  0.356121  1
  Dy  Dy2  1  0.693930  0.693932  0.643879  1
  Dy  Dy3  1  0.305594  0.305591  0.837086  1
  Dy  Dy4  1  0.694406  0.694409  0.162914  1
  Mn  Mn5  1  0.753533  0.246468  0.000000  1
  Mn  Mn6  1  0.246467  0.753532  0.000000  1
  O  O7  1  0.899467  0.421243  0.920863  1
  O  O8  1  0.421240  0.899466  0.920864  1
  O  O9  1  0.100533  0.578757  0.079137  1
  O  O10  1  0.578760  0.100534  0.079136  1
  O  O11  1  0.095564  0.588313  0.579558  1
  O  O12  1  0.588315  0.095560  0.579558  1
  O  O13  1  0.904436  0.411687  0.420442  1
  O  O14  1  0.411685  0.904440  0.420442  1
  O  O15  1  0.000369  0.000371  0.826434  1
  O  O16  1  0.999631  0.999629  0.173566  1
  O  O17  1  0.499621  0.499623  0.819790  1
  O  O18  1  0.500379  0.500377  0.180210  1
