# generated using pymatgen
data_Rb4GeTe4
_symmetry_space_group_name_H-M   'P 1'
_cell_length_a   9.09989200
_cell_length_b   11.26542000
_cell_length_c   16.24244600
_cell_angle_alpha   90.00000000
_cell_angle_beta   90.00000000
_cell_angle_gamma   90.00000000
_symmetry_Int_Tables_number   1
_chemical_formula_structural   Rb4GeTe4
_chemical_formula_sum   'Rb16 Ge4 Te16'
_cell_volume   1665.07982014
_cell_formula_units_Z   4
loop_
 _symmetry_equiv_pos_site_id
 _symmetry_equiv_pos_as_xyz
  1  'x, y, z'
loop_
 _atom_site_type_symbol
 _atom_site_label
 _atom_site_symmetry_multiplicity
 _atom_site_fract_x
 _atom_site_fract_y
 _atom_site_fract_z
 _atom_site_occupancy
  Rb  Rb0  1  0.500000  0.500000  0.500000  1
  Rb  Rb1  1  0.164526  0.461103  0.269371  1
  Rb  Rb2  1  0.164526  0.038897  0.269371  1
  Rb  Rb3  1  0.006933  0.750000  0.414386  1
  Rb  Rb4  1  0.993067  0.250000  0.585614  1
  Rb  Rb5  1  0.664526  0.961103  0.230629  1
  Rb  Rb6  1  0.335474  0.038897  0.769371  1
  Rb  Rb7  1  0.835474  0.961103  0.730629  1
  Rb  Rb8  1  0.335474  0.461103  0.769371  1
  Rb  Rb9  1  0.000000  0.500000  0.000000  1
  Rb  Rb10  1  0.506933  0.250000  0.085614  1
  Rb  Rb11  1  0.664526  0.538897  0.230629  1
  Rb  Rb12  1  0.493067  0.750000  0.914386  1
  Rb  Rb13  1  0.000000  0.000000  0.000000  1
  Rb  Rb14  1  0.835474  0.538897  0.730629  1
  Rb  Rb15  1  0.500000  0.000000  0.500000  1
  Ge  Ge16  1  0.725790  0.250000  0.836833  1
  Ge  Ge17  1  0.774210  0.250000  0.336833  1
  Ge  Ge18  1  0.225790  0.750000  0.663167  1
  Ge  Ge19  1  0.274210  0.750000  0.163167  1
  Te  Te20  1  0.517751  0.750000  0.671300  1
  Te  Te21  1  0.482249  0.250000  0.328700  1
  Te  Te22  1  0.380026  0.750000  0.315982  1
  Te  Te23  1  0.119974  0.750000  0.815982  1
  Te  Te24  1  0.017751  0.250000  0.828700  1
  Te  Te25  1  0.982249  0.750000  0.171300  1
  Te  Te26  1  0.619974  0.250000  0.684018  1
  Te  Te27  1  0.880026  0.250000  0.184018  1
  Te  Te28  1  0.865060  0.437857  0.417719  1
  Te  Te29  1  0.634940  0.062143  0.917719  1
  Te  Te30  1  0.365060  0.937857  0.082281  1
  Te  Te31  1  0.365060  0.562143  0.082281  1
  Te  Te32  1  0.134940  0.562143  0.582281  1
  Te  Te33  1  0.865060  0.062143  0.417719  1
  Te  Te34  1  0.134940  0.937857  0.582281  1
  Te  Te35  1  0.634940  0.437857  0.917719  1
