# generated using pymatgen
data_ErLu3(Co5As3)4
_symmetry_space_group_name_H-M   'P 1'
_cell_length_a   3.76830800
_cell_length_b   12.15869945
_cell_length_c   10.65821554
_cell_angle_alpha   90.03385461
_cell_angle_beta   90.00000000
_cell_angle_gamma   90.00000000
_symmetry_Int_Tables_number   1
_chemical_formula_structural   ErLu3(Co5As3)4
_chemical_formula_sum   'Er1 Lu3 Co20 As12'
_cell_volume   488.33509708
_cell_formula_units_Z   1
loop_
 _symmetry_equiv_pos_site_id
 _symmetry_equiv_pos_as_xyz
  1  'x, y, z'
loop_
 _atom_site_type_symbol
 _atom_site_label
 _atom_site_symmetry_multiplicity
 _atom_site_fract_x
 _atom_site_fract_y
 _atom_site_fract_z
 _atom_site_occupancy
  Er  Er0  1  0.750000  0.701767  0.081395  1
  Lu  Lu1  1  0.250000  0.298740  0.919005  1
  Lu  Lu2  1  0.250000  0.798628  0.580974  1
  Lu  Lu3  1  0.750000  0.201262  0.419096  1
  Co  Co4  1  0.750000  0.697584  0.385179  1
  Co  Co5  1  0.250000  0.302242  0.615301  1
  Co  Co6  1  0.250000  0.802922  0.884007  1
  Co  Co7  1  0.750000  0.197751  0.115430  1
  Co  Co8  1  0.750000  0.991466  0.213092  1
  Co  Co9  1  0.250000  0.008538  0.786902  1
  Co  Co10  1  0.250000  0.508041  0.712882  1
  Co  Co11  1  0.750000  0.491420  0.287060  1
  Co  Co12  1  0.750000  0.677793  0.783924  1
  Co  Co13  1  0.250000  0.322016  0.216002  1
  Co  Co14  1  0.250000  0.822355  0.284417  1
  Co  Co15  1  0.750000  0.177691  0.715719  1
  Co  Co16  1  0.750000  0.932446  0.968781  1
  Co  Co17  1  0.250000  0.069022  0.030602  1
  Co  Co18  1  0.250000  0.568200  0.469754  1
  Co  Co19  1  0.750000  0.431434  0.530896  1
  Co  Co20  1  0.750000  0.986833  0.592501  1
  Co  Co21  1  0.250000  0.013133  0.407439  1
  Co  Co22  1  0.250000  0.512142  0.092408  1
  Co  Co23  1  0.750000  0.486565  0.907114  1
  As  As24  1  0.750000  0.614808  0.585103  1
  As  As25  1  0.250000  0.384925  0.415117  1
  As  As26  1  0.250000  0.886191  0.084905  1
  As  As27  1  0.750000  0.115331  0.914975  1
  As  As28  1  0.750000  0.890105  0.400402  1
  As  As29  1  0.250000  0.109763  0.599510  1
  As  As30  1  0.250000  0.609531  0.899741  1
  As  As31  1  0.750000  0.390108  0.099512  1
  As  As32  1  0.750000  0.869966  0.767740  1
  As  As33  1  0.250000  0.130012  0.232339  1
  As  As34  1  0.250000  0.629618  0.268640  1
  As  As35  1  0.750000  0.369651  0.732140  1
