# generated using pymatgen
data_NdEr7(MgSn4)2
_symmetry_space_group_name_H-M   'P 1'
_cell_length_a   7.67127115
_cell_length_b   8.23167338
_cell_length_c   15.24448127
_cell_angle_alpha   90.06243707
_cell_angle_beta   90.00215275
_cell_angle_gamma   89.97735999
_symmetry_Int_Tables_number   1
_chemical_formula_structural   NdEr7(MgSn4)2
_chemical_formula_sum   'Nd2 Er14 Mg4 Sn16'
_cell_volume   962.64868668
_cell_formula_units_Z   2
loop_
 _symmetry_equiv_pos_site_id
 _symmetry_equiv_pos_as_xyz
  1  'x, y, z'
loop_
 _atom_site_type_symbol
 _atom_site_label
 _atom_site_symmetry_multiplicity
 _atom_site_fract_x
 _atom_site_fract_y
 _atom_site_fract_z
 _atom_site_occupancy
  Nd  Nd0  1  0.999295  0.183984  0.091891  1
  Nd  Nd1  1  0.000705  0.816016  0.908109  1
  Er  Er2  1  0.501399  0.683991  0.908646  1
  Er  Er3  1  0.001479  0.814891  0.591438  1
  Er  Er4  1  0.498601  0.316009  0.091354  1
  Er  Er5  1  0.998521  0.185109  0.408562  1
  Er  Er6  1  0.498889  0.315275  0.409963  1
  Er  Er7  1  0.501111  0.684725  0.590037  1
  Er  Er8  1  0.335705  0.169094  0.628192  1
  Er  Er9  1  0.664295  0.830906  0.371808  1
  Er  Er10  1  0.164776  0.669034  0.371867  1
  Er  Er11  1  0.664199  0.830354  0.129396  1
  Er  Er12  1  0.835224  0.330966  0.628133  1
  Er  Er13  1  0.335801  0.169646  0.870604  1
  Er  Er14  1  0.834770  0.331446  0.870855  1
  Er  Er15  1  0.165230  0.668554  0.129145  1
  Mg  Mg16  1  0.159275  0.504197  0.749707  1
  Mg  Mg17  1  0.840725  0.495803  0.250293  1
  Mg  Mg18  1  0.341005  0.004646  0.250136  1
  Mg  Mg19  1  0.658995  0.995354  0.749864  1
  Sn  Sn20  1  0.022992  0.094621  0.748633  1
  Sn  Sn21  1  0.977008  0.905379  0.251367  1
  Sn  Sn22  1  0.478451  0.592299  0.250407  1
  Sn  Sn23  1  0.521549  0.407701  0.749593  1
  Sn  Sn24  1  0.182526  0.463009  0.538834  1
  Sn  Sn25  1  0.817474  0.536991  0.461166  1
  Sn  Sn26  1  0.317003  0.962939  0.461223  1
  Sn  Sn27  1  0.815011  0.537933  0.038534  1
  Sn  Sn28  1  0.682997  0.037061  0.538777  1
  Sn  Sn29  1  0.184989  0.462067  0.961466  1
  Sn  Sn30  1  0.676621  0.038831  0.961612  1
  Sn  Sn31  1  0.323379  0.961169  0.038388  1
  Sn  Sn32  1  0.304782  0.847271  0.748604  1
  Sn  Sn33  1  0.695218  0.152729  0.251396  1
  Sn  Sn34  1  0.200348  0.349276  0.252171  1
  Sn  Sn35  1  0.799652  0.650724  0.747829  1
