# generated using pymatgen
data_ErTm9Os3Ru
_symmetry_space_group_name_H-M   'P 1'
_cell_length_a   6.26381803
_cell_length_b   7.29622301
_cell_length_c   8.31195383
_cell_angle_alpha   96.91108778
_cell_angle_beta   112.20672641
_cell_angle_gamma   90.09403235
_symmetry_Int_Tables_number   1
_chemical_formula_structural   ErTm9Os3Ru
_chemical_formula_sum   'Er1 Tm9 Os3 Ru1'
_cell_volume   348.68340602
_cell_formula_units_Z   1
loop_
 _symmetry_equiv_pos_site_id
 _symmetry_equiv_pos_as_xyz
  1  'x, y, z'
loop_
 _atom_site_type_symbol
 _atom_site_label
 _atom_site_symmetry_multiplicity
 _atom_site_fract_x
 _atom_site_fract_y
 _atom_site_fract_z
 _atom_site_occupancy
  Er  Er0  1  0.793539  0.083796  0.816826  1
  Tm  Tm1  1  0.975181  0.416345  0.182969  1
  Tm  Tm2  1  0.208301  0.916373  0.185498  1
  Tm  Tm3  1  0.024843  0.584759  0.817348  1
  Tm  Tm4  1  0.203314  0.183094  0.564303  1
  Tm  Tm5  1  0.640489  0.317219  0.436159  1
  Tm  Tm6  1  0.794705  0.816059  0.434594  1
  Tm  Tm7  1  0.360202  0.682155  0.563286  1
  Tm  Tm8  1  0.420492  0.249941  0.000167  1
  Tm  Tm9  1  0.580374  0.749915  0.000548  1
  Os  Os10  1  0.602594  0.422399  0.780321  1
  Os  Os11  1  0.822307  0.077740  0.219939  1
  Os  Os12  1  0.396961  0.578026  0.218927  1
  Ru  Ru13  1  0.176699  0.922178  0.779118  1
