# generated using pymatgen
data_TbY(Al5Rh)4
_symmetry_space_group_name_H-M   'P 1'
_cell_length_a   6.85846303
_cell_length_b   6.85846416
_cell_length_c   9.14929000
_cell_angle_alpha   90.00000000
_cell_angle_beta   90.00000000
_cell_angle_gamma   97.22259847
_symmetry_Int_Tables_number   1
_chemical_formula_structural   TbY(Al5Rh)4
_chemical_formula_sum   'Tb1 Y1 Al20 Rh4'
_cell_volume   426.95419008
_cell_formula_units_Z   1
loop_
 _symmetry_equiv_pos_site_id
 _symmetry_equiv_pos_as_xyz
  1  'x, y, z'
loop_
 _atom_site_type_symbol
 _atom_site_label
 _atom_site_symmetry_multiplicity
 _atom_site_fract_x
 _atom_site_fract_y
 _atom_site_fract_z
 _atom_site_occupancy
  Tb  Tb0  1  0.871805  0.128195  0.750000  1
  Y  Y1  1  0.128514  0.871486  0.250000  1
  Al  Al2  1  0.621963  0.378037  0.550002  1
  Al  Al3  1  0.378096  0.621904  0.449832  1
  Al  Al4  1  0.378096  0.621904  0.050168  1
  Al  Al5  1  0.621963  0.378037  0.949998  1
  Al  Al6  1  0.221360  0.221275  0.499876  1
  Al  Al7  1  0.778725  0.778640  0.499876  1
  Al  Al8  1  0.778725  0.778640  0.000124  1
  Al  Al9  1  0.221360  0.221275  0.000124  1
  Al  Al10  1  0.845849  0.154151  0.103145  1
  Al  Al11  1  0.154046  0.845954  0.896765  1
  Al  Al12  1  0.154046  0.845954  0.603235  1
  Al  Al13  1  0.845849  0.154151  0.396855  1
  Al  Al14  1  0.858144  0.592568  0.750000  1
  Al  Al15  1  0.142253  0.407632  0.250000  1
  Al  Al16  1  0.407432  0.141856  0.750000  1
  Al  Al17  1  0.592368  0.857747  0.250000  1
  Al  Al18  1  0.225947  0.480923  0.750000  1
  Al  Al19  1  0.773753  0.519147  0.250000  1
  Al  Al20  1  0.519077  0.774053  0.750000  1
  Al  Al21  1  0.480853  0.226247  0.250000  1
  Rh  Rh22  1  0.999841  0.499953  0.499818  1
  Rh  Rh23  1  0.999841  0.499953  0.000182  1
  Rh  Rh24  1  0.500047  0.000159  0.000182  1
  Rh  Rh25  1  0.500047  0.000159  0.499818  1
