# generated using pymatgen
data_Ba6Li2Ta2V2O17
_symmetry_space_group_name_H-M   'P 1'
_cell_length_a   5.86230635
_cell_length_b   5.86230569
_cell_length_c   14.88807888
_cell_angle_alpha   89.99702415
_cell_angle_beta   89.99702258
_cell_angle_gamma   59.93531138
_symmetry_Int_Tables_number   1
_chemical_formula_structural   Ba6Li2Ta2V2O17
_chemical_formula_sum   'Ba6 Li2 Ta2 V2 O17'
_cell_volume   442.81548651
_cell_formula_units_Z   1
loop_
 _symmetry_equiv_pos_site_id
 _symmetry_equiv_pos_as_xyz
  1  'x, y, z'
loop_
 _atom_site_type_symbol
 _atom_site_label
 _atom_site_symmetry_multiplicity
 _atom_site_fract_x
 _atom_site_fract_y
 _atom_site_fract_z
 _atom_site_occupancy
  Ba  Ba0  1  0.665256  0.667745  0.658674  1
  Ba  Ba1  1  0.332255  0.334744  0.341326  1
  Ba  Ba2  1  0.331603  0.334524  0.815551  1
  Ba  Ba3  1  0.665476  0.668397  0.184449  1
  Ba  Ba4  1  0.999382  0.000618  0.500000  1
  Ba  Ba5  1  0.015618  0.984382  0.000000  1
  Li  Li6  1  0.002170  0.998182  0.722816  1
  Li  Li7  1  0.001818  0.997830  0.277184  1
  Ta  Ta8  1  0.332879  0.333674  0.585880  1
  Ta  Ta9  1  0.666326  0.667121  0.414120  1
  V  V10  1  0.661680  0.670394  0.892618  1
  V  V11  1  0.329606  0.338320  0.107382  1
  O  O12  1  0.825445  0.826423  0.849450  1
  O  O13  1  0.348663  0.824974  0.843501  1
  O  O14  1  0.827003  0.345942  0.853641  1
  O  O15  1  0.173577  0.174555  0.150550  1
  O  O16  1  0.654058  0.172997  0.146359  1
  O  O17  1  0.175026  0.651337  0.156499  1
  O  O18  1  0.499808  0.500192  0.500000  1
  O  O19  1  0.000194  0.499962  0.499498  1
  O  O20  1  0.500038  0.999807  0.500502  1
  O  O21  1  0.171979  0.175748  0.657273  1
  O  O22  1  0.651043  0.175121  0.657760  1
  O  O23  1  0.172040  0.653149  0.656990  1
  O  O24  1  0.824252  0.828021  0.342727  1
  O  O25  1  0.346851  0.827960  0.343010  1
  O  O26  1  0.824879  0.348957  0.342240  1
  O  O27  1  0.633629  0.695579  0.008444  1
  O  O28  1  0.304421  0.366371  0.991556  1
