# generated using pymatgen
data_Cs2Nb2OF10
_symmetry_space_group_name_H-M   'P 1'
_cell_length_a   5.44616100
_cell_length_b   7.68907734
_cell_length_c   14.35319003
_cell_angle_alpha   80.15564168
_cell_angle_beta   90.00000000
_cell_angle_gamma   90.00000000
_symmetry_Int_Tables_number   1
_chemical_formula_structural   Cs2Nb2OF10
_chemical_formula_sum   'Cs4 Nb4 O2 F20'
_cell_volume   592.20349713
_cell_formula_units_Z   2
loop_
 _symmetry_equiv_pos_site_id
 _symmetry_equiv_pos_as_xyz
  1  'x, y, z'
loop_
 _atom_site_type_symbol
 _atom_site_label
 _atom_site_symmetry_multiplicity
 _atom_site_fract_x
 _atom_site_fract_y
 _atom_site_fract_z
 _atom_site_occupancy
  Cs  Cs0  1  0.414290  0.231799  0.592341  1
  Cs  Cs1  1  0.585710  0.231799  0.092341  1
  Cs  Cs2  1  0.585710  0.768201  0.407659  1
  Cs  Cs3  1  0.414290  0.768201  0.907659  1
  Nb  Nb4  1  0.015764  0.290778  0.335689  1
  Nb  Nb5  1  0.984236  0.290778  0.835689  1
  Nb  Nb6  1  0.015764  0.709222  0.164311  1
  Nb  Nb7  1  0.984236  0.709222  0.664311  1
  O  O8  1  0.095553  0.500000  0.750000  1
  O  O9  1  0.904447  0.500000  0.250000  1
  F  F10  1  0.725922  0.849256  0.182149  1
  F  F11  1  0.693823  0.581782  0.633103  1
  F  F12  1  0.163638  0.791142  0.272418  1
  F  F13  1  0.836288  0.085702  0.917484  1
  F  F14  1  0.306177  0.418218  0.366897  1
  F  F15  1  0.163712  0.914298  0.082516  1
  F  F16  1  0.163638  0.208858  0.227582  1
  F  F17  1  0.274078  0.849256  0.682149  1
  F  F18  1  0.836362  0.208858  0.727582  1
  F  F19  1  0.693823  0.418218  0.866897  1
  F  F20  1  0.163712  0.085702  0.417484  1
  F  F21  1  0.150897  0.359188  0.944964  1
  F  F22  1  0.274078  0.150744  0.817851  1
  F  F23  1  0.849103  0.640812  0.055036  1
  F  F24  1  0.836362  0.791142  0.772418  1
  F  F25  1  0.725922  0.150744  0.317851  1
  F  F26  1  0.836288  0.914298  0.582516  1
  F  F27  1  0.849103  0.359188  0.444964  1
  F  F28  1  0.306177  0.581782  0.133103  1
  F  F29  1  0.150897  0.640812  0.555036  1
