# generated using pymatgen
data_La2Pr6Er12Ga12Si3Pd
_symmetry_space_group_name_H-M   'P 1'
_cell_length_a   7.67090414
_cell_length_b   8.06450528
_cell_length_c   15.14145800
_cell_angle_alpha   89.90001570
_cell_angle_beta   89.98892313
_cell_angle_gamma   90.00196288
_symmetry_Int_Tables_number   1
_chemical_formula_structural   La2Pr6Er12Ga12Si3Pd
_chemical_formula_sum   'La2 Pr6 Er12 Ga12 Si3 Pd1'
_cell_volume   936.68014213
_cell_formula_units_Z   1
loop_
 _symmetry_equiv_pos_site_id
 _symmetry_equiv_pos_as_xyz
  1  'x, y, z'
loop_
 _atom_site_type_symbol
 _atom_site_label
 _atom_site_symmetry_multiplicity
 _atom_site_fract_x
 _atom_site_fract_y
 _atom_site_fract_z
 _atom_site_occupancy
  La  La0  1  0.520018  0.570412  0.344848  1
  La  La1  1  0.020184  0.427961  0.655688  1
  Pr  Pr2  1  0.480170  0.932414  0.844909  1
  Pr  Pr3  1  0.979781  0.073457  0.154125  1
  Pr  Pr4  1  0.479837  0.933184  0.153915  1
  Pr  Pr5  1  0.979413  0.072934  0.846817  1
  Pr  Pr6  1  0.521234  0.568778  0.653234  1
  Pr  Pr7  1  0.021724  0.428995  0.346114  1
  Er  Er8  1  0.815521  0.578376  0.876596  1
  Er  Er9  1  0.320172  0.422623  0.124354  1
  Er  Er10  1  0.178835  0.923460  0.372661  1
  Er  Er11  1  0.679468  0.074675  0.626565  1
  Er  Er12  1  0.179807  0.923402  0.628288  1
  Er  Er13  1  0.680388  0.074807  0.372717  1
  Er  Er14  1  0.817487  0.577031  0.124063  1
  Er  Er15  1  0.321443  0.424244  0.875037  1
  Er  Er16  1  0.646740  0.237207  0.999479  1
  Er  Er17  1  0.158917  0.760844  0.000223  1
  Er  Er18  1  0.348162  0.263596  0.499895  1
  Er  Er19  1  0.847865  0.735161  0.500149  1
  Ga  Ga20  1  0.020311  0.358192  0.999856  1
  Ga  Ga21  1  0.475804  0.858032  0.500302  1
  Ga  Ga22  1  0.976286  0.139383  0.499758  1
  Ga  Ga23  1  0.652497  0.282267  0.791206  1
  Ga  Ga24  1  0.152818  0.715806  0.207970  1
  Ga  Ga25  1  0.347381  0.217071  0.291451  1
  Ga  Ga26  1  0.849150  0.782046  0.709009  1
  Ga  Ga27  1  0.350348  0.218381  0.708424  1
  Ga  Ga28  1  0.852684  0.780714  0.291102  1
  Ga  Ga29  1  0.651568  0.280533  0.207751  1
  Ga  Ga30  1  0.150831  0.717422  0.793019  1
  Ga  Ga31  1  0.773208  0.878872  0.000199  1
  Si  Si32  1  0.266779  0.131178  0.999906  1
  Si  Si33  1  0.230573  0.631543  0.500484  1
  Si  Si34  1  0.730513  0.365817  0.499401  1
  Pd  Pd35  1  0.522080  0.639180  0.000491  1
