# generated using pymatgen
data_Ca9Yb5(InN4)2
_symmetry_space_group_name_H-M   'P 1'
_cell_length_a   3.56633402
_cell_length_b   12.12781388
_cell_length_c   11.60381975
_cell_angle_alpha   89.93735861
_cell_angle_beta   90.00600314
_cell_angle_gamma   89.98812829
_symmetry_Int_Tables_number   1
_chemical_formula_structural   Ca9Yb5(InN4)2
_chemical_formula_sum   'Ca9 Yb5 In2 N8'
_cell_volume   501.88618679
_cell_formula_units_Z   1
loop_
 _symmetry_equiv_pos_site_id
 _symmetry_equiv_pos_as_xyz
  1  'x, y, z'
loop_
 _atom_site_type_symbol
 _atom_site_label
 _atom_site_symmetry_multiplicity
 _atom_site_fract_x
 _atom_site_fract_y
 _atom_site_fract_z
 _atom_site_occupancy
  Ca  Ca0  1  0.499241  0.669748  0.236101  1
  Ca  Ca1  1  0.499147  0.330185  0.762806  1
  Ca  Ca2  1  0.500800  0.169702  0.263056  1
  Ca  Ca3  1  0.500848  0.831015  0.738806  1
  Ca  Ca4  1  0.999206  0.928127  0.267323  1
  Ca  Ca5  1  0.999205  0.072151  0.732162  1
  Ca  Ca6  1  0.000825  0.427900  0.231994  1
  Ca  Ca7  1  0.000737  0.572033  0.768134  1
  Ca  Ca8  1  0.002067  0.767653  0.480940  1
  Yb  Yb9  1  0.499582  0.499827  0.999909  1
  Yb  Yb10  1  0.500505  0.000008  0.499935  1
  Yb  Yb11  1  0.001496  0.231588  0.519542  1
  Yb  Yb12  1  0.998508  0.268597  0.019577  1
  Yb  Yb13  1  0.998446  0.731234  0.980508  1
  In  In14  1  0.539730  0.499250  0.500048  1
  In  In15  1  0.459648  0.000193  0.999965  1
  N  N16  1  0.999067  0.598731  0.127278  1
  N  N17  1  0.999014  0.400760  0.872103  1
  N  N18  1  0.000975  0.099505  0.372516  1
  N  N19  1  0.000956  0.901366  0.629589  1
  N  N20  1  0.500489  0.831477  0.359726  1
  N  N21  1  0.500467  0.169079  0.637684  1
  N  N22  1  0.499571  0.331004  0.137541  1
  N  N23  1  0.499468  0.668865  0.862756  1
