# generated using pymatgen
data_YTh2AlGa2Ni3
_symmetry_space_group_name_H-M   'P 1'
_cell_length_a   7.09503955
_cell_length_b   7.03753511
_cell_length_c   3.97813000
_cell_angle_alpha   90.00000000
_cell_angle_beta   90.00000000
_cell_angle_gamma   120.57097416
_symmetry_Int_Tables_number   1
_chemical_formula_structural   YTh2AlGa2Ni3
_chemical_formula_sum   'Y1 Th2 Al1 Ga2 Ni3'
_cell_volume   171.02413973
_cell_formula_units_Z   1
loop_
 _symmetry_equiv_pos_site_id
 _symmetry_equiv_pos_as_xyz
  1  'x, y, z'
loop_
 _atom_site_type_symbol
 _atom_site_label
 _atom_site_symmetry_multiplicity
 _atom_site_fract_x
 _atom_site_fract_y
 _atom_site_fract_z
 _atom_site_occupancy
  Y  Y0  1  0.417940  0.417636  0.000000  1
  Th  Th1  1  0.998906  0.581834  0.000000  1
  Th  Th2  1  0.577906  0.998542  0.000000  1
  Al  Al3  1  0.007165  0.230577  0.500000  1
  Ga  Ga4  1  0.237193  0.009783  0.500000  1
  Ga  Ga5  1  0.757939  0.759759  0.500000  1
  Ni  Ni6  1  0.678410  0.331108  0.500000  1
  Ni  Ni7  1  0.995358  0.998764  0.000000  1
  Ni  Ni8  1  0.329183  0.671996  0.500000  1
