# generated using pymatgen
data_Nd11(ThIr2)3
_symmetry_space_group_name_H-M   'P 1'
_cell_length_a   9.92785900
_cell_length_b   10.20291035
_cell_length_c   6.41926911
_cell_angle_alpha   90.12551114
_cell_angle_beta   90.00000000
_cell_angle_gamma   119.11216497
_symmetry_Int_Tables_number   1
_chemical_formula_structural   Nd11(ThIr2)3
_chemical_formula_sum   'Nd11 Th3 Ir6'
_cell_volume   568.08168404
_cell_formula_units_Z   1
loop_
 _symmetry_equiv_pos_site_id
 _symmetry_equiv_pos_as_xyz
  1  'x, y, z'
loop_
 _atom_site_type_symbol
 _atom_site_label
 _atom_site_symmetry_multiplicity
 _atom_site_fract_x
 _atom_site_fract_y
 _atom_site_fract_z
 _atom_site_occupancy
  Nd  Nd0  1  0.461425  0.534372  0.297121  1
  Nd  Nd1  1  0.072946  0.534372  0.297121  1
  Nd  Nd2  1  0.925963  0.465170  0.799024  1
  Nd  Nd3  1  0.251008  0.125657  0.503743  1
  Nd  Nd4  1  0.538510  0.077019  0.805783  1
  Nd  Nd5  1  0.748182  0.874424  0.003143  1
  Nd  Nd6  1  0.664289  0.328577  0.279911  1
  Nd  Nd7  1  0.126242  0.874424  0.003143  1
  Nd  Nd8  1  0.461497  0.922995  0.304389  1
  Nd  Nd9  1  0.539208  0.465170  0.799024  1
  Nd  Nd10  1  0.874649  0.125657  0.503743  1
  Th  Th11  1  0.126408  0.252816  0.994556  1
  Th  Th12  1  0.874180  0.748360  0.489725  1
  Th  Th13  1  0.335119  0.670239  0.768707  1
  Ir  Ir14  1  0.810392  0.620784  0.071401  1
  Ir  Ir15  1  0.825953  0.194574  0.044515  1
  Ir  Ir16  1  0.624855  0.802351  0.550542  1
  Ir  Ir17  1  0.368621  0.194574  0.044515  1
  Ir  Ir18  1  0.193058  0.386116  0.573354  1
  Ir  Ir19  1  0.177495  0.802351  0.550542  1
