# generated using pymatgen
data_Pr4Ga4PdPt3
_symmetry_space_group_name_H-M   'P 1'
_cell_length_a   4.52722500
_cell_length_b   7.22009872
_cell_length_c   7.90295709
_cell_angle_alpha   89.30079405
_cell_angle_beta   90.00000000
_cell_angle_gamma   90.00000000
_symmetry_Int_Tables_number   1
_chemical_formula_structural   Pr4Ga4PdPt3
_chemical_formula_sum   'Pr4 Ga4 Pd1 Pt3'
_cell_volume   258.30481349
_cell_formula_units_Z   1
loop_
 _symmetry_equiv_pos_site_id
 _symmetry_equiv_pos_as_xyz
  1  'x, y, z'
loop_
 _atom_site_type_symbol
 _atom_site_label
 _atom_site_symmetry_multiplicity
 _atom_site_fract_x
 _atom_site_fract_y
 _atom_site_fract_z
 _atom_site_occupancy
  Pr  Pr0  1  0.250000  0.021605  0.696175  1
  Pr  Pr1  1  0.250000  0.519607  0.804419  1
  Pr  Pr2  1  0.750000  0.973933  0.301785  1
  Pr  Pr3  1  0.750000  0.479750  0.195731  1
  Ga  Ga4  1  0.250000  0.164838  0.074518  1
  Ga  Ga5  1  0.250000  0.669689  0.426973  1
  Ga  Ga6  1  0.750000  0.832328  0.923835  1
  Ga  Ga7  1  0.750000  0.332201  0.574352  1
  Pd  Pd8  1  0.250000  0.288064  0.400920  1
  Pt  Pt9  1  0.250000  0.781213  0.098668  1
  Pt  Pt10  1  0.750000  0.718844  0.599623  1
  Pt  Pt11  1  0.750000  0.217929  0.903001  1
