# generated using pymatgen
data_Tb7(DyGa4)5
_symmetry_space_group_name_H-M   'P 1'
_cell_length_a   11.60266511
_cell_length_b   9.65438905
_cell_length_c   6.11288708
_cell_angle_alpha   89.98932239
_cell_angle_beta   89.98447962
_cell_angle_gamma   90.00387858
_symmetry_Int_Tables_number   1
_chemical_formula_structural   Tb7(DyGa4)5
_chemical_formula_sum   'Tb7 Dy5 Ga20'
_cell_volume   684.74505138
_cell_formula_units_Z   1
loop_
 _symmetry_equiv_pos_site_id
 _symmetry_equiv_pos_as_xyz
  1  'x, y, z'
loop_
 _atom_site_type_symbol
 _atom_site_label
 _atom_site_symmetry_multiplicity
 _atom_site_fract_x
 _atom_site_fract_y
 _atom_site_fract_z
 _atom_site_occupancy
  Tb  Tb0  1  0.351433  0.009300  0.109322  1
  Tb  Tb1  1  0.351297  0.490691  0.109316  1
  Tb  Tb2  1  0.851097  0.009242  0.390687  1
  Tb  Tb3  1  0.851186  0.490742  0.390662  1
  Tb  Tb4  1  0.148758  0.509215  0.609355  1
  Tb  Tb5  1  0.148771  0.990728  0.609383  1
  Tb  Tb6  1  0.648769  0.509343  0.890620  1
  Dy  Dy7  1  0.075200  0.249978  0.151358  1
  Dy  Dy8  1  0.575265  0.250014  0.348440  1
  Dy  Dy9  1  0.424856  0.750064  0.651400  1
  Dy  Dy10  1  0.924680  0.750019  0.848672  1
  Dy  Dy11  1  0.648814  0.990671  0.890654  1
  Ga  Ga12  1  0.799774  0.249961  0.100572  1
  Ga  Ga13  1  0.090105  0.553930  0.124730  1
  Ga  Ga14  1  0.090097  0.946066  0.124709  1
  Ga  Ga15  1  0.495773  0.750100  0.128003  1
  Ga  Ga16  1  0.747351  0.750191  0.172350  1
  Ga  Ga17  1  0.247538  0.749990  0.327610  1
  Ga  Ga18  1  0.995669  0.750006  0.371703  1
  Ga  Ga19  1  0.590133  0.553974  0.375235  1
  Ga  Ga20  1  0.590169  0.946191  0.374925  1
  Ga  Ga21  1  0.299823  0.249994  0.399413  1
  Ga  Ga22  1  0.700107  0.750323  0.600949  1
  Ga  Ga23  1  0.409988  0.053883  0.624757  1
  Ga  Ga24  1  0.409903  0.446056  0.624785  1
  Ga  Ga25  1  0.004281  0.249955  0.628333  1
  Ga  Ga26  1  0.752266  0.249763  0.672676  1
  Ga  Ga27  1  0.252574  0.249978  0.827550  1
  Ga  Ga28  1  0.504590  0.249718  0.871808  1
  Ga  Ga29  1  0.909647  0.053844  0.875309  1
  Ga  Ga30  1  0.909895  0.446068  0.875285  1
  Ga  Ga31  1  0.200192  0.750000  0.899431  1
