# generated using pymatgen
data_Tb9Y2Cd9Pd4
_symmetry_space_group_name_H-M   'P 1'
_cell_length_a   13.21901845
_cell_length_b   13.21795399
_cell_length_c   3.72238500
_cell_angle_alpha   90.00000000
_cell_angle_beta   90.00000000
_cell_angle_gamma   112.86044205
_symmetry_Int_Tables_number   1
_chemical_formula_structural   Tb9Y2Cd9Pd4
_chemical_formula_sum   'Tb9 Y2 Cd9 Pd4'
_cell_volume   599.31937771
_cell_formula_units_Z   1
loop_
 _symmetry_equiv_pos_site_id
 _symmetry_equiv_pos_as_xyz
  1  'x, y, z'
loop_
 _atom_site_type_symbol
 _atom_site_label
 _atom_site_symmetry_multiplicity
 _atom_site_fract_x
 _atom_site_fract_y
 _atom_site_fract_z
 _atom_site_occupancy
  Tb  Tb0  1  0.584332  0.924440  0.000000  1
  Tb  Tb1  1  0.075299  0.415549  0.000000  1
  Tb  Tb2  1  0.924770  0.584354  0.000000  1
  Tb  Tb3  1  0.162834  0.837174  0.000000  1
  Tb  Tb4  1  0.837458  0.163196  0.000000  1
  Tb  Tb5  1  0.372403  0.627388  0.000000  1
  Tb  Tb6  1  0.627122  0.372471  0.000000  1
  Tb  Tb7  1  0.307815  0.307933  0.000000  1
  Tb  Tb8  1  0.692375  0.692467  0.000000  1
  Y  Y9  1  0.415509  0.074635  0.000000  1
  Y  Y10  1  0.000177  0.000038  0.000000  1
  Cd  Cd11  1  0.366759  0.842768  0.500000  1
  Cd  Cd12  1  0.633069  0.157560  0.500000  1
  Cd  Cd13  1  0.842232  0.366438  0.500000  1
  Cd  Cd14  1  0.157656  0.633378  0.500000  1
  Cd  Cd15  1  0.214011  0.068658  0.500000  1
  Cd  Cd16  1  0.786227  0.931106  0.500000  1
  Cd  Cd17  1  0.068932  0.213794  0.500000  1
  Cd  Cd18  1  0.931086  0.786194  0.500000  1
  Cd  Cd19  1  0.499873  0.499897  0.500000  1
  Pd  Pd20  1  0.450974  0.250143  0.500000  1
  Pd  Pd21  1  0.549292  0.750731  0.500000  1
  Pd  Pd22  1  0.249330  0.450666  0.500000  1
  Pd  Pd23  1  0.750465  0.549021  0.500000  1
