# generated using pymatgen
data_La19PrSi15Cl
_symmetry_space_group_name_H-M   'P 1'
_cell_length_a   8.08493509
_cell_length_b   8.00165956
_cell_length_c   15.53780921
_cell_angle_alpha   89.54168138
_cell_angle_beta   89.15070798
_cell_angle_gamma   90.81340023
_symmetry_Int_Tables_number   1
_chemical_formula_structural   La19PrSi15Cl
_chemical_formula_sum   'La19 Pr1 Si15 Cl1'
_cell_volume   1004.94032068
_cell_formula_units_Z   1
loop_
 _symmetry_equiv_pos_site_id
 _symmetry_equiv_pos_as_xyz
  1  'x, y, z'
loop_
 _atom_site_type_symbol
 _atom_site_label
 _atom_site_symmetry_multiplicity
 _atom_site_fract_x
 _atom_site_fract_y
 _atom_site_fract_z
 _atom_site_occupancy
  La  La0  1  0.310073  0.309810  0.999032  1
  La  La1  1  0.185226  0.806704  0.249882  1
  La  La2  1  0.795112  0.189826  0.753228  1
  La  La3  1  0.687765  0.687001  0.496710  1
  La  La4  1  0.382074  0.002810  0.442217  1
  La  La5  1  0.501558  0.862400  0.700442  1
  La  La6  1  0.510642  0.121049  0.196704  1
  La  La7  1  0.874323  0.484357  0.300186  1
  La  La8  1  0.122116  0.518525  0.800498  1
  La  La9  1  0.633832  0.986676  0.952884  1
  La  La10  1  0.996086  0.383414  0.546732  1
  La  La11  1  0.995298  0.622732  0.052113  1
  La  La12  1  0.142751  0.991955  0.872579  1
  La  La13  1  0.518520  0.631105  0.125115  1
  La  La14  1  0.474931  0.361485  0.631826  1
  La  La15  1  0.637005  0.521042  0.875982  1
  La  La16  1  0.366624  0.477889  0.376869  1
  La  La17  1  0.871387  0.018422  0.377787  1
  La  La18  1  0.984488  0.126088  0.123563  1
  Pr  Pr19  1  0.017335  0.871908  0.621706  1
  Si  Si20  1  0.334033  0.701100  0.948531  1
  Si  Si21  1  0.660494  0.301852  0.455215  1
  Si  Si22  1  0.704211  0.335846  0.050277  1
  Si  Si23  1  0.300810  0.665445  0.552980  1
  Si  Si24  1  0.802904  0.831319  0.203473  1
  Si  Si25  1  0.167429  0.194888  0.296355  1
  Si  Si26  1  0.846520  0.803800  0.795691  1
  Si  Si27  1  0.290980  0.921769  0.056790  1
  Si  Si28  1  0.575867  0.785963  0.307764  1
  Si  Si29  1  0.451809  0.206826  0.823710  1
  Si  Si30  1  0.793254  0.580369  0.687752  1
  Si  Si31  1  0.211240  0.422143  0.191516  1
  Si  Si32  1  0.704926  0.074615  0.561186  1
  Si  Si33  1  0.927076  0.292207  0.940419  1
  Si  Si34  1  0.077989  0.711825  0.443223  1
  Cl  Cl35  1  0.143311  0.194838  0.689065  1
