# generated using pymatgen
data_Ho4Er(ReO6)2
_symmetry_space_group_name_H-M   'P 1'
_cell_length_a   6.81419044
_cell_length_b   6.81419083
_cell_length_c   7.51558340
_cell_angle_alpha   73.74626143
_cell_angle_beta   73.74626117
_cell_angle_gamma   49.06816275
_symmetry_Int_Tables_number   1
_chemical_formula_structural   Ho4Er(ReO6)2
_chemical_formula_sum   'Ho4 Er1 Re2 O12'
_cell_volume   250.85652147
_cell_formula_units_Z   1
loop_
 _symmetry_equiv_pos_site_id
 _symmetry_equiv_pos_as_xyz
  1  'x, y, z'
loop_
 _atom_site_type_symbol
 _atom_site_label
 _atom_site_symmetry_multiplicity
 _atom_site_fract_x
 _atom_site_fract_y
 _atom_site_fract_z
 _atom_site_occupancy
  Ho  Ho0  1  0.696899  0.696899  0.640688  1
  Ho  Ho1  1  0.303101  0.303101  0.359312  1
  Ho  Ho2  1  0.685681  0.685681  0.176058  1
  Ho  Ho3  1  0.314319  0.314319  0.823942  1
  Er  Er4  1  0.000000  0.000000  0.500000  1
  Re  Re5  1  0.785723  0.214277  0.000000  1
  Re  Re6  1  0.214277  0.785723  0.000000  1
  O  O7  1  0.001063  0.001063  0.207538  1
  O  O8  1  0.998937  0.998937  0.792462  1
  O  O9  1  0.580488  0.087772  0.085754  1
  O  O10  1  0.419512  0.912228  0.914246  1
  O  O11  1  0.912228  0.419512  0.914246  1
  O  O12  1  0.087772  0.580488  0.085754  1
  O  O13  1  0.499124  0.499124  0.178424  1
  O  O14  1  0.500876  0.500876  0.821576  1
  O  O15  1  0.404832  0.901952  0.426609  1
  O  O16  1  0.595168  0.098048  0.573391  1
  O  O17  1  0.098048  0.595168  0.573391  1
  O  O18  1  0.901952  0.404832  0.426609  1
