# generated using pymatgen
data_Sr2LaPrZr2(BiO7)2
_symmetry_space_group_name_H-M   'P 1'
_cell_length_a   7.72901600
_cell_length_b   7.75526425
_cell_length_c   7.73613700
_cell_angle_alpha   60.08154870
_cell_angle_beta   59.96951359
_cell_angle_gamma   59.85298708
_symmetry_Int_Tables_number   1
_chemical_formula_structural   Sr2LaPrZr2(BiO7)2
_chemical_formula_sum   'Sr2 La1 Pr1 Zr2 Bi2 O14'
_cell_volume   327.65092433
_cell_formula_units_Z   1
loop_
 _symmetry_equiv_pos_site_id
 _symmetry_equiv_pos_as_xyz
  1  'x, y, z'
loop_
 _atom_site_type_symbol
 _atom_site_label
 _atom_site_symmetry_multiplicity
 _atom_site_fract_x
 _atom_site_fract_y
 _atom_site_fract_z
 _atom_site_occupancy
  Sr  Sr0  1  0.125000  0.125000  0.125000  1
  Sr  Sr1  1  0.125000  0.125000  0.625000  1
  La  La2  1  0.625000  0.125000  0.125000  1
  Pr  Pr3  1  0.125000  0.625000  0.125000  1
  Zr  Zr4  1  0.625000  0.625000  0.125000  1
  Zr  Zr5  1  0.625000  0.625000  0.625000  1
  Bi  Bi6  1  0.625000  0.125000  0.625000  1
  Bi  Bi7  1  0.125000  0.625000  0.625000  1
  O  O8  1  0.700716  0.297742  0.296088  1
  O  O9  1  0.703757  0.700134  0.298054  1
  O  O10  1  0.295597  0.700423  0.295111  1
  O  O11  1  0.988495  0.990864  0.010320  1
  O  O12  1  0.700716  0.297742  0.705454  1
  O  O13  1  0.954403  0.549577  0.541132  1
  O  O14  1  0.295597  0.700423  0.708868  1
  O  O15  1  0.549284  0.952258  0.544546  1
  O  O16  1  0.261505  0.259136  0.239680  1
  O  O17  1  0.954403  0.549577  0.954889  1
  O  O18  1  0.546243  0.549866  0.951946  1
  O  O19  1  0.958028  0.956953  0.542510  1
  O  O20  1  0.549284  0.952258  0.953912  1
  O  O21  1  0.291972  0.293047  0.707490  1
