# generated using pymatgen
data_Tb5Dy2Er9(In3Co)2
_symmetry_space_group_name_H-M   'P 1'
_cell_length_a   10.33619688
_cell_length_b   10.33619575
_cell_length_c   7.00687424
_cell_angle_alpha   90.00708879
_cell_angle_beta   89.99290341
_cell_angle_gamma   119.99429561
_symmetry_Int_Tables_number   1
_chemical_formula_structural   Tb5Dy2Er9(In3Co)2
_chemical_formula_sum   'Tb5 Dy2 Er9 In6 Co2'
_cell_volume   648.33789945
_cell_formula_units_Z   1
loop_
 _symmetry_equiv_pos_site_id
 _symmetry_equiv_pos_as_xyz
  1  'x, y, z'
loop_
 _atom_site_type_symbol
 _atom_site_label
 _atom_site_symmetry_multiplicity
 _atom_site_fract_x
 _atom_site_fract_y
 _atom_site_fract_z
 _atom_site_occupancy
  Tb  Tb0  1  0.534760  0.069913  0.511486  1
  Tb  Tb1  1  0.930087  0.465240  0.511486  1
  Tb  Tb2  1  0.534913  0.465087  0.511764  1
  Tb  Tb3  1  0.465105  0.929865  0.011403  1
  Tb  Tb4  1  0.070135  0.534895  0.011403  1
  Dy  Dy5  1  0.000103  0.999897  0.500933  1
  Dy  Dy6  1  0.999889  0.000111  0.001117  1
  Er  Er7  1  0.464826  0.535174  0.012069  1
  Er  Er8  1  0.178217  0.355868  0.720559  1
  Er  Er9  1  0.644132  0.821783  0.720559  1
  Er  Er10  1  0.177830  0.822170  0.720628  1
  Er  Er11  1  0.821736  0.644220  0.219816  1
  Er  Er12  1  0.355780  0.178264  0.219816  1
  Er  Er13  1  0.822076  0.177924  0.220405  1
  Er  Er14  1  0.666504  0.333496  0.905355  1
  Er  Er15  1  0.333571  0.666429  0.404770  1
  In  In16  1  0.836856  0.673801  0.761169  1
  In  In17  1  0.326199  0.163144  0.761169  1
  In  In18  1  0.836753  0.163247  0.760734  1
  In  In19  1  0.163423  0.326480  0.260429  1
  In  In20  1  0.673520  0.836577  0.260429  1
  In  In21  1  0.163165  0.836835  0.261229  1
  Co  Co22  1  0.666662  0.333338  0.287566  1
  Co  Co23  1  0.333759  0.666241  0.787906  1
