# generated using pymatgen
data_CaLa2(TbSi2)2
_symmetry_space_group_name_H-M   'P 1'
_cell_length_a   7.91229500
_cell_length_b   7.91229500
_cell_length_c   14.54934800
_cell_angle_alpha   90.00000000
_cell_angle_beta   90.00000000
_cell_angle_gamma   90.00000000
_symmetry_Int_Tables_number   1
_chemical_formula_structural   CaLa2(TbSi2)2
_chemical_formula_sum   'Ca4 La8 Tb8 Si16'
_cell_volume   910.85337895
_cell_formula_units_Z   4
loop_
 _symmetry_equiv_pos_site_id
 _symmetry_equiv_pos_as_xyz
  1  'x, y, z'
loop_
 _atom_site_type_symbol
 _atom_site_label
 _atom_site_symmetry_multiplicity
 _atom_site_fract_x
 _atom_site_fract_y
 _atom_site_fract_z
 _atom_site_occupancy
  Ca  Ca0  1  0.688823  0.688823  0.500000  1
  Ca  Ca1  1  0.811177  0.188823  0.750000  1
  Ca  Ca2  1  0.188823  0.811177  0.250000  1
  Ca  Ca3  1  0.311177  0.311177  0.000000  1
  La  La4  1  0.989944  0.634713  0.043288  1
  La  La5  1  0.010056  0.365287  0.543288  1
  La  La6  1  0.634713  0.989944  0.956712  1
  La  La7  1  0.134713  0.510056  0.793288  1
  La  La8  1  0.865287  0.489944  0.293288  1
  La  La9  1  0.510056  0.134713  0.206712  1
  La  La10  1  0.489944  0.865287  0.706712  1
  La  La11  1  0.365287  0.010056  0.456712  1
  Tb  Tb12  1  0.370006  0.491919  0.375831  1
  Tb  Tb13  1  0.870006  0.008081  0.374169  1
  Tb  Tb14  1  0.991919  0.129994  0.125831  1
  Tb  Tb15  1  0.008081  0.870006  0.625831  1
  Tb  Tb16  1  0.629994  0.508081  0.875831  1
  Tb  Tb17  1  0.491919  0.370006  0.624169  1
  Tb  Tb18  1  0.508081  0.629994  0.124169  1
  Tb  Tb19  1  0.129994  0.991919  0.874169  1
  Si  Si20  1  0.077851  0.712681  0.440943  1
  Si  Si21  1  0.922149  0.287319  0.940943  1
  Si  Si22  1  0.712681  0.077851  0.559057  1
  Si  Si23  1  0.212682  0.422149  0.190943  1
  Si  Si24  1  0.787319  0.577851  0.690943  1
  Si  Si25  1  0.422149  0.212682  0.809057  1
  Si  Si26  1  0.577851  0.787319  0.309057  1
  Si  Si27  1  0.287319  0.922149  0.059057  1
  Si  Si28  1  0.843606  0.790450  0.810153  1
  Si  Si29  1  0.156394  0.209550  0.310153  1
  Si  Si30  1  0.790450  0.843606  0.189847  1
  Si  Si31  1  0.290450  0.656394  0.560153  1
  Si  Si32  1  0.709550  0.343606  0.060153  1
  Si  Si33  1  0.656394  0.290450  0.439847  1
  Si  Si34  1  0.343606  0.709550  0.939847  1
  Si  Si35  1  0.209550  0.156394  0.689847  1
