# generated using pymatgen
data_K3BaNpO6
_symmetry_space_group_name_H-M   'P 1'
_cell_length_a   6.31957497
_cell_length_b   6.31956300
_cell_length_c   6.82027900
_cell_angle_alpha   97.47539707
_cell_angle_beta   97.47586747
_cell_angle_gamma   121.35380700
_symmetry_Int_Tables_number   1
_chemical_formula_structural   K3BaNpO6
_chemical_formula_sum   'K3 Ba1 Np1 O6'
_cell_volume   224.24699161
_cell_formula_units_Z   1
loop_
 _symmetry_equiv_pos_site_id
 _symmetry_equiv_pos_as_xyz
  1  'x, y, z'
loop_
 _atom_site_type_symbol
 _atom_site_label
 _atom_site_symmetry_multiplicity
 _atom_site_fract_x
 _atom_site_fract_y
 _atom_site_fract_z
 _atom_site_occupancy
  K  K0  1  0.504045  0.495963  0.999999  1
  K  K1  1  0.650785  0.349196  0.500005  1
  K  K2  1  0.311636  0.688380  0.500002  1
  Ba  Ba3  1  0.844919  0.155086  0.000002  1
  Np  Np4  1  0.171539  0.828457  0.999999  1
  O  O5  1  0.229268  0.143921  0.180609  1
  O  O6  1  0.487608  0.893261  0.187838  1
  O  O7  1  0.963810  0.603768  0.180158  1
  O  O8  1  0.396237  0.036196  0.819838  1
  O  O9  1  0.106737  0.512392  0.812158  1
  O  O10  1  0.856077  0.770733  0.819387  1
