# generated using pymatgen
data_Tm4AgHgPt2
_symmetry_space_group_name_H-M   'P 1'
_cell_length_a   4.64135000
_cell_length_b   5.55295387
_cell_length_c   7.22016605
_cell_angle_alpha   87.04267636
_cell_angle_beta   90.00000000
_cell_angle_gamma   90.00000000
_symmetry_Int_Tables_number   1
_chemical_formula_structural   Tm4AgHgPt2
_chemical_formula_sum   'Tm4 Ag1 Hg1 Pt2'
_cell_volume   185.83897824
_cell_formula_units_Z   1
loop_
 _symmetry_equiv_pos_site_id
 _symmetry_equiv_pos_as_xyz
  1  'x, y, z'
loop_
 _atom_site_type_symbol
 _atom_site_label
 _atom_site_symmetry_multiplicity
 _atom_site_fract_x
 _atom_site_fract_y
 _atom_site_fract_z
 _atom_site_occupancy
  Tm  Tm0  1  0.250000  0.641583  0.211103  1
  Tm  Tm1  1  0.750000  0.358368  0.789149  1
  Tm  Tm2  1  0.750000  0.156598  0.335258  1
  Tm  Tm3  1  0.250000  0.843509  0.663608  1
  Ag  Ag4  1  0.250000  0.158429  0.031675  1
  Hg  Hg5  1  0.750000  0.843818  0.971163  1
  Pt  Pt6  1  0.750000  0.663630  0.452095  1
  Pt  Pt7  1  0.250000  0.334065  0.545950  1
