# generated using pymatgen
data_Nd2Zn11Ir6
_symmetry_space_group_name_H-M   'P 1'
_cell_length_a   6.86130429
_cell_length_b   6.86130392
_cell_length_c   6.86130400
_cell_angle_alpha   84.35244789
_cell_angle_beta   84.35244820
_cell_angle_gamma   84.35244282
_symmetry_Int_Tables_number   1
_chemical_formula_structural   Nd2Zn11Ir6
_chemical_formula_sum   'Nd2 Zn11 Ir6'
_cell_volume   318.59843454
_cell_formula_units_Z   1
loop_
 _symmetry_equiv_pos_site_id
 _symmetry_equiv_pos_as_xyz
  1  'x, y, z'
loop_
 _atom_site_type_symbol
 _atom_site_label
 _atom_site_symmetry_multiplicity
 _atom_site_fract_x
 _atom_site_fract_y
 _atom_site_fract_z
 _atom_site_occupancy
  Nd  Nd0  1  0.637878  0.637878  0.637878  1
  Nd  Nd1  1  0.350380  0.350380  0.350380  1
  Zn  Zn2  1  0.157704  0.659419  0.659421  1
  Zn  Zn3  1  0.659420  0.659420  0.157705  1
  Zn  Zn4  1  0.659419  0.157704  0.659421  1
  Zn  Zn5  1  0.877197  0.877197  0.877197  1
  Zn  Zn6  1  0.115065  0.115065  0.115065  1
  Zn  Zn7  1  0.696421  0.004210  0.303980  1
  Zn  Zn8  1  0.004209  0.303980  0.696422  1
  Zn  Zn9  1  0.303980  0.696421  0.004210  1
  Zn  Zn10  1  0.303980  0.004209  0.696422  1
  Zn  Zn11  1  0.004210  0.696421  0.303980  1
  Zn  Zn12  1  0.696421  0.303980  0.004210  1
  Ir  Ir13  1  0.346926  0.840434  0.346925  1
  Ir  Ir14  1  0.346927  0.346927  0.840435  1
  Ir  Ir15  1  0.840434  0.346926  0.346925  1
  Ir  Ir16  1  0.999521  0.500383  0.999520  1
  Ir  Ir17  1  0.500383  0.999521  0.999520  1
  Ir  Ir18  1  0.999521  0.999521  0.500381  1
