# generated using pymatgen
data_Tb4Sn5PRh7
_symmetry_space_group_name_H-M   'P 1'
_cell_length_a   7.54083566
_cell_length_b   7.54083678
_cell_length_c   7.54083584
_cell_angle_alpha   109.81925695
_cell_angle_beta   108.77736345
_cell_angle_gamma   109.81925983
_symmetry_Int_Tables_number   1
_chemical_formula_structural   Tb4Sn5PRh7
_chemical_formula_sum   'Tb4 Sn5 P1 Rh7'
_cell_volume   330.05697949
_cell_formula_units_Z   1
loop_
 _symmetry_equiv_pos_site_id
 _symmetry_equiv_pos_as_xyz
  1  'x, y, z'
loop_
 _atom_site_type_symbol
 _atom_site_label
 _atom_site_symmetry_multiplicity
 _atom_site_fract_x
 _atom_site_fract_y
 _atom_site_fract_z
 _atom_site_occupancy
  Tb  Tb0  1  0.471710  0.459352  0.471710  1
  Tb  Tb1  1  0.012358  0.540648  0.012358  1
  Tb  Tb2  1  0.471710  0.000000  0.012358  1
  Tb  Tb3  1  0.012358  0.000000  0.471710  1
  Sn  Sn4  1  0.708641  0.000000  0.708641  1
  Sn  Sn5  1  0.669033  0.683849  0.985186  1
  Sn  Sn6  1  0.301337  0.316151  0.985186  1
  Sn  Sn7  1  0.985186  0.683849  0.669033  1
  Sn  Sn8  1  0.985186  0.316151  0.301337  1
  P  P9  1  0.354123  0.000000  0.354123  1
  Rh  Rh10  1  0.501480  0.758191  0.259672  1
  Rh  Rh11  1  0.743289  0.241809  0.501480  1
  Rh  Rh12  1  0.259672  0.758191  0.501480  1
  Rh  Rh13  1  0.239037  0.500000  0.739037  1
  Rh  Rh14  1  0.044361  0.000000  0.044361  1
  Rh  Rh15  1  0.501480  0.241809  0.743289  1
  Rh  Rh16  1  0.739037  0.500000  0.239037  1
