# generated using pymatgen
data_MgTa2SnRu4
_symmetry_space_group_name_H-M   'P 1'
_cell_length_a   6.29579104
_cell_length_b   6.29576400
_cell_length_c   6.39822804
_cell_angle_alpha   90.00000000
_cell_angle_beta   89.98754222
_cell_angle_gamma   90.00001820
_symmetry_Int_Tables_number   1
_chemical_formula_structural   MgTa2SnRu4
_chemical_formula_sum   'Mg2 Ta4 Sn2 Ru8'
_cell_volume   253.60537228
_cell_formula_units_Z   2
loop_
 _symmetry_equiv_pos_site_id
 _symmetry_equiv_pos_as_xyz
  1  'x, y, z'
loop_
 _atom_site_type_symbol
 _atom_site_label
 _atom_site_symmetry_multiplicity
 _atom_site_fract_x
 _atom_site_fract_y
 _atom_site_fract_z
 _atom_site_occupancy
  Mg  Mg0  1  0.749996  0.250001  0.499989  1
  Mg  Mg1  1  0.250003  0.750000  0.500012  1
  Ta  Ta2  1  0.250007  0.250000  0.999994  1
  Ta  Ta3  1  0.749994  0.750000  0.000006  1
  Ta  Ta4  1  0.249997  0.250000  0.499989  1
  Ta  Ta5  1  0.750002  0.750000  0.500011  1
  Sn  Sn6  1  0.750001  0.250001  0.000000  1
  Sn  Sn7  1  0.249997  0.750000  0.000000  1
  Ru  Ru8  1  0.000009  0.999982  0.251754  1
  Ru  Ru9  1  0.000009  0.500017  0.251754  1
  Ru  Ru10  1  0.500010  0.000014  0.251752  1
  Ru  Ru11  1  0.500010  0.499990  0.251752  1
  Ru  Ru12  1  0.999991  0.000018  0.748246  1
  Ru  Ru13  1  0.999991  0.499983  0.748246  1
  Ru  Ru14  1  0.499990  0.999986  0.748249  1
  Ru  Ru15  1  0.499990  0.500010  0.748249  1
