# generated using pymatgen
data_U6GaSb8Pt5
_symmetry_space_group_name_H-M   'P 1'
_cell_length_a   8.49580827
_cell_length_b   8.49580860
_cell_length_c   8.49580826
_cell_angle_alpha   109.04204333
_cell_angle_beta   110.33301179
_cell_angle_gamma   109.04205769
_symmetry_Int_Tables_number   1
_chemical_formula_structural   U6GaSb8Pt5
_chemical_formula_sum   'U6 Ga1 Sb8 Pt5'
_cell_volume   471.97437399
_cell_formula_units_Z   1
loop_
 _symmetry_equiv_pos_site_id
 _symmetry_equiv_pos_as_xyz
  1  'x, y, z'
loop_
 _atom_site_type_symbol
 _atom_site_label
 _atom_site_symmetry_multiplicity
 _atom_site_fract_x
 _atom_site_fract_y
 _atom_site_fract_z
 _atom_site_occupancy
  U  U0  1  0.875000  0.250000  0.125000  1
  U  U1  1  0.625000  0.750000  0.375000  1
  U  U2  1  0.241194  0.118251  0.873199  1
  U  U3  1  0.754948  0.381749  0.622943  1
  U  U4  1  0.126801  0.867995  0.245052  1
  U  U5  1  0.377057  0.632005  0.758806  1
  Ga  Ga6  1  0.375000  0.250000  0.625000  1
  Sb  Sb7  1  0.680558  0.503285  0.004044  1
  Sb  Sb8  1  0.500759  0.996715  0.677273  1
  Sb  Sb9  1  0.999881  0.679439  0.498639  1
  Sb  Sb10  1  0.819199  0.820561  0.820442  1
  Sb  Sb11  1  0.501361  0.001242  0.180801  1
  Sb  Sb12  1  0.179558  0.498758  0.000119  1
  Sb  Sb13  1  0.995956  0.176514  0.499241  1
  Sb  Sb14  1  0.322727  0.323486  0.319442  1
  Pt  Pt15  1  0.125000  0.750000  0.875000  1
  Pt  Pt16  1  0.247897  0.624093  0.374379  1
  Pt  Pt17  1  0.750287  0.875907  0.123805  1
  Pt  Pt18  1  0.625621  0.373518  0.249713  1
  Pt  Pt19  1  0.876195  0.126482  0.752103  1
