# generated using pymatgen
data_Cs8Na4GdSc3Sb8
_symmetry_space_group_name_H-M   'P 1'
_cell_length_a   11.52311909
_cell_length_b   11.52311993
_cell_length_c   7.50026068
_cell_angle_alpha   90.35116933
_cell_angle_beta   89.64883493
_cell_angle_gamma   99.86944751
_symmetry_Int_Tables_number   1
_chemical_formula_structural   Cs8Na4GdSc3Sb8
_chemical_formula_sum   'Cs8 Na4 Gd1 Sc3 Sb8'
_cell_volume   981.13179011
_cell_formula_units_Z   1
loop_
 _symmetry_equiv_pos_site_id
 _symmetry_equiv_pos_as_xyz
  1  'x, y, z'
loop_
 _atom_site_type_symbol
 _atom_site_label
 _atom_site_symmetry_multiplicity
 _atom_site_fract_x
 _atom_site_fract_y
 _atom_site_fract_z
 _atom_site_occupancy
  Cs  Cs0  1  0.071719  0.430585  0.250050  1
  Cs  Cs1  1  0.430585  0.071719  0.749950  1
  Cs  Cs2  1  0.925755  0.570700  0.749233  1
  Cs  Cs3  1  0.570700  0.925755  0.250767  1
  Cs  Cs4  1  0.677430  0.324283  0.212997  1
  Cs  Cs5  1  0.821199  0.176270  0.711784  1
  Cs  Cs6  1  0.324283  0.677430  0.787003  1
  Cs  Cs7  1  0.176270  0.821199  0.288216  1
  Na  Na8  1  0.384758  0.384758  0.000000  1
  Na  Na9  1  0.118334  0.118334  0.500000  1
  Na  Na10  1  0.618388  0.618388  0.000000  1
  Na  Na11  1  0.879621  0.879621  0.500000  1
  Gd  Gd12  1  0.131773  0.131773  0.000000  1
  Sc  Sc13  1  0.372661  0.372661  0.500000  1
  Sc  Sc14  1  0.867437  0.867437  0.000000  1
  Sc  Sc15  1  0.630424  0.630424  0.500000  1
  Sb  Sb16  1  0.834337  0.664080  0.249366  1
  Sb  Sb17  1  0.664080  0.834337  0.750634  1
  Sb  Sb18  1  0.165968  0.344509  0.740503  1
  Sb  Sb19  1  0.344509  0.165968  0.259497  1
  Sb  Sb20  1  0.900018  0.087319  0.205137  1
  Sb  Sb21  1  0.591799  0.410633  0.699330  1
  Sb  Sb22  1  0.087319  0.900018  0.794863  1
  Sb  Sb23  1  0.410633  0.591799  0.300670  1
