# generated using pymatgen
data_NdTm3(Si5Pt3)2
_symmetry_space_group_name_H-M   'P 1'
_cell_length_a   8.15258431
_cell_length_b   8.16032640
_cell_length_c   8.16032619
_cell_angle_alpha   136.35724576
_cell_angle_beta   104.48600102
_cell_angle_gamma   91.51634262
_symmetry_Int_Tables_number   1
_chemical_formula_structural   NdTm3(Si5Pt3)2
_chemical_formula_sum   'Nd1 Tm3 Si10 Pt6'
_cell_volume   344.83792426
_cell_formula_units_Z   1
loop_
 _symmetry_equiv_pos_site_id
 _symmetry_equiv_pos_as_xyz
  1  'x, y, z'
loop_
 _atom_site_type_symbol
 _atom_site_label
 _atom_site_symmetry_multiplicity
 _atom_site_fract_x
 _atom_site_fract_y
 _atom_site_fract_z
 _atom_site_occupancy
  Nd  Nd0  1  0.899015  0.129284  0.769730  1
  Tm  Tm1  1  0.642281  0.370147  0.272134  1
  Tm  Tm2  1  0.358271  0.629972  0.728298  1
  Tm  Tm3  1  0.098647  0.870118  0.228528  1
  Si  Si4  1  0.273022  0.522301  0.250843  1
  Si  Si5  1  0.728288  0.478299  0.749674  1
  Si  Si6  1  0.728288  0.978614  0.249989  1
  Si  Si7  1  0.273022  0.022179  0.750721  1
  Si  Si8  1  0.460561  0.111591  0.348969  1
  Si  Si9  1  0.536353  0.885732  0.650620  1
  Si  Si10  1  0.763368  0.611734  0.151634  1
  Si  Si11  1  0.238062  0.389897  0.848166  1
  Si  Si12  1  0.000153  0.248995  0.249716  1
  Si  Si13  1  0.000153  0.750436  0.751159  1
  Pt  Pt14  1  0.252355  0.137964  0.114390  1
  Pt  Pt15  1  0.746862  0.860264  0.886600  1
  Pt  Pt16  1  0.025735  0.637770  0.387965  1
  Pt  Pt17  1  0.977359  0.365119  0.612241  1
  Pt  Pt18  1  0.499103  0.250638  0.750159  1
  Pt  Pt19  1  0.499103  0.748945  0.248465  1
