# generated using pymatgen
data_Tb3Dy3(HfPt2)2
_symmetry_space_group_name_H-M   'P 1'
_cell_length_a   4.73756700
_cell_length_b   7.16665770
_cell_length_c   8.45795619
_cell_angle_alpha   90.03921981
_cell_angle_beta   90.00000000
_cell_angle_gamma   90.00000000
_symmetry_Int_Tables_number   1
_chemical_formula_structural   Tb3Dy3(HfPt2)2
_chemical_formula_sum   'Tb3 Dy3 Hf2 Pt4'
_cell_volume   287.16886805
_cell_formula_units_Z   1
loop_
 _symmetry_equiv_pos_site_id
 _symmetry_equiv_pos_as_xyz
  1  'x, y, z'
loop_
 _atom_site_type_symbol
 _atom_site_label
 _atom_site_symmetry_multiplicity
 _atom_site_fract_x
 _atom_site_fract_y
 _atom_site_fract_z
 _atom_site_occupancy
  Tb  Tb0  1  0.250000  0.490539  0.178169  1
  Tb  Tb1  1  0.750000  0.018045  0.668347  1
  Tb  Tb2  1  0.250000  0.981831  0.331786  1
  Dy  Dy3  1  0.750000  0.145126  0.082891  1
  Dy  Dy4  1  0.250000  0.854789  0.916993  1
  Dy  Dy5  1  0.750000  0.509401  0.821734  1
  Hf  Hf6  1  0.750000  0.642879  0.424800  1
  Hf  Hf7  1  0.250000  0.357233  0.575748  1
  Pt  Pt8  1  0.750000  0.275065  0.419390  1
  Pt  Pt9  1  0.250000  0.724864  0.580784  1
  Pt  Pt10  1  0.750000  0.744649  0.106219  1
  Pt  Pt11  1  0.250000  0.255579  0.893141  1
