# generated using pymatgen
data_DyTm3Al24Pt7Au2
_symmetry_space_group_name_H-M   'P 1'
_cell_length_a   7.55055399
_cell_length_b   7.56997831
_cell_length_c   13.13107742
_cell_angle_alpha   84.58180918
_cell_angle_beta   79.01972084
_cell_angle_gamma   59.92179950
_symmetry_Int_Tables_number   1
_chemical_formula_structural   DyTm3Al24Pt7Au2
_chemical_formula_sum   'Dy1 Tm3 Al24 Pt7 Au2'
_cell_volume   637.58334659
_cell_formula_units_Z   1
loop_
 _symmetry_equiv_pos_site_id
 _symmetry_equiv_pos_as_xyz
  1  'x, y, z'
loop_
 _atom_site_type_symbol
 _atom_site_label
 _atom_site_symmetry_multiplicity
 _atom_site_fract_x
 _atom_site_fract_y
 _atom_site_fract_z
 _atom_site_occupancy
  Dy  Dy0  1  0.392626  0.169216  0.809556  1
  Tm  Tm1  1  0.607156  0.830715  0.191172  1
  Tm  Tm2  1  0.733468  0.499003  0.809592  1
  Tm  Tm3  1  0.266382  0.501142  0.190430  1
  Al  Al4  1  0.683331  0.833384  0.944936  1
  Al  Al5  1  0.317019  0.165892  0.056206  1
  Al  Al6  1  0.145744  0.839106  0.562485  1
  Al  Al7  1  0.854356  0.160842  0.437401  1
  Al  Al8  1  0.488273  0.159165  0.559392  1
  Al  Al9  1  0.511846  0.840749  0.440339  1
  Al  Al10  1  0.223944  0.160788  0.324172  1
  Al  Al11  1  0.776890  0.838689  0.675094  1
  Al  Al12  1  0.439906  0.506821  0.675249  1
  Al  Al13  1  0.560342  0.493795  0.324012  1
  Al  Al14  1  0.108364  0.154867  0.673724  1
  Al  Al15  1  0.891400  0.844991  0.325607  1
  Al  Al16  1  0.353651  0.499070  0.944829  1
  Al  Al17  1  0.646079  0.501601  0.055976  1
  Al  Al18  1  0.014870  0.168041  0.953245  1
  Al  Al19  1  0.984084  0.832053  0.047552  1
  Al  Al20  1  0.195556  0.499464  0.437404  1
  Al  Al21  1  0.804465  0.500650  0.562409  1
  Al  Al22  1  0.732101  0.164704  0.182933  1
  Al  Al23  1  0.267245  0.834702  0.817000  1
  Al  Al24  1  0.059757  0.634315  0.817917  1
  Al  Al25  1  0.939640  0.366872  0.182123  1
  Al  Al26  1  0.854861  0.042363  0.816466  1
  Al  Al27  1  0.146360  0.956936  0.183524  1
  Pt  Pt28  1  0.657014  0.171928  0.999669  1
  Pt  Pt29  1  0.343263  0.827903  0.000169  1
  Pt  Pt30  1  0.537081  0.166884  0.361460  1
  Pt  Pt31  1  0.462985  0.832480  0.638396  1
  Pt  Pt32  1  0.779745  0.175621  0.637046  1
  Pt  Pt33  1  0.220942  0.824454  0.362740  1
  Pt  Pt34  1  0.999773  0.500217  0.999967  1
  Au  Au35  1  0.119318  0.490704  0.638239  1
  Au  Au36  1  0.880162  0.509876  0.361567  1
