# generated using pymatgen
data_Tm20Ru5Pt7
_symmetry_space_group_name_H-M   'P 1'
_cell_length_a   10.79614556
_cell_length_b   10.79614562
_cell_length_c   6.36042277
_cell_angle_alpha   89.95287700
_cell_angle_beta   89.95287210
_cell_angle_gamma   90.48112836
_symmetry_Int_Tables_number   1
_chemical_formula_structural   Tm20Ru5Pt7
_chemical_formula_sum   'Tm20 Ru5 Pt7'
_cell_volume   741.32362539
_cell_formula_units_Z   1
loop_
 _symmetry_equiv_pos_site_id
 _symmetry_equiv_pos_as_xyz
  1  'x, y, z'
loop_
 _atom_site_type_symbol
 _atom_site_label
 _atom_site_symmetry_multiplicity
 _atom_site_fract_x
 _atom_site_fract_y
 _atom_site_fract_z
 _atom_site_occupancy
  Tm  Tm0  1  0.296778  0.084407  0.373399  1
  Tm  Tm1  1  0.296051  0.909230  0.873324  1
  Tm  Tm2  1  0.702780  0.085046  0.871852  1
  Tm  Tm3  1  0.702650  0.914327  0.371696  1
  Tm  Tm4  1  0.581865  0.794184  0.870807  1
  Tm  Tm5  1  0.585553  0.203923  0.374049  1
  Tm  Tm6  1  0.411746  0.793359  0.376613  1
  Tm  Tm7  1  0.413630  0.201717  0.872704  1
  Tm  Tm8  1  0.205816  0.418135  0.629193  1
  Tm  Tm9  1  0.206641  0.588254  0.123387  1
  Tm  Tm10  1  0.796077  0.414447  0.125951  1
  Tm  Tm11  1  0.798283  0.586370  0.627296  1
  Tm  Tm12  1  0.915593  0.703222  0.126601  1
  Tm  Tm13  1  0.914954  0.297220  0.628148  1
  Tm  Tm14  1  0.090770  0.703949  0.626676  1
  Tm  Tm15  1  0.085673  0.297350  0.128304  1
  Tm  Tm16  1  0.999301  0.999971  0.500675  1
  Tm  Tm17  1  0.000029  0.000699  0.999325  1
  Tm  Tm18  1  0.497024  0.501497  0.998212  1
  Tm  Tm19  1  0.498503  0.502976  0.501788  1
  Ru  Ru20  1  0.347916  0.652084  0.750000  1
  Ru  Ru21  1  0.500014  0.000210  0.124610  1
  Ru  Ru22  1  0.499648  0.999521  0.623381  1
  Ru  Ru23  1  0.000479  0.500352  0.876619  1
  Ru  Ru24  1  0.999790  0.499986  0.375390  1
  Pt  Pt25  1  0.846885  0.153115  0.250000  1
  Pt  Pt26  1  0.845504  0.846872  0.750767  1
  Pt  Pt27  1  0.153128  0.154496  0.749233  1
  Pt  Pt28  1  0.151770  0.848230  0.250000  1
  Pt  Pt29  1  0.652980  0.347020  0.750000  1
  Pt  Pt30  1  0.655234  0.653068  0.249470  1
  Pt  Pt31  1  0.346932  0.344766  0.250530  1
