# generated using pymatgen
data_La7Ni2Hg
_symmetry_space_group_name_H-M   'P 1'
_cell_length_a   12.51693400
_cell_length_b   12.51693400
_cell_length_c   3.82162000
_cell_angle_alpha   90.00000000
_cell_angle_beta   90.00000000
_cell_angle_gamma   90.00000000
_symmetry_Int_Tables_number   1
_chemical_formula_structural   La7Ni2Hg
_chemical_formula_sum   'La14 Ni4 Hg2'
_cell_volume   598.74710372
_cell_formula_units_Z   2
loop_
 _symmetry_equiv_pos_site_id
 _symmetry_equiv_pos_as_xyz
  1  'x, y, z'
loop_
 _atom_site_type_symbol
 _atom_site_label
 _atom_site_symmetry_multiplicity
 _atom_site_fract_x
 _atom_site_fract_y
 _atom_site_fract_z
 _atom_site_occupancy
  La  La0  1  0.679616  0.179616  0.000000  1
  La  La1  1  0.179616  0.320384  0.000000  1
  La  La2  1  0.820384  0.679616  0.000000  1
  La  La3  1  0.320384  0.820384  0.000000  1
  La  La4  1  0.500000  0.000000  0.500001  1
  La  La5  1  0.212353  0.062019  0.500001  1
  La  La6  1  0.937981  0.212353  0.500001  1
  La  La7  1  0.437981  0.287647  0.500001  1
  La  La8  1  0.712353  0.437981  0.500001  1
  La  La9  1  0.000000  0.500000  0.500001  1
  La  La10  1  0.287647  0.562019  0.500001  1
  La  La11  1  0.562019  0.712353  0.500001  1
  La  La12  1  0.062019  0.787647  0.500001  1
  La  La13  1  0.787647  0.937981  0.500001  1
  Ni  Ni14  1  0.371194  0.128806  0.000000  1
  Ni  Ni15  1  0.871194  0.371194  0.000000  1
  Ni  Ni16  1  0.128806  0.628806  0.000000  1
  Ni  Ni17  1  0.628806  0.871194  0.000000  1
  Hg  Hg18  1  0.000000  0.000000  0.000000  1
  Hg  Hg19  1  0.500000  0.500000  0.000000  1
