# generated using pymatgen
data_Sr6Yb(CoO4)3
_symmetry_space_group_name_H-M   'P 1'
_cell_length_a   6.68289182
_cell_length_b   6.67843613
_cell_length_c   6.69478581
_cell_angle_alpha   92.27596159
_cell_angle_beta   92.24032457
_cell_angle_gamma   92.15206801
_symmetry_Int_Tables_number   1
_chemical_formula_structural   Sr6Yb(CoO4)3
_chemical_formula_sum   'Sr6 Yb1 Co3 O12'
_cell_volume   298.10396096
_cell_formula_units_Z   1
loop_
 _symmetry_equiv_pos_site_id
 _symmetry_equiv_pos_as_xyz
  1  'x, y, z'
loop_
 _atom_site_type_symbol
 _atom_site_label
 _atom_site_symmetry_multiplicity
 _atom_site_fract_x
 _atom_site_fract_y
 _atom_site_fract_z
 _atom_site_occupancy
  Sr  Sr0  1  0.887984  0.250463  0.611975  1
  Sr  Sr1  1  0.249460  0.612737  0.887240  1
  Sr  Sr2  1  0.612686  0.887488  0.250109  1
  Sr  Sr3  1  0.750766  0.384091  0.116506  1
  Sr  Sr4  1  0.383285  0.116343  0.748443  1
  Sr  Sr5  1  0.115675  0.750899  0.384029  1
  Yb  Yb6  1  0.751000  0.748647  0.750372  1
  Co  Co7  1  0.001471  0.001681  0.002967  1
  Co  Co8  1  0.498350  0.497135  0.498249  1
  Co  Co9  1  0.248238  0.256809  0.245080  1
  O  O10  1  0.223998  0.409956  0.537401  1
  O  O11  1  0.410487  0.536957  0.222842  1
  O  O12  1  0.540686  0.224632  0.414153  1
  O  O13  1  0.919366  0.724411  0.050128  1
  O  O14  1  0.727186  0.049796  0.920394  1
  O  O15  1  0.051071  0.918672  0.726374  1
  O  O16  1  0.774598  0.580746  0.450006  1
  O  O17  1  0.581329  0.449086  0.774839  1
  O  O18  1  0.449674  0.772455  0.579777  1
  O  O19  1  0.088959  0.277678  0.963802  1
  O  O20  1  0.274463  0.961899  0.088887  1
  O  O21  1  0.959268  0.087419  0.276427  1
