# generated using pymatgen
data_SmYNi2Hg
_symmetry_space_group_name_H-M   'P 1'
_cell_length_a   7.33019797
_cell_length_b   7.33019809
_cell_length_c   3.75209500
_cell_angle_alpha   90.00000000
_cell_angle_beta   90.00000000
_cell_angle_gamma   148.81960516
_symmetry_Int_Tables_number   1
_chemical_formula_structural   SmYNi2Hg
_chemical_formula_sum   'Sm1 Y1 Ni2 Hg1'
_cell_volume   104.37876999
_cell_formula_units_Z   1
loop_
 _symmetry_equiv_pos_site_id
 _symmetry_equiv_pos_as_xyz
  1  'x, y, z'
loop_
 _atom_site_type_symbol
 _atom_site_label
 _atom_site_symmetry_multiplicity
 _atom_site_fract_x
 _atom_site_fract_y
 _atom_site_fract_z
 _atom_site_occupancy
  Sm  Sm0  1  0.364509  0.635491  0.500000  1
  Y  Y1  1  0.635670  0.364330  0.500000  1
  Ni  Ni2  1  0.798440  0.201560  0.000000  1
  Ni  Ni3  1  0.200095  0.799905  0.000000  1
  Hg  Hg4  1  0.001287  0.998713  0.000000  1
