# generated using pymatgen
data_Rb2Tc3Cl7O5
_symmetry_space_group_name_H-M   'P 1'
_cell_length_a   8.60925906
_cell_length_b   9.69661700
_cell_length_c   10.75518839
_cell_angle_alpha   107.14324399
_cell_angle_beta   89.98660007
_cell_angle_gamma   116.36182488
_symmetry_Int_Tables_number   1
_chemical_formula_structural   Rb2Tc3Cl7O5
_chemical_formula_sum   'Rb4 Tc6 Cl14 O10'
_cell_volume   759.73581320
_cell_formula_units_Z   2
loop_
 _symmetry_equiv_pos_site_id
 _symmetry_equiv_pos_as_xyz
  1  'x, y, z'
loop_
 _atom_site_type_symbol
 _atom_site_label
 _atom_site_symmetry_multiplicity
 _atom_site_fract_x
 _atom_site_fract_y
 _atom_site_fract_z
 _atom_site_occupancy
  Rb  Rb0  1  0.835244  0.577274  0.139448  1
  Rb  Rb1  1  0.257910  0.422664  0.360397  1
  Rb  Rb2  1  0.742049  0.577009  0.639448  1
  Rb  Rb3  1  0.165097  0.422962  0.860823  1
  Tc  Tc4  1  0.784421  0.996721  0.037152  1
  Tc  Tc5  1  0.443029  0.999968  0.250385  1
  Tc  Tc6  1  0.787932  0.003201  0.462304  1
  Tc  Tc7  1  0.212309  0.996838  0.537990  1
  Tc  Tc8  1  0.557408  0.000065  0.749702  1
  Tc  Tc9  1  0.215691  0.003206  0.962522  1
  Cl  Cl10  1  0.355454  0.294456  0.035811  1
  Cl  Cl11  1  0.941553  0.290297  0.120889  1
  Cl  Cl12  1  0.295216  0.704536  0.172932  1
  Cl  Cl13  1  0.916189  0.000008  0.250025  1
  Cl  Cl14  1  0.590603  0.295374  0.327128  1
  Cl  Cl15  1  0.652004  0.709682  0.380061  1
  Cl  Cl16  1  0.059775  0.705549  0.463427  1
  Cl  Cl17  1  0.940539  0.294639  0.536903  1
  Cl  Cl18  1  0.348221  0.290215  0.620329  1
  Cl  Cl19  1  0.408827  0.704415  0.672611  1
  Cl  Cl20  1  0.082746  0.999978  0.750019  1
  Cl  Cl21  1  0.704457  0.295756  0.826858  1
  Cl  Cl22  1  0.059125  0.709883  0.878849  1
  Cl  Cl23  1  0.644985  0.705268  0.963958  1
  O  O24  1  0.999629  0.999862  0.999805  1
  O  O25  1  0.295722  0.000895  0.119275  1
  O  O26  1  0.601884  0.998400  0.124049  1
  O  O27  1  0.603301  0.001544  0.376075  1
  O  O28  1  0.295202  0.999067  0.380916  1
  O  O29  1  0.999881  0.000123  0.500176  1
  O  O30  1  0.704466  0.000991  0.619641  1
  O  O31  1  0.396831  0.998472  0.624541  1
  O  O32  1  0.398445  0.001620  0.875263  1
  O  O33  1  0.703852  0.999065  0.880288  1
