# generated using pymatgen
data_Ta6V4Si5GeB
_symmetry_space_group_name_H-M   'P 1'
_cell_length_a   7.46926160
_cell_length_b   7.48195963
_cell_length_c   5.03287000
_cell_angle_alpha   90.00078333
_cell_angle_beta   89.99960296
_cell_angle_gamma   120.05625219
_symmetry_Int_Tables_number   1
_chemical_formula_structural   Ta6V4Si5GeB
_chemical_formula_sum   'Ta6 V4 Si5 Ge1 B1'
_cell_volume   243.44055122
_cell_formula_units_Z   1
loop_
 _symmetry_equiv_pos_site_id
 _symmetry_equiv_pos_as_xyz
  1  'x, y, z'
loop_
 _atom_site_type_symbol
 _atom_site_label
 _atom_site_symmetry_multiplicity
 _atom_site_fract_x
 _atom_site_fract_y
 _atom_site_fract_z
 _atom_site_occupancy
  Ta  Ta0  1  0.000000  0.757481  0.244826  1
  Ta  Ta1  1  0.247484  0.243704  0.245103  1
  Ta  Ta2  1  0.752516  0.996219  0.245103  1
  Ta  Ta3  1  0.000000  0.243707  0.754218  1
  Ta  Ta4  1  0.754292  0.754577  0.754903  1
  Ta  Ta5  1  0.245708  0.000285  0.754903  1
  V  V6  1  0.336669  0.669342  0.501895  1
  V  V7  1  0.663331  0.332673  0.501895  1
  V  V8  1  0.663891  0.332734  0.998059  1
  V  V9  1  0.336109  0.668845  0.998059  1
  Si  Si10  1  0.595140  0.594792  0.246843  1
  Si  Si11  1  0.404860  0.999652  0.246843  1
  Si  Si12  1  0.000000  0.596806  0.752789  1
  Si  Si13  1  0.403938  0.404296  0.753006  1
  Si  Si14  1  0.596062  0.000358  0.753006  1
  Ge  Ge15  1  0.000000  0.404155  0.248535  1
  B  B16  1  0.000000  0.000374  0.500015  1
