# generated using pymatgen
data_Ho3Er2Tm5Cd3Ru
_symmetry_space_group_name_H-M   'P 1'
_cell_length_a   9.47519620
_cell_length_b   9.47864456
_cell_length_c   9.76382601
_cell_angle_alpha   89.98859040
_cell_angle_beta   90.01230319
_cell_angle_gamma   119.98146169
_symmetry_Int_Tables_number   1
_chemical_formula_structural   Ho3Er2Tm5Cd3Ru
_chemical_formula_sum   'Ho6 Er4 Tm10 Cd6 Ru2'
_cell_volume   759.56719250
_cell_formula_units_Z   2
loop_
 _symmetry_equiv_pos_site_id
 _symmetry_equiv_pos_as_xyz
  1  'x, y, z'
loop_
 _atom_site_type_symbol
 _atom_site_label
 _atom_site_symmetry_multiplicity
 _atom_site_fract_x
 _atom_site_fract_y
 _atom_site_fract_z
 _atom_site_occupancy
  Ho  Ho0  1  0.540624  0.459347  0.249609  1
  Ho  Ho1  1  0.540456  0.081138  0.249482  1
  Ho  Ho2  1  0.918835  0.459516  0.249482  1
  Ho  Ho3  1  0.459670  0.540360  0.750401  1
  Ho  Ho4  1  0.459407  0.919073  0.750589  1
  Ho  Ho5  1  0.080960  0.540622  0.750592  1
  Er  Er6  1  0.209658  0.790348  0.440454  1
  Er  Er7  1  0.209755  0.419258  0.440381  1
  Er  Er8  1  0.580725  0.790239  0.440396  1
  Er  Er9  1  0.790025  0.209982  0.559689  1
  Tm  Tm10  1  0.000121  0.999880  0.500105  1
  Tm  Tm11  1  0.000013  0.999985  0.000106  1
  Tm  Tm12  1  0.789937  0.580161  0.559580  1
  Tm  Tm13  1  0.419862  0.210073  0.559562  1
  Tm  Tm14  1  0.790045  0.209955  0.940793  1
  Tm  Tm15  1  0.789955  0.580079  0.940597  1
  Tm  Tm16  1  0.419938  0.210053  0.940616  1
  Tm  Tm17  1  0.209927  0.790078  0.059205  1
  Tm  Tm18  1  0.209916  0.419859  0.059205  1
  Tm  Tm19  1  0.580123  0.790077  0.059185  1
  Cd  Cd20  1  0.885791  0.114244  0.249845  1
  Cd  Cd21  1  0.885680  0.771433  0.249895  1
  Cd  Cd22  1  0.228523  0.114303  0.249899  1
  Cd  Cd23  1  0.114212  0.885765  0.750168  1
  Cd  Cd24  1  0.114347  0.228548  0.750211  1
  Cd  Cd25  1  0.771492  0.885651  0.750198  1
  Ru  Ru26  1  0.333254  0.666631  0.249951  1
  Ru  Ru27  1  0.666748  0.333343  0.749807  1
