# generated using pymatgen
data_Ac4ZnRu3I2
_symmetry_space_group_name_H-M   'P 1'
_cell_length_a   4.43445600
_cell_length_b   4.43445589
_cell_length_c   18.67897500
_cell_angle_alpha   90.00000000
_cell_angle_beta   90.00000000
_cell_angle_gamma   119.99998589
_symmetry_Int_Tables_number   1
_chemical_formula_structural   Ac4ZnRu3I2
_chemical_formula_sum   'Ac4 Zn1 Ru3 I2'
_cell_volume   318.10055275
_cell_formula_units_Z   1
loop_
 _symmetry_equiv_pos_site_id
 _symmetry_equiv_pos_as_xyz
  1  'x, y, z'
loop_
 _atom_site_type_symbol
 _atom_site_label
 _atom_site_symmetry_multiplicity
 _atom_site_fract_x
 _atom_site_fract_y
 _atom_site_fract_z
 _atom_site_occupancy
  Ac  Ac0  1  0.000000  0.000000  0.104155  1
  Ac  Ac1  1  0.000000  0.000000  0.895400  1
  Ac  Ac2  1  0.000000  0.000000  0.605240  1
  Ac  Ac3  1  0.000000  0.000000  0.395791  1
  Zn  Zn4  1  0.333333  0.666667  0.500184  1
  Ru  Ru5  1  0.666667  0.333333  0.499714  1
  Ru  Ru6  1  0.666667  0.333333  0.003804  1
  Ru  Ru7  1  0.333333  0.666667  0.996198  1
  I  I8  1  0.333333  0.666667  0.250921  1
  I  I9  1  0.666667  0.333333  0.748593  1
