# generated using pymatgen
data_Te12Rh2AuI5
_symmetry_space_group_name_H-M   'P 1'
_cell_length_a   9.55941658
_cell_length_b   9.55941647
_cell_length_c   9.82655610
_cell_angle_alpha   107.73230188
_cell_angle_beta   107.73229968
_cell_angle_gamma   111.00110882
_symmetry_Int_Tables_number   1
_chemical_formula_structural   Te12Rh2AuI5
_chemical_formula_sum   'Te12 Rh2 Au1 I5'
_cell_volume   706.80577132
_cell_formula_units_Z   1
loop_
 _symmetry_equiv_pos_site_id
 _symmetry_equiv_pos_as_xyz
  1  'x, y, z'
loop_
 _atom_site_type_symbol
 _atom_site_label
 _atom_site_symmetry_multiplicity
 _atom_site_fract_x
 _atom_site_fract_y
 _atom_site_fract_z
 _atom_site_occupancy
  Te  Te0  1  0.932682  0.178538  0.181522  1
  Te  Te1  1  0.180778  0.924030  0.155126  1
  Te  Te2  1  0.188648  0.209362  0.950463  1
  Te  Te3  1  0.699961  0.679034  0.446188  1
  Te  Te4  1  0.424979  0.672825  0.662366  1
  Te  Te5  1  0.656082  0.424404  0.682317  1
  Te  Te6  1  0.075596  0.843918  0.817683  1
  Te  Te7  1  0.827175  0.075021  0.837634  1
  Te  Te8  1  0.820966  0.800039  0.053812  1
  Te  Te9  1  0.290638  0.311352  0.549537  1
  Te  Te10  1  0.575970  0.319222  0.344874  1
  Te  Te11  1  0.321462  0.567318  0.318478  1
  Rh  Rh12  1  0.251531  0.248469  0.250000  1
  Rh  Rh13  1  0.749364  0.750636  0.750000  1
  Au  Au14  1  0.994168  0.505832  0.250000  1
  I  I15  1  0.170873  0.900441  0.471590  1
  I  I16  1  0.599559  0.329127  0.028410  1
  I  I17  1  0.756882  0.030067  0.486057  1
  I  I18  1  0.469933  0.743118  0.013943  1
  I  I19  1  0.012752  0.487248  0.750000  1
