# generated using pymatgen
data_Yb3TiCoC6
_symmetry_space_group_name_H-M   'P 1'
_cell_length_a   8.16770800
_cell_length_b   8.16770770
_cell_length_c   5.11396200
_cell_angle_alpha   90.00000000
_cell_angle_beta   90.00000000
_cell_angle_gamma   119.99999797
_symmetry_Int_Tables_number   1
_chemical_formula_structural   Yb3TiCoC6
_chemical_formula_sum   'Yb6 Ti2 Co2 C12'
_cell_volume   295.45308374
_cell_formula_units_Z   2
loop_
 _symmetry_equiv_pos_site_id
 _symmetry_equiv_pos_as_xyz
  1  'x, y, z'
loop_
 _atom_site_type_symbol
 _atom_site_label
 _atom_site_symmetry_multiplicity
 _atom_site_fract_x
 _atom_site_fract_y
 _atom_site_fract_z
 _atom_site_occupancy
  Yb  Yb0  1  0.608087  0.674581  0.750000  1
  Yb  Yb1  1  0.933507  0.608087  0.250000  1
  Yb  Yb2  1  0.674581  0.066493  0.250000  1
  Yb  Yb3  1  0.325419  0.933507  0.750000  1
  Yb  Yb4  1  0.066493  0.391913  0.750000  1
  Yb  Yb5  1  0.391913  0.325419  0.250000  1
  Ti  Ti6  1  0.000000  0.000000  0.500000  1
  Ti  Ti7  1  0.000000  0.000000  0.000000  1
  Co  Co8  1  0.666667  0.333333  0.750000  1
  Co  Co9  1  0.333333  0.666667  0.250000  1
  C  C10  1  0.956672  0.758666  0.750000  1
  C  C11  1  0.198007  0.956672  0.250000  1
  C  C12  1  0.758666  0.801993  0.250000  1
  C  C13  1  0.241334  0.198007  0.750000  1
  C  C14  1  0.801993  0.043328  0.750000  1
  C  C15  1  0.043328  0.241334  0.250000  1
  C  C16  1  0.859423  0.571353  0.750000  1
  C  C17  1  0.288070  0.859423  0.250000  1
  C  C18  1  0.571353  0.711930  0.250000  1
  C  C19  1  0.428647  0.288070  0.750000  1
  C  C20  1  0.140577  0.428647  0.250000  1
  C  C21  1  0.711930  0.140577  0.750000  1
