# generated using pymatgen
data_DyEr3Np2O12
_symmetry_space_group_name_H-M   'P 1'
_cell_length_a   5.50246400
_cell_length_b   7.79686324
_cell_length_c   11.79584958
_cell_angle_alpha   73.66560717
_cell_angle_beta   90.00000000
_cell_angle_gamma   90.00000000
_symmetry_Int_Tables_number   1
_chemical_formula_structural   DyEr3Np2O12
_chemical_formula_sum   'Dy2 Er6 Np4 O24'
_cell_volume   485.63857429
_cell_formula_units_Z   2
loop_
 _symmetry_equiv_pos_site_id
 _symmetry_equiv_pos_as_xyz
  1  'x, y, z'
loop_
 _atom_site_type_symbol
 _atom_site_label
 _atom_site_symmetry_multiplicity
 _atom_site_fract_x
 _atom_site_fract_y
 _atom_site_fract_z
 _atom_site_occupancy
  Dy  Dy0  1  0.698083  0.500000  0.750000  1
  Dy  Dy1  1  0.301917  0.500000  0.250000  1
  Er  Er2  1  0.744004  0.000000  0.750000  1
  Er  Er3  1  0.255996  0.000000  0.250000  1
  Er  Er4  1  0.187363  0.795434  0.579572  1
  Er  Er5  1  0.812637  0.795434  0.079572  1
  Er  Er6  1  0.187363  0.204566  0.920428  1
  Er  Er7  1  0.812637  0.204566  0.420428  1
  Np  Np8  1  0.255344  0.720422  0.887109  1
  Np  Np9  1  0.744656  0.720422  0.387109  1
  Np  Np10  1  0.255344  0.279578  0.612891  1
  Np  Np11  1  0.744656  0.279578  0.112891  1
  O  O12  1  0.042688  0.944716  0.896609  1
  O  O13  1  0.554001  0.850822  0.931471  1
  O  O14  1  0.957312  0.944716  0.396609  1
  O  O15  1  0.450698  0.801189  0.726070  1
  O  O16  1  0.445999  0.850822  0.431471  1
  O  O17  1  0.964402  0.715086  0.766257  1
  O  O18  1  0.549302  0.801189  0.226070  1
  O  O19  1  0.877530  0.627075  0.555469  1
  O  O20  1  0.388113  0.478941  0.884351  1
  O  O21  1  0.035598  0.715086  0.266257  1
  O  O22  1  0.388113  0.521059  0.615649  1
  O  O23  1  0.877530  0.372925  0.944531  1
  O  O24  1  0.122470  0.627075  0.055469  1
  O  O25  1  0.611887  0.478941  0.384351  1
  O  O26  1  0.964402  0.284914  0.733743  1
  O  O27  1  0.611887  0.521059  0.115649  1
  O  O28  1  0.122470  0.372925  0.444531  1
  O  O29  1  0.450698  0.198811  0.773930  1
  O  O30  1  0.035598  0.284914  0.233743  1
  O  O31  1  0.554001  0.149178  0.568529  1
  O  O32  1  0.549302  0.198811  0.273930  1
  O  O33  1  0.042688  0.055284  0.603391  1
  O  O34  1  0.445999  0.149178  0.068529  1
  O  O35  1  0.957312  0.055284  0.103391  1
