# generated using pymatgen
data_Th2Nb3P7Rh9
_symmetry_space_group_name_H-M   'P 1'
_cell_length_a   3.98692810
_cell_length_b   9.70193400
_cell_length_c   9.69562426
_cell_angle_alpha   120.10726348
_cell_angle_beta   90.01232844
_cell_angle_gamma   90.01271635
_symmetry_Int_Tables_number   1
_chemical_formula_structural   Th2Nb3P7Rh9
_chemical_formula_sum   'Th2 Nb3 P7 Rh9'
_cell_volume   324.43870610
_cell_formula_units_Z   1
loop_
 _symmetry_equiv_pos_site_id
 _symmetry_equiv_pos_as_xyz
  1  'x, y, z'
loop_
 _atom_site_type_symbol
 _atom_site_label
 _atom_site_symmetry_multiplicity
 _atom_site_fract_x
 _atom_site_fract_y
 _atom_site_fract_z
 _atom_site_occupancy
  Th  Th0  1  0.261661  0.666780  0.333591  1
  Th  Th1  1  0.761964  0.333117  0.666419  1
  Nb  Nb2  1  0.761973  0.094356  0.875003  1
  Nb  Nb3  1  0.761966  0.125070  0.219369  1
  Nb  Nb4  1  0.761977  0.780672  0.905911  1
  P  P5  1  0.262078  0.000052  0.999988  1
  P  P6  1  0.761880  0.883536  0.595480  1
  P  P7  1  0.761876  0.404490  0.288121  1
  P  P8  1  0.761885  0.711977  0.116493  1
  P  P9  1  0.261835  0.111834  0.410304  1
  P  P10  1  0.261846  0.589677  0.701466  1
  P  P11  1  0.261847  0.298492  0.888080  1
  Rh  Rh12  1  0.261918  0.882059  0.159718  1
  Rh  Rh13  1  0.261927  0.840181  0.722088  1
  Rh  Rh14  1  0.261902  0.277908  0.118138  1
  Rh  Rh15  1  0.761898  0.611974  0.559261  1
  Rh  Rh16  1  0.761879  0.440523  0.052717  1
  Rh  Rh17  1  0.761898  0.947268  0.387993  1
  Rh  Rh18  1  0.261915  0.367478  0.438620  1
  Rh  Rh19  1  0.261961  0.561361  0.928739  1
  Rh  Rh20  1  0.261913  0.071194  0.632498  1
