# generated using pymatgen
data_Sm2Be(SiRh2)3
_symmetry_space_group_name_H-M   'P 1'
_cell_length_a   5.56787008
_cell_length_b   6.61259003
_cell_length_c   6.61259049
_cell_angle_alpha   65.14610118
_cell_angle_beta   65.29623386
_cell_angle_gamma   65.29622349
_symmetry_Int_Tables_number   1
_chemical_formula_structural   Sm2Be(SiRh2)3
_chemical_formula_sum   'Sm2 Be1 Si3 Rh6'
_cell_volume   191.83262965
_cell_formula_units_Z   1
loop_
 _symmetry_equiv_pos_site_id
 _symmetry_equiv_pos_as_xyz
  1  'x, y, z'
loop_
 _atom_site_type_symbol
 _atom_site_label
 _atom_site_symmetry_multiplicity
 _atom_site_fract_x
 _atom_site_fract_y
 _atom_site_fract_z
 _atom_site_occupancy
  Sm  Sm0  1  0.537559  0.745808  0.745808  1
  Sm  Sm1  1  0.454509  0.255276  0.255276  1
  Be  Be2  1  0.227720  0.574362  0.574362  1
  Si  Si3  1  0.776690  0.421269  0.421269  1
  Si  Si4  1  0.123053  0.079343  0.079343  1
  Si  Si5  1  0.876691  0.922270  0.922270  1
  Rh  Rh6  1  0.499556  0.221290  0.779272  1
  Rh  Rh7  1  0.001152  0.719495  0.283726  1
  Rh  Rh8  1  0.499556  0.779272  0.221290  1
  Rh  Rh9  1  0.001152  0.283726  0.719495  1
  Rh  Rh10  1  0.001182  0.504319  0.993573  1
  Rh  Rh11  1  0.001182  0.993573  0.504319  1
