# generated using pymatgen
data_Y9Ho7MgIn3Rh4
_symmetry_space_group_name_H-M   'P 1'
_cell_length_a   9.67786699
_cell_length_b   9.68437113
_cell_length_c   9.67483581
_cell_angle_alpha   59.98379617
_cell_angle_beta   60.20258666
_cell_angle_gamma   60.09462149
_symmetry_Int_Tables_number   1
_chemical_formula_structural   Y9Ho7MgIn3Rh4
_chemical_formula_sum   'Y9 Ho7 Mg1 In3 Rh4'
_cell_volume   642.53576346
_cell_formula_units_Z   1
loop_
 _symmetry_equiv_pos_site_id
 _symmetry_equiv_pos_as_xyz
  1  'x, y, z'
loop_
 _atom_site_type_symbol
 _atom_site_label
 _atom_site_symmetry_multiplicity
 _atom_site_fract_x
 _atom_site_fract_y
 _atom_site_fract_z
 _atom_site_occupancy
  Y  Y0  1  0.189617  0.190066  0.810288  1
  Y  Y1  1  0.600992  0.599524  0.202846  1
  Y  Y2  1  0.441373  0.058566  0.440281  1
  Y  Y3  1  0.441321  0.440570  0.058405  1
  Y  Y4  1  0.814813  0.186148  0.813431  1
  Y  Y5  1  0.187814  0.811915  0.189681  1
  Y  Y6  1  0.437558  0.062014  0.061699  1
  Y  Y7  1  0.186521  0.813835  0.813212  1
  Y  Y8  1  0.062476  0.436773  0.061890  1
  Ho  Ho9  1  0.814883  0.814070  0.186342  1
  Ho  Ho10  1  0.201397  0.600861  0.600035  1
  Ho  Ho11  1  0.059245  0.440617  0.440233  1
  Ho  Ho12  1  0.062278  0.062022  0.436764  1
  Ho  Ho13  1  0.812778  0.187524  0.189016  1
  Ho  Ho14  1  0.600642  0.204012  0.598368  1
  Ho  Ho15  1  0.598778  0.598147  0.597002  1
  Mg  Mg16  1  0.826507  0.826913  0.826476  1
  In  In17  1  0.831305  0.832709  0.502237  1
  In  In18  1  0.501298  0.832580  0.832652  1
  In  In19  1  0.831971  0.501746  0.833277  1
  Rh  Rh20  1  0.388787  0.822704  0.394812  1
  Rh  Rh21  1  0.389852  0.393984  0.396414  1
  Rh  Rh22  1  0.825334  0.389610  0.394853  1
  Rh  Rh23  1  0.392463  0.393088  0.819790  1
