# generated using pymatgen
data_Na2(PuSe2)3
_symmetry_space_group_name_H-M   'P 1'
_cell_length_a   7.28075385
_cell_length_b   7.28075444
_cell_length_c   7.42538614
_cell_angle_alpha   80.62713744
_cell_angle_beta   80.62713635
_cell_angle_gamma   120.17091247
_symmetry_Int_Tables_number   1
_chemical_formula_structural   Na2(PuSe2)3
_chemical_formula_sum   'Na2 Pu3 Se6'
_cell_volume   321.63593556
_cell_formula_units_Z   1
loop_
 _symmetry_equiv_pos_site_id
 _symmetry_equiv_pos_as_xyz
  1  'x, y, z'
loop_
 _atom_site_type_symbol
 _atom_site_label
 _atom_site_symmetry_multiplicity
 _atom_site_fract_x
 _atom_site_fract_y
 _atom_site_fract_z
 _atom_site_occupancy
  Na  Na0  1  0.167022  0.832978  0.500000  1
  Na  Na1  1  0.832978  0.167022  0.500000  1
  Pu  Pu2  1  0.000000  0.000000  0.000000  1
  Pu  Pu3  1  0.334355  0.665645  0.000000  1
  Pu  Pu4  1  0.665645  0.334355  0.000000  1
  Se  Se5  1  0.929904  0.593458  0.219612  1
  Se  Se6  1  0.256493  0.256493  0.220714  1
  Se  Se7  1  0.593458  0.929904  0.219612  1
  Se  Se8  1  0.743507  0.743507  0.779286  1
  Se  Se9  1  0.070096  0.406542  0.780388  1
  Se  Se10  1  0.406542  0.070096  0.780388  1
