# generated using pymatgen
data_Ba3Sr13Li4(Mo2N7)4
_symmetry_space_group_name_H-M   'P 1'
_cell_length_a   15.06475243
_cell_length_b   6.35669100
_cell_length_c   10.16680050
_cell_angle_alpha   90.00000000
_cell_angle_beta   97.87419810
_cell_angle_gamma   90.00000000
_symmetry_Int_Tables_number   1
_chemical_formula_structural   Ba3Sr13Li4(Mo2N7)4
_chemical_formula_sum   'Ba3 Sr13 Li4 Mo8 N28'
_cell_volume   964.41315142
_cell_formula_units_Z   1
loop_
 _symmetry_equiv_pos_site_id
 _symmetry_equiv_pos_as_xyz
  1  'x, y, z'
loop_
 _atom_site_type_symbol
 _atom_site_label
 _atom_site_symmetry_multiplicity
 _atom_site_fract_x
 _atom_site_fract_y
 _atom_site_fract_z
 _atom_site_occupancy
  Ba  Ba0  1  0.750000  0.975750  0.250000  1
  Ba  Ba1  1  0.250000  0.312986  0.249999  1
  Ba  Ba2  1  0.750000  0.690587  0.749999  1
  Sr  Sr3  1  0.073994  0.225974  0.924012  1
  Sr  Sr4  1  0.426006  0.225974  0.575986  1
  Sr  Sr5  1  0.570206  0.771340  0.427067  1
  Sr  Sr6  1  0.929794  0.771340  0.072932  1
  Sr  Sr7  1  0.616557  0.129333  0.920726  1
  Sr  Sr8  1  0.883442  0.129333  0.579273  1
  Sr  Sr9  1  0.377876  0.869931  0.075832  1
  Sr  Sr10  1  0.122124  0.869931  0.424168  1
  Sr  Sr11  1  0.475745  0.716814  0.737378  1
  Sr  Sr12  1  0.024255  0.716814  0.762621  1
  Sr  Sr13  1  0.522866  0.279977  0.263299  1
  Sr  Sr14  1  0.977134  0.279977  0.236701  1
  Sr  Sr15  1  0.250000  0.022041  0.750000  1
  Li  Li16  1  0.759289  0.476085  0.117864  1
  Li  Li17  1  0.740711  0.476085  0.382136  1
  Li  Li18  1  0.241569  0.528199  0.881345  1
  Li  Li19  1  0.258432  0.528199  0.618655  1
  Mo  Mo20  1  0.402026  0.314863  0.913219  1
  Mo  Mo21  1  0.097974  0.314863  0.586780  1
  Mo  Mo22  1  0.593880  0.679554  0.083953  1
  Mo  Mo23  1  0.906120  0.679554  0.416047  1
  Mo  Mo24  1  0.649872  0.223342  0.607351  1
  Mo  Mo25  1  0.850129  0.223342  0.892648  1
  Mo  Mo26  1  0.347925  0.780052  0.395903  1
  Mo  Mo27  1  0.152075  0.780052  0.104096  1
  N  N28  1  0.576886  0.001051  0.644641  1
  N  N29  1  0.923115  0.001051  0.855359  1
  N  N30  1  0.421296  0.000903  0.359287  1
  N  N31  1  0.078705  0.000903  0.140713  1
  N  N32  1  0.187961  0.276960  0.483458  1
  N  N33  1  0.312039  0.276960  0.016542  1
  N  N34  1  0.816441  0.728167  0.518894  1
  N  N35  1  0.683559  0.728167  0.981106  1
  N  N36  1  0.915620  0.469849  0.886801  1
  N  N37  1  0.584380  0.469849  0.613199  1
  N  N38  1  0.750000  0.235056  0.749999  1
  N  N39  1  0.250000  0.765427  0.249999  1
  N  N40  1  0.066887  0.046715  0.639830  1
  N  N41  1  0.433112  0.046715  0.860170  1
  N  N42  1  0.943838  0.944517  0.367434  1
  N  N43  1  0.556162  0.944517  0.132568  1
  N  N44  1  0.999037  0.489360  0.501307  1
  N  N45  1  0.500963  0.489360  0.998694  1
  N  N46  1  0.194617  0.824735  0.941917  1
  N  N47  1  0.305384  0.824735  0.558082  1
  N  N48  1  0.812477  0.185121  0.057753  1
  N  N49  1  0.687523  0.185121  0.442247  1
  N  N50  1  0.352009  0.447336  0.760111  1
  N  N51  1  0.147991  0.447336  0.739888  1
  N  N52  1  0.646482  0.554790  0.239223  1
  N  N53  1  0.853519  0.554790  0.260777  1
  N  N54  1  0.085569  0.534108  0.106341  1
  N  N55  1  0.414430  0.534108  0.393660  1
