# generated using pymatgen
data_Tb4Fe3AuO14
_symmetry_space_group_name_H-M   'P 1'
_cell_length_a   7.27285649
_cell_length_b   7.27285727
_cell_length_c   7.27285783
_cell_angle_alpha   59.50703005
_cell_angle_beta   59.50702263
_cell_angle_gamma   59.50703088
_symmetry_Int_Tables_number   1
_chemical_formula_structural   Tb4Fe3AuO14
_chemical_formula_sum   'Tb4 Fe3 Au1 O14'
_cell_volume   268.96997057
_cell_formula_units_Z   1
loop_
 _symmetry_equiv_pos_site_id
 _symmetry_equiv_pos_as_xyz
  1  'x, y, z'
loop_
 _atom_site_type_symbol
 _atom_site_label
 _atom_site_symmetry_multiplicity
 _atom_site_fract_x
 _atom_site_fract_y
 _atom_site_fract_z
 _atom_site_occupancy
  Tb  Tb0  1  0.125000  0.625000  0.125000  1
  Tb  Tb1  1  0.125000  0.125000  0.625000  1
  Tb  Tb2  1  0.625000  0.125000  0.125000  1
  Tb  Tb3  1  0.125000  0.125000  0.125000  1
  Fe  Fe4  1  0.125000  0.625000  0.625000  1
  Fe  Fe5  1  0.625000  0.625000  0.125000  1
  Fe  Fe6  1  0.625000  0.125000  0.625000  1
  Au  Au7  1  0.625000  0.625000  0.625000  1
  O  O8  1  0.283408  0.714476  0.714476  1
  O  O9  1  0.542875  0.956494  0.956494  1
  O  O10  1  0.714476  0.714476  0.283408  1
  O  O11  1  0.293506  0.293506  0.707125  1
  O  O12  1  0.001079  0.001079  0.001079  1
  O  O13  1  0.293506  0.707125  0.293506  1
  O  O14  1  0.714476  0.283408  0.714476  1
  O  O15  1  0.956494  0.542875  0.956494  1
  O  O16  1  0.535524  0.535524  0.966592  1
  O  O17  1  0.956494  0.956494  0.542875  1
  O  O18  1  0.248921  0.248921  0.248921  1
  O  O19  1  0.535524  0.966592  0.535524  1
  O  O20  1  0.707125  0.293506  0.293506  1
  O  O21  1  0.966592  0.535524  0.535524  1
