# generated using pymatgen
data_CeHo19Pb16
_symmetry_space_group_name_H-M   'P 1'
_cell_length_a   8.20801243
_cell_length_b   8.28857045
_cell_length_c   15.65038200
_cell_angle_alpha   90.03239256
_cell_angle_beta   89.65195864
_cell_angle_gamma   89.71999065
_symmetry_Int_Tables_number   1
_chemical_formula_structural   CeHo19Pb16
_chemical_formula_sum   'Ce1 Ho19 Pb16'
_cell_volume   1064.70502891
_cell_formula_units_Z   1
loop_
 _symmetry_equiv_pos_site_id
 _symmetry_equiv_pos_as_xyz
  1  'x, y, z'
loop_
 _atom_site_type_symbol
 _atom_site_label
 _atom_site_symmetry_multiplicity
 _atom_site_fract_x
 _atom_site_fract_y
 _atom_site_fract_z
 _atom_site_occupancy
  Ce  Ce0  1  0.030108  0.180095  0.404420  1
  Ho  Ho1  1  0.878280  0.658620  0.119776  1
  Ho  Ho2  1  0.375537  0.840627  0.378694  1
  Ho  Ho3  1  0.622028  0.157815  0.878939  1
  Ho  Ho4  1  0.125434  0.342377  0.621395  1
  Ho  Ho5  1  0.122695  0.342559  0.879247  1
  Ho  Ho6  1  0.623963  0.156887  0.621610  1
  Ho  Ho7  1  0.377758  0.842708  0.120621  1
  Ho  Ho8  1  0.874891  0.657580  0.379304  1
  Ho  Ho9  1  0.037413  0.177465  0.100246  1
  Ho  Ho10  1  0.537101  0.325033  0.400102  1
  Ho  Ho11  1  0.462435  0.674991  0.899220  1
  Ho  Ho12  1  0.963906  0.821906  0.600098  1
  Ho  Ho13  1  0.962844  0.823473  0.899515  1
  Ho  Ho14  1  0.465899  0.676743  0.598778  1
  Ho  Ho15  1  0.537380  0.324815  0.099474  1
  Ho  Ho16  1  0.709052  0.995078  0.248669  1
  Ho  Ho17  1  0.209627  0.504372  0.249087  1
  Ho  Ho18  1  0.790995  0.495763  0.750072  1
  Ho  Ho19  1  0.291049  0.003926  0.750725  1
  Pb  Pb20  1  0.071825  0.874985  0.251211  1
  Pb  Pb21  1  0.572465  0.625327  0.249379  1
  Pb  Pb22  1  0.427993  0.374688  0.750044  1
  Pb  Pb23  1  0.928387  0.125962  0.750166  1
  Pb  Pb24  1  0.846893  0.347593  0.249655  1
  Pb  Pb25  1  0.347910  0.154454  0.250573  1
  Pb  Pb26  1  0.651984  0.845158  0.749670  1
  Pb  Pb27  1  0.152731  0.654187  0.749605  1
  Pb  Pb28  1  0.780333  0.466580  0.956743  1
  Pb  Pb29  1  0.282688  0.032092  0.543754  1
  Pb  Pb30  1  0.720290  0.968461  0.042774  1
  Pb  Pb31  1  0.219619  0.533784  0.456897  1
  Pb  Pb32  1  0.220619  0.534120  0.042181  1
  Pb  Pb33  1  0.714514  0.963270  0.457584  1
  Pb  Pb34  1  0.280273  0.032867  0.956997  1
  Pb  Pb35  1  0.783081  0.463640  0.542779  1
