# generated using pymatgen
data_Tm12Co2Ni3Pb
_symmetry_space_group_name_H-M   'P 1'
_cell_length_a   8.20969240
_cell_length_b   8.20969197
_cell_length_c   8.20969182
_cell_angle_alpha   109.47503281
_cell_angle_beta   111.28576845
_cell_angle_gamma   107.67300534
_symmetry_Int_Tables_number   1
_chemical_formula_structural   Tm12Co2Ni3Pb
_chemical_formula_sum   'Tm12 Co2 Ni3 Pb1'
_cell_volume   425.52670142
_cell_formula_units_Z   1
loop_
 _symmetry_equiv_pos_site_id
 _symmetry_equiv_pos_as_xyz
  1  'x, y, z'
loop_
 _atom_site_type_symbol
 _atom_site_label
 _atom_site_symmetry_multiplicity
 _atom_site_fract_x
 _atom_site_fract_y
 _atom_site_fract_z
 _atom_site_occupancy
  Tm  Tm0  1  0.289563  0.182331  0.471895  1
  Tm  Tm1  1  0.710437  0.817669  0.528105  1
  Tm  Tm2  1  0.289563  0.817669  0.107231  1
  Tm  Tm3  1  0.710437  0.182331  0.892769  1
  Tm  Tm4  1  0.624853  0.316986  0.307866  1
  Tm  Tm5  1  0.375147  0.683014  0.692134  1
  Tm  Tm6  1  0.009120  0.316986  0.692134  1
  Tm  Tm7  1  0.990880  0.683014  0.307866  1
  Tm  Tm8  1  0.213130  0.406976  0.193847  1
  Tm  Tm9  1  0.786870  0.593024  0.806153  1
  Tm  Tm10  1  0.213130  0.019282  0.806153  1
  Tm  Tm11  1  0.786870  0.980718  0.193847  1
  Co  Co12  1  0.384793  0.884793  0.500000  1
  Co  Co13  1  0.615207  0.115207  0.500000  1
  Ni  Ni14  1  0.000000  0.364725  0.364725  1
  Ni  Ni15  1  0.000000  0.635275  0.635275  1
  Ni  Ni16  1  0.000000  0.000000  0.000000  1
  Pb  Pb17  1  0.500000  0.500000  0.000000  1
