# generated using pymatgen
data_Lu2GaCo2Si
_symmetry_space_group_name_H-M   'P 1'
_cell_length_a   4.21256500
_cell_length_b   6.76025100
_cell_length_c   6.90861700
_cell_angle_alpha   90.00000000
_cell_angle_beta   90.00000000
_cell_angle_gamma   90.00000000
_symmetry_Int_Tables_number   1
_chemical_formula_structural   Lu2GaCo2Si
_chemical_formula_sum   'Lu4 Ga2 Co4 Si2'
_cell_volume   196.74357250
_cell_formula_units_Z   2
loop_
 _symmetry_equiv_pos_site_id
 _symmetry_equiv_pos_as_xyz
  1  'x, y, z'
loop_
 _atom_site_type_symbol
 _atom_site_label
 _atom_site_symmetry_multiplicity
 _atom_site_fract_x
 _atom_site_fract_y
 _atom_site_fract_z
 _atom_site_occupancy
  Lu  Lu0  1  0.750000  0.516455  0.807077  1
  Lu  Lu1  1  0.750000  0.016455  0.692923  1
  Lu  Lu2  1  0.250000  0.488778  0.195759  1
  Lu  Lu3  1  0.250000  0.988778  0.304241  1
  Ga  Ga4  1  0.750000  0.201594  0.104667  1
  Ga  Ga5  1  0.750000  0.701594  0.395333  1
  Co  Co6  1  0.750000  0.339530  0.446252  1
  Co  Co7  1  0.750000  0.839530  0.053748  1
  Co  Co8  1  0.250000  0.649843  0.574007  1
  Co  Co9  1  0.250000  0.149843  0.925993  1
  Si  Si10  1  0.250000  0.803799  0.893759  1
  Si  Si11  1  0.250000  0.303799  0.606241  1
