# generated using pymatgen
data_Tb3Al12(FePd)2
_symmetry_space_group_name_H-M   'P 1'
_cell_length_a   8.78769478
_cell_length_b   8.78769391
_cell_length_c   9.42458900
_cell_angle_alpha   90.05317062
_cell_angle_beta   89.94682286
_cell_angle_gamma   119.94190882
_symmetry_Int_Tables_number   1
_chemical_formula_structural   Tb3Al12(FePd)2
_chemical_formula_sum   'Tb6 Al24 Fe4 Pd4'
_cell_volume   630.66192379
_cell_formula_units_Z   2
loop_
 _symmetry_equiv_pos_site_id
 _symmetry_equiv_pos_as_xyz
  1  'x, y, z'
loop_
 _atom_site_type_symbol
 _atom_site_label
 _atom_site_symmetry_multiplicity
 _atom_site_fract_x
 _atom_site_fract_y
 _atom_site_fract_z
 _atom_site_occupancy
  Tb  Tb0  1  0.189447  0.382600  0.253554  1
  Tb  Tb1  1  0.810553  0.617400  0.746446  1
  Tb  Tb2  1  0.617400  0.810553  0.253554  1
  Tb  Tb3  1  0.382600  0.189447  0.746446  1
  Tb  Tb4  1  0.191401  0.808599  0.251839  1
  Tb  Tb5  1  0.808599  0.191401  0.748161  1
  Al  Al6  1  0.333496  0.666504  0.027244  1
  Al  Al7  1  0.666504  0.333496  0.972756  1
  Al  Al8  1  0.672372  0.327628  0.523763  1
  Al  Al9  1  0.327628  0.672372  0.476237  1
  Al  Al10  1  0.152652  0.321106  0.573180  1
  Al  Al11  1  0.847348  0.678894  0.426820  1
  Al  Al12  1  0.678894  0.847348  0.573180  1
  Al  Al13  1  0.841602  0.683521  0.078684  1
  Al  Al14  1  0.321106  0.152652  0.426820  1
  Al  Al15  1  0.158398  0.316479  0.921316  1
  Al  Al16  1  0.161705  0.838295  0.572838  1
  Al  Al17  1  0.316479  0.158398  0.078684  1
  Al  Al18  1  0.838295  0.161705  0.427162  1
  Al  Al19  1  0.683521  0.841602  0.921316  1
  Al  Al20  1  0.841129  0.158871  0.079869  1
  Al  Al21  1  0.158871  0.841129  0.920131  1
  Al  Al22  1  0.561534  0.122653  0.258884  1
  Al  Al23  1  0.438466  0.877347  0.741116  1
  Al  Al24  1  0.877347  0.438466  0.258884  1
  Al  Al25  1  0.122653  0.561534  0.741116  1
  Al  Al26  1  0.564626  0.435374  0.250092  1
  Al  Al27  1  0.435374  0.564626  0.749908  1
  Al  Al28  1  0.999373  0.000627  0.251382  1
  Al  Al29  1  0.000627  0.999373  0.748618  1
  Fe  Fe30  1  0.500000  0.000000  0.500000  1
  Fe  Fe31  1  0.000000  0.500000  0.500000  1
  Fe  Fe32  1  0.000000  0.000000  0.000000  1
  Fe  Fe33  1  0.000000  0.000000  0.500000  1
  Pd  Pd34  1  0.500000  0.000000  0.000000  1
  Pd  Pd35  1  0.000000  0.500000  0.000000  1
  Pd  Pd36  1  0.500000  0.500000  0.000000  1
  Pd  Pd37  1  0.500000  0.500000  0.500000  1
