# generated using pymatgen
data_BaGePdSe4
_symmetry_space_group_name_H-M   'P 1'
_cell_length_a   8.81594885
_cell_length_b   8.81594916
_cell_length_c   8.81594784
_cell_angle_alpha   125.40190999
_cell_angle_beta   125.40190600
_cell_angle_gamma   80.87338347
_symmetry_Int_Tables_number   1
_chemical_formula_structural   BaGePdSe4
_chemical_formula_sum   'Ba2 Ge2 Pd2 Se8'
_cell_volume   438.78924711
_cell_formula_units_Z   2
loop_
 _symmetry_equiv_pos_site_id
 _symmetry_equiv_pos_as_xyz
  1  'x, y, z'
loop_
 _atom_site_type_symbol
 _atom_site_label
 _atom_site_symmetry_multiplicity
 _atom_site_fract_x
 _atom_site_fract_y
 _atom_site_fract_z
 _atom_site_occupancy
  Ba  Ba0  1  0.250000  0.250000  0.000000  1
  Ba  Ba1  1  0.750000  0.750000  0.000000  1
  Ge  Ge2  1  0.750000  0.250000  0.500000  1
  Ge  Ge3  1  0.250000  0.750000  0.500000  1
  Pd  Pd4  1  0.500000  0.000000  0.500000  1
  Pd  Pd5  1  0.000000  0.500000  0.500000  1
  Se  Se6  1  0.213271  0.713270  0.188925  1
  Se  Se7  1  0.475653  0.975653  0.188925  1
  Se  Se8  1  0.024346  0.213270  0.500000  1
  Se  Se9  1  0.286729  0.475654  0.500000  1
  Se  Se10  1  0.713270  0.524346  0.500000  1
  Se  Se11  1  0.975653  0.786729  0.500000  1
  Se  Se12  1  0.524346  0.024346  0.811074  1
  Se  Se13  1  0.786729  0.286729  0.811074  1
