# generated using pymatgen
data_Nd4Si10PdPt5
_symmetry_space_group_name_H-M   'P 1'
_cell_length_a   8.26969535
_cell_length_b   8.26969603
_cell_length_c   8.26969441
_cell_angle_alpha   136.65790186
_cell_angle_beta   105.62548955
_cell_angle_gamma   90.19383433
_symmetry_Int_Tables_number   1
_chemical_formula_structural   Nd4Si10PdPt5
_chemical_formula_sum   'Nd4 Si10 Pd1 Pt5'
_cell_volume   356.42682661
_cell_formula_units_Z   1
loop_
 _symmetry_equiv_pos_site_id
 _symmetry_equiv_pos_as_xyz
  1  'x, y, z'
loop_
 _atom_site_type_symbol
 _atom_site_label
 _atom_site_symmetry_multiplicity
 _atom_site_fract_x
 _atom_site_fract_y
 _atom_site_fract_z
 _atom_site_occupancy
  Nd  Nd0  1  0.639178  0.872335  0.768940  1
  Nd  Nd1  1  0.360822  0.129762  0.233157  1
  Nd  Nd2  1  0.103395  0.370238  0.731060  1
  Nd  Nd3  1  0.896605  0.627665  0.266843  1
  Si  Si4  1  0.271459  0.021459  0.750000  1
  Si  Si5  1  0.727893  0.977893  0.250000  1
  Si  Si6  1  0.728541  0.478541  0.750000  1
  Si  Si7  1  0.272107  0.522107  0.250000  1
  Si  Si8  1  0.463016  0.613600  0.850737  1
  Si  Si9  1  0.536984  0.387721  0.150584  1
  Si  Si10  1  0.762863  0.112279  0.649263  1
  Si  Si11  1  0.237137  0.886400  0.349416  1
  Si  Si12  1  0.000000  0.750000  0.750000  1
  Si  Si13  1  0.000000  0.250000  0.250000  1
  Pd  Pd14  1  0.500000  0.250000  0.750000  1
  Pt  Pt15  1  0.246081  0.637079  0.609499  1
  Pt  Pt16  1  0.753919  0.363417  0.390997  1
  Pt  Pt17  1  0.027580  0.136583  0.890501  1
  Pt  Pt18  1  0.972420  0.862921  0.109003  1
  Pt  Pt19  1  0.500000  0.750000  0.250000  1
