# generated using pymatgen
data_RbBa(AsRu)4
_symmetry_space_group_name_H-M   'P 1'
_cell_length_a   7.05668428
_cell_length_b   7.05668368
_cell_length_c   5.89709400
_cell_angle_alpha   90.00000000
_cell_angle_beta   90.00000000
_cell_angle_gamma   130.68502116
_symmetry_Int_Tables_number   1
_chemical_formula_structural   RbBa(AsRu)4
_chemical_formula_sum   'Rb1 Ba1 As4 Ru4'
_cell_volume   222.68101235
_cell_formula_units_Z   1
loop_
 _symmetry_equiv_pos_site_id
 _symmetry_equiv_pos_as_xyz
  1  'x, y, z'
loop_
 _atom_site_type_symbol
 _atom_site_label
 _atom_site_symmetry_multiplicity
 _atom_site_fract_x
 _atom_site_fract_y
 _atom_site_fract_z
 _atom_site_occupancy
  Rb  Rb0  1  0.000000  0.000000  0.000000  1
  Ba  Ba1  1  0.500000  0.500000  0.500000  1
  As  As2  1  0.652027  0.347973  0.000000  1
  As  As3  1  0.150823  0.849177  0.500000  1
  As  As4  1  0.849177  0.150823  0.500000  1
  As  As5  1  0.347973  0.652027  0.000000  1
  Ru  Ru6  1  0.500000  0.000000  0.749182  1
  Ru  Ru7  1  0.000000  0.500000  0.250818  1
  Ru  Ru8  1  0.000000  0.500000  0.749182  1
  Ru  Ru9  1  0.500000  0.000000  0.250818  1
