# generated using pymatgen
data_ScTi9B20
_symmetry_space_group_name_H-M   'P 1'
_cell_length_a   6.06248885
_cell_length_b   6.87921484
_cell_length_c   7.16537100
_cell_angle_alpha   93.27768940
_cell_angle_beta   102.16134304
_cell_angle_gamma   116.20686910
_symmetry_Int_Tables_number   1
_chemical_formula_structural   ScTi9B20
_chemical_formula_sum   'Sc1 Ti9 B20'
_cell_volume   258.22529666
_cell_formula_units_Z   1
loop_
 _symmetry_equiv_pos_site_id
 _symmetry_equiv_pos_as_xyz
  1  'x, y, z'
loop_
 _atom_site_type_symbol
 _atom_site_label
 _atom_site_symmetry_multiplicity
 _atom_site_fract_x
 _atom_site_fract_y
 _atom_site_fract_z
 _atom_site_occupancy
  Sc  Sc0  1  0.000000  0.000000  0.000000  1
  Ti  Ti1  1  0.500000  0.000000  0.000000  1
  Ti  Ti2  1  0.499346  0.798894  0.400300  1
  Ti  Ti3  1  0.999303  0.398942  0.200797  1
  Ti  Ti4  1  0.500654  0.201106  0.599700  1
  Ti  Ti5  1  0.999596  0.798586  0.400251  1
  Ti  Ti6  1  0.500124  0.601016  0.799358  1
  Ti  Ti7  1  0.499876  0.398984  0.200642  1
  Ti  Ti8  1  0.000404  0.201414  0.599749  1
  Ti  Ti9  1  0.000697  0.601058  0.799203  1
  B  B10  1  0.335298  0.235435  0.864419  1
  B  B11  1  0.333237  0.632877  0.067009  1
  B  B12  1  0.167618  0.369393  0.932203  1
  B  B13  1  0.335150  0.032546  0.269681  1
  B  B14  1  0.167467  0.764570  0.135417  1
  B  B15  1  0.832533  0.235430  0.864583  1
  B  B16  1  0.167374  0.166823  0.336801  1
  B  B17  1  0.832382  0.630607  0.067797  1
  B  B18  1  0.333502  0.433456  0.467095  1
  B  B19  1  0.666763  0.367123  0.932991  1
  B  B20  1  0.832371  0.032621  0.269707  1
  B  B21  1  0.664702  0.764565  0.135581  1
  B  B22  1  0.333071  0.833563  0.665287  1
  B  B23  1  0.166629  0.566874  0.533190  1
  B  B24  1  0.666929  0.166437  0.334713  1
  B  B25  1  0.833371  0.433126  0.466810  1
  B  B26  1  0.167629  0.967379  0.730293  1
  B  B27  1  0.832626  0.833177  0.663199  1
  B  B28  1  0.666498  0.566544  0.532905  1
  B  B29  1  0.664850  0.967454  0.730319  1
