# generated using pymatgen
data_CaSmTaRh3
_symmetry_space_group_name_H-M   'P 1'
_cell_length_a   5.24538457
_cell_length_b   5.24538434
_cell_length_c   5.24538305
_cell_angle_alpha   66.43541734
_cell_angle_beta   66.43542003
_cell_angle_gamma   66.43540978
_symmetry_Int_Tables_number   1
_chemical_formula_structural   CaSmTaRh3
_chemical_formula_sum   'Ca1 Sm1 Ta1 Rh3'
_cell_volume   116.20485280
_cell_formula_units_Z   1
loop_
 _symmetry_equiv_pos_site_id
 _symmetry_equiv_pos_as_xyz
  1  'x, y, z'
loop_
 _atom_site_type_symbol
 _atom_site_label
 _atom_site_symmetry_multiplicity
 _atom_site_fract_x
 _atom_site_fract_y
 _atom_site_fract_z
 _atom_site_occupancy
  Ca  Ca0  1  0.872672  0.872672  0.872672  1
  Sm  Sm1  1  0.126940  0.126940  0.126940  1
  Ta  Ta2  1  0.500036  0.500036  0.500036  1
  Rh  Rh3  1  0.999784  0.500284  0.500284  1
  Rh  Rh4  1  0.500284  0.500284  0.999784  1
  Rh  Rh5  1  0.500284  0.999784  0.500284  1
