# generated using pymatgen
data_Zr2TiGe2Mo
_symmetry_space_group_name_H-M   'P 1'
_cell_length_a   3.65578200
_cell_length_b   6.98090200
_cell_length_c   8.44662300
_cell_angle_alpha   90.00000000
_cell_angle_beta   90.00000000
_cell_angle_gamma   90.00000000
_symmetry_Int_Tables_number   1
_chemical_formula_structural   Zr2TiGe2Mo
_chemical_formula_sum   'Zr4 Ti2 Ge4 Mo2'
_cell_volume   215.56335889
_cell_formula_units_Z   2
loop_
 _symmetry_equiv_pos_site_id
 _symmetry_equiv_pos_as_xyz
  1  'x, y, z'
loop_
 _atom_site_type_symbol
 _atom_site_label
 _atom_site_symmetry_multiplicity
 _atom_site_fract_x
 _atom_site_fract_y
 _atom_site_fract_z
 _atom_site_occupancy
  Zr  Zr0  1  0.250000  0.555972  0.835803  1
  Zr  Zr1  1  0.250000  0.055972  0.664197  1
  Zr  Zr2  1  0.750000  0.454011  0.164762  1
  Zr  Zr3  1  0.750000  0.954011  0.335238  1
  Ti  Ti4  1  0.250000  0.620195  0.444557  1
  Ti  Ti5  1  0.250000  0.120195  0.055443  1
  Ge  Ge6  1  0.250000  0.751162  0.143106  1
  Ge  Ge7  1  0.250000  0.251162  0.356894  1
  Ge  Ge8  1  0.750000  0.250163  0.861404  1
  Ge  Ge9  1  0.750000  0.750163  0.638596  1
  Mo  Mo10  1  0.750000  0.368497  0.557569  1
  Mo  Mo11  1  0.750000  0.868497  0.942431  1
