# generated using pymatgen
data_Rb4SbAu8
_symmetry_space_group_name_H-M   'P 1'
_cell_length_a   11.24462259
_cell_length_b   11.24462192
_cell_length_c   10.51066762
_cell_angle_alpha   77.77936590
_cell_angle_beta   77.77936878
_cell_angle_gamma   36.29022167
_symmetry_Int_Tables_number   1
_chemical_formula_structural   Rb4SbAu8
_chemical_formula_sum   'Rb8 Sb2 Au16'
_cell_volume   766.83032734
_cell_formula_units_Z   2
loop_
 _symmetry_equiv_pos_site_id
 _symmetry_equiv_pos_as_xyz
  1  'x, y, z'
loop_
 _atom_site_type_symbol
 _atom_site_label
 _atom_site_symmetry_multiplicity
 _atom_site_fract_x
 _atom_site_fract_y
 _atom_site_fract_z
 _atom_site_occupancy
  Rb  Rb0  1  0.480028  0.480028  0.842595  1
  Rb  Rb1  1  0.519972  0.519972  0.157405  1
  Rb  Rb2  1  0.284407  0.284407  0.912026  1
  Rb  Rb3  1  0.715593  0.715593  0.087974  1
  Rb  Rb4  1  0.223122  0.223122  0.601373  1
  Rb  Rb5  1  0.776878  0.776878  0.398627  1
  Rb  Rb6  1  0.045386  0.045386  0.639838  1
  Rb  Rb7  1  0.954614  0.954614  0.360162  1
  Sb  Sb8  1  0.666590  0.666590  0.772009  1
  Sb  Sb9  1  0.333410  0.333410  0.227991  1
  Au  Au10  1  0.794114  0.794114  0.731977  1
  Au  Au11  1  0.205886  0.205886  0.268023  1
  Au  Au12  1  0.621060  0.621060  0.559418  1
  Au  Au13  1  0.378940  0.378940  0.440582  1
  Au  Au14  1  0.500000  0.500000  0.500000  1
  Au  Au15  1  0.000000  0.000000  0.000000  1
  Au  Au16  1  0.102077  0.102077  0.149129  1
  Au  Au17  1  0.897923  0.897923  0.850871  1
  Au  Au18  1  0.841907  0.372723  0.355024  1
  Au  Au19  1  0.627277  0.158093  0.644976  1
  Au  Au20  1  0.158093  0.627277  0.644976  1
  Au  Au21  1  0.372723  0.841907  0.355024  1
  Au  Au22  1  0.070925  0.685298  0.094254  1
  Au  Au23  1  0.314702  0.929075  0.905746  1
  Au  Au24  1  0.929075  0.314702  0.905746  1
  Au  Au25  1  0.685298  0.070925  0.094254  1
