# generated using pymatgen
data_Tb5Yb3(Ge4Mo3)4
_symmetry_space_group_name_H-M   'P 1'
_cell_length_a   6.90846851
_cell_length_b   7.07516133
_cell_length_c   13.19332856
_cell_angle_alpha   89.94466187
_cell_angle_beta   89.99383914
_cell_angle_gamma   90.04335779
_symmetry_Int_Tables_number   1
_chemical_formula_structural   Tb5Yb3(Ge4Mo3)4
_chemical_formula_sum   'Tb5 Yb3 Ge16 Mo12'
_cell_volume   644.87000626
_cell_formula_units_Z   1
loop_
 _symmetry_equiv_pos_site_id
 _symmetry_equiv_pos_as_xyz
  1  'x, y, z'
loop_
 _atom_site_type_symbol
 _atom_site_label
 _atom_site_symmetry_multiplicity
 _atom_site_fract_x
 _atom_site_fract_y
 _atom_site_fract_z
 _atom_site_occupancy
  Tb  Tb0  1  0.989816  0.829032  0.907269  1
  Tb  Tb1  1  0.990637  0.829575  0.591113  1
  Tb  Tb2  1  0.490352  0.670524  0.908947  1
  Tb  Tb3  1  0.508204  0.328893  0.408977  1
  Tb  Tb4  1  0.008657  0.171829  0.092584  1
  Yb  Yb5  1  0.009080  0.171178  0.409280  1
  Yb  Yb6  1  0.509450  0.329185  0.091739  1
  Yb  Yb7  1  0.490293  0.669653  0.589665  1
  Ge  Ge8  1  0.330999  0.044893  0.546971  1
  Ge  Ge9  1  0.829268  0.451467  0.954035  1
  Ge  Ge10  1  0.669029  0.955101  0.047525  1
  Ge  Ge11  1  0.168962  0.545219  0.453202  1
  Ge  Ge12  1  0.172151  0.546122  0.047049  1
  Ge  Ge13  1  0.670415  0.952914  0.452984  1
  Ge  Ge14  1  0.829462  0.452894  0.547495  1
  Ge  Ge15  1  0.330693  0.049130  0.953492  1
  Ge  Ge16  1  0.810420  0.355687  0.250808  1
  Ge  Ge17  1  0.311364  0.145090  0.250057  1
  Ge  Ge18  1  0.685041  0.853740  0.747742  1
  Ge  Ge19  1  0.191878  0.643139  0.747890  1
  Ge  Ge20  1  0.030647  0.873423  0.251856  1
  Ge  Ge21  1  0.530946  0.628176  0.249165  1
  Ge  Ge22  1  0.470203  0.370575  0.749240  1
  Ge  Ge23  1  0.969060  0.130894  0.749449  1
  Mo  Mo24  1  0.332402  0.842845  0.128103  1
  Mo  Mo25  1  0.833649  0.657289  0.371933  1
  Mo  Mo26  1  0.666886  0.156525  0.627664  1
  Mo  Mo27  1  0.167519  0.344299  0.872572  1
  Mo  Mo28  1  0.167134  0.342090  0.627658  1
  Mo  Mo29  1  0.668664  0.155266  0.872421  1
  Mo  Mo30  1  0.334910  0.009846  0.750827  1
  Mo  Mo31  1  0.835637  0.659440  0.127610  1
  Mo  Mo32  1  0.663593  0.989106  0.250521  1
  Mo  Mo33  1  0.162794  0.511821  0.249544  1
  Mo  Mo34  1  0.836085  0.491615  0.750615  1
  Mo  Mo35  1  0.333698  0.841526  0.372000  1
