# generated using pymatgen
data_Tb6TcNi17P12
_symmetry_space_group_name_H-M   'P 1'
_cell_length_a   3.77832000
_cell_length_b   10.52895200
_cell_length_c   12.35796000
_cell_angle_alpha   90.00000000
_cell_angle_beta   90.00000000
_cell_angle_gamma   90.00000000
_symmetry_Int_Tables_number   1
_chemical_formula_structural   Tb6TcNi17P12
_chemical_formula_sum   'Tb6 Tc1 Ni17 P12'
_cell_volume   491.62127425
_cell_formula_units_Z   1
loop_
 _symmetry_equiv_pos_site_id
 _symmetry_equiv_pos_as_xyz
  1  'x, y, z'
loop_
 _atom_site_type_symbol
 _atom_site_label
 _atom_site_symmetry_multiplicity
 _atom_site_fract_x
 _atom_site_fract_y
 _atom_site_fract_z
 _atom_site_occupancy
  Tb  Tb0  1  0.000000  0.500000  0.523900  1
  Tb  Tb1  1  0.500000  0.000000  0.479904  1
  Tb  Tb2  1  0.500000  0.815993  0.205480  1
  Tb  Tb3  1  0.500000  0.184007  0.205480  1
  Tb  Tb4  1  0.000000  0.685305  0.793184  1
  Tb  Tb5  1  0.000000  0.314695  0.793184  1
  Tc  Tc6  1  0.500000  0.500000  0.154328  1
  Ni  Ni7  1  0.000000  0.000000  0.840519  1
  Ni  Ni8  1  0.500000  0.500000  0.701938  1
  Ni  Ni9  1  0.000000  0.000000  0.300428  1
  Ni  Ni10  1  0.000000  0.500000  0.984351  1
  Ni  Ni11  1  0.500000  0.000000  0.016603  1
  Ni  Ni12  1  0.500000  0.329035  0.989946  1
  Ni  Ni13  1  0.500000  0.670965  0.989946  1
  Ni  Ni14  1  0.000000  0.164328  0.005451  1
  Ni  Ni15  1  0.000000  0.835672  0.005451  1
  Ni  Ni16  1  0.500000  0.301904  0.428744  1
  Ni  Ni17  1  0.500000  0.698096  0.428744  1
  Ni  Ni18  1  0.000000  0.198342  0.571848  1
  Ni  Ni19  1  0.000000  0.801658  0.571848  1
  Ni  Ni20  1  0.500000  0.879901  0.711234  1
  Ni  Ni21  1  0.500000  0.120099  0.711234  1
  Ni  Ni22  1  0.000000  0.619606  0.289898  1
  Ni  Ni23  1  0.000000  0.380394  0.289898  1
  P  P24  1  0.500000  0.500000  0.879312  1
  P  P25  1  0.000000  0.000000  0.124206  1
  P  P26  1  0.500000  0.500000  0.346801  1
  P  P27  1  0.000000  0.000000  0.655777  1
  P  P28  1  0.500000  0.312625  0.614875  1
  P  P29  1  0.500000  0.687375  0.614875  1
  P  P30  1  0.000000  0.186622  0.386431  1
  P  P31  1  0.000000  0.813378  0.386431  1
  P  P32  1  0.500000  0.850217  0.892511  1
  P  P33  1  0.500000  0.149783  0.892511  1
  P  P34  1  0.000000  0.652947  0.106365  1
  P  P35  1  0.000000  0.347053  0.106365  1
