# generated using pymatgen
data_Pr7Nd(Sc3Ge4)4
_symmetry_space_group_name_H-M   'P 1'
_cell_length_a   7.39862203
_cell_length_b   7.64617405
_cell_length_c   14.33311207
_cell_angle_alpha   89.98952129
_cell_angle_beta   89.99496440
_cell_angle_gamma   89.99175854
_symmetry_Int_Tables_number   1
_chemical_formula_structural   Pr7Nd(Sc3Ge4)4
_chemical_formula_sum   'Pr7 Nd1 Sc12 Ge16'
_cell_volume   810.84063318
_cell_formula_units_Z   1
loop_
 _symmetry_equiv_pos_site_id
 _symmetry_equiv_pos_as_xyz
  1  'x, y, z'
loop_
 _atom_site_type_symbol
 _atom_site_label
 _atom_site_symmetry_multiplicity
 _atom_site_fract_x
 _atom_site_fract_y
 _atom_site_fract_z
 _atom_site_occupancy
  Pr  Pr0  1  0.003614  0.172596  0.402784  1
  Pr  Pr1  1  0.503569  0.327382  0.402711  1
  Pr  Pr2  1  0.496362  0.672571  0.902793  1
  Pr  Pr3  1  0.496424  0.672594  0.597250  1
  Pr  Pr4  1  0.996421  0.827407  0.597237  1
  Pr  Pr5  1  0.996439  0.827433  0.902816  1
  Pr  Pr6  1  0.503601  0.327317  0.097256  1
  Nd  Nd7  1  0.003656  0.172922  0.097445  1
  Sc  Sc8  1  0.331835  0.167270  0.626256  1
  Sc  Sc9  1  0.668171  0.832701  0.373719  1
  Sc  Sc10  1  0.665083  0.002499  0.749986  1
  Sc  Sc11  1  0.168138  0.667221  0.373706  1
  Sc  Sc12  1  0.831920  0.332668  0.873767  1
  Sc  Sc13  1  0.831845  0.332778  0.626258  1
  Sc  Sc14  1  0.834979  0.502394  0.249945  1
  Sc  Sc15  1  0.334821  0.997618  0.249940  1
  Sc  Sc16  1  0.331742  0.167281  0.873777  1
  Sc  Sc17  1  0.168100  0.667252  0.126250  1
  Sc  Sc18  1  0.668270  0.832831  0.126253  1
  Sc  Sc19  1  0.165062  0.497508  0.749998  1
  Ge  Ge20  1  0.302795  0.866334  0.750003  1
  Ge  Ge21  1  0.471788  0.634133  0.249995  1
  Ge  Ge22  1  0.028226  0.134129  0.750009  1
  Ge  Ge23  1  0.528237  0.365901  0.750015  1
  Ge  Ge24  1  0.164677  0.458074  0.542234  1
  Ge  Ge25  1  0.971784  0.866177  0.249893  1
  Ge  Ge26  1  0.697531  0.133720  0.249836  1
  Ge  Ge27  1  0.835496  0.541606  0.042293  1
  Ge  Ge28  1  0.334874  0.958275  0.042325  1
  Ge  Ge29  1  0.164493  0.457802  0.957878  1
  Ge  Ge30  1  0.664655  0.041941  0.542226  1
  Ge  Ge31  1  0.335381  0.958057  0.457756  1
  Ge  Ge32  1  0.835319  0.541936  0.457756  1
  Ge  Ge33  1  0.802807  0.633645  0.749999  1
  Ge  Ge34  1  0.196940  0.366007  0.249790  1
  Ge  Ge35  1  0.664947  0.042019  0.957843  1
