# generated using pymatgen
data_SrPa(CuAs2)2
_symmetry_space_group_name_H-M   'P 1'
_cell_length_a   4.02849100
_cell_length_b   4.02846000
_cell_length_c   10.12374000
_cell_angle_alpha   90.00000000
_cell_angle_beta   90.00000000
_cell_angle_gamma   90.00000000
_symmetry_Int_Tables_number   1
_chemical_formula_structural   SrPa(CuAs2)2
_chemical_formula_sum   'Sr1 Pa1 Cu2 As4'
_cell_volume   164.29427734
_cell_formula_units_Z   1
loop_
 _symmetry_equiv_pos_site_id
 _symmetry_equiv_pos_as_xyz
  1  'x, y, z'
loop_
 _atom_site_type_symbol
 _atom_site_label
 _atom_site_symmetry_multiplicity
 _atom_site_fract_x
 _atom_site_fract_y
 _atom_site_fract_z
 _atom_site_occupancy
  Sr  Sr0  1  0.500000  0.000000  0.232971  1
  Pa  Pa1  1  0.000000  0.500000  0.752210  1
  Cu  Cu2  1  0.500000  0.500000  0.510722  1
  Cu  Cu3  1  0.000000  0.000000  0.510724  1
  As  As4  1  0.500000  0.000000  0.671982  1
  As  As5  1  0.000000  0.500000  0.373212  1
  As  As6  1  0.000000  0.000000  0.974090  1
  As  As7  1  0.500000  0.500000  0.974088  1
