# generated using pymatgen
data_RuBr35
_symmetry_space_group_name_H-M   'P 1'
_cell_length_a   15.98197694
_cell_length_b   11.40028128
_cell_length_c   10.79188300
_cell_angle_alpha   88.81408278
_cell_angle_beta   66.02770512
_cell_angle_gamma   92.31545406
_symmetry_Int_Tables_number   1
_chemical_formula_structural   RuBr35
_chemical_formula_sum   'Ru1 Br35'
_cell_volume   1793.71352310
_cell_formula_units_Z   1
loop_
 _symmetry_equiv_pos_site_id
 _symmetry_equiv_pos_as_xyz
  1  'x, y, z'
loop_
 _atom_site_type_symbol
 _atom_site_label
 _atom_site_symmetry_multiplicity
 _atom_site_fract_x
 _atom_site_fract_y
 _atom_site_fract_z
 _atom_site_occupancy
  Ru  Ru0  1  0.231253  0.446951  0.457800  1
  Br  Br1  1  0.514317  0.259338  0.514617  1
  Br  Br2  1  0.768246  0.575540  0.552277  1
  Br  Br3  1  0.495408  0.680370  0.746122  1
  Br  Br4  1  0.046477  0.887866  0.874487  1
  Br  Br5  1  0.891001  0.158896  0.001771  1
  Br  Br6  1  0.651219  0.320133  0.288091  1
  Br  Br7  1  0.624047  0.349311  0.836754  1
  Br  Br8  1  0.357679  0.747521  0.706738  1
  Br  Br9  1  0.336478  0.584723  0.238868  1
  Br  Br10  1  0.644242  0.144562  0.809574  1
  Br  Br11  1  0.904243  0.535747  0.344298  1
  Br  Br12  1  0.050178  0.955487  0.648920  1
  Br  Br13  1  0.894140  0.103451  0.238729  1
  Br  Br14  1  0.886679  0.218915  0.783111  1
  Br  Br15  1  0.651618  0.046239  0.234949  1
  Br  Br16  1  0.019178  0.815712  0.119079  1
  Br  Br17  1  0.370003  0.969256  0.718493  1
  Br  Br18  1  0.897307  0.312931  0.302633  1
  Br  Br19  1  0.867860  0.930542  0.720191  1
  Br  Br20  1  0.893405  0.664697  0.793018  1
  Br  Br21  1  0.319421  0.030734  0.295546  1
  Br  Br22  1  0.334683  0.314426  0.286727  1
  Br  Br23  1  0.633136  0.613669  0.788367  1
  Br  Br24  1  0.123389  0.425630  0.350454  1
  Br  Br25  1  0.701804  0.908015  0.792188  1
  Br  Br26  1  0.873898  0.454925  0.799527  1
  Br  Br27  1  0.490131  0.037365  0.265516  1
  Br  Br28  1  0.151036  0.299600  0.632145  1
  Br  Br29  1  0.671259  0.772000  0.269300  1
  Br  Br30  1  0.845393  0.796791  0.197834  1
  Br  Br31  1  0.378100  0.194870  0.729722  1
  Br  Br32  1  0.351604  0.482124  0.540897  1
  Br  Br33  1  0.653757  0.544206  0.267476  1
  Br  Br34  1  0.155287  0.617862  0.574913  1
  Br  Br35  1  0.322127  0.799593  0.278870  1
