# generated using pymatgen
data_TbPr4Pt2Rh
_symmetry_space_group_name_H-M   'P 1'
_cell_length_a   11.45582800
_cell_length_b   11.45582800
_cell_length_c   6.52024800
_cell_angle_alpha   90.00000000
_cell_angle_beta   90.00000000
_cell_angle_gamma   90.00000000
_symmetry_Int_Tables_number   1
_chemical_formula_structural   TbPr4Pt2Rh
_chemical_formula_sum   'Tb4 Pr16 Pt8 Rh4'
_cell_volume   855.69123501
_cell_formula_units_Z   4
loop_
 _symmetry_equiv_pos_site_id
 _symmetry_equiv_pos_as_xyz
  1  'x, y, z'
loop_
 _atom_site_type_symbol
 _atom_site_label
 _atom_site_symmetry_multiplicity
 _atom_site_fract_x
 _atom_site_fract_y
 _atom_site_fract_z
 _atom_site_occupancy
  Tb  Tb0  1  0.000000  0.000000  0.500000  1
  Tb  Tb1  1  0.000000  0.000000  0.000000  1
  Tb  Tb2  1  0.500000  0.500000  0.000000  1
  Tb  Tb3  1  0.500000  0.500000  0.500000  1
  Pr  Pr4  1  0.291689  0.088212  0.375351  1
  Pr  Pr5  1  0.291689  0.911788  0.875351  1
  Pr  Pr6  1  0.708311  0.088212  0.875351  1
  Pr  Pr7  1  0.708311  0.911788  0.375351  1
  Pr  Pr8  1  0.588212  0.791689  0.875351  1
  Pr  Pr9  1  0.588212  0.208311  0.375351  1
  Pr  Pr10  1  0.411788  0.791689  0.375351  1
  Pr  Pr11  1  0.411788  0.208311  0.875351  1
  Pr  Pr12  1  0.208311  0.411788  0.624649  1
  Pr  Pr13  1  0.208311  0.588212  0.124649  1
  Pr  Pr14  1  0.791689  0.411788  0.124649  1
  Pr  Pr15  1  0.791689  0.588212  0.624649  1
  Pr  Pr16  1  0.911788  0.708311  0.124649  1
  Pr  Pr17  1  0.911788  0.291689  0.624649  1
  Pr  Pr18  1  0.088212  0.708311  0.624649  1
  Pr  Pr19  1  0.088212  0.291689  0.124649  1
  Pt  Pt20  1  0.851917  0.148083  0.250000  1
  Pt  Pt21  1  0.851917  0.851917  0.750000  1
  Pt  Pt22  1  0.148083  0.148083  0.750000  1
  Pt  Pt23  1  0.148083  0.851917  0.250000  1
  Pt  Pt24  1  0.648083  0.351917  0.750000  1
  Pt  Pt25  1  0.648083  0.648083  0.250000  1
  Pt  Pt26  1  0.351917  0.351917  0.250000  1
  Pt  Pt27  1  0.351917  0.648083  0.750000  1
  Rh  Rh28  1  0.500000  0.000000  0.114238  1
  Rh  Rh29  1  0.500000  0.000000  0.614238  1
  Rh  Rh30  1  0.000000  0.500000  0.885762  1
  Rh  Rh31  1  0.000000  0.500000  0.385762  1
