# generated using pymatgen
data_Er8Hf5Si16W7
_symmetry_space_group_name_H-M   'P 1'
_cell_length_a   7.01932261
_cell_length_b   7.01249042
_cell_length_c   12.93393006
_cell_angle_alpha   89.72350576
_cell_angle_beta   90.06202699
_cell_angle_gamma   90.09383359
_symmetry_Int_Tables_number   1
_chemical_formula_structural   Er8Hf5Si16W7
_chemical_formula_sum   'Er8 Hf5 Si16 W7'
_cell_volume   636.63733316
_cell_formula_units_Z   1
loop_
 _symmetry_equiv_pos_site_id
 _symmetry_equiv_pos_as_xyz
  1  'x, y, z'
loop_
 _atom_site_type_symbol
 _atom_site_label
 _atom_site_symmetry_multiplicity
 _atom_site_fract_x
 _atom_site_fract_y
 _atom_site_fract_z
 _atom_site_occupancy
  Er  Er0  1  0.344846  0.997872  0.468602  1
  Er  Er1  1  0.500750  0.844721  0.719959  1
  Er  Er2  1  0.497442  0.155064  0.214925  1
  Er  Er3  1  0.839517  0.495455  0.282061  1
  Er  Er4  1  0.160811  0.502412  0.781366  1
  Er  Er5  1  0.656439  0.001405  0.967778  1
  Er  Er6  1  0.002593  0.338998  0.535005  1
  Er  Er7  1  0.999622  0.659743  0.030486  1
  Hf  Hf8  1  0.652268  0.498151  0.875691  1
  Hf  Hf9  1  0.347603  0.500113  0.376800  1
  Hf  Hf10  1  0.843991  0.992014  0.376325  1
  Hf  Hf11  1  0.001844  0.148140  0.125453  1
  Hf  Hf12  1  0.995390  0.849042  0.625374  1
  Si  Si13  1  0.210537  0.135532  0.683445  1
  Si  Si14  1  0.363730  0.710813  0.931500  1
  Si  Si15  1  0.638273  0.299132  0.438234  1
  Si  Si16  1  0.696993  0.371434  0.070453  1
  Si  Si17  1  0.306927  0.631811  0.571608  1
  Si  Si18  1  0.786047  0.859071  0.178675  1
  Si  Si19  1  0.139102  0.195784  0.316769  1
  Si  Si20  1  0.871804  0.807075  0.821055  1
  Si  Si21  1  0.296442  0.952367  0.063279  1
  Si  Si22  1  0.539587  0.793712  0.311147  1
  Si  Si23  1  0.452609  0.205738  0.815074  1
  Si  Si24  1  0.790461  0.542235  0.681632  1
  Si  Si25  1  0.207297  0.457174  0.181683  1
  Si  Si26  1  0.701943  0.053347  0.569340  1
  Si  Si27  1  0.958618  0.291933  0.931575  1
  Si  Si28  1  0.046708  0.700071  0.432634  1
  W  W29  1  0.328932  0.332100  0.998016  1
  W  W30  1  0.169793  0.823646  0.246376  1
  W  W31  1  0.831312  0.173845  0.750360  1
  W  W32  1  0.670992  0.670059  0.498994  1
  W  W33  1  0.157678  0.009096  0.876738  1
  W  W34  1  0.488008  0.653410  0.123180  1
  W  W35  1  0.503091  0.347484  0.628410  1
