# generated using pymatgen
data_Hf2Mn3Ir
_symmetry_space_group_name_H-M   'P 1'
_cell_length_a   4.87171200
_cell_length_b   4.87171170
_cell_length_c   8.56151000
_cell_angle_alpha   90.00000000
_cell_angle_beta   90.00000000
_cell_angle_gamma   120.00000207
_symmetry_Int_Tables_number   1
_chemical_formula_structural   Hf2Mn3Ir
_chemical_formula_sum   'Hf4 Mn6 Ir2'
_cell_volume   175.97224567
_cell_formula_units_Z   2
loop_
 _symmetry_equiv_pos_site_id
 _symmetry_equiv_pos_as_xyz
  1  'x, y, z'
loop_
 _atom_site_type_symbol
 _atom_site_label
 _atom_site_symmetry_multiplicity
 _atom_site_fract_x
 _atom_site_fract_y
 _atom_site_fract_z
 _atom_site_occupancy
  Hf  Hf0  1  0.333333  0.666667  0.429349  1
  Hf  Hf1  1  0.666667  0.333333  0.929349  1
  Hf  Hf2  1  0.666667  0.333333  0.570651  1
  Hf  Hf3  1  0.333333  0.666667  0.070651  1
  Mn  Mn4  1  0.176480  0.352959  0.750000  1
  Mn  Mn5  1  0.823520  0.176480  0.250000  1
  Mn  Mn6  1  0.352959  0.176480  0.250000  1
  Mn  Mn7  1  0.647041  0.823520  0.750000  1
  Mn  Mn8  1  0.823520  0.647041  0.250000  1
  Mn  Mn9  1  0.176480  0.823520  0.750000  1
  Ir  Ir10  1  0.000000  0.000000  0.000000  1
  Ir  Ir11  1  0.000000  0.000000  0.500000  1
