# generated using pymatgen
data_Ta7Nb5Tc12
_symmetry_space_group_name_H-M   'P 1'
_cell_length_a   4.50004700
_cell_length_b   6.39790000
_cell_length_c   13.61513500
_cell_angle_alpha   90.00000000
_cell_angle_beta   89.99989814
_cell_angle_gamma   90.00000000
_symmetry_Int_Tables_number   1
_chemical_formula_structural   Ta7Nb5Tc12
_chemical_formula_sum   'Ta7 Nb5 Tc12'
_cell_volume   391.99131906
_cell_formula_units_Z   1
loop_
 _symmetry_equiv_pos_site_id
 _symmetry_equiv_pos_as_xyz
  1  'x, y, z'
loop_
 _atom_site_type_symbol
 _atom_site_label
 _atom_site_symmetry_multiplicity
 _atom_site_fract_x
 _atom_site_fract_y
 _atom_site_fract_z
 _atom_site_occupancy
  Ta  Ta0  1  0.500011  0.000000  0.833335  1
  Ta  Ta1  1  0.000001  0.000000  0.999757  1
  Ta  Ta2  1  0.499994  0.500000  0.166865  1
  Ta  Ta3  1  0.999992  0.000000  0.333334  1
  Ta  Ta4  1  0.499998  0.500000  0.499802  1
  Ta  Ta5  1  0.000009  0.000000  0.666911  1
  Ta  Ta6  1  0.500005  0.500000  0.833331  1
  Nb  Nb7  1  0.999999  0.500000  0.000224  1
  Nb  Nb8  1  0.499991  0.000000  0.166812  1
  Nb  Nb9  1  0.999995  0.500000  0.333335  1
  Nb  Nb10  1  0.499998  0.000000  0.499859  1
  Nb  Nb11  1  0.000005  0.500000  0.666441  1
  Tc  Tc12  1  0.500001  0.249781  0.999882  1
  Tc  Tc13  1  0.500001  0.750218  0.999882  1
  Tc  Tc14  1  0.999992  0.250009  0.166802  1
  Tc  Tc15  1  0.999992  0.749991  0.166802  1
  Tc  Tc16  1  0.499992  0.250060  0.333334  1
  Tc  Tc17  1  0.499992  0.749940  0.333334  1
  Tc  Tc18  1  0.999998  0.250007  0.499866  1
  Tc  Tc19  1  0.999998  0.749993  0.499866  1
  Tc  Tc20  1  0.500007  0.249780  0.666782  1
  Tc  Tc21  1  0.500007  0.750220  0.666782  1
  Tc  Tc22  1  0.000008  0.249534  0.833331  1
  Tc  Tc23  1  0.000008  0.750466  0.833331  1
