# generated using pymatgen
data_Th6CoPd2Au5
_symmetry_space_group_name_H-M   'P 1'
_cell_length_a   8.14104899
_cell_length_b   8.19784573
_cell_length_c   8.17104625
_cell_angle_alpha   114.42628706
_cell_angle_beta   113.92660675
_cell_angle_gamma   113.53230235
_symmetry_Int_Tables_number   1
_chemical_formula_structural   Th6CoPd2Au5
_chemical_formula_sum   'Th6 Co1 Pd2 Au5'
_cell_volume   332.23852840
_cell_formula_units_Z   1
loop_
 _symmetry_equiv_pos_site_id
 _symmetry_equiv_pos_as_xyz
  1  'x, y, z'
loop_
 _atom_site_type_symbol
 _atom_site_label
 _atom_site_symmetry_multiplicity
 _atom_site_fract_x
 _atom_site_fract_y
 _atom_site_fract_z
 _atom_site_occupancy
  Th  Th0  1  0.383477  0.021608  0.267292  1
  Th  Th1  1  0.034319  0.279287  0.390320  1
  Th  Th2  1  0.268483  0.379873  0.025117  1
  Th  Th3  1  0.617140  0.966569  0.730739  1
  Th  Th4  1  0.975477  0.731842  0.621925  1
  Th  Th5  1  0.726171  0.625395  0.972807  1
  Co  Co6  1  0.004887  0.004046  0.003701  1
  Pd  Pd7  1  0.497883  0.494061  0.495775  1
  Pd  Pd8  1  0.422888  0.764423  0.927964  1
  Au  Au9  1  0.238359  0.073153  0.574097  1
  Au  Au10  1  0.069095  0.573072  0.234222  1
  Au  Au11  1  0.573091  0.233569  0.073200  1
  Au  Au12  1  0.758977  0.924944  0.419725  1
  Au  Au13  1  0.929750  0.428158  0.763116  1
