# generated using pymatgen
data_CaYb11(CuSi)12
_symmetry_space_group_name_H-M   'P 1'
_cell_length_a   4.27808200
_cell_length_b   7.25458402
_cell_length_c   20.83383402
_cell_angle_alpha   90.00184876
_cell_angle_beta   90.00000000
_cell_angle_gamma   90.00000000
_symmetry_Int_Tables_number   1
_chemical_formula_structural   CaYb11(CuSi)12
_chemical_formula_sum   'Ca1 Yb11 Cu12 Si12'
_cell_volume   646.59273295
_cell_formula_units_Z   1
loop_
 _symmetry_equiv_pos_site_id
 _symmetry_equiv_pos_as_xyz
  1  'x, y, z'
loop_
 _atom_site_type_symbol
 _atom_site_label
 _atom_site_symmetry_multiplicity
 _atom_site_fract_x
 _atom_site_fract_y
 _atom_site_fract_z
 _atom_site_occupancy
  Ca  Ca0  1  0.250000  0.798103  0.832928  1
  Yb  Yb1  1  0.250000  0.710711  0.003216  1
  Yb  Yb2  1  0.750000  0.288937  0.998095  1
  Yb  Yb3  1  0.750000  0.211163  0.497163  1
  Yb  Yb4  1  0.250000  0.788427  0.502422  1
  Yb  Yb5  1  0.250000  0.796253  0.166761  1
  Yb  Yb6  1  0.750000  0.204121  0.833462  1
  Yb  Yb7  1  0.750000  0.296323  0.333426  1
  Yb  Yb8  1  0.250000  0.703339  0.666000  1
  Yb  Yb9  1  0.250000  0.703725  0.332886  1
  Yb  Yb10  1  0.750000  0.296699  0.666433  1
  Yb  Yb11  1  0.750000  0.203736  0.167261  1
  Cu  Cu12  1  0.250000  0.414059  0.096421  1
  Cu  Cu13  1  0.750000  0.582834  0.905618  1
  Cu  Cu14  1  0.750000  0.914372  0.403863  1
  Cu  Cu15  1  0.250000  0.085405  0.595931  1
  Cu  Cu16  1  0.250000  0.413257  0.236184  1
  Cu  Cu17  1  0.750000  0.583947  0.762087  1
  Cu  Cu18  1  0.750000  0.913181  0.263948  1
  Cu  Cu19  1  0.250000  0.090724  0.734184  1
  Cu  Cu20  1  0.250000  0.418083  0.436709  1
  Cu  Cu21  1  0.750000  0.581573  0.562841  1
  Cu  Cu22  1  0.750000  0.917676  0.063508  1
  Cu  Cu23  1  0.250000  0.083290  0.938927  1
  Si  Si24  1  0.250000  0.089069  0.066858  1
  Si  Si25  1  0.750000  0.910340  0.933868  1
  Si  Si26  1  0.750000  0.589558  0.433113  1
  Si  Si27  1  0.250000  0.410250  0.566415  1
  Si  Si28  1  0.250000  0.080384  0.272913  1
  Si  Si29  1  0.750000  0.920520  0.726512  1
  Si  Si30  1  0.750000  0.580521  0.227200  1
  Si  Si31  1  0.250000  0.419799  0.772710  1
  Si  Si32  1  0.250000  0.083287  0.394669  1
  Si  Si33  1  0.750000  0.916459  0.604893  1
  Si  Si34  1  0.750000  0.583253  0.105502  1
  Si  Si35  1  0.250000  0.416621  0.895073  1
