# generated using pymatgen
data_SrV8CoS16
_symmetry_space_group_name_H-M   'P 1'
_cell_length_a   6.37275800
_cell_length_b   6.37275859
_cell_length_c   13.08785500
_cell_angle_alpha   90.00000000
_cell_angle_beta   90.00000000
_cell_angle_gamma   119.99999694
_symmetry_Int_Tables_number   1
_chemical_formula_structural   SrV8CoS16
_chemical_formula_sum   'Sr1 V8 Co1 S16'
_cell_volume   460.31381975
_cell_formula_units_Z   1
loop_
 _symmetry_equiv_pos_site_id
 _symmetry_equiv_pos_as_xyz
  1  'x, y, z'
loop_
 _atom_site_type_symbol
 _atom_site_label
 _atom_site_symmetry_multiplicity
 _atom_site_fract_x
 _atom_site_fract_y
 _atom_site_fract_z
 _atom_site_occupancy
  Sr  Sr0  1  0.000000  0.000000  0.000000  1
  V  V1  1  0.988903  0.494451  0.285902  1
  V  V2  1  0.011097  0.505549  0.714098  1
  V  V3  1  0.494451  0.505549  0.714098  1
  V  V4  1  0.505549  0.011097  0.285902  1
  V  V5  1  0.000000  0.000000  0.717438  1
  V  V6  1  0.000000  0.000000  0.282562  1
  V  V7  1  0.505549  0.494451  0.285902  1
  V  V8  1  0.494451  0.988903  0.714098  1
  Co  Co9  1  0.000000  0.000000  0.500000  1
  S  S10  1  0.333333  0.666667  0.600267  1
  S  S11  1  0.666667  0.333333  0.168460  1
  S  S12  1  0.666667  0.333333  0.399733  1
  S  S13  1  0.333333  0.666667  0.831540  1
  S  S14  1  0.165635  0.331271  0.394078  1
  S  S15  1  0.830515  0.169485  0.827480  1
  S  S16  1  0.338971  0.169485  0.827480  1
  S  S17  1  0.668729  0.834365  0.394078  1
  S  S18  1  0.165635  0.834365  0.394078  1
  S  S19  1  0.830515  0.661029  0.827480  1
  S  S20  1  0.169485  0.338971  0.172520  1
  S  S21  1  0.834365  0.165635  0.605922  1
  S  S22  1  0.331271  0.165635  0.605922  1
  S  S23  1  0.661029  0.830515  0.172520  1
  S  S24  1  0.169485  0.830515  0.172520  1
  S  S25  1  0.834365  0.668729  0.605922  1
