# generated using pymatgen
data_Lu8Ga7(Si3Mo4)3
_symmetry_space_group_name_H-M   'P 1'
_cell_length_a   6.70880854
_cell_length_b   6.86420435
_cell_length_c   13.31197562
_cell_angle_alpha   89.87258170
_cell_angle_beta   90.05127697
_cell_angle_gamma   90.00181719
_symmetry_Int_Tables_number   1
_chemical_formula_structural   Lu8Ga7(Si3Mo4)3
_chemical_formula_sum   'Lu8 Ga7 Si9 Mo12'
_cell_volume   613.02313826
_cell_formula_units_Z   1
loop_
 _symmetry_equiv_pos_site_id
 _symmetry_equiv_pos_as_xyz
  1  'x, y, z'
loop_
 _atom_site_type_symbol
 _atom_site_label
 _atom_site_symmetry_multiplicity
 _atom_site_fract_x
 _atom_site_fract_y
 _atom_site_fract_z
 _atom_site_occupancy
  Lu  Lu0  1  0.492908  0.331165  0.097227  1
  Lu  Lu1  1  0.994048  0.170143  0.404416  1
  Lu  Lu2  1  0.502991  0.668034  0.595715  1
  Lu  Lu3  1  0.007315  0.832002  0.902633  1
  Lu  Lu4  1  0.507549  0.669001  0.902639  1
  Lu  Lu5  1  0.006612  0.830531  0.596860  1
  Lu  Lu6  1  0.490441  0.330638  0.404611  1
  Lu  Lu7  1  0.992725  0.168193  0.097115  1
  Ga  Ga8  1  0.668485  0.043495  0.541068  1
  Ga  Ga9  1  0.169396  0.456873  0.959147  1
  Ga  Ga10  1  0.331226  0.955739  0.040385  1
  Ga  Ga11  1  0.828980  0.543123  0.459360  1
  Ga  Ga12  1  0.331443  0.956836  0.458868  1
  Ga  Ga13  1  0.830689  0.544023  0.040555  1
  Ga  Ga14  1  0.668521  0.044706  0.959096  1
  Si  Si15  1  0.163185  0.456540  0.541248  1
  Si  Si16  1  0.539599  0.370272  0.749095  1
  Si  Si17  1  0.037619  0.127634  0.750166  1
  Si  Si18  1  0.463157  0.626920  0.250905  1
  Si  Si19  1  0.963613  0.869797  0.251787  1
  Si  Si20  1  0.804282  0.634852  0.749389  1
  Si  Si21  1  0.307465  0.868769  0.749345  1
  Si  Si22  1  0.194403  0.363949  0.250271  1
  Si  Si23  1  0.694904  0.134164  0.250874  1
  Mo  Mo24  1  0.841225  0.334762  0.629513  1
  Mo  Mo25  1  0.334479  0.167595  0.867720  1
  Mo  Mo26  1  0.165417  0.665338  0.132693  1
  Mo  Mo27  1  0.664422  0.834020  0.369448  1
  Mo  Mo28  1  0.167650  0.658862  0.373151  1
  Mo  Mo29  1  0.665539  0.834293  0.131691  1
  Mo  Mo30  1  0.836860  0.335296  0.867825  1
  Mo  Mo31  1  0.330595  0.173258  0.628231  1
  Mo  Mo32  1  0.668027  0.005353  0.749099  1
  Mo  Mo33  1  0.167269  0.496401  0.746711  1
  Mo  Mo34  1  0.333675  0.993083  0.250524  1
  Mo  Mo35  1  0.833286  0.504338  0.250621  1
