# generated using pymatgen
data_TbPa(Al3Ir)3
_symmetry_space_group_name_H-M   'P 1'
_cell_length_a   7.60806925
_cell_length_b   7.60920875
_cell_length_c   9.37423500
_cell_angle_alpha   90.00000000
_cell_angle_beta   90.00000000
_cell_angle_gamma   119.70614192
_symmetry_Int_Tables_number   1
_chemical_formula_structural   TbPa(Al3Ir)3
_chemical_formula_sum   'Tb2 Pa2 Al18 Ir6'
_cell_volume   471.36661033
_cell_formula_units_Z   2
loop_
 _symmetry_equiv_pos_site_id
 _symmetry_equiv_pos_as_xyz
  1  'x, y, z'
loop_
 _atom_site_type_symbol
 _atom_site_label
 _atom_site_symmetry_multiplicity
 _atom_site_fract_x
 _atom_site_fract_y
 _atom_site_fract_z
 _atom_site_occupancy
  Tb  Tb0  1  0.669279  0.993770  0.250000  1
  Tb  Tb1  1  0.330721  0.006230  0.750000  1
  Pa  Pa2  1  0.997411  0.670923  0.250000  1
  Pa  Pa3  1  0.002589  0.329077  0.750000  1
  Al  Al4  1  0.129954  0.127304  0.250000  1
  Al  Al5  1  0.870046  0.872696  0.750000  1
  Al  Al6  1  0.000617  0.331778  0.077167  1
  Al  Al7  1  0.999383  0.668222  0.922833  1
  Al  Al8  1  0.999383  0.668222  0.577167  1
  Al  Al9  1  0.337727  0.003163  0.425553  1
  Al  Al10  1  0.000617  0.331778  0.422833  1
  Al  Al11  1  0.662273  0.996837  0.574447  1
  Al  Al12  1  0.662273  0.996837  0.925553  1
  Al  Al13  1  0.337727  0.003163  0.074447  1
  Al  Al14  1  0.335410  0.333506  0.553523  1
  Al  Al15  1  0.664590  0.666494  0.446477  1
  Al  Al16  1  0.664590  0.666494  0.053523  1
  Al  Al17  1  0.335410  0.333506  0.946477  1
  Al  Al18  1  0.340270  0.547773  0.250000  1
  Al  Al19  1  0.659730  0.452227  0.750000  1
  Al  Al20  1  0.548132  0.340724  0.250000  1
  Al  Al21  1  0.451868  0.659276  0.750000  1
  Ir  Ir22  1  0.676124  0.330242  0.999769  1
  Ir  Ir23  1  0.323876  0.669758  0.000231  1
  Ir  Ir24  1  0.323876  0.669758  0.499769  1
  Ir  Ir25  1  0.676124  0.330242  0.500231  1
  Ir  Ir26  1  0.000000  0.000000  0.000000  1
  Ir  Ir27  1  0.000000  0.000000  0.500000  1
