# generated using pymatgen
data_Sc3ReGe2(B2Ru5)2
_symmetry_space_group_name_H-M   'P 1'
_cell_length_a   9.39267973
_cell_length_b   9.39267973
_cell_length_c   2.97444100
_cell_angle_alpha   90.00000000
_cell_angle_beta   90.00000000
_cell_angle_gamma   89.69291111
_symmetry_Int_Tables_number   1
_chemical_formula_structural   Sc3ReGe2(B2Ru5)2
_chemical_formula_sum   'Sc3 Re1 Ge2 B4 Ru10'
_cell_volume   262.40865114
_cell_formula_units_Z   1
loop_
 _symmetry_equiv_pos_site_id
 _symmetry_equiv_pos_as_xyz
  1  'x, y, z'
loop_
 _atom_site_type_symbol
 _atom_site_label
 _atom_site_symmetry_multiplicity
 _atom_site_fract_x
 _atom_site_fract_y
 _atom_site_fract_z
 _atom_site_occupancy
  Sc  Sc0  1  0.323877  0.823877  0.000000  1
  Sc  Sc1  1  0.174379  0.326484  0.000000  1
  Sc  Sc2  1  0.826484  0.674379  0.000000  1
  Re  Re3  1  0.674785  0.174785  0.000000  1
  Ge  Ge4  1  0.003644  0.998734  0.000000  1
  Ge  Ge5  1  0.498734  0.503644  0.000000  1
  B  B6  1  0.122688  0.622688  0.000000  1
  B  B7  1  0.877927  0.377927  0.000000  1
  B  B8  1  0.624017  0.873383  0.000000  1
  B  B9  1  0.373383  0.124017  0.000000  1
  Ru  Ru10  1  0.214489  0.072667  0.500000  1
  Ru  Ru11  1  0.782966  0.945323  0.500000  1
  Ru  Ru12  1  0.067885  0.785970  0.500000  1
  Ru  Ru13  1  0.709425  0.417381  0.500000  1
  Ru  Ru14  1  0.917381  0.209425  0.500000  1
  Ru  Ru15  1  0.285970  0.567885  0.500000  1
  Ru  Ru16  1  0.572667  0.714489  0.500000  1
  Ru  Ru17  1  0.445323  0.282966  0.500000  1
  Ru  Ru18  1  0.505647  0.005647  0.500000  1
  Ru  Ru19  1  0.998328  0.498328  0.500000  1
