# generated using pymatgen
data_Tc5B2W
_symmetry_space_group_name_H-M   'P 1'
_cell_length_a   4.85792615
_cell_length_b   4.85792565
_cell_length_c   7.26426200
_cell_angle_alpha   90.00000000
_cell_angle_beta   90.00000000
_cell_angle_gamma   144.36327713
_symmetry_Int_Tables_number   1
_chemical_formula_structural   Tc5B2W
_chemical_formula_sum   'Tc5 B2 W1'
_cell_volume   99.88414259
_cell_formula_units_Z   1
loop_
 _symmetry_equiv_pos_site_id
 _symmetry_equiv_pos_as_xyz
  1  'x, y, z'
loop_
 _atom_site_type_symbol
 _atom_site_label
 _atom_site_symmetry_multiplicity
 _atom_site_fract_x
 _atom_site_fract_y
 _atom_site_fract_z
 _atom_site_occupancy
  Tc  Tc0  1  0.862092  0.137908  0.442855  1
  Tc  Tc1  1  0.136637  0.863363  0.557090  1
  Tc  Tc2  1  0.862092  0.137908  0.057145  1
  Tc  Tc3  1  0.136637  0.863363  0.942910  1
  Tc  Tc4  1  0.426469  0.573531  0.750000  1
  B  B5  1  0.263146  0.736854  0.250000  1
  B  B6  1  0.741139  0.258861  0.750000  1
  W  W7  1  0.571786  0.428214  0.250000  1
