# generated using pymatgen
data_Hf3Sc(V3Si4)2
_symmetry_space_group_name_H-M   'P 1'
_cell_length_a   6.61385104
_cell_length_b   6.61473104
_cell_length_c   12.24770000
_cell_angle_alpha   90.00000000
_cell_angle_beta   90.00000000
_cell_angle_gamma   89.98801987
_symmetry_Int_Tables_number   1
_chemical_formula_structural   Hf3Sc(V3Si4)2
_chemical_formula_sum   'Hf6 Sc2 V12 Si16'
_cell_volume   535.82272598
_cell_formula_units_Z   2
loop_
 _symmetry_equiv_pos_site_id
 _symmetry_equiv_pos_as_xyz
  1  'x, y, z'
loop_
 _atom_site_type_symbol
 _atom_site_label
 _atom_site_symmetry_multiplicity
 _atom_site_fract_x
 _atom_site_fract_y
 _atom_site_fract_z
 _atom_site_occupancy
  Hf  Hf0  1  0.003080  0.661121  0.030033  1
  Hf  Hf1  1  0.837897  0.502335  0.279991  1
  Hf  Hf2  1  0.162103  0.497665  0.779991  1
  Hf  Hf3  1  0.502222  0.837713  0.719586  1
  Hf  Hf4  1  0.497778  0.162287  0.219586  1
  Hf  Hf5  1  0.996920  0.338879  0.530033  1
  Sc  Sc6  1  0.662364  0.001282  0.970321  1
  Sc  Sc7  1  0.337636  0.998718  0.470321  1
  V  V8  1  0.330922  0.333826  0.999954  1
  V  V9  1  0.167346  0.832253  0.249616  1
  V  V10  1  0.832654  0.167747  0.749616  1
  V  V11  1  0.669078  0.666174  0.499954  1
  V  V12  1  0.004847  0.159151  0.126902  1
  V  V13  1  0.341780  0.504338  0.375971  1
  V  V14  1  0.658220  0.495662  0.875971  1
  V  V15  1  0.504800  0.342364  0.624093  1
  V  V16  1  0.495200  0.657636  0.124093  1
  V  V17  1  0.995153  0.840849  0.626902  1
  V  V18  1  0.158148  0.004737  0.873340  1
  V  V19  1  0.841852  0.995263  0.373340  1
  Si  Si20  1  0.292826  0.960801  0.063981  1
  Si  Si21  1  0.538824  0.792856  0.315266  1
  Si  Si22  1  0.461176  0.207144  0.815266  1
  Si  Si23  1  0.792027  0.540058  0.685558  1
  Si  Si24  1  0.207973  0.459942  0.185558  1
  Si  Si25  1  0.707174  0.039199  0.563981  1
  Si  Si26  1  0.959027  0.290662  0.935417  1
  Si  Si27  1  0.040973  0.709338  0.435417  1
  Si  Si28  1  0.704103  0.371077  0.070673  1
  Si  Si29  1  0.128990  0.203850  0.321405  1
  Si  Si30  1  0.871010  0.796150  0.821405  1
  Si  Si31  1  0.204939  0.127758  0.679139  1
  Si  Si32  1  0.795061  0.872242  0.179139  1
  Si  Si33  1  0.295897  0.628923  0.570673  1
  Si  Si34  1  0.372683  0.705117  0.928753  1
  Si  Si35  1  0.627317  0.294883  0.428753  1
