# generated using pymatgen
data_KPm2SnF3
_symmetry_space_group_name_H-M   'P 1'
_cell_length_a   6.11743212
_cell_length_b   4.47435152
_cell_length_c   9.10180928
_cell_angle_alpha   104.36206884
_cell_angle_beta   79.59131766
_cell_angle_gamma   136.69564091
_symmetry_Int_Tables_number   1
_chemical_formula_structural   KPm2SnF3
_chemical_formula_sum   'K1 Pm2 Sn1 F3'
_cell_volume   165.53192876
_cell_formula_units_Z   1
loop_
 _symmetry_equiv_pos_site_id
 _symmetry_equiv_pos_as_xyz
  1  'x, y, z'
loop_
 _atom_site_type_symbol
 _atom_site_label
 _atom_site_symmetry_multiplicity
 _atom_site_fract_x
 _atom_site_fract_y
 _atom_site_fract_z
 _atom_site_occupancy
  K  K0  1  0.828104  0.070119  0.988728  1
  Pm  Pm1  1  0.339443  0.936405  0.669561  1
  Pm  Pm2  1  0.332879  0.235086  0.288065  1
  Sn  Sn3  1  0.838411  0.886740  0.573595  1
  F  F4  1  0.832651  0.672674  0.170908  1
  F  F5  1  0.340572  0.070740  0.923403  1
  F  F6  1  0.329626  0.694553  0.214086  1
