# generated using pymatgen
data_Ce12Al6Os5Ru
_symmetry_space_group_name_H-M   'P 1'
_cell_length_a   7.82645719
_cell_length_b   7.81963874
_cell_length_c   9.75929782
_cell_angle_alpha   90.12788586
_cell_angle_beta   90.05418317
_cell_angle_gamma   120.17378578
_symmetry_Int_Tables_number   1
_chemical_formula_structural   Ce12Al6Os5Ru
_chemical_formula_sum   'Ce12 Al6 Os5 Ru1'
_cell_volume   516.33978311
_cell_formula_units_Z   1
loop_
 _symmetry_equiv_pos_site_id
 _symmetry_equiv_pos_as_xyz
  1  'x, y, z'
loop_
 _atom_site_type_symbol
 _atom_site_label
 _atom_site_symmetry_multiplicity
 _atom_site_fract_x
 _atom_site_fract_y
 _atom_site_fract_z
 _atom_site_occupancy
  Ce  Ce0  1  0.000372  0.593842  0.504590  1
  Ce  Ce1  1  0.594203  0.000629  0.504307  1
  Ce  Ce2  1  0.405057  0.405347  0.503297  1
  Ce  Ce3  1  0.998360  0.406550  0.004122  1
  Ce  Ce4  1  0.406624  0.998353  0.004138  1
  Ce  Ce5  1  0.587824  0.587748  0.001353  1
  Ce  Ce6  1  0.999198  0.731342  0.173910  1
  Ce  Ce7  1  0.731966  0.999431  0.173935  1
  Ce  Ce8  1  0.264912  0.265098  0.176577  1
  Ce  Ce9  1  0.003704  0.266895  0.674129  1
  Ce  Ce10  1  0.266304  0.003426  0.674003  1
  Ce  Ce11  1  0.732371  0.732083  0.672791  1
  Al  Al12  1  0.666427  0.333102  0.276037  1
  Al  Al13  1  0.332929  0.666477  0.276018  1
  Al  Al14  1  0.333709  0.670179  0.773793  1
  Al  Al15  1  0.670346  0.333692  0.773798  1
  Al  Al16  1  0.998645  0.998552  0.420566  1
  Al  Al17  1  0.997814  0.997868  0.920728  1
  Os  Os18  1  0.000066  0.336317  0.337419  1
  Os  Os19  1  0.336064  0.000042  0.337142  1
  Os  Os20  1  0.662929  0.662931  0.335560  1
  Os  Os21  1  0.001442  0.665178  0.835673  1
  Os  Os22  1  0.665379  0.001478  0.835487  1
  Ru  Ru23  1  0.343357  0.343440  0.839880  1
