# generated using pymatgen
data_NaLaGeO4
_symmetry_space_group_name_H-M   'P 1'
_cell_length_a   5.41862000
_cell_length_b   6.84920500
_cell_length_c   12.03008800
_cell_angle_alpha   90.00000000
_cell_angle_beta   90.00000000
_cell_angle_gamma   90.00000000
_symmetry_Int_Tables_number   1
_chemical_formula_structural   NaLaGeO4
_chemical_formula_sum   'Na4 La4 Ge4 O16'
_cell_volume   446.47553351
_cell_formula_units_Z   4
loop_
 _symmetry_equiv_pos_site_id
 _symmetry_equiv_pos_as_xyz
  1  'x, y, z'
loop_
 _atom_site_type_symbol
 _atom_site_label
 _atom_site_symmetry_multiplicity
 _atom_site_fract_x
 _atom_site_fract_y
 _atom_site_fract_z
 _atom_site_occupancy
  Na  Na0  1  0.500000  0.500000  0.000000  1
  Na  Na1  1  0.500000  0.000000  0.000000  1
  Na  Na2  1  0.000000  0.000000  0.500000  1
  Na  Na3  1  0.000000  0.500000  0.500000  1
  La  La4  1  0.499674  0.250000  0.281997  1
  La  La5  1  0.500326  0.750000  0.718003  1
  La  La6  1  0.000326  0.250000  0.781997  1
  La  La7  1  0.999674  0.750000  0.218003  1
  Ge  Ge8  1  0.560605  0.750000  0.403634  1
  Ge  Ge9  1  0.939395  0.750000  0.903634  1
  Ge  Ge10  1  0.439395  0.250000  0.596366  1
  Ge  Ge11  1  0.060605  0.250000  0.096366  1
  O  O12  1  0.737607  0.250000  0.108516  1
  O  O13  1  0.262393  0.750000  0.891484  1
  O  O14  1  0.762393  0.250000  0.608516  1
  O  O15  1  0.237607  0.750000  0.391484  1
  O  O16  1  0.816590  0.750000  0.039847  1
  O  O17  1  0.183410  0.250000  0.960153  1
  O  O18  1  0.683410  0.750000  0.539847  1
  O  O19  1  0.316590  0.250000  0.460153  1
  O  O20  1  0.705884  0.549262  0.330676  1
  O  O21  1  0.294116  0.049262  0.669324  1
  O  O22  1  0.794116  0.549262  0.830676  1
  O  O23  1  0.205884  0.049262  0.169324  1
  O  O24  1  0.205884  0.450738  0.169324  1
  O  O25  1  0.794116  0.950738  0.830676  1
  O  O26  1  0.294116  0.450738  0.669324  1
  O  O27  1  0.705884  0.950738  0.330676  1
