# generated using pymatgen
data_Nb3(NiAs)4
_symmetry_space_group_name_H-M   'P 1'
_cell_length_a   6.26916118
_cell_length_b   3.71975000
_cell_length_c   7.18907828
_cell_angle_alpha   90.00000000
_cell_angle_beta   91.88631311
_cell_angle_gamma   90.00000000
_symmetry_Int_Tables_number   1
_chemical_formula_structural   Nb3(NiAs)4
_chemical_formula_sum   'Nb3 Ni4 As4'
_cell_volume   167.55639043
_cell_formula_units_Z   1
loop_
 _symmetry_equiv_pos_site_id
 _symmetry_equiv_pos_as_xyz
  1  'x, y, z'
loop_
 _atom_site_type_symbol
 _atom_site_label
 _atom_site_symmetry_multiplicity
 _atom_site_fract_x
 _atom_site_fract_y
 _atom_site_fract_z
 _atom_site_occupancy
  Nb  Nb0  1  0.976089  0.750000  0.188611  1
  Nb  Nb1  1  0.465440  0.750000  0.327539  1
  Nb  Nb2  1  0.524436  0.249998  0.671902  1
  Ni  Ni3  1  0.640106  0.249998  0.060683  1
  Ni  Ni4  1  0.163592  0.249998  0.436833  1
  Ni  Ni5  1  0.843689  0.750000  0.570739  1
  Ni  Ni6  1  0.376667  0.750000  0.940310  1
  As  As7  1  0.256166  0.249998  0.100719  1
  As  As8  1  0.775277  0.249998  0.380527  1
  As  As9  1  0.214218  0.750000  0.638453  1
  As  As10  1  0.762290  0.750000  0.880947  1
