# generated using pymatgen
data_Ho8Nb7Si16W5
_symmetry_space_group_name_H-M   'P 1'
_cell_length_a   6.96847093
_cell_length_b   6.97230599
_cell_length_c   12.93653648
_cell_angle_alpha   89.88733323
_cell_angle_beta   90.07428140
_cell_angle_gamma   89.98779628
_symmetry_Int_Tables_number   1
_chemical_formula_structural   Ho8Nb7Si16W5
_chemical_formula_sum   'Ho8 Nb7 Si16 W5'
_cell_volume   628.53683466
_cell_formula_units_Z   1
loop_
 _symmetry_equiv_pos_site_id
 _symmetry_equiv_pos_as_xyz
  1  'x, y, z'
loop_
 _atom_site_type_symbol
 _atom_site_label
 _atom_site_symmetry_multiplicity
 _atom_site_fract_x
 _atom_site_fract_y
 _atom_site_fract_z
 _atom_site_occupancy
  Ho  Ho0  1  0.341482  0.000894  0.467708  1
  Ho  Ho1  1  0.498921  0.841183  0.718554  1
  Ho  Ho2  1  0.500360  0.158663  0.217280  1
  Ho  Ho3  1  0.841200  0.498738  0.282207  1
  Ho  Ho4  1  0.158826  0.500529  0.782245  1
  Ho  Ho5  1  0.659106  0.999182  0.967730  1
  Ho  Ho6  1  0.001432  0.340706  0.532927  1
  Ho  Ho7  1  0.998697  0.659446  0.031217  1
  Nb  Nb8  1  0.492625  0.654515  0.124374  1
  Nb  Nb9  1  0.505050  0.345000  0.626274  1
  Nb  Nb10  1  0.653493  0.494305  0.874583  1
  Nb  Nb11  1  0.346681  0.505736  0.374783  1
  Nb  Nb12  1  0.846694  0.994251  0.375371  1
  Nb  Nb13  1  0.005175  0.153453  0.124365  1
  Nb  Nb14  1  0.995409  0.846274  0.625214  1
  Si  Si15  1  0.200879  0.132167  0.684517  1
  Si  Si16  1  0.366852  0.705622  0.931499  1
  Si  Si17  1  0.633313  0.298142  0.433103  1
  Si  Si18  1  0.701400  0.367580  0.066996  1
  Si  Si19  1  0.298974  0.633229  0.567388  1
  Si  Si20  1  0.798249  0.866046  0.182622  1
  Si  Si21  1  0.133568  0.201617  0.317087  1
  Si  Si22  1  0.869989  0.800998  0.818019  1
  Si  Si23  1  0.292341  0.956813  0.063100  1
  Si  Si24  1  0.544699  0.793989  0.314652  1
  Si  Si25  1  0.452247  0.205475  0.815842  1
  Si  Si26  1  0.793470  0.544836  0.685044  1
  Si  Si27  1  0.205609  0.455163  0.184926  1
  Si  Si28  1  0.706579  0.044408  0.565091  1
  Si  Si29  1  0.957812  0.290678  0.934967  1
  Si  Si30  1  0.044936  0.706130  0.435276  1
  W  W31  1  0.327809  0.329066  0.999496  1
  W  W32  1  0.170713  0.828907  0.249555  1
  W  W33  1  0.829595  0.169840  0.750667  1
  W  W34  1  0.671223  0.671118  0.500011  1
  W  W35  1  0.154589  0.005299  0.875310  1
