# generated using pymatgen
data_Sc2FeCo(BRu2)2
_symmetry_space_group_name_H-M   'P 1'
_cell_length_a   9.14494800
_cell_length_b   9.14494800
_cell_length_c   3.03574900
_cell_angle_alpha   90.00000000
_cell_angle_beta   90.00000000
_cell_angle_gamma   90.00000000
_symmetry_Int_Tables_number   1
_chemical_formula_structural   Sc2FeCo(BRu2)2
_chemical_formula_sum   'Sc4 Fe2 Co2 B4 Ru8'
_cell_volume   253.87991328
_cell_formula_units_Z   2
loop_
 _symmetry_equiv_pos_site_id
 _symmetry_equiv_pos_as_xyz
  1  'x, y, z'
loop_
 _atom_site_type_symbol
 _atom_site_label
 _atom_site_symmetry_multiplicity
 _atom_site_fract_x
 _atom_site_fract_y
 _atom_site_fract_z
 _atom_site_occupancy
  Sc  Sc0  1  0.675288  0.175288  0.000000  1
  Sc  Sc1  1  0.324712  0.824712  0.000000  1
  Sc  Sc2  1  0.175288  0.324712  0.000000  1
  Sc  Sc3  1  0.824712  0.675288  0.000000  1
  Fe  Fe4  1  0.500000  0.500000  0.000000  1
  Fe  Fe5  1  0.000000  0.000000  0.000000  1
  Co  Co6  1  0.500000  0.000000  0.500000  1
  Co  Co7  1  0.000000  0.500000  0.500000  1
  B  B8  1  0.117079  0.617079  0.000000  1
  B  B9  1  0.882921  0.382921  0.000000  1
  B  B10  1  0.617079  0.882921  0.000000  1
  B  B11  1  0.382921  0.117079  0.000000  1
  Ru  Ru12  1  0.565998  0.718238  0.500000  1
  Ru  Ru13  1  0.434002  0.281762  0.500000  1
  Ru  Ru14  1  0.065998  0.781762  0.500000  1
  Ru  Ru15  1  0.934002  0.218238  0.500000  1
  Ru  Ru16  1  0.281762  0.565998  0.500000  1
  Ru  Ru17  1  0.718238  0.434002  0.500000  1
  Ru  Ru18  1  0.218238  0.065998  0.500000  1
  Ru  Ru19  1  0.781762  0.934002  0.500000  1
