# generated using pymatgen
data_Tb4DyCo9(P6Ru5)2
_symmetry_space_group_name_H-M   'P 1'
_cell_length_a   12.33246718
_cell_length_b   12.29357088
_cell_length_c   3.76609900
_cell_angle_alpha   90.00000000
_cell_angle_beta   90.00000000
_cell_angle_gamma   119.81012522
_symmetry_Int_Tables_number   1
_chemical_formula_structural   Tb4DyCo9(P6Ru5)2
_chemical_formula_sum   'Tb4 Dy1 Co9 P12 Ru10'
_cell_volume   495.42525735
_cell_formula_units_Z   1
loop_
 _symmetry_equiv_pos_site_id
 _symmetry_equiv_pos_as_xyz
  1  'x, y, z'
loop_
 _atom_site_type_symbol
 _atom_site_label
 _atom_site_symmetry_multiplicity
 _atom_site_fract_x
 _atom_site_fract_y
 _atom_site_fract_z
 _atom_site_occupancy
  Tb  Tb0  1  0.663705  0.333482  0.000000  1
  Tb  Tb1  1  0.333065  0.667023  0.000000  1
  Tb  Tb2  1  0.183450  0.182022  0.500000  1
  Tb  Tb3  1  0.818156  0.998406  0.500000  1
  Dy  Dy4  1  0.999486  0.818413  0.500000  1
  Co  Co5  1  0.802517  0.630294  0.000000  1
  Co  Co6  1  0.368483  0.170881  0.000000  1
  Co  Co7  1  0.195358  0.828142  0.000000  1
  Co  Co8  1  0.629259  0.800286  0.000000  1
  Co  Co9  1  0.176418  0.370480  0.000000  1
  Co  Co10  1  0.718695  0.718345  0.500000  1
  Co  Co11  1  0.279447  0.999534  0.500000  1
  Co  Co12  1  0.007015  0.285234  0.500000  1
  Co  Co13  1  0.999576  0.998889  0.000000  1
  P  P14  1  0.363669  0.363625  0.000000  1
  P  P15  1  0.633210  0.997262  0.000000  1
  P  P16  1  0.000616  0.637675  0.000000  1
  P  P17  1  0.838253  0.315781  0.500000  1
  P  P18  1  0.684935  0.524128  0.500000  1
  P  P19  1  0.473033  0.159346  0.500000  1
  P  P20  1  0.315557  0.840552  0.500000  1
  P  P21  1  0.524448  0.683703  0.500000  1
  P  P22  1  0.162003  0.478052  0.500000  1
  P  P23  1  0.820207  0.820146  0.000000  1
  P  P24  1  0.178125  0.999487  0.000000  1
  P  P25  1  0.005622  0.181367  0.000000  1
  Ru  Ru26  1  0.555448  0.553930  0.000000  1
  Ru  Ru27  1  0.440143  0.995395  0.000000  1
  Ru  Ru28  1  0.008619  0.450721  0.000000  1
  Ru  Ru29  1  0.827192  0.198190  0.000000  1
  Ru  Ru30  1  0.639784  0.124859  0.500000  1
  Ru  Ru31  1  0.873060  0.519547  0.500000  1
  Ru  Ru32  1  0.480064  0.352383  0.500000  1
  Ru  Ru33  1  0.129420  0.650181  0.500000  1
  Ru  Ru34  1  0.518330  0.870342  0.500000  1
  Ru  Ru35  1  0.353630  0.481893  0.500000  1
