# generated using pymatgen
data_CsKTb2(SbAu)4
_symmetry_space_group_name_H-M   'P 1'
_cell_length_a   4.63929100
_cell_length_b   4.63929050
_cell_length_c   19.64810600
_cell_angle_alpha   90.00000000
_cell_angle_beta   90.00000000
_cell_angle_gamma   120.00001067
_symmetry_Int_Tables_number   1
_chemical_formula_structural   CsKTb2(SbAu)4
_chemical_formula_sum   'Cs1 K1 Tb2 Sb4 Au4'
_cell_volume   366.23045800
_cell_formula_units_Z   1
loop_
 _symmetry_equiv_pos_site_id
 _symmetry_equiv_pos_as_xyz
  1  'x, y, z'
loop_
 _atom_site_type_symbol
 _atom_site_label
 _atom_site_symmetry_multiplicity
 _atom_site_fract_x
 _atom_site_fract_y
 _atom_site_fract_z
 _atom_site_occupancy
  Cs  Cs0  1  0.000000  0.000000  0.500000  1
  K  K1  1  0.000000  0.000000  0.000000  1
  Tb  Tb2  1  0.000000  0.000000  0.245762  1
  Tb  Tb3  1  0.000000  0.000000  0.754238  1
  Sb  Sb4  1  0.333333  0.666667  0.356625  1
  Sb  Sb5  1  0.666667  0.333333  0.643375  1
  Sb  Sb6  1  0.666667  0.333333  0.866937  1
  Sb  Sb7  1  0.333333  0.666667  0.133063  1
  Au  Au8  1  0.666667  0.333333  0.327386  1
  Au  Au9  1  0.333333  0.666667  0.672614  1
  Au  Au10  1  0.333333  0.666667  0.835928  1
  Au  Au11  1  0.666667  0.333333  0.164072  1
