# generated using pymatgen
data_Th2Be(SiRh2)3
_symmetry_space_group_name_H-M   'P 1'
_cell_length_a   5.56167561
_cell_length_b   6.63834280
_cell_length_c   6.63834307
_cell_angle_alpha   66.06668895
_cell_angle_beta   65.35883410
_cell_angle_gamma   65.35882879
_symmetry_Int_Tables_number   1
_chemical_formula_structural   Th2Be(SiRh2)3
_chemical_formula_sum   'Th2 Be1 Si3 Rh6'
_cell_volume   194.34869214
_cell_formula_units_Z   1
loop_
 _symmetry_equiv_pos_site_id
 _symmetry_equiv_pos_as_xyz
  1  'x, y, z'
loop_
 _atom_site_type_symbol
 _atom_site_label
 _atom_site_symmetry_multiplicity
 _atom_site_fract_x
 _atom_site_fract_y
 _atom_site_fract_z
 _atom_site_occupancy
  Th  Th0  1  0.549801  0.745255  0.745255  1
  Th  Th1  1  0.445835  0.255222  0.255222  1
  Be  Be2  1  0.228995  0.576106  0.576106  1
  Si  Si3  1  0.768574  0.421771  0.421771  1
  Si  Si4  1  0.116548  0.079317  0.079317  1
  Si  Si5  1  0.883506  0.920501  0.920501  1
  Rh  Rh6  1  0.499740  0.217289  0.783103  1
  Rh  Rh7  1  0.001403  0.715753  0.286846  1
  Rh  Rh8  1  0.499740  0.783103  0.217289  1
  Rh  Rh9  1  0.001403  0.286846  0.715753  1
  Rh  Rh10  1  0.002228  0.502210  0.996630  1
  Rh  Rh11  1  0.002228  0.996630  0.502210  1
