# generated using pymatgen
data_LiNb12Cr2Ga8CuN4
_symmetry_space_group_name_H-M   'P 1'
_cell_length_a   8.21079046
_cell_length_b   8.24541454
_cell_length_c   8.24541500
_cell_angle_alpha   60.57130585
_cell_angle_beta   60.47958264
_cell_angle_gamma   60.47958324
_symmetry_Int_Tables_number   1
_chemical_formula_structural   LiNb12Cr2Ga8CuN4
_chemical_formula_sum   'Li1 Nb12 Cr2 Ga8 Cu1 N4'
_cell_volume   399.27533026
_cell_formula_units_Z   1
loop_
 _symmetry_equiv_pos_site_id
 _symmetry_equiv_pos_as_xyz
  1  'x, y, z'
loop_
 _atom_site_type_symbol
 _atom_site_label
 _atom_site_symmetry_multiplicity
 _atom_site_fract_x
 _atom_site_fract_y
 _atom_site_fract_z
 _atom_site_occupancy
  Li  Li0  1  0.125000  0.625000  0.625000  1
  Nb  Nb1  1  0.805745  0.805903  0.191556  1
  Nb  Nb2  1  0.196379  0.192310  0.805276  1
  Nb  Nb3  1  0.805745  0.191556  0.805903  1
  Nb  Nb4  1  0.196379  0.805276  0.192310  1
  Nb  Nb5  1  0.191268  0.808264  0.808264  1
  Nb  Nb6  1  0.804053  0.195550  0.195550  1
  Nb  Nb7  1  0.444255  0.444097  0.058444  1
  Nb  Nb8  1  0.053621  0.057690  0.444724  1
  Nb  Nb9  1  0.444255  0.058444  0.444097  1
  Nb  Nb10  1  0.053621  0.444724  0.057690  1
  Nb  Nb11  1  0.058732  0.441736  0.441736  1
  Nb  Nb12  1  0.445947  0.054450  0.054450  1
  Cr  Cr13  1  0.625000  0.125000  0.625000  1
  Cr  Cr14  1  0.625000  0.625000  0.125000  1
  Ga  Ga15  1  0.756884  0.415496  0.415496  1
  Ga  Ga16  1  0.411217  0.758520  0.416198  1
  Ga  Ga17  1  0.411217  0.416198  0.758520  1
  Ga  Ga18  1  0.410260  0.417194  0.417194  1
  Ga  Ga19  1  0.493116  0.834504  0.834504  1
  Ga  Ga20  1  0.838783  0.491480  0.833802  1
  Ga  Ga21  1  0.838783  0.833802  0.491480  1
  Ga  Ga22  1  0.839740  0.832806  0.832806  1
  Cu  Cu23  1  0.625000  0.625000  0.625000  1
  N  N24  1  0.625000  0.125000  0.125000  1
  N  N25  1  0.125000  0.625000  0.125000  1
  N  N26  1  0.125000  0.125000  0.625000  1
  N  N27  1  0.125000  0.125000  0.125000  1
