# generated using pymatgen
data_Ho5Er4LuPb6
_symmetry_space_group_name_H-M   'P 1'
_cell_length_a   6.55866600
_cell_length_b   9.00130079
_cell_length_c   9.00421800
_cell_angle_alpha   120.01211272
_cell_angle_beta   89.99919682
_cell_angle_gamma   89.99841611
_symmetry_Int_Tables_number   1
_chemical_formula_structural   Ho5Er4LuPb6
_chemical_formula_sum   'Ho5 Er4 Lu1 Pb6'
_cell_volume   460.30363118
_cell_formula_units_Z   1
loop_
 _symmetry_equiv_pos_site_id
 _symmetry_equiv_pos_as_xyz
  1  'x, y, z'
loop_
 _atom_site_type_symbol
 _atom_site_label
 _atom_site_symmetry_multiplicity
 _atom_site_fract_x
 _atom_site_fract_y
 _atom_site_fract_z
 _atom_site_occupancy
  Ho  Ho0  1  0.750228  0.237401  0.999868  1
  Ho  Ho1  1  0.750197  0.762601  0.762439  1
  Ho  Ho2  1  0.750235  0.000009  0.237954  1
  Ho  Ho3  1  0.249792  0.762466  0.999975  1
  Ho  Ho4  1  0.249776  0.237530  0.237532  1
  Er  Er5  1  0.249756  0.000051  0.762436  1
  Er  Er6  1  0.499991  0.333431  0.666747  1
  Er  Er7  1  0.499954  0.666594  0.333240  1
  Er  Er8  1  0.000012  0.666577  0.333235  1
  Lu  Lu9  1  0.000062  0.333435  0.666656  1
  Pb  Pb10  1  0.751125  0.604846  0.999253  1
  Pb  Pb11  1  0.751184  0.394445  0.395092  1
  Pb  Pb12  1  0.751139  0.000544  0.605299  1
  Pb  Pb13  1  0.248776  0.393893  0.998924  1
  Pb  Pb14  1  0.248936  0.605489  0.605780  1
  Pb  Pb15  1  0.248838  0.000689  0.395568  1
