# generated using pymatgen
data_Mg3ZnP6N13
_symmetry_space_group_name_H-M   'P 1'
_cell_length_a   7.06431338
_cell_length_b   7.06431467
_cell_length_c   7.06431468
_cell_angle_alpha   109.52960289
_cell_angle_beta   109.52960365
_cell_angle_gamma   109.52961935
_symmetry_Int_Tables_number   1
_chemical_formula_structural   Mg3ZnP6N13
_chemical_formula_sum   'Mg3 Zn1 P6 N13'
_cell_volume   270.79817563
_cell_formula_units_Z   1
loop_
 _symmetry_equiv_pos_site_id
 _symmetry_equiv_pos_as_xyz
  1  'x, y, z'
loop_
 _atom_site_type_symbol
 _atom_site_label
 _atom_site_symmetry_multiplicity
 _atom_site_fract_x
 _atom_site_fract_y
 _atom_site_fract_z
 _atom_site_occupancy
  Mg  Mg0  1  0.002313  0.708801  0.002313  1
  Mg  Mg1  1  0.708801  0.002313  0.002313  1
  Mg  Mg2  1  0.002313  0.002313  0.708801  1
  Zn  Zn3  1  0.284721  0.284721  0.284721  1
  P  P4  1  0.498897  0.249756  0.749088  1
  P  P5  1  0.498897  0.749088  0.249756  1
  P  P6  1  0.749088  0.498897  0.249756  1
  P  P7  1  0.249756  0.749088  0.498897  1
  P  P8  1  0.749088  0.249756  0.498897  1
  P  P9  1  0.249756  0.498897  0.749088  1
  N  N10  1  0.000123  0.732058  0.454709  1
  N  N11  1  0.278167  0.544044  0.544044  1
  N  N12  1  0.732058  0.454709  0.000123  1
  N  N13  1  0.268412  0.723342  0.268412  1
  N  N14  1  0.454709  0.000123  0.732058  1
  N  N15  1  0.723342  0.268412  0.268412  1
  N  N16  1  0.544044  0.278167  0.544044  1
  N  N17  1  0.732058  0.000123  0.454709  1
  N  N18  1  0.268412  0.268412  0.723342  1
  N  N19  1  0.454709  0.732058  0.000123  1
  N  N20  1  0.544044  0.544044  0.278167  1
  N  N21  1  0.000123  0.454709  0.732058  1
  N  N22  1  0.006169  0.006169  0.006169  1
