# generated using pymatgen
data_CaFe3NiSb12
_symmetry_space_group_name_H-M   'P 1'
_cell_length_a   7.98634885
_cell_length_b   7.96487453
_cell_length_c   7.96487462
_cell_angle_alpha   109.41653661
_cell_angle_beta   109.52584637
_cell_angle_gamma   109.52584639
_symmetry_Int_Tables_number   1
_chemical_formula_structural   CaFe3NiSb12
_chemical_formula_sum   'Ca1 Fe3 Ni1 Sb12'
_cell_volume   389.75442866
_cell_formula_units_Z   1
loop_
 _symmetry_equiv_pos_site_id
 _symmetry_equiv_pos_as_xyz
  1  'x, y, z'
loop_
 _atom_site_type_symbol
 _atom_site_label
 _atom_site_symmetry_multiplicity
 _atom_site_fract_x
 _atom_site_fract_y
 _atom_site_fract_z
 _atom_site_occupancy
  Ca  Ca0  1  0.000000  0.000000  0.000000  1
  Fe  Fe1  1  0.000000  0.000000  0.500000  1
  Fe  Fe2  1  0.500000  0.500000  0.500000  1
  Fe  Fe3  1  0.000000  0.500000  0.000000  1
  Ni  Ni4  1  0.500000  0.000000  0.000000  1
  Sb  Sb5  1  0.333589  0.177529  0.836740  1
  Sb  Sb6  1  0.163570  0.333582  0.496129  1
  Sb  Sb7  1  0.666411  0.822471  0.163260  1
  Sb  Sb8  1  0.332560  0.496129  0.162547  1
  Sb  Sb9  1  0.667440  0.503871  0.837453  1
  Sb  Sb10  1  0.503151  0.836740  0.659211  1
  Sb  Sb11  1  0.836430  0.666418  0.503871  1
  Sb  Sb12  1  0.843940  0.340789  0.177529  1
  Sb  Sb13  1  0.170012  0.837453  0.333582  1
  Sb  Sb14  1  0.496849  0.163260  0.340789  1
  Sb  Sb15  1  0.829988  0.162547  0.666418  1
  Sb  Sb16  1  0.156060  0.659211  0.822471  1
