# generated using pymatgen
data_Dy4PtAu3
_symmetry_space_group_name_H-M   'P 1'
_cell_length_a   4.68574900
_cell_length_b   5.64349732
_cell_length_c   7.16297178
_cell_angle_alpha   90.99477128
_cell_angle_beta   90.00000000
_cell_angle_gamma   90.00000000
_symmetry_Int_Tables_number   1
_chemical_formula_structural   Dy4PtAu3
_chemical_formula_sum   'Dy4 Pt1 Au3'
_cell_volume   189.38916289
_cell_formula_units_Z   1
loop_
 _symmetry_equiv_pos_site_id
 _symmetry_equiv_pos_as_xyz
  1  'x, y, z'
loop_
 _atom_site_type_symbol
 _atom_site_label
 _atom_site_symmetry_multiplicity
 _atom_site_fract_x
 _atom_site_fract_y
 _atom_site_fract_z
 _atom_site_occupancy
  Dy  Dy0  1  0.250000  0.352996  0.693003  1
  Dy  Dy1  1  0.250000  0.151452  0.175299  1
  Dy  Dy2  1  0.750000  0.640028  0.312132  1
  Dy  Dy3  1  0.750000  0.859439  0.819812  1
  Pt  Pt4  1  0.750000  0.344724  0.958270  1
  Au  Au5  1  0.250000  0.844780  0.540327  1
  Au  Au6  1  0.250000  0.654839  0.043497  1
  Au  Au7  1  0.750000  0.151742  0.457661  1
