# generated using pymatgen
data_La4Zn2(GeRh3)3
_symmetry_space_group_name_H-M   'P 1'
_cell_length_a   12.28302500
_cell_length_b   12.28302462
_cell_length_c   12.28302431
_cell_angle_alpha   26.75764317
_cell_angle_beta   26.75764581
_cell_angle_gamma   26.75764537
_symmetry_Int_Tables_number   1
_chemical_formula_structural   La4Zn2(GeRh3)3
_chemical_formula_sum   'La4 Zn2 Ge3 Rh9'
_cell_volume   331.21254945
_cell_formula_units_Z   1
loop_
 _symmetry_equiv_pos_site_id
 _symmetry_equiv_pos_as_xyz
  1  'x, y, z'
loop_
 _atom_site_type_symbol
 _atom_site_label
 _atom_site_symmetry_multiplicity
 _atom_site_fract_x
 _atom_site_fract_y
 _atom_site_fract_z
 _atom_site_occupancy
  La  La0  1  0.949197  0.949197  0.949197  1
  La  La1  1  0.853315  0.853315  0.853315  1
  La  La2  1  0.146860  0.146860  0.146860  1
  La  La3  1  0.050676  0.050676  0.050676  1
  Zn  Zn4  1  0.279372  0.279372  0.279372  1
  Zn  Zn5  1  0.500145  0.500145  0.500145  1
  Ge  Ge6  1  0.387579  0.387579  0.387579  1
  Ge  Ge7  1  0.721763  0.721763  0.721763  1
  Ge  Ge8  1  0.611423  0.611423  0.611423  1
  Rh  Rh9  1  0.607097  0.607097  0.107886  1
  Rh  Rh10  1  0.895156  0.389159  0.389159  1
  Rh  Rh11  1  0.502601  0.998913  0.502601  1
  Rh  Rh12  1  0.389159  0.895156  0.389159  1
  Rh  Rh13  1  0.502601  0.502601  0.998913  1
  Rh  Rh14  1  0.107886  0.607097  0.607097  1
  Rh  Rh15  1  0.998913  0.502601  0.502601  1
  Rh  Rh16  1  0.389159  0.389159  0.895156  1
  Rh  Rh17  1  0.607097  0.107886  0.607097  1
