# generated using pymatgen
data_Tm6Zn18Ag5P
_symmetry_space_group_name_H-M   'P 1'
_cell_length_a   9.12006425
_cell_length_b   9.13005176
_cell_length_c   9.13005200
_cell_angle_alpha   59.99999913
_cell_angle_beta   59.96376642
_cell_angle_gamma   59.96377558
_symmetry_Int_Tables_number   1
_chemical_formula_structural   Tm6Zn18Ag5P
_chemical_formula_sum   'Tm6 Zn18 Ag5 P1'
_cell_volume   537.26846511
_cell_formula_units_Z   1
loop_
 _symmetry_equiv_pos_site_id
 _symmetry_equiv_pos_as_xyz
  1  'x, y, z'
loop_
 _atom_site_type_symbol
 _atom_site_label
 _atom_site_symmetry_multiplicity
 _atom_site_fract_x
 _atom_site_fract_y
 _atom_site_fract_z
 _atom_site_occupancy
  Tm  Tm0  1  0.710003  0.289978  0.289978  1
  Tm  Tm1  1  0.710003  0.289978  0.710042  1
  Tm  Tm2  1  0.710003  0.710042  0.289978  1
  Tm  Tm3  1  0.290828  0.709442  0.709442  1
  Tm  Tm4  1  0.290828  0.709442  0.290289  1
  Tm  Tm5  1  0.290828  0.290289  0.709442  1
  Zn  Zn6  1  0.876145  0.370044  0.876905  1
  Zn  Zn7  1  0.876145  0.876905  0.370044  1
  Zn  Zn8  1  0.876145  0.876905  0.876905  1
  Zn  Zn9  1  0.503970  0.998951  0.998951  1
  Zn  Zn10  1  0.503970  0.998951  0.498127  1
  Zn  Zn11  1  0.503970  0.498127  0.998951  1
  Zn  Zn12  1  0.998599  0.501687  0.501687  1
  Zn  Zn13  1  0.998599  0.501687  0.998027  1
  Zn  Zn14  1  0.998599  0.998027  0.501687  1
  Zn  Zn15  1  0.997045  0.000985  0.000985  1
  Zn  Zn16  1  0.006972  0.331009  0.331009  1
  Zn  Zn17  1  0.331399  0.007140  0.330729  1
  Zn  Zn18  1  0.331399  0.330729  0.007140  1
  Zn  Zn19  1  0.331399  0.330729  0.330729  1
  Zn  Zn20  1  0.991091  0.669637  0.669637  1
  Zn  Zn21  1  0.669156  0.992035  0.669406  1
  Zn  Zn22  1  0.669156  0.669406  0.992035  1
  Zn  Zn23  1  0.669156  0.669406  0.669406  1
  Ag  Ag24  1  0.639704  0.120099  0.120099  1
  Ag  Ag25  1  0.120542  0.637864  0.120798  1
  Ag  Ag26  1  0.120542  0.120798  0.637864  1
  Ag  Ag27  1  0.120542  0.120798  0.120798  1
  Ag  Ag28  1  0.362424  0.879191  0.879191  1
  P  P29  1  0.500838  0.499720  0.499720  1
