# generated using pymatgen
data_Zr8Ti3Si16W9
_symmetry_space_group_name_H-M   'P 1'
_cell_length_a   6.59855529
_cell_length_b   6.74680917
_cell_length_c   12.85444903
_cell_angle_alpha   90.03882667
_cell_angle_beta   90.26039527
_cell_angle_gamma   89.87611688
_symmetry_Int_Tables_number   1
_chemical_formula_structural   Zr8Ti3Si16W9
_chemical_formula_sum   'Zr8 Ti3 Si16 W9'
_cell_volume   572.26232637
_cell_formula_units_Z   1
loop_
 _symmetry_equiv_pos_site_id
 _symmetry_equiv_pos_as_xyz
  1  'x, y, z'
loop_
 _atom_site_type_symbol
 _atom_site_label
 _atom_site_symmetry_multiplicity
 _atom_site_fract_x
 _atom_site_fract_y
 _atom_site_fract_z
 _atom_site_occupancy
  Zr  Zr0  1  0.997508  0.169802  0.092987  1
  Zr  Zr1  1  0.004122  0.829602  0.907072  1
  Zr  Zr2  1  0.503019  0.670206  0.906653  1
  Zr  Zr3  1  0.006119  0.830550  0.591846  1
  Zr  Zr4  1  0.498661  0.328411  0.093222  1
  Zr  Zr5  1  0.992484  0.172221  0.407692  1
  Zr  Zr6  1  0.492774  0.328989  0.409058  1
  Zr  Zr7  1  0.506535  0.669703  0.591732  1
  Ti  Ti8  1  0.336381  0.167850  0.626472  1
  Ti  Ti9  1  0.664072  0.832904  0.374392  1
  Ti  Ti10  1  0.162402  0.667130  0.373888  1
  Si  Si11  1  0.036513  0.119552  0.749855  1
  Si  Si12  1  0.963433  0.880063  0.249874  1
  Si  Si13  1  0.463127  0.619498  0.249917  1
  Si  Si14  1  0.535726  0.379599  0.751334  1
  Si  Si15  1  0.301473  0.859625  0.747862  1
  Si  Si16  1  0.699469  0.140054  0.251629  1
  Si  Si17  1  0.200767  0.359954  0.251304  1
  Si  Si18  1  0.800920  0.640915  0.749719  1
  Si  Si19  1  0.168989  0.461275  0.541046  1
  Si  Si20  1  0.829884  0.542235  0.459291  1
  Si  Si21  1  0.328751  0.959353  0.459643  1
  Si  Si22  1  0.831637  0.540851  0.041079  1
  Si  Si23  1  0.668982  0.041374  0.540767  1
  Si  Si24  1  0.169211  0.458022  0.957953  1
  Si  Si25  1  0.668271  0.042881  0.958228  1
  Si  Si26  1  0.331199  0.956563  0.040993  1
  W  W27  1  0.167046  0.503026  0.751120  1
  W  W28  1  0.835325  0.500591  0.249293  1
  W  W29  1  0.336942  0.997697  0.250388  1
  W  W30  1  0.663483  0.998949  0.750097  1
  W  W31  1  0.665116  0.835850  0.121234  1
  W  W32  1  0.835722  0.334592  0.626446  1
  W  W33  1  0.332791  0.161831  0.878253  1
  W  W34  1  0.836671  0.335319  0.876446  1
  W  W35  1  0.164473  0.662959  0.121216  1
