# generated using pymatgen
data_Ba4DyAuO8
_symmetry_space_group_name_H-M   'P 1'
_cell_length_a   7.47808670
_cell_length_b   7.47808708
_cell_length_c   5.98432700
_cell_angle_alpha   90.00000000
_cell_angle_beta   90.00000000
_cell_angle_gamma   132.89193706
_symmetry_Int_Tables_number   1
_chemical_formula_structural   Ba4DyAuO8
_chemical_formula_sum   'Ba4 Dy1 Au1 O8'
_cell_volume   245.18064192
_cell_formula_units_Z   1
loop_
 _symmetry_equiv_pos_site_id
 _symmetry_equiv_pos_as_xyz
  1  'x, y, z'
loop_
 _atom_site_type_symbol
 _atom_site_label
 _atom_site_symmetry_multiplicity
 _atom_site_fract_x
 _atom_site_fract_y
 _atom_site_fract_z
 _atom_site_occupancy
  Ba  Ba0  1  0.353586  0.646414  0.000000  1
  Ba  Ba1  1  0.853415  0.146585  0.500000  1
  Ba  Ba2  1  0.146585  0.853415  0.500000  1
  Ba  Ba3  1  0.646414  0.353586  0.000000  1
  Dy  Dy4  1  0.000000  0.000000  0.000000  1
  Au  Au5  1  0.500000  0.500000  0.500000  1
  O  O6  1  0.257835  0.257835  0.735488  1
  O  O7  1  0.742165  0.742165  0.264512  1
  O  O8  1  0.742165  0.742165  0.735488  1
  O  O9  1  0.257835  0.257835  0.264512  1
  O  O10  1  0.165426  0.834574  0.000000  1
  O  O11  1  0.653519  0.346481  0.500000  1
  O  O12  1  0.346481  0.653519  0.500000  1
  O  O13  1  0.834574  0.165426  0.000000  1
