# generated using pymatgen
data_La(Pr2Au3)2
_symmetry_space_group_name_H-M   'P 1'
_cell_length_a   16.98565803
_cell_length_b   16.98565858
_cell_length_c   4.28227700
_cell_angle_alpha   90.00000000
_cell_angle_beta   90.00000000
_cell_angle_gamma   166.04770293
_symmetry_Int_Tables_number   1
_chemical_formula_structural   La(Pr2Au3)2
_chemical_formula_sum   'La1 Pr4 Au6'
_cell_volume   297.89409592
_cell_formula_units_Z   1
loop_
 _symmetry_equiv_pos_site_id
 _symmetry_equiv_pos_as_xyz
  1  'x, y, z'
loop_
 _atom_site_type_symbol
 _atom_site_label
 _atom_site_symmetry_multiplicity
 _atom_site_fract_x
 _atom_site_fract_y
 _atom_site_fract_z
 _atom_site_occupancy
  La  La0  1  0.000000  0.000000  0.000000  1
  Pr  Pr1  1  0.615280  0.384720  0.000000  1
  Pr  Pr2  1  0.384720  0.615280  0.000000  1
  Pr  Pr3  1  0.803249  0.196750  0.500000  1
  Pr  Pr4  1  0.196750  0.803249  0.500000  1
  Au  Au5  1  0.719240  0.280760  0.000000  1
  Au  Au6  1  0.280760  0.719240  0.000000  1
  Au  Au7  1  0.899408  0.100592  0.500000  1
  Au  Au8  1  0.541552  0.458447  0.500000  1
  Au  Au9  1  0.458447  0.541552  0.500000  1
  Au  Au10  1  0.100592  0.899408  0.500000  1
