# generated using pymatgen
data_Tm4Fe4Co13(NiP4)3
_symmetry_space_group_name_H-M   'P 1'
_cell_length_a   3.66325200
_cell_length_b   10.23304703
_cell_length_c   11.79926603
_cell_angle_alpha   89.99146111
_cell_angle_beta   90.00000000
_cell_angle_gamma   90.00000000
_symmetry_Int_Tables_number   1
_chemical_formula_structural   Tm4Fe4Co13(NiP4)3
_chemical_formula_sum   'Tm4 Fe4 Co13 Ni3 P12'
_cell_volume   442.30999534
_cell_formula_units_Z   1
loop_
 _symmetry_equiv_pos_site_id
 _symmetry_equiv_pos_as_xyz
  1  'x, y, z'
loop_
 _atom_site_type_symbol
 _atom_site_label
 _atom_site_symmetry_multiplicity
 _atom_site_fract_x
 _atom_site_fract_y
 _atom_site_fract_z
 _atom_site_occupancy
  Tm  Tm0  1  0.250000  0.582004  0.704620  1
  Tm  Tm1  1  0.250000  0.918091  0.203774  1
  Tm  Tm2  1  0.750000  0.418155  0.295502  1
  Tm  Tm3  1  0.750000  0.081270  0.795905  1
  Fe  Fe4  1  0.250000  0.709924  0.988261  1
  Fe  Fe5  1  0.250000  0.790411  0.487719  1
  Fe  Fe6  1  0.750000  0.289255  0.012430  1
  Fe  Fe7  1  0.750000  0.209657  0.512208  1
  Co  Co8  1  0.750000  0.907446  0.013069  1
  Co  Co9  1  0.250000  0.222060  0.176237  1
  Co  Co10  1  0.250000  0.277902  0.676158  1
  Co  Co11  1  0.750000  0.777347  0.823741  1
  Co  Co12  1  0.750000  0.722132  0.323151  1
  Co  Co13  1  0.250000  0.883254  0.699237  1
  Co  Co14  1  0.250000  0.617646  0.198201  1
  Co  Co15  1  0.750000  0.117541  0.301620  1
  Co  Co16  1  0.750000  0.382565  0.801716  1
  Co  Co17  1  0.250000  0.466576  0.933067  1
  Co  Co18  1  0.250000  0.033581  0.433175  1
  Co  Co19  1  0.750000  0.533673  0.067177  1
  Co  Co20  1  0.750000  0.966506  0.566929  1
  Ni  Ni21  1  0.250000  0.407487  0.486927  1
  Ni  Ni22  1  0.250000  0.093142  0.986346  1
  Ni  Ni23  1  0.750000  0.592576  0.513219  1
  P  P24  1  0.250000  0.419844  0.113734  1
  P  P25  1  0.250000  0.080170  0.613972  1
  P  P26  1  0.750000  0.580453  0.886686  1
  P  P27  1  0.750000  0.919639  0.385953  1
  P  P28  1  0.250000  0.270317  0.865610  1
  P  P29  1  0.250000  0.229780  0.365509  1
  P  P30  1  0.750000  0.731897  0.131848  1
  P  P31  1  0.750000  0.770323  0.634598  1
  P  P32  1  0.250000  0.604503  0.387336  1
  P  P33  1  0.250000  0.895759  0.890538  1
  P  P34  1  0.750000  0.395702  0.612462  1
  P  P35  1  0.750000  0.101412  0.111364  1
