# generated using pymatgen
data_Y3HoEr4(B6Ru)4
_symmetry_space_group_name_H-M   'P 1'
_cell_length_a   3.64525700
_cell_length_b   9.11620700
_cell_length_c   11.49714500
_cell_angle_alpha   89.99846577
_cell_angle_beta   90.00000000
_cell_angle_gamma   90.00000000
_symmetry_Int_Tables_number   1
_chemical_formula_structural   Y3HoEr4(B6Ru)4
_chemical_formula_sum   'Y3 Ho1 Er4 B24 Ru4'
_cell_volume   382.06067553
_cell_formula_units_Z   1
loop_
 _symmetry_equiv_pos_site_id
 _symmetry_equiv_pos_as_xyz
  1  'x, y, z'
loop_
 _atom_site_type_symbol
 _atom_site_label
 _atom_site_symmetry_multiplicity
 _atom_site_fract_x
 _atom_site_fract_y
 _atom_site_fract_z
 _atom_site_occupancy
  Y  Y0  1  0.000000  0.322320  0.414120  1
  Y  Y1  1  0.000000  0.677696  0.585895  1
  Y  Y2  1  0.000000  0.822366  0.085835  1
  Ho  Ho3  1  0.000000  0.177535  0.914156  1
  Er  Er4  1  0.000000  0.943857  0.372210  1
  Er  Er5  1  0.000000  0.056183  0.627874  1
  Er  Er6  1  0.000000  0.443701  0.127632  1
  Er  Er7  1  0.000000  0.555953  0.872239  1
  B  B8  1  0.500000  0.554589  0.432751  1
  B  B9  1  0.500000  0.445377  0.567316  1
  B  B10  1  0.500000  0.054841  0.066885  1
  B  B11  1  0.500000  0.945877  0.932738  1
  B  B12  1  0.500000  0.748704  0.419338  1
  B  B13  1  0.500000  0.251325  0.580768  1
  B  B14  1  0.500000  0.248520  0.080178  1
  B  B15  1  0.500000  0.751430  0.919312  1
  B  B16  1  0.500000  0.791626  0.266310  1
  B  B17  1  0.500000  0.208272  0.734080  1
  B  B18  1  0.500000  0.291560  0.233565  1
  B  B19  1  0.500000  0.708441  0.766376  1
  B  B20  1  0.500000  0.631576  0.185083  1
  B  B21  1  0.500000  0.367987  0.815164  1
  B  B22  1  0.500000  0.131621  0.314853  1
  B  B23  1  0.500000  0.868484  0.685184  1
  B  B24  1  0.500000  0.983891  0.213201  1
  B  B25  1  0.500000  0.016630  0.786992  1
  B  B26  1  0.500000  0.483790  0.286671  1
  B  B27  1  0.500000  0.516081  0.713362  1
  B  B28  1  0.500000  0.606639  0.029397  1
  B  B29  1  0.500000  0.392811  0.970447  1
  B  B30  1  0.500000  0.106615  0.470622  1
  B  B31  1  0.500000  0.893413  0.529411  1
  Ru  Ru32  1  0.000000  0.638409  0.320619  1
  Ru  Ru33  1  0.000000  0.361349  0.679637  1
  Ru  Ru34  1  0.000000  0.138433  0.178952  1
  Ru  Ru35  1  0.000000  0.862096  0.820826  1
