# generated using pymatgen
data_Y16Tm4Cd3Ni2Au3
_symmetry_space_group_name_H-M   'P 1'
_cell_length_a   9.59508400
_cell_length_b   9.59508107
_cell_length_c   9.54321200
_cell_angle_alpha   89.99995071
_cell_angle_beta   90.00005988
_cell_angle_gamma   119.99974866
_symmetry_Int_Tables_number   1
_chemical_formula_structural   Y16Tm4Cd3Ni2Au3
_chemical_formula_sum   'Y16 Tm4 Cd3 Ni2 Au3'
_cell_volume   760.89325263
_cell_formula_units_Z   1
loop_
 _symmetry_equiv_pos_site_id
 _symmetry_equiv_pos_as_xyz
  1  'x, y, z'
loop_
 _atom_site_type_symbol
 _atom_site_label
 _atom_site_symmetry_multiplicity
 _atom_site_fract_x
 _atom_site_fract_y
 _atom_site_fract_z
 _atom_site_occupancy
  Y  Y0  1  0.000017  0.999992  0.041424  1
  Y  Y1  1  0.456842  0.543123  0.749917  1
  Y  Y2  1  0.456897  0.913741  0.749917  1
  Y  Y3  1  0.086250  0.543128  0.749917  1
  Y  Y4  1  0.209023  0.791008  0.436325  1
  Y  Y5  1  0.208980  0.418001  0.436308  1
  Y  Y6  1  0.582000  0.790982  0.436309  1
  Y  Y7  1  0.791167  0.208838  0.559107  1
  Y  Y8  1  0.791152  0.582326  0.559119  1
  Y  Y9  1  0.417676  0.208840  0.559118  1
  Y  Y10  1  0.790712  0.209291  0.941295  1
  Y  Y11  1  0.790698  0.581416  0.941285  1
  Y  Y12  1  0.418586  0.209298  0.941286  1
  Y  Y13  1  0.209580  0.790454  0.063050  1
  Y  Y14  1  0.209535  0.419112  0.063069  1
  Y  Y15  1  0.580888  0.790427  0.063067  1
  Tm  Tm16  1  0.000016  0.999991  0.456522  1
  Tm  Tm17  1  0.542450  0.457481  0.250071  1
  Tm  Tm18  1  0.542498  0.084960  0.250070  1
  Tm  Tm19  1  0.915037  0.457565  0.250069  1
  Cd  Cd20  1  0.109494  0.890521  0.749262  1
  Cd  Cd21  1  0.109486  0.218956  0.749263  1
  Cd  Cd22  1  0.781044  0.890502  0.749262  1
  Ni  Ni23  1  0.333327  0.666685  0.250172  1
  Ni  Ni24  1  0.666666  0.333329  0.749836  1
  Au  Au25  1  0.868186  0.131855  0.251653  1
  Au  Au26  1  0.868117  0.736329  0.251653  1
  Au  Au27  1  0.263677  0.131846  0.251652  1
