# generated using pymatgen
data_H4PdF7
_symmetry_space_group_name_H-M   'P 1'
_cell_length_a   3.31148427
_cell_length_b   7.89460132
_cell_length_c   7.27771697
_cell_angle_alpha   127.28839902
_cell_angle_beta   75.17496335
_cell_angle_gamma   93.33048177
_symmetry_Int_Tables_number   1
_chemical_formula_structural   H4PdF7
_chemical_formula_sum   'H4 Pd1 F7'
_cell_volume   145.16502297
_cell_formula_units_Z   1
loop_
 _symmetry_equiv_pos_site_id
 _symmetry_equiv_pos_as_xyz
  1  'x, y, z'
loop_
 _atom_site_type_symbol
 _atom_site_label
 _atom_site_symmetry_multiplicity
 _atom_site_fract_x
 _atom_site_fract_y
 _atom_site_fract_z
 _atom_site_occupancy
  H  H0  1  0.504659  0.967965  0.193260  1
  H  H1  1  0.911408  0.838283  0.856794  1
  H  H2  1  0.068148  0.607159  0.492707  1
  H  H3  1  0.025890  0.516721  0.172207  1
  Pd  Pd4  1  0.155908  0.236401  0.693372  1
  F  F5  1  0.039611  0.487579  0.318617  1
  F  F6  1  0.640406  0.134479  0.784826  1
  F  F7  1  0.004692  0.526163  0.032334  1
  F  F8  1  0.145613  0.733400  0.697161  1
  F  F9  1  0.669805  0.340504  0.604333  1
  F  F10  1  0.297731  0.957772  0.365999  1
  F  F11  1  0.648802  0.985545  0.062721  1
