# generated using pymatgen
data_Y8Lu12Ga5Si11
_symmetry_space_group_name_H-M   'P 1'
_cell_length_a   7.29175625
_cell_length_b   7.58156849
_cell_length_c   14.43338800
_cell_angle_alpha   89.99492153
_cell_angle_beta   90.09128190
_cell_angle_gamma   90.08037177
_symmetry_Int_Tables_number   1
_chemical_formula_structural   Y8Lu12Ga5Si11
_chemical_formula_sum   'Y8 Lu12 Ga5 Si11'
_cell_volume   797.91845830
_cell_formula_units_Z   1
loop_
 _symmetry_equiv_pos_site_id
 _symmetry_equiv_pos_as_xyz
  1  'x, y, z'
loop_
 _atom_site_type_symbol
 _atom_site_label
 _atom_site_symmetry_multiplicity
 _atom_site_fract_x
 _atom_site_fract_y
 _atom_site_fract_z
 _atom_site_occupancy
  Y  Y0  1  0.017398  0.175636  0.400564  1
  Y  Y1  1  0.517214  0.324525  0.400724  1
  Y  Y2  1  0.484849  0.676565  0.899869  1
  Y  Y3  1  0.483199  0.679194  0.598883  1
  Y  Y4  1  0.983399  0.821117  0.598741  1
  Y  Y5  1  0.982789  0.826825  0.900336  1
  Y  Y6  1  0.515414  0.322724  0.100652  1
  Y  Y7  1  0.015526  0.177193  0.100967  1
  Lu  Lu8  1  0.326004  0.173395  0.623675  1
  Lu  Lu9  1  0.675407  0.823137  0.376027  1
  Lu  Lu10  1  0.660414  0.993200  0.750956  1
  Lu  Lu11  1  0.174675  0.677031  0.375917  1
  Lu  Lu12  1  0.824350  0.324311  0.876006  1
  Lu  Lu13  1  0.825742  0.326091  0.623511  1
  Lu  Lu14  1  0.839978  0.493788  0.250547  1
  Lu  Lu15  1  0.340676  0.005491  0.251342  1
  Lu  Lu16  1  0.327183  0.175659  0.874598  1
  Lu  Lu17  1  0.173432  0.672960  0.125374  1
  Lu  Lu18  1  0.672656  0.826236  0.124901  1
  Lu  Lu19  1  0.159654  0.505823  0.750587  1
  Ga  Ga20  1  0.158027  0.463516  0.538111  1
  Ga  Ga21  1  0.840642  0.536213  0.039114  1
  Ga  Ga22  1  0.340914  0.963435  0.038417  1
  Ga  Ga23  1  0.157647  0.464264  0.960482  1
  Ga  Ga24  1  0.658117  0.036406  0.538085  1
  Si  Si25  1  0.278640  0.872871  0.749529  1
  Si  Si26  1  0.470375  0.611875  0.251358  1
  Si  Si27  1  0.029367  0.111929  0.749088  1
  Si  Si28  1  0.529845  0.389527  0.748987  1
  Si  Si29  1  0.970745  0.888888  0.250606  1
  Si  Si30  1  0.719854  0.127889  0.251188  1
  Si  Si31  1  0.346443  0.966832  0.459848  1
  Si  Si32  1  0.846393  0.533103  0.459805  1
  Si  Si33  1  0.779590  0.627430  0.749175  1
  Si  Si34  1  0.220139  0.371575  0.251533  1
  Si  Si35  1  0.653302  0.033348  0.960497  1
