# generated using pymatgen
data_Ta4TiNb2(B4Ru3)2
_symmetry_space_group_name_H-M   'P 1'
_cell_length_a   9.58692343
_cell_length_b   9.57790263
_cell_length_c   3.11145900
_cell_angle_alpha   90.00000000
_cell_angle_beta   90.00000000
_cell_angle_gamma   119.94959600
_symmetry_Int_Tables_number   1
_chemical_formula_structural   Ta4TiNb2(B4Ru3)2
_chemical_formula_sum   'Ta4 Ti1 Nb2 B8 Ru6'
_cell_volume   247.55103503
_cell_formula_units_Z   1
loop_
 _symmetry_equiv_pos_site_id
 _symmetry_equiv_pos_as_xyz
  1  'x, y, z'
loop_
 _atom_site_type_symbol
 _atom_site_label
 _atom_site_symmetry_multiplicity
 _atom_site_fract_x
 _atom_site_fract_y
 _atom_site_fract_z
 _atom_site_occupancy
  Ta  Ta0  1  0.913298  0.274286  0.000000  1
  Ta  Ta1  1  0.275643  0.360493  0.000000  1
  Ta  Ta2  1  0.638821  0.913018  0.000000  1
  Ta  Ta3  1  0.085884  0.724963  0.000000  1
  Ti  Ti4  1  0.999930  0.001047  0.000000  1
  Nb  Nb5  1  0.727213  0.641228  0.000000  1
  Nb  Nb6  1  0.358783  0.085586  0.000000  1
  B  B7  1  0.666958  0.333212  0.000000  1
  B  B8  1  0.333611  0.666567  0.000000  1
  B  B9  1  0.148766  0.936474  0.500000  1
  B  B10  1  0.064002  0.215170  0.500000  1
  B  B11  1  0.788251  0.852061  0.500000  1
  B  B12  1  0.848990  0.063642  0.500000  1
  B  B13  1  0.937488  0.788070  0.500000  1
  B  B14  1  0.211911  0.149719  0.500000  1
  Ru  Ru15  1  0.358886  0.844928  0.500000  1
  Ru  Ru16  1  0.153458  0.511735  0.500000  1
  Ru  Ru17  1  0.485748  0.639420  0.500000  1
  Ru  Ru18  1  0.641025  0.152533  0.500000  1
  Ru  Ru19  1  0.847140  0.486148  0.500000  1
  Ru  Ru20  1  0.514193  0.359696  0.500000  1
