# generated using pymatgen
data_CaTb6Co6Sn23
_symmetry_space_group_name_H-M   'P 1'
_cell_length_a   9.74581000
_cell_length_b   9.74580910
_cell_length_c   9.96490100
_cell_angle_alpha   90.00000000
_cell_angle_beta   90.00000000
_cell_angle_gamma   120.00000306
_symmetry_Int_Tables_number   1
_chemical_formula_structural   CaTb6Co6Sn23
_chemical_formula_sum   'Ca1 Tb6 Co6 Sn23'
_cell_volume   819.67076821
_cell_formula_units_Z   1
loop_
 _symmetry_equiv_pos_site_id
 _symmetry_equiv_pos_as_xyz
  1  'x, y, z'
loop_
 _atom_site_type_symbol
 _atom_site_label
 _atom_site_symmetry_multiplicity
 _atom_site_fract_x
 _atom_site_fract_y
 _atom_site_fract_z
 _atom_site_occupancy
  Ca  Ca0  1  0.000000  0.000000  0.000000  1
  Tb  Tb1  1  0.479174  0.520826  0.305544  1
  Tb  Tb2  1  0.520826  0.479174  0.694456  1
  Tb  Tb3  1  0.479174  0.958348  0.305544  1
  Tb  Tb4  1  0.520826  0.041652  0.694456  1
  Tb  Tb5  1  0.041652  0.520826  0.305544  1
  Tb  Tb6  1  0.958348  0.479174  0.694456  1
  Co  Co7  1  0.831702  0.168298  0.198737  1
  Co  Co8  1  0.168298  0.831702  0.801263  1
  Co  Co9  1  0.831702  0.663405  0.198737  1
  Co  Co10  1  0.168298  0.336595  0.801263  1
  Co  Co11  1  0.336595  0.168298  0.198737  1
  Co  Co12  1  0.663405  0.831702  0.801263  1
  Sn  Sn13  1  0.345665  0.000000  0.000000  1
  Sn  Sn14  1  0.654335  0.000000  0.000000  1
  Sn  Sn15  1  0.000000  0.345665  0.000000  1
  Sn  Sn16  1  0.000000  0.654335  0.000000  1
  Sn  Sn17  1  0.654335  0.654335  0.000000  1
  Sn  Sn18  1  0.345665  0.345665  0.000000  1
  Sn  Sn19  1  0.333333  0.666667  0.816652  1
  Sn  Sn20  1  0.666667  0.333333  0.183348  1
  Sn  Sn21  1  0.000000  0.000000  0.500000  1
  Sn  Sn22  1  0.781099  0.218901  0.452235  1
  Sn  Sn23  1  0.218901  0.781099  0.547765  1
  Sn  Sn24  1  0.781099  0.562199  0.452235  1
  Sn  Sn25  1  0.218901  0.437801  0.547765  1
  Sn  Sn26  1  0.437801  0.218901  0.452235  1
  Sn  Sn27  1  0.562199  0.781099  0.547765  1
  Sn  Sn28  1  0.333333  0.666667  0.116979  1
  Sn  Sn29  1  0.666667  0.333333  0.883021  1
  Sn  Sn30  1  0.117141  0.882859  0.274734  1
  Sn  Sn31  1  0.882859  0.117141  0.725266  1
  Sn  Sn32  1  0.117141  0.234283  0.274734  1
  Sn  Sn33  1  0.882859  0.765717  0.725266  1
  Sn  Sn34  1  0.765717  0.882859  0.274734  1
  Sn  Sn35  1  0.234283  0.117141  0.725266  1
