# generated using pymatgen
data_Er8Ti3Re9Si16
_symmetry_space_group_name_H-M   'P 1'
_cell_length_a   6.75256659
_cell_length_b   6.75256659
_cell_length_c   12.93941605
_cell_angle_alpha   90.00107619
_cell_angle_beta   89.99892381
_cell_angle_gamma   89.47234772
_symmetry_Int_Tables_number   1
_chemical_formula_structural   Er8Ti3Re9Si16
_chemical_formula_sum   'Er8 Ti3 Re9 Si16'
_cell_volume   589.97554770
_cell_formula_units_Z   1
loop_
 _symmetry_equiv_pos_site_id
 _symmetry_equiv_pos_as_xyz
  1  'x, y, z'
loop_
 _atom_site_type_symbol
 _atom_site_label
 _atom_site_symmetry_multiplicity
 _atom_site_fract_x
 _atom_site_fract_y
 _atom_site_fract_z
 _atom_site_occupancy
  Er  Er0  1  0.336553  0.993508  0.469085  1
  Er  Er1  1  0.508642  0.834295  0.718183  1
  Er  Er2  1  0.488034  0.167452  0.216399  1
  Er  Er3  1  0.834295  0.508642  0.281817  1
  Er  Er4  1  0.167452  0.488034  0.783601  1
  Er  Er5  1  0.659876  0.009447  0.970003  1
  Er  Er6  1  0.993508  0.336553  0.530915  1
  Er  Er7  1  0.009447  0.659876  0.029997  1
  Ti  Ti8  1  0.155962  0.844231  0.248696  1
  Ti  Ti9  1  0.844231  0.155962  0.751304  1
  Ti  Ti10  1  0.657056  0.657056  0.500000  1
  Re  Re11  1  0.339403  0.339403  0.000000  1
  Re  Re12  1  0.183296  0.989297  0.862908  1
  Re  Re13  1  0.497311  0.697382  0.117590  1
  Re  Re14  1  0.501956  0.314942  0.617512  1
  Re  Re15  1  0.697382  0.497311  0.882410  1
  Re  Re16  1  0.314942  0.501956  0.382488  1
  Re  Re17  1  0.816702  0.002450  0.363729  1
  Re  Re18  1  0.989297  0.183296  0.137092  1
  Re  Re19  1  0.002450  0.816702  0.636271  1
  Si  Si20  1  0.206130  0.120233  0.679539  1
  Si  Si21  1  0.388697  0.694295  0.930067  1
  Si  Si22  1  0.620013  0.296882  0.430305  1
  Si  Si23  1  0.694295  0.388697  0.069933  1
  Si  Si24  1  0.296882  0.620013  0.569695  1
  Si  Si25  1  0.793529  0.881590  0.180132  1
  Si  Si26  1  0.120233  0.206130  0.320461  1
  Si  Si27  1  0.881590  0.793529  0.819868  1
  Si  Si28  1  0.266953  0.987114  0.053695  1
  Si  Si29  1  0.518531  0.783379  0.308081  1
  Si  Si30  1  0.481322  0.219977  0.809502  1
  Si  Si31  1  0.783379  0.518531  0.691919  1
  Si  Si32  1  0.219977  0.481322  0.190498  1
  Si  Si33  1  0.725484  0.018077  0.555346  1
  Si  Si34  1  0.987114  0.266953  0.946305  1
  Si  Si35  1  0.018077  0.725484  0.444654  1
