# generated using pymatgen
data_ErLu9(CoRu)2
_symmetry_space_group_name_H-M   'P 1'
_cell_length_a   6.18120587
_cell_length_b   7.07474375
_cell_length_c   8.31994727
_cell_angle_alpha   96.78603771
_cell_angle_beta   112.34918637
_cell_angle_gamma   89.59925237
_symmetry_Int_Tables_number   1
_chemical_formula_structural   ErLu9(CoRu)2
_chemical_formula_sum   'Er1 Lu9 Co2 Ru2'
_cell_volume   333.86240986
_cell_formula_units_Z   1
loop_
 _symmetry_equiv_pos_site_id
 _symmetry_equiv_pos_as_xyz
  1  'x, y, z'
loop_
 _atom_site_type_symbol
 _atom_site_label
 _atom_site_symmetry_multiplicity
 _atom_site_fract_x
 _atom_site_fract_y
 _atom_site_fract_z
 _atom_site_occupancy
  Er  Er0  1  0.526108  0.088752  0.815479  1
  Lu  Lu1  1  0.474333  0.911104  0.184622  1
  Lu  Lu2  1  0.699836  0.417900  0.188828  1
  Lu  Lu3  1  0.300216  0.582309  0.811610  1
  Lu  Lu4  1  0.288928  0.320656  0.432784  1
  Lu  Lu5  1  0.710916  0.679341  0.566878  1
  Lu  Lu6  1  0.856263  0.186582  0.564011  1
  Lu  Lu7  1  0.143260  0.813248  0.435102  1
  Lu  Lu8  1  0.078879  0.259248  0.000575  1
  Lu  Lu9  1  0.921757  0.740684  0.999854  1
  Co  Co10  1  0.326476  0.577540  0.226635  1
  Co  Co11  1  0.673814  0.423068  0.773149  1
  Ru  Ru12  1  0.103961  0.924704  0.784117  1
  Ru  Ru13  1  0.895253  0.074865  0.216355  1
