# generated using pymatgen
data_Ho16Lu4Ir11Ru
_symmetry_space_group_name_H-M   'P 1'
_cell_length_a   10.78648000
_cell_length_b   10.78648000
_cell_length_c   6.34560300
_cell_angle_alpha   90.00000000
_cell_angle_beta   90.00000000
_cell_angle_gamma   90.00000000
_symmetry_Int_Tables_number   1
_chemical_formula_structural   Ho16Lu4Ir11Ru
_chemical_formula_sum   'Ho16 Lu4 Ir11 Ru1'
_cell_volume   738.29917470
_cell_formula_units_Z   1
loop_
 _symmetry_equiv_pos_site_id
 _symmetry_equiv_pos_as_xyz
  1  'x, y, z'
loop_
 _atom_site_type_symbol
 _atom_site_label
 _atom_site_symmetry_multiplicity
 _atom_site_fract_x
 _atom_site_fract_y
 _atom_site_fract_z
 _atom_site_occupancy
  Ho  Ho0  1  0.291595  0.086779  0.376578  1
  Ho  Ho1  1  0.291844  0.913182  0.879357  1
  Ho  Ho2  1  0.708156  0.086818  0.879357  1
  Ho  Ho3  1  0.708405  0.913221  0.376578  1
  Ho  Ho4  1  0.586818  0.791844  0.879357  1
  Ho  Ho5  1  0.586779  0.208405  0.376578  1
  Ho  Ho6  1  0.413221  0.791595  0.376578  1
  Ho  Ho7  1  0.413182  0.208156  0.879357  1
  Ho  Ho8  1  0.209957  0.412293  0.622066  1
  Ho  Ho9  1  0.209908  0.587637  0.121752  1
  Ho  Ho10  1  0.790092  0.412363  0.121752  1
  Ho  Ho11  1  0.790043  0.587707  0.622066  1
  Ho  Ho12  1  0.912363  0.709908  0.121752  1
  Ho  Ho13  1  0.912293  0.290043  0.622066  1
  Ho  Ho14  1  0.087707  0.709957  0.622066  1
  Ho  Ho15  1  0.087637  0.290092  0.121752  1
  Lu  Lu16  1  0.000000  0.000000  0.499638  1
  Lu  Lu17  1  0.000000  0.000000  0.999624  1
  Lu  Lu18  1  0.500000  0.500000  0.999624  1
  Lu  Lu19  1  0.500000  0.500000  0.499638  1
  Ir  Ir20  1  0.848635  0.151826  0.250042  1
  Ir  Ir21  1  0.848702  0.848343  0.749935  1
  Ir  Ir22  1  0.151298  0.151657  0.749935  1
  Ir  Ir23  1  0.151365  0.848174  0.250042  1
  Ir  Ir24  1  0.651657  0.348702  0.749935  1
  Ir  Ir25  1  0.651826  0.651365  0.250042  1
  Ir  Ir26  1  0.348174  0.348635  0.250042  1
  Ir  Ir27  1  0.348343  0.651298  0.749935  1
  Ir  Ir28  1  0.500000  0.000000  0.622492  1
  Ir  Ir29  1  0.000000  0.500000  0.878024  1
  Ir  Ir30  1  0.000000  0.500000  0.378068  1
  Ru  Ru31  1  0.500000  0.000000  0.123975  1
