# generated using pymatgen
data_Pu7N12
_symmetry_space_group_name_H-M   'P 1'
_cell_length_a   6.44329964
_cell_length_b   6.44967760
_cell_length_c   6.44835902
_cell_angle_alpha   99.44368671
_cell_angle_beta   99.41813448
_cell_angle_gamma   99.33467811
_symmetry_Int_Tables_number   1
_chemical_formula_structural   Pu7N12
_chemical_formula_sum   'Pu7 N12'
_cell_volume   255.81256005
_cell_formula_units_Z   1
loop_
 _symmetry_equiv_pos_site_id
 _symmetry_equiv_pos_as_xyz
  1  'x, y, z'
loop_
 _atom_site_type_symbol
 _atom_site_label
 _atom_site_symmetry_multiplicity
 _atom_site_fract_x
 _atom_site_fract_y
 _atom_site_fract_z
 _atom_site_occupancy
  Pu  Pu0  1  0.864662  0.704463  0.399294  1
  Pu  Pu1  1  0.399457  0.864774  0.704456  1
  Pu  Pu2  1  0.704440  0.399474  0.864866  1
  Pu  Pu3  1  0.135338  0.295537  0.600706  1
  Pu  Pu4  1  0.600543  0.135226  0.295544  1
  Pu  Pu5  1  0.295560  0.600526  0.135134  1
  Pu  Pu6  1  0.000000  0.000000  0.000000  1
  N  N7  1  0.061186  0.936714  0.685302  1
  N  N8  1  0.685467  0.061414  0.936968  1
  N  N9  1  0.936839  0.685276  0.061417  1
  N  N10  1  0.938814  0.063286  0.314698  1
  N  N11  1  0.314533  0.938586  0.063032  1
  N  N12  1  0.063161  0.314724  0.938583  1
  N  N13  1  0.566978  0.825402  0.403640  1
  N  N14  1  0.174266  0.596256  0.433023  1
  N  N15  1  0.596429  0.433339  0.174354  1
  N  N16  1  0.433022  0.174598  0.596360  1
  N  N17  1  0.825734  0.403744  0.566977  1
  N  N18  1  0.403571  0.566661  0.825646  1
