# generated using pymatgen
data_Ho5Tm3(ZrGa5)4
_symmetry_space_group_name_H-M   'P 1'
_cell_length_a   5.95266817
_cell_length_b   9.42843905
_cell_length_c   11.31617237
_cell_angle_alpha   89.98816754
_cell_angle_beta   89.97309118
_cell_angle_gamma   90.00207729
_symmetry_Int_Tables_number   1
_chemical_formula_structural   Ho5Tm3(ZrGa5)4
_chemical_formula_sum   'Ho5 Tm3 Zr4 Ga20'
_cell_volume   635.11294978
_cell_formula_units_Z   1
loop_
 _symmetry_equiv_pos_site_id
 _symmetry_equiv_pos_as_xyz
  1  'x, y, z'
loop_
 _atom_site_type_symbol
 _atom_site_label
 _atom_site_symmetry_multiplicity
 _atom_site_fract_x
 _atom_site_fract_y
 _atom_site_fract_z
 _atom_site_occupancy
  Ho  Ho0  1  0.886943  0.507058  0.352723  1
  Ho  Ho1  1  0.612957  0.992934  0.852870  1
  Ho  Ho2  1  0.112968  0.007053  0.647100  1
  Ho  Ho3  1  0.387073  0.492917  0.147117  1
  Ho  Ho4  1  0.112956  0.492945  0.647357  1
  Tm  Tm5  1  0.387119  0.007104  0.147314  1
  Tm  Tm6  1  0.887064  0.992950  0.352694  1
  Tm  Tm7  1  0.612900  0.507074  0.852783  1
  Zr  Zr8  1  0.857387  0.750034  0.074367  1
  Zr  Zr9  1  0.642442  0.750062  0.574288  1
  Zr  Zr10  1  0.142630  0.249892  0.925703  1
  Zr  Zr11  1  0.357439  0.249973  0.425622  1
  Ga  Ga12  1  0.875139  0.052822  0.089653  1
  Ga  Ga13  1  0.624710  0.447092  0.589598  1
  Ga  Ga14  1  0.124856  0.552882  0.910502  1
  Ga  Ga15  1  0.375176  0.947195  0.410379  1
  Ga  Ga16  1  0.124810  0.947109  0.910641  1
  Ga  Ga17  1  0.375288  0.552953  0.410589  1
  Ga  Ga18  1  0.875187  0.447081  0.089327  1
  Ga  Ga19  1  0.624777  0.052870  0.589336  1
  Ga  Ga20  1  0.162133  0.750276  0.254041  1
  Ga  Ga21  1  0.337957  0.749820  0.754182  1
  Ga  Ga22  1  0.837736  0.250194  0.745979  1
  Ga  Ga23  1  0.662201  0.249709  0.245933  1
  Ga  Ga24  1  0.389327  0.750130  0.003086  1
  Ga  Ga25  1  0.110649  0.750093  0.502910  1
  Ga  Ga26  1  0.610688  0.250150  0.996917  1
  Ga  Ga27  1  0.889257  0.249807  0.496891  1
  Ga  Ga28  1  0.607954  0.750233  0.293993  1
  Ga  Ga29  1  0.892078  0.749781  0.793982  1
  Ga  Ga30  1  0.392281  0.250075  0.706067  1
  Ga  Ga31  1  0.107919  0.249731  0.206058  1
