# generated using pymatgen
data_Ho8ZnSiPd23
_symmetry_space_group_name_H-M   'P 1'
_cell_length_a   8.23134100
_cell_length_b   8.33879200
_cell_length_c   8.38699700
_cell_angle_alpha   90.00000000
_cell_angle_beta   90.00000000
_cell_angle_gamma   90.00000000
_symmetry_Int_Tables_number   1
_chemical_formula_structural   Ho8ZnSiPd23
_chemical_formula_sum   'Ho8 Zn1 Si1 Pd23'
_cell_volume   575.67878139
_cell_formula_units_Z   1
loop_
 _symmetry_equiv_pos_site_id
 _symmetry_equiv_pos_as_xyz
  1  'x, y, z'
loop_
 _atom_site_type_symbol
 _atom_site_label
 _atom_site_symmetry_multiplicity
 _atom_site_fract_x
 _atom_site_fract_y
 _atom_site_fract_z
 _atom_site_occupancy
  Ho  Ho0  1  0.253464  0.247357  0.262557  1
  Ho  Ho1  1  0.745964  0.745151  0.746535  1
  Ho  Ho2  1  0.745964  0.745151  0.253465  1
  Ho  Ho3  1  0.745964  0.254849  0.746535  1
  Ho  Ho4  1  0.253464  0.247357  0.737443  1
  Ho  Ho5  1  0.253464  0.752643  0.262557  1
  Ho  Ho6  1  0.253464  0.752643  0.737443  1
  Ho  Ho7  1  0.745964  0.254849  0.253465  1
  Zn  Zn8  1  0.267156  0.500000  0.000000  1
  Si  Si9  1  0.995999  0.000000  0.000000  1
  Pd  Pd10  1  0.745247  0.500000  0.000000  1
  Pd  Pd11  1  0.997460  0.256270  0.500000  1
  Pd  Pd12  1  0.492308  0.260100  0.000000  1
  Pd  Pd13  1  0.997460  0.743730  0.500000  1
  Pd  Pd14  1  0.492308  0.739900  0.000000  1
  Pd  Pd15  1  0.500964  0.000000  0.256761  1
  Pd  Pd16  1  0.255857  0.000000  0.500000  1
  Pd  Pd17  1  0.500964  0.000000  0.743239  1
  Pd  Pd18  1  0.743114  0.000000  0.500000  1
  Pd  Pd19  1  0.004878  0.500000  0.255989  1
  Pd  Pd20  1  0.004878  0.500000  0.744011  1
  Pd  Pd21  1  0.251793  0.500000  0.500000  1
  Pd  Pd22  1  0.747806  0.500000  0.500000  1
  Pd  Pd23  1  0.502249  0.252557  0.500000  1
  Pd  Pd24  1  0.502249  0.747443  0.500000  1
  Pd  Pd25  1  0.493907  0.500000  0.250202  1
  Pd  Pd26  1  0.493907  0.500000  0.749798  1
  Pd  Pd27  1  0.278074  0.000000  0.000000  1
  Pd  Pd28  1  0.715212  0.000000  0.000000  1
  Pd  Pd29  1  0.011814  0.282451  0.000000  1
  Pd  Pd30  1  0.011814  0.717549  0.000000  1
  Pd  Pd31  1  0.997435  0.000000  0.277479  1
  Pd  Pd32  1  0.997435  0.000000  0.722521  1
