# generated using pymatgen
data_ErPaB6W
_symmetry_space_group_name_H-M   'P 1'
_cell_length_a   3.73168500
_cell_length_b   9.18845400
_cell_length_c   11.55131700
_cell_angle_alpha   90.00000000
_cell_angle_beta   90.00000000
_cell_angle_gamma   90.00000000
_symmetry_Int_Tables_number   1
_chemical_formula_structural   ErPaB6W
_chemical_formula_sum   'Er4 Pa4 B24 W4'
_cell_volume   396.07636224
_cell_formula_units_Z   4
loop_
 _symmetry_equiv_pos_site_id
 _symmetry_equiv_pos_as_xyz
  1  'x, y, z'
loop_
 _atom_site_type_symbol
 _atom_site_label
 _atom_site_symmetry_multiplicity
 _atom_site_fract_x
 _atom_site_fract_y
 _atom_site_fract_z
 _atom_site_occupancy
  Er  Er0  1  0.000000  0.945584  0.373976  1
  Er  Er1  1  0.000000  0.054416  0.626024  1
  Er  Er2  1  0.000000  0.445584  0.126024  1
  Er  Er3  1  0.000000  0.554416  0.873976  1
  Pa  Pa4  1  0.000000  0.321475  0.413404  1
  Pa  Pa5  1  0.000000  0.678525  0.586596  1
  Pa  Pa6  1  0.000000  0.821475  0.086596  1
  Pa  Pa7  1  0.000000  0.178525  0.913404  1
  B  B8  1  0.500000  0.553021  0.433497  1
  B  B9  1  0.500000  0.446979  0.566503  1
  B  B10  1  0.500000  0.053021  0.066503  1
  B  B11  1  0.500000  0.946979  0.933497  1
  B  B12  1  0.500000  0.749545  0.420494  1
  B  B13  1  0.500000  0.250455  0.579506  1
  B  B14  1  0.500000  0.249545  0.079506  1
  B  B15  1  0.500000  0.750455  0.920494  1
  B  B16  1  0.500000  0.793740  0.264601  1
  B  B17  1  0.500000  0.206260  0.735399  1
  B  B18  1  0.500000  0.293740  0.235399  1
  B  B19  1  0.500000  0.706260  0.764601  1
  B  B20  1  0.500000  0.632216  0.184691  1
  B  B21  1  0.500000  0.367784  0.815309  1
  B  B22  1  0.500000  0.132216  0.315309  1
  B  B23  1  0.500000  0.867784  0.684691  1
  B  B24  1  0.500000  0.981371  0.212808  1
  B  B25  1  0.500000  0.018629  0.787192  1
  B  B26  1  0.500000  0.481371  0.287192  1
  B  B27  1  0.500000  0.518629  0.712808  1
  B  B28  1  0.500000  0.609078  0.030363  1
  B  B29  1  0.500000  0.390922  0.969637  1
  B  B30  1  0.500000  0.109078  0.469637  1
  B  B31  1  0.500000  0.890922  0.530363  1
  W  W32  1  0.000000  0.638573  0.321862  1
  W  W33  1  0.000000  0.361427  0.678138  1
  W  W34  1  0.000000  0.138573  0.178138  1
  W  W35  1  0.000000  0.861427  0.821862  1
