# generated using pymatgen
data_Cs2Dy6Te7N2
_symmetry_space_group_name_H-M   'P 1'
_cell_length_a   4.21701522
_cell_length_b   11.46906748
_cell_length_c   12.26145743
_cell_angle_alpha   103.57182810
_cell_angle_beta   99.90193000
_cell_angle_gamma   89.99999973
_symmetry_Int_Tables_number   1
_chemical_formula_structural   Cs2Dy6Te7N2
_chemical_formula_sum   'Cs2 Dy6 Te7 N2'
_cell_volume   567.37701554
_cell_formula_units_Z   1
loop_
 _symmetry_equiv_pos_site_id
 _symmetry_equiv_pos_as_xyz
  1  'x, y, z'
loop_
 _atom_site_type_symbol
 _atom_site_label
 _atom_site_symmetry_multiplicity
 _atom_site_fract_x
 _atom_site_fract_y
 _atom_site_fract_z
 _atom_site_occupancy
  Cs  Cs0  1  0.065938  0.698019  0.131877  1
  Cs  Cs1  1  0.934061  0.301981  0.868123  1
  Dy  Dy2  1  0.591228  0.136676  0.182456  1
  Dy  Dy3  1  0.164867  0.387628  0.329736  1
  Dy  Dy4  1  0.214860  0.130094  0.429720  1
  Dy  Dy5  1  0.785140  0.869906  0.570280  1
  Dy  Dy6  1  0.835132  0.612372  0.670264  1
  Dy  Dy7  1  0.408772  0.863323  0.817544  1
  Te  Te8  1  0.000000  0.000000  0.000000  1
  Te  Te9  1  0.576162  0.403643  0.152323  1
  Te  Te10  1  0.664376  0.942676  0.328753  1
  Te  Te11  1  0.240712  0.661555  0.481425  1
  Te  Te12  1  0.759287  0.338445  0.518575  1
  Te  Te13  1  0.335624  0.057324  0.671247  1
  Te  Te14  1  0.423838  0.596357  0.847677  1
  N  N15  1  0.137313  0.193719  0.274626  1
  N  N16  1  0.862687  0.806281  0.725374  1
