# generated using pymatgen
data_Tb2Yb2PdPt3O14
_symmetry_space_group_name_H-M   'P 1'
_cell_length_a   7.25959398
_cell_length_b   7.25959448
_cell_length_c   7.26136385
_cell_angle_alpha   60.06000180
_cell_angle_beta   60.06000535
_cell_angle_gamma   60.04021732
_symmetry_Int_Tables_number   1
_chemical_formula_structural   Tb2Yb2PdPt3O14
_chemical_formula_sum   'Tb2 Yb2 Pd1 Pt3 O14'
_cell_volume   270.92760037
_cell_formula_units_Z   1
loop_
 _symmetry_equiv_pos_site_id
 _symmetry_equiv_pos_as_xyz
  1  'x, y, z'
loop_
 _atom_site_type_symbol
 _atom_site_label
 _atom_site_symmetry_multiplicity
 _atom_site_fract_x
 _atom_site_fract_y
 _atom_site_fract_z
 _atom_site_occupancy
  Tb  Tb0  1  0.625000  0.125000  0.625000  1
  Tb  Tb1  1  0.125000  0.625000  0.625000  1
  Yb  Yb2  1  0.625000  0.625000  0.125000  1
  Yb  Yb3  1  0.625000  0.625000  0.625000  1
  Pd  Pd4  1  0.125000  0.125000  0.625000  1
  Pt  Pt5  1  0.125000  0.125000  0.125000  1
  Pt  Pt6  1  0.625000  0.125000  0.125000  1
  Pt  Pt7  1  0.125000  0.625000  0.125000  1
  O  O8  1  0.041642  0.462244  0.459540  1
  O  O9  1  0.792836  0.792836  0.205269  1
  O  O10  1  0.791116  0.207399  0.211771  1
  O  O11  1  0.462244  0.041642  0.459540  1
  O  O12  1  0.042601  0.458884  0.038229  1
  O  O13  1  0.753046  0.753046  0.747809  1
  O  O14  1  0.037503  0.037503  0.461206  1
  O  O15  1  0.207399  0.791116  0.211771  1
  O  O16  1  0.212497  0.212497  0.788794  1
  O  O17  1  0.496954  0.496954  0.502191  1
  O  O18  1  0.787756  0.208358  0.790460  1
  O  O19  1  0.458884  0.042601  0.038229  1
  O  O20  1  0.457164  0.457164  0.044731  1
  O  O21  1  0.208358  0.787756  0.790460  1
