# generated using pymatgen
data_Dy12TlZn(CoSi)2
_symmetry_space_group_name_H-M   'P 1'
_cell_length_a   8.42998956
_cell_length_b   8.43002751
_cell_length_c   8.42998916
_cell_angle_alpha   113.53374929
_cell_angle_beta   110.48309516
_cell_angle_gamma   104.52349581
_symmetry_Int_Tables_number   1
_chemical_formula_structural   Dy12TlZn(CoSi)2
_chemical_formula_sum   'Dy12 Tl1 Zn1 Co2 Si2'
_cell_volume   458.26432098
_cell_formula_units_Z   1
loop_
 _symmetry_equiv_pos_site_id
 _symmetry_equiv_pos_as_xyz
  1  'x, y, z'
loop_
 _atom_site_type_symbol
 _atom_site_label
 _atom_site_symmetry_multiplicity
 _atom_site_fract_x
 _atom_site_fract_y
 _atom_site_fract_z
 _atom_site_occupancy
  Dy  Dy0  1  0.430858  0.234230  0.196628  1
  Dy  Dy1  1  0.569142  0.765770  0.803372  1
  Dy  Dy2  1  0.037602  0.234230  0.803372  1
  Dy  Dy3  1  0.962398  0.765770  0.196628  1
  Dy  Dy4  1  0.185131  0.286151  0.471281  1
  Dy  Dy5  1  0.814869  0.713849  0.528719  1
  Dy  Dy6  1  0.185130  0.713849  0.898980  1
  Dy  Dy7  1  0.814870  0.286151  0.101020  1
  Dy  Dy8  1  0.304665  0.615658  0.310994  1
  Dy  Dy9  1  0.695335  0.384342  0.689006  1
  Dy  Dy10  1  0.304663  0.993670  0.689007  1
  Dy  Dy11  1  0.695337  0.006330  0.310993  1
  Tl  Tl12  1  0.500000  0.500000  0.000000  1
  Zn  Zn13  1  0.000000  0.000000  0.000000  1
  Co  Co14  1  0.107808  0.607808  0.500000  1
  Co  Co15  1  0.892192  0.392192  0.500000  1
  Si  Si16  1  0.362599  0.000000  0.362599  1
  Si  Si17  1  0.637401  0.000000  0.637401  1
