# generated using pymatgen
data_NaSn2(AsO4)3
_symmetry_space_group_name_H-M   'P 1'
_cell_length_a   9.37752313
_cell_length_b   9.37752333
_cell_length_c   9.37752371
_cell_angle_alpha   58.24201389
_cell_angle_beta   58.24201729
_cell_angle_gamma   58.24202119
_symmetry_Int_Tables_number   1
_chemical_formula_structural   NaSn2(AsO4)3
_chemical_formula_sum   'Na2 Sn4 As6 O24'
_cell_volume   559.62508197
_cell_formula_units_Z   2
loop_
 _symmetry_equiv_pos_site_id
 _symmetry_equiv_pos_as_xyz
  1  'x, y, z'
loop_
 _atom_site_type_symbol
 _atom_site_label
 _atom_site_symmetry_multiplicity
 _atom_site_fract_x
 _atom_site_fract_y
 _atom_site_fract_z
 _atom_site_occupancy
  Na  Na0  1  0.500000  0.500000  0.500000  1
  Na  Na1  1  0.000000  0.000000  0.000000  1
  Sn  Sn2  1  0.356069  0.356069  0.356069  1
  Sn  Sn3  1  0.856069  0.856069  0.856069  1
  Sn  Sn4  1  0.643931  0.643931  0.643931  1
  Sn  Sn5  1  0.143931  0.143931  0.143931  1
  As  As6  1  0.960941  0.539059  0.250000  1
  As  As7  1  0.250000  0.960941  0.539059  1
  As  As8  1  0.539059  0.250000  0.960941  1
  As  As9  1  0.750000  0.039059  0.460941  1
  As  As10  1  0.460941  0.750000  0.039059  1
  As  As11  1  0.039059  0.460941  0.750000  1
  O  O12  1  0.135760  0.519267  0.280567  1
  O  O13  1  0.280567  0.135760  0.519267  1
  O  O14  1  0.519267  0.280567  0.135760  1
  O  O15  1  0.780567  0.019267  0.635760  1
  O  O16  1  0.635760  0.780567  0.019267  1
  O  O17  1  0.019267  0.635760  0.780567  1
  O  O18  1  0.864240  0.480733  0.719433  1
  O  O19  1  0.719433  0.864240  0.480733  1
  O  O20  1  0.480733  0.719433  0.864240  1
  O  O21  1  0.219433  0.980733  0.364240  1
  O  O22  1  0.364240  0.219433  0.980733  1
  O  O23  1  0.980733  0.364240  0.219433  1
  O  O24  1  0.233955  0.443142  0.570500  1
  O  O25  1  0.570500  0.233955  0.443142  1
  O  O26  1  0.443142  0.570500  0.233955  1
  O  O27  1  0.070500  0.943142  0.733955  1
  O  O28  1  0.733955  0.070500  0.943142  1
  O  O29  1  0.943142  0.733955  0.070500  1
  O  O30  1  0.766045  0.556858  0.429500  1
  O  O31  1  0.429500  0.766045  0.556858  1
  O  O32  1  0.556858  0.429500  0.766045  1
  O  O33  1  0.929500  0.056858  0.266045  1
  O  O34  1  0.266045  0.929500  0.056858  1
  O  O35  1  0.056858  0.266045  0.929500  1
