# generated using pymatgen
data_ThPa7(Si4Mo3)4
_symmetry_space_group_name_H-M   'P 1'
_cell_length_a   6.81049169
_cell_length_b   6.97717565
_cell_length_c   12.99436700
_cell_angle_alpha   90.10911962
_cell_angle_beta   90.05089787
_cell_angle_gamma   89.89364123
_symmetry_Int_Tables_number   1
_chemical_formula_structural   ThPa7(Si4Mo3)4
_chemical_formula_sum   'Th1 Pa7 Si16 Mo12'
_cell_volume   617.46386395
_cell_formula_units_Z   1
loop_
 _symmetry_equiv_pos_site_id
 _symmetry_equiv_pos_as_xyz
  1  'x, y, z'
loop_
 _atom_site_type_symbol
 _atom_site_label
 _atom_site_symmetry_multiplicity
 _atom_site_fract_x
 _atom_site_fract_y
 _atom_site_fract_z
 _atom_site_occupancy
  Th  Th0  1  0.991934  0.162764  0.092961  1
  Pa  Pa1  1  0.491367  0.337181  0.094882  1
  Pa  Pa2  1  0.990760  0.163246  0.406009  1
  Pa  Pa3  1  0.509149  0.663045  0.593867  1
  Pa  Pa4  1  0.009525  0.835665  0.903394  1
  Pa  Pa5  1  0.510043  0.662821  0.904211  1
  Pa  Pa6  1  0.009664  0.837315  0.593960  1
  Pa  Pa7  1  0.490608  0.337601  0.407196  1
  Si  Si8  1  0.658704  0.044440  0.545703  1
  Si  Si9  1  0.159600  0.458258  0.952226  1
  Si  Si10  1  0.346393  0.953429  0.044800  1
  Si  Si11  1  0.841794  0.544738  0.454715  1
  Si  Si12  1  0.341463  0.955928  0.455063  1
  Si  Si13  1  0.840525  0.548428  0.044318  1
  Si  Si14  1  0.656835  0.044433  0.952390  1
  Si  Si15  1  0.157951  0.455304  0.545923  1
  Si  Si16  1  0.537154  0.362894  0.749437  1
  Si  Si17  1  0.037577  0.136163  0.749963  1
  Si  Si18  1  0.462275  0.635288  0.251222  1
  Si  Si19  1  0.961686  0.859874  0.252231  1
  Si  Si20  1  0.805349  0.624639  0.748497  1
  Si  Si21  1  0.304948  0.876168  0.749324  1
  Si  Si22  1  0.196931  0.377319  0.251986  1
  Si  Si23  1  0.691328  0.124329  0.251673  1
  Mo  Mo24  1  0.829170  0.333789  0.623075  1
  Mo  Mo25  1  0.328883  0.165357  0.876281  1
  Mo  Mo26  1  0.171236  0.667064  0.123736  1
  Mo  Mo27  1  0.670649  0.835664  0.377339  1
  Mo  Mo28  1  0.172332  0.664724  0.378246  1
  Mo  Mo29  1  0.667306  0.830949  0.124137  1
  Mo  Mo30  1  0.827586  0.337115  0.874545  1
  Mo  Mo31  1  0.328167  0.165552  0.623182  1
  Mo  Mo32  1  0.671493  0.986110  0.749139  1
  Mo  Mo33  1  0.171520  0.513408  0.749527  1
  Mo  Mo34  1  0.329973  0.010565  0.252771  1
  Mo  Mo35  1  0.828120  0.488427  0.252070  1
