# generated using pymatgen
data_V5Mo(PbO3)8
_symmetry_space_group_name_H-M   'P 1'
_cell_length_a   9.64705902
_cell_length_b   9.64705881
_cell_length_c   9.64705875
_cell_angle_alpha   109.31329142
_cell_angle_beta   109.31328821
_cell_angle_gamma   109.78754552
_symmetry_Int_Tables_number   1
_chemical_formula_structural   V5Mo(PbO3)8
_chemical_formula_sum   'V5 Mo1 Pb8 O24'
_cell_volume   691.11920732
_cell_formula_units_Z   1
loop_
 _symmetry_equiv_pos_site_id
 _symmetry_equiv_pos_as_xyz
  1  'x, y, z'
loop_
 _atom_site_type_symbol
 _atom_site_label
 _atom_site_symmetry_multiplicity
 _atom_site_fract_x
 _atom_site_fract_y
 _atom_site_fract_z
 _atom_site_occupancy
  V  V0  1  0.375000  0.625000  0.750000  1
  V  V1  1  0.876953  0.252390  0.126690  1
  V  V2  1  0.625700  0.750263  0.373310  1
  V  V3  1  0.249737  0.123047  0.875437  1
  V  V4  1  0.747610  0.374300  0.624563  1
  Mo  Mo5  1  0.125000  0.875000  0.250000  1
  Pb  Pb6  1  0.339401  0.347969  0.330212  1
  Pb  Pb7  1  0.168498  0.493064  0.993662  1
  Pb  Pb8  1  0.999402  0.174836  0.506338  1
  Pb  Pb9  1  0.825164  0.831502  0.824566  1
  Pb  Pb10  1  0.517757  0.009189  0.169788  1
  Pb  Pb11  1  0.652031  0.482243  0.991432  1
  Pb  Pb12  1  0.506936  0.000598  0.675434  1
  Pb  Pb13  1  0.990811  0.660599  0.508568  1
  O  O14  1  0.310058  0.158080  0.080374  1
  O  O15  1  0.187701  0.265096  0.841389  1
  O  O16  1  0.923708  0.346313  0.658611  1
  O  O17  1  0.156154  0.085031  0.310372  1
  O  O18  1  0.809691  0.579246  0.652435  1
  O  O19  1  0.577708  0.229685  0.419626  1
  O  O20  1  0.274659  0.845784  0.189628  1
  O  O21  1  0.684487  0.343332  0.766704  1
  O  O22  1  0.344199  0.655000  0.923848  1
  O  O23  1  0.426810  0.157255  0.847565  1
  O  O24  1  0.231151  0.420350  0.576152  1
  O  O25  1  0.076628  0.917784  0.733296  1
  O  O26  1  0.082216  0.315513  0.158844  1
  O  O27  1  0.653687  0.812299  0.577396  1
  O  O28  1  0.656668  0.923372  0.341156  1
  O  O29  1  0.841920  0.422292  0.151977  1
  O  O30  1  0.420754  0.573190  0.230445  1
  O  O31  1  0.734904  0.076292  0.922604  1
  O  O32  1  0.842745  0.190309  0.269555  1
  O  O33  1  0.770315  0.689942  0.348023  1
  O  O34  1  0.579650  0.655801  0.810801  1
  O  O35  1  0.345000  0.768849  0.689199  1
  O  O36  1  0.914969  0.725341  0.071125  1
  O  O37  1  0.154216  0.843846  0.428875  1
