# generated using pymatgen
data_Tb5Cr2O12
_symmetry_space_group_name_H-M   'P 1'
_cell_length_a   6.80372142
_cell_length_b   6.80372149
_cell_length_c   7.30119863
_cell_angle_alpha   74.44678036
_cell_angle_beta   74.44678245
_cell_angle_gamma   50.80535386
_symmetry_Int_Tables_number   1
_chemical_formula_structural   Tb5Cr2O12
_chemical_formula_sum   'Tb5 Cr2 O12'
_cell_volume   250.12795989
_cell_formula_units_Z   1
loop_
 _symmetry_equiv_pos_site_id
 _symmetry_equiv_pos_as_xyz
  1  'x, y, z'
loop_
 _atom_site_type_symbol
 _atom_site_label
 _atom_site_symmetry_multiplicity
 _atom_site_fract_x
 _atom_site_fract_y
 _atom_site_fract_z
 _atom_site_occupancy
  Tb  Tb0  1  0.305914  0.305914  0.357449  1
  Tb  Tb1  1  0.694086  0.694086  0.642551  1
  Tb  Tb2  1  0.309321  0.309321  0.831874  1
  Tb  Tb3  1  0.690679  0.690679  0.168126  1
  Tb  Tb4  1  0.000000  0.000000  0.500000  1
  Cr  Cr5  1  0.757472  0.242528  0.000000  1
  Cr  Cr6  1  0.242528  0.757472  0.000000  1
  O  O7  1  0.897838  0.420525  0.920855  1
  O  O8  1  0.420525  0.897838  0.920855  1
  O  O9  1  0.102162  0.579475  0.079145  1
  O  O10  1  0.579475  0.102162  0.079145  1
  O  O11  1  0.096159  0.597189  0.576424  1
  O  O12  1  0.597189  0.096159  0.576424  1
  O  O13  1  0.903841  0.402811  0.423576  1
  O  O14  1  0.402811  0.903841  0.423576  1
  O  O15  1  0.000740  0.000740  0.824163  1
  O  O16  1  0.999260  0.999260  0.175837  1
  O  O17  1  0.499737  0.499737  0.820041  1
  O  O18  1  0.500263  0.500263  0.179959  1
