# generated using pymatgen
data_Hf8Ti4Ga11Te
_symmetry_space_group_name_H-M   'P 1'
_cell_length_a   5.53281500
_cell_length_b   8.53942645
_cell_length_c   9.11318431
_cell_angle_alpha   89.72520762
_cell_angle_beta   90.00000000
_cell_angle_gamma   90.00000000
_symmetry_Int_Tables_number   1
_chemical_formula_structural   Hf8Ti4Ga11Te
_chemical_formula_sum   'Hf8 Ti4 Ga11 Te1'
_cell_volume   430.56627559
_cell_formula_units_Z   1
loop_
 _symmetry_equiv_pos_site_id
 _symmetry_equiv_pos_as_xyz
  1  'x, y, z'
loop_
 _atom_site_type_symbol
 _atom_site_label
 _atom_site_symmetry_multiplicity
 _atom_site_fract_x
 _atom_site_fract_y
 _atom_site_fract_z
 _atom_site_occupancy
  Hf  Hf0  1  0.750000  0.473039  0.617868  1
  Hf  Hf1  1  0.250000  0.527017  0.381770  1
  Hf  Hf2  1  0.750000  0.973599  0.388645  1
  Hf  Hf3  1  0.250000  0.026800  0.619438  1
  Hf  Hf4  1  0.750000  0.373394  0.188965  1
  Hf  Hf5  1  0.250000  0.635660  0.814584  1
  Hf  Hf6  1  0.750000  0.860325  0.807080  1
  Hf  Hf7  1  0.250000  0.136302  0.189261  1
  Ti  Ti8  1  0.004687  0.741968  0.108331  1
  Ti  Ti9  1  0.496885  0.254650  0.889929  1
  Ti  Ti10  1  0.003115  0.254650  0.889929  1
  Ti  Ti11  1  0.495313  0.741968  0.108331  1
  Ga  Ga12  1  0.002909  0.748470  0.566719  1
  Ga  Ga13  1  0.500080  0.250912  0.432824  1
  Ga  Ga14  1  0.999920  0.250912  0.432824  1
  Ga  Ga15  1  0.497091  0.748470  0.566719  1
  Ga  Ga16  1  0.250000  0.951940  0.918403  1
  Ga  Ga17  1  0.750000  0.544462  0.918799  1
  Ga  Ga18  1  0.250000  0.455348  0.079796  1
  Ga  Ga19  1  0.750000  0.138237  0.660339  1
  Ga  Ga20  1  0.250000  0.862164  0.340774  1
  Ga  Ga21  1  0.750000  0.640651  0.342090  1
  Ga  Ga22  1  0.250000  0.364675  0.658714  1
  Te  Te23  1  0.750000  0.044386  0.077871  1
