# generated using pymatgen
data_Y8Cd2NiRu
_symmetry_space_group_name_H-M   'P 1'
_cell_length_a   9.63661135
_cell_length_b   9.63661245
_cell_length_c   9.69906800
_cell_angle_alpha   59.78537538
_cell_angle_beta   59.78537157
_cell_angle_gamma   59.60963185
_symmetry_Int_Tables_number   1
_chemical_formula_structural   Y8Cd2NiRu
_chemical_formula_sum   'Y16 Cd4 Ni2 Ru2'
_cell_volume   632.93319827
_cell_formula_units_Z   2
loop_
 _symmetry_equiv_pos_site_id
 _symmetry_equiv_pos_as_xyz
  1  'x, y, z'
loop_
 _atom_site_type_symbol
 _atom_site_label
 _atom_site_symmetry_multiplicity
 _atom_site_fract_x
 _atom_site_fract_y
 _atom_site_fract_z
 _atom_site_occupancy
  Y  Y0  1  0.349419  0.349419  0.344385  1
  Y  Y1  1  0.349419  0.349419  0.956777  1
  Y  Y2  1  0.352156  0.954703  0.346571  1
  Y  Y3  1  0.954703  0.352156  0.346571  1
  Y  Y4  1  0.811183  0.187244  0.189494  1
  Y  Y5  1  0.187244  0.811183  0.812079  1
  Y  Y6  1  0.187244  0.811183  0.189494  1
  Y  Y7  1  0.811183  0.187244  0.812079  1
  Y  Y8  1  0.187880  0.187880  0.812120  1
  Y  Y9  1  0.810583  0.810583  0.189417  1
  Y  Y10  1  0.937789  0.559846  0.565886  1
  Y  Y11  1  0.559846  0.937789  0.936479  1
  Y  Y12  1  0.559846  0.937789  0.565886  1
  Y  Y13  1  0.937789  0.559846  0.936479  1
  Y  Y14  1  0.564827  0.564827  0.935173  1
  Y  Y15  1  0.939984  0.939984  0.560016  1
  Cd  Cd16  1  0.579438  0.579438  0.582286  1
  Cd  Cd17  1  0.579438  0.579438  0.258839  1
  Cd  Cd18  1  0.579538  0.257013  0.581725  1
  Cd  Cd19  1  0.257013  0.579538  0.581725  1
  Ni  Ni20  1  0.142387  0.575430  0.141092  1
  Ni  Ni21  1  0.575430  0.142387  0.141092  1
  Ru  Ru22  1  0.142831  0.142831  0.140129  1
  Ru  Ru23  1  0.142831  0.142831  0.574208  1
