# generated using pymatgen
data_Pr4Y2(GaSn)5
_symmetry_space_group_name_H-M   'P 1'
_cell_length_a   6.41343126
_cell_length_b   6.41343110
_cell_length_c   10.09558800
_cell_angle_alpha   90.00000000
_cell_angle_beta   90.00000000
_cell_angle_gamma   102.50892087
_symmetry_Int_Tables_number   1
_chemical_formula_structural   Pr4Y2(GaSn)5
_chemical_formula_sum   'Pr4 Y2 Ga5 Sn5'
_cell_volume   405.39558350
_cell_formula_units_Z   1
loop_
 _symmetry_equiv_pos_site_id
 _symmetry_equiv_pos_as_xyz
  1  'x, y, z'
loop_
 _atom_site_type_symbol
 _atom_site_label
 _atom_site_symmetry_multiplicity
 _atom_site_fract_x
 _atom_site_fract_y
 _atom_site_fract_z
 _atom_site_occupancy
  Pr  Pr0  1  0.201196  0.798758  0.494945  1
  Pr  Pr1  1  0.201196  0.798758  0.005055  1
  Pr  Pr2  1  0.798758  0.201196  0.494945  1
  Pr  Pr3  1  0.798758  0.201196  0.005055  1
  Y  Y4  1  0.649968  0.649968  0.250000  1
  Y  Y5  1  0.363548  0.363548  0.750000  1
  Ga  Ga6  1  0.028203  0.028203  0.250000  1
  Ga  Ga7  1  0.313713  0.313713  0.045005  1
  Ga  Ga8  1  0.683316  0.683316  0.959505  1
  Ga  Ga9  1  0.313713  0.313713  0.454995  1
  Ga  Ga10  1  0.683316  0.683316  0.540495  1
  Sn  Sn11  1  0.978019  0.978019  0.750000  1
  Sn  Sn12  1  0.483429  0.089006  0.250000  1
  Sn  Sn13  1  0.908657  0.505202  0.750000  1
  Sn  Sn14  1  0.505202  0.908657  0.750000  1
  Sn  Sn15  1  0.089006  0.483429  0.250000  1
